MODEL 1
REMARK VINA RESULT:     -11.5      0.000      0.000
REMARK SMILES C=CCN(CC(=O)NCCCCNC(=O)c1ccc(-c2c3nc(c(-c4c(F)c(F)c(F)c(F)c4F)c4ccc([nH]4)c(-c4c(F)c(F)c(F)c(F)c4F)c4nc(c(-c5c(F)c(F)c(F)c(F)c5F)c5ccc2[nH]5)C=C4)C=C3)cc1)C(=O)N1CC[C@@H]([NH+]2CCCCC2)C1
REMARK SMILES IDX 9 1 8 2 6 3 7 4 5 6 4 7 3 8 2 9 1 10 79 11 80 12 81 13 82 14
REMARK SMILES IDX 91 15 83 16 84 17 85 18 86 19 90 20 87 22 89 23 88 24 10 25
REMARK SMILES IDX 11 26 12 27 13 28 14 29 15 31 16 32 17 33 78 34 18 35 77 36
REMARK SMILES IDX 19 37 20 38 21 39 71 40 22 41 76 42 70 43 72 44 23 45 75 46
REMARK SMILES IDX 69 47 68 48 24 50 56 51 36 52 55 53 37 54 40 55 54 56 73 57
REMARK SMILES IDX 38 58 39 59 53 61 74 62 41 63 25 64 26 65 34 66 27 67 28 68
REMARK SMILES IDX 32 69 35 70 29 71 30 72 33 73 31 74 57 75 58 76 66 77 59 78
REMARK SMILES IDX 60 79 64 80 67 81 61 82 62 83 65 84 63 85 42 86 43 87 51 88
REMARK SMILES IDX 44 89 45 90 49 91 52 92 46 93 47 94 50 95 48 96
REMARK H PARENT 8 5 85 21 13 30 72 49 40 60
REMARK Flexibility Score: inf
ROOT
ATOM      1  C   UNL A   1      37.320  22.335  25.331  1.00  0.00     0.116 C 
ENDROOT
BRANCH   1   2
ATOM      2  N   UNL A   1      36.428  22.792  26.367  1.00  0.00    -0.355 N 
ATOM      3  C   UNL A   1      35.220  23.417  26.266  1.00  0.00     0.239 C 
ATOM      4  O   UNL A   1      34.477  23.325  27.251  1.00  0.00    -0.273 OA
ATOM      5  H   UNL A   1      36.737  22.627  27.287  1.00  0.00     0.163 HD
BRANCH   3   6
ATOM      6  C   UNL A   1      34.733  24.169  25.000  1.00  0.00     0.221 C 
BRANCH   6   7
ATOM      7  N   UNL A   1      33.297  24.342  24.697  1.00  0.00    -0.312 N 
BRANCH   7   8
ATOM      8  C   UNL A   1      32.769  25.696  24.818  1.00  0.00     0.149 C 
BRANCH   8   9
ATOM      9  C   UNL A   1      31.991  25.897  26.083  1.00  0.00    -0.013 C 
ATOM     10  C   UNL A   1      30.655  25.804  26.126  1.00  0.00     0.006 C 
ENDBRANCH   8   9
ENDBRANCH   7   8
BRANCH   7  11
ATOM     11  C   UNL A   1      32.479  23.384  24.083  1.00  0.00     0.320 C 
ATOM     12  O   UNL A   1      31.638  23.680  23.235  1.00  0.00    -0.248 OA
BRANCH  11  13
ATOM     13  N   UNL A   1      32.666  22.073  24.418  1.00  0.00    -0.318 N 
ATOM     14  C   UNL A   1      32.157  21.438  25.590  1.00  0.00     0.128 C 
ATOM     15  C   UNL A   1      33.010  21.004  23.471  1.00  0.00     0.186 C 
ATOM     16  C   UNL A   1      33.164  20.339  25.791  1.00  0.00     0.088 C 
ATOM     17  C   UNL A   1      33.275  19.738  24.381  1.00  0.00     0.205 C 
BRANCH  17  18
ATOM     18  N   UNL A   1      32.449  18.538  24.114  1.00  0.00    -0.331 N 
ATOM     19  C   UNL A   1      32.160  17.620  25.219  1.00  0.00     0.262 C 
ATOM     20  C   UNL A   1      32.857  17.776  22.924  1.00  0.00     0.262 C 
ATOM     21  H   UNL A   1      31.558  19.005  23.940  1.00  0.00     0.348 HD
ATOM     22  C   UNL A   1      33.275  16.625  25.568  1.00  0.00     0.062 C 
ATOM     23  C   UNL A   1      34.033  16.819  23.126  1.00  0.00     0.062 C 
ATOM     24  C   UNL A   1      33.877  15.924  24.354  1.00  0.00     0.012 C 
ENDBRANCH  17  18
ENDBRANCH  11  13
ENDBRANCH   7  11
ENDBRANCH   6   7
ENDBRANCH   3   6
ENDBRANCH   1   2
BRANCH   1  25
ATOM     25  C   UNL A   1      36.965  20.972  24.740  1.00  0.00     0.023 C 
BRANCH  25  26
ATOM     26  C   UNL A   1      37.963  19.844  25.006  1.00  0.00     0.023 C 
BRANCH  26  27
ATOM     27  C   UNL A   1      39.236  20.229  25.751  1.00  0.00     0.116 C 
BRANCH  27  28
ATOM     28  N   UNL A   1      40.212  19.153  25.846  1.00  0.00    -0.352 N 
ATOM     29  C   UNL A   1      41.556  19.221  26.123  1.00  0.00     0.251 C 
ATOM     30  H   UNL A   1      39.859  18.248  25.688  1.00  0.00     0.163 HD
ATOM     31  O   UNL A   1      42.244  18.203  26.086  1.00  0.00    -0.269 OA
BRANCH  29  32
ATOM     32  C   UNL A   1      42.187  20.524  26.424  1.00  0.00     0.039 A 
ATOM     33  C   UNL A   1      42.678  21.291  25.364  1.00  0.00     0.014 A 
ATOM     34  C   UNL A   1      42.280  20.999  27.735  1.00  0.00     0.014 A 
ATOM     35  C   UNL A   1      43.189  22.567  25.611  1.00  0.00     0.010 A 
ATOM     36  C   UNL A   1      42.717  22.300  27.969  1.00  0.00     0.010 A 
ATOM     37  C   UNL A   1      43.173  23.099  26.910  1.00  0.00    -0.014 A 
BRANCH  37  38
ATOM     38  C   UNL A   1      43.615  24.493  27.177  1.00  0.00     0.031 A 
ATOM     39  C   UNL A   1      42.634  25.519  27.673  1.00  0.00     0.074 A 
ATOM     40  C   UNL A   1      44.887  24.852  26.910  1.00  0.00     0.049 A 
ATOM     41  N   UNL A   1      42.814  26.796  27.899  1.00  0.00    -0.248 NA
ATOM     42  C   UNL A   1      41.261  25.054  27.921  1.00  0.00     0.031 C 
ATOM     43  C   UNL A   1      45.923  23.962  26.383  1.00  0.00     0.029 A 
ATOM     44  N   UNL A   1      45.523  26.061  27.037  1.00  0.00    -0.354 N 
ATOM     45  C   UNL A   1      41.579  27.286  28.304  1.00  0.00     0.074 A 
ATOM     46  C   UNL A   1      40.645  26.184  28.237  1.00  0.00     0.031 C 
ATOM     47  C   UNL A   1      47.069  24.648  26.254  1.00  0.00     0.029 A 
ATOM     48  C   UNL A   1      46.840  26.035  26.648  1.00  0.00     0.049 A 
ATOM     49  H   UNL A   1      45.078  26.872  27.375  1.00  0.00     0.167 HD
ATOM     50  C   UNL A   1      41.260  28.535  28.719  1.00  0.00     0.037 A 
ATOM     51  C   UNL A   1      47.759  27.021  26.602  1.00  0.00     0.037 A 
ATOM     52  C   UNL A   1      42.198  29.626  28.803  1.00  0.00     0.049 A 
ATOM     53  C   UNL A   1      47.371  28.405  27.051  1.00  0.00     0.074 A 
ATOM     54  C   UNL A   1      41.984  30.913  29.264  1.00  0.00     0.029 A 
ATOM     55  N   UNL A   1      43.526  29.558  28.408  1.00  0.00    -0.354 N 
ATOM     56  N   UNL A   1      46.219  28.839  27.500  1.00  0.00    -0.248 NA
ATOM     57  C   UNL A   1      48.417  29.436  26.989  1.00  0.00     0.031 C 
ATOM     58  C   UNL A   1      43.166  31.640  29.094  1.00  0.00     0.029 A 
ATOM     59  C   UNL A   1      44.136  30.789  28.589  1.00  0.00     0.049 A 
ATOM     60  H   UNL A   1      43.970  28.754  28.052  1.00  0.00     0.167 HD
ATOM     61  C   UNL A   1      46.409  30.180  27.807  1.00  0.00     0.074 A 
ATOM     62  C   UNL A   1      47.792  30.485  27.505  1.00  0.00     0.031 C 
ATOM     63  C   UNL A   1      45.516  31.078  28.293  1.00  0.00     0.037 A 
BRANCH  50  64
ATOM     64  C   UNL A   1      39.834  28.794  29.117  1.00  0.00     0.064 A 
ATOM     65  C   UNL A   1      39.395  28.621  30.438  1.00  0.00     0.173 A 
ATOM     66  C   UNL A   1      38.904  29.259  28.175  1.00  0.00     0.173 A 
ATOM     67  F   UNL A   1      40.238  28.169  31.379  1.00  0.00    -0.203 F 
ATOM     68  C   UNL A   1      38.071  28.873  30.794  1.00  0.00     0.198 A 
ATOM     69  C   UNL A   1      37.591  29.542  28.540  1.00  0.00     0.198 A 
ATOM     70  F   UNL A   1      39.272  29.448  26.898  1.00  0.00    -0.203 F 
ATOM     71  F   UNL A   1      37.663  28.649  32.050  1.00  0.00    -0.200 F 
ATOM     72  C   UNL A   1      37.173  29.341  29.847  1.00  0.00     0.200 A 
ATOM     73  F   UNL A   1      36.729  30.010  27.627  1.00  0.00    -0.200 F 
ATOM     74  F   UNL A   1      35.903  29.591  30.192  1.00  0.00    -0.200 F 
ENDBRANCH  50  64
BRANCH  51  75
ATOM     75  C   UNL A   1      49.140  26.732  26.132  1.00  0.00     0.064 A 
ATOM     76  C   UNL A   1      50.112  26.233  27.012  1.00  0.00     0.173 A 
ATOM     77  C   UNL A   1      49.521  26.960  24.801  1.00  0.00     0.173 A 
ATOM     78  F   UNL A   1      49.801  26.018  28.299  1.00  0.00    -0.203 F 
ATOM     79  C   UNL A   1      51.418  25.999  26.587  1.00  0.00     0.198 A 
ATOM     80  C   UNL A   1      50.819  26.695  24.369  1.00  0.00     0.198 A 
ATOM     81  F   UNL A   1      48.630  27.431  23.919  1.00  0.00    -0.203 F 
ATOM     82  F   UNL A   1      52.339  25.576  27.461  1.00  0.00    -0.200 F 
ATOM     83  C   UNL A   1      51.769  26.225  25.264  1.00  0.00     0.200 A 
ATOM     84  F   UNL A   1      51.150  26.899  23.087  1.00  0.00    -0.200 F 
ATOM     85  F   UNL A   1      53.024  25.998  24.854  1.00  0.00    -0.200 F 
ENDBRANCH  51  75
BRANCH  63  86
ATOM     86  C   UNL A   1      46.017  32.467  28.571  1.00  0.00     0.064 A 
ATOM     87  C   UNL A   1      45.949  33.485  27.608  1.00  0.00     0.173 A 
ATOM     88  C   UNL A   1      46.537  32.792  29.834  1.00  0.00     0.173 A 
ATOM     89  F   UNL A   1      45.474  33.224  26.381  1.00  0.00    -0.203 F 
ATOM     90  C   UNL A   1      46.409  34.769  27.891  1.00  0.00     0.198 A 
ATOM     91  C   UNL A   1      46.964  34.085  30.123  1.00  0.00     0.198 A 
ATOM     92  F   UNL A   1      46.618  31.858  30.793  1.00  0.00    -0.203 F 
ATOM     93  F   UNL A   1      46.384  35.711  26.938  1.00  0.00    -0.200 F 
ATOM     94  C   UNL A   1      46.908  35.070  29.149  1.00  0.00     0.200 A 
ATOM     95  F   UNL A   1      47.430  34.378  31.346  1.00  0.00    -0.200 F 
ATOM     96  F   UNL A   1      47.343  36.308  29.421  1.00  0.00    -0.200 F 
ENDBRANCH  63  86
ENDBRANCH  37  38
ENDBRANCH  29  32
ENDBRANCH  27  28
ENDBRANCH  26  27
ENDBRANCH  25  26
ENDBRANCH   1  25
TORSDOF 17
ENDMDL
MODEL 2
REMARK VINA RESULT:     -11.5      0.584      7.339
REMARK SMILES C=CCN(CC(=O)NCCCCNC(=O)c1ccc(-c2c3nc(c(-c4c(F)c(F)c(F)c(F)c4F)c4ccc([nH]4)c(-c4c(F)c(F)c(F)c(F)c4F)c4nc(c(-c5c(F)c(F)c(F)c(F)c5F)c5ccc2[nH]5)C=C4)C=C3)cc1)C(=O)N1CC[C@@H]([NH+]2CCCCC2)C1
REMARK SMILES IDX 9 1 8 2 6 3 7 4 5 6 4 7 3 8 2 9 1 10 79 11 80 12 81 13 82 14
REMARK SMILES IDX 91 15 83 16 84 17 85 18 86 19 90 20 87 22 89 23 88 24 10 25
REMARK SMILES IDX 11 26 12 27 13 28 14 29 15 31 16 32 17 33 78 34 18 35 77 36
REMARK SMILES IDX 19 37 20 38 21 39 71 40 22 41 76 42 70 43 72 44 23 45 75 46
REMARK SMILES IDX 69 47 68 48 24 50 56 51 36 52 55 53 37 54 40 55 54 56 73 57
REMARK SMILES IDX 38 58 39 59 53 61 74 62 41 63 25 64 26 65 34 66 27 67 28 68
REMARK SMILES IDX 32 69 35 70 29 71 30 72 33 73 31 74 57 75 58 76 66 77 59 78
REMARK SMILES IDX 60 79 64 80 67 81 61 82 62 83 65 84 63 85 42 86 43 87 51 88
REMARK SMILES IDX 44 89 45 90 49 91 52 92 46 93 47 94 50 95 48 96
REMARK H PARENT 8 5 85 21 13 30 72 49 40 60
REMARK Flexibility Score: inf
ROOT
ATOM      1  C   UNL A   1      37.529  22.201  25.160  1.00  0.00     0.116 C 
ENDROOT
BRANCH   1   2
ATOM      2  N   UNL A   1      36.675  22.877  26.103  1.00  0.00    -0.355 N 
ATOM      3  C   UNL A   1      35.486  23.514  25.903  1.00  0.00     0.239 C 
ATOM      4  O   UNL A   1      34.761  23.638  26.899  1.00  0.00    -0.273 OA
ATOM      5  H   UNL A   1      36.999  22.880  27.033  1.00  0.00     0.163 HD
BRANCH   3   6
ATOM      6  C   UNL A   1      34.995  24.028  24.525  1.00  0.00     0.221 C 
BRANCH   6   7
ATOM      7  N   UNL A   1      33.592  24.430  24.294  1.00  0.00    -0.312 N 
BRANCH   7   8
ATOM      8  C   UNL A   1      33.376  25.807  23.864  1.00  0.00     0.149 C 
BRANCH   8   9
ATOM      9  C   UNL A   1      33.623  26.796  24.961  1.00  0.00    -0.013 C 
ATOM     10  C   UNL A   1      33.078  26.667  26.179  1.00  0.00     0.006 C 
ENDBRANCH   8   9
ENDBRANCH   7   8
BRANCH   7  11
ATOM     11  C   UNL A   1      32.502  23.553  24.219  1.00  0.00     0.320 C 
ATOM     12  O   UNL A   1      31.397  23.905  23.804  1.00  0.00    -0.248 OA
BRANCH  11  13
ATOM     13  N   UNL A   1      32.700  22.251  24.582  1.00  0.00    -0.318 N 
ATOM     14  C   UNL A   1      32.257  21.656  25.800  1.00  0.00     0.128 C 
ATOM     15  C   UNL A   1      32.982  21.151  23.650  1.00  0.00     0.186 C 
ATOM     16  C   UNL A   1      33.268  20.556  25.976  1.00  0.00     0.088 C 
ATOM     17  C   UNL A   1      33.293  19.912  24.580  1.00  0.00     0.205 C 
BRANCH  17  18
ATOM     18  N   UNL A   1      32.446  18.710  24.400  1.00  0.00    -0.331 N 
ATOM     19  C   UNL A   1      32.483  17.660  25.420  1.00  0.00     0.262 C 
ATOM     20  C   UNL A   1      32.529  18.109  23.059  1.00  0.00     0.262 C 
ATOM     21  H   UNL A   1      31.533  19.149  24.527  1.00  0.00     0.348 HD
ATOM     22  C   UNL A   1      33.667  16.688  25.334  1.00  0.00     0.062 C 
ATOM     23  C   UNL A   1      33.732  17.195  22.821  1.00  0.00     0.062 C 
ATOM     24  C   UNL A   1      33.929  16.160  23.926  1.00  0.00     0.012 C 
ENDBRANCH  17  18
ENDBRANCH  11  13
ENDBRANCH   7  11
ENDBRANCH   6   7
ENDBRANCH   3   6
ENDBRANCH   1   2
BRANCH   1  25
ATOM     25  C   UNL A   1      37.083  20.786  24.798  1.00  0.00     0.023 C 
BRANCH  25  26
ATOM     26  C   UNL A   1      38.108  19.675  25.037  1.00  0.00     0.023 C 
BRANCH  26  27
ATOM     27  C   UNL A   1      39.289  20.027  25.934  1.00  0.00     0.116 C 
BRANCH  27  28
ATOM     28  N   UNL A   1      40.357  19.039  25.919  1.00  0.00    -0.352 N 
ATOM     29  C   UNL A   1      41.707  19.215  26.100  1.00  0.00     0.251 C 
ATOM     30  H   UNL A   1      40.070  18.111  25.755  1.00  0.00     0.163 HD
ATOM     31  O   UNL A   1      42.474  18.263  25.976  1.00  0.00    -0.269 OA
BRANCH  29  32
ATOM     32  C   UNL A   1      42.247  20.559  26.400  1.00  0.00     0.039 A 
ATOM     33  C   UNL A   1      42.595  21.395  25.336  1.00  0.00     0.014 A 
ATOM     34  C   UNL A   1      42.392  21.003  27.717  1.00  0.00     0.014 A 
ATOM     35  C   UNL A   1      43.013  22.702  25.590  1.00  0.00     0.010 A 
ATOM     36  C   UNL A   1      42.734  22.330  27.965  1.00  0.00     0.010 A 
ATOM     37  C   UNL A   1      43.045  23.195  26.905  1.00  0.00    -0.014 A 
BRANCH  37  38
ATOM     38  C   UNL A   1      43.386  24.613  27.187  1.00  0.00     0.031 A 
ATOM     39  C   UNL A   1      44.785  25.117  26.963  1.00  0.00     0.074 A 
ATOM     40  C   UNL A   1      42.452  25.433  27.709  1.00  0.00     0.049 A 
ATOM     41  N   UNL A   1      45.291  26.299  27.213  1.00  0.00    -0.248 NA
ATOM     42  C   UNL A   1      45.752  24.156  26.410  1.00  0.00     0.031 C 
ATOM     43  C   UNL A   1      41.071  25.054  28.016  1.00  0.00     0.029 A 
ATOM     44  N   UNL A   1      42.522  26.753  28.081  1.00  0.00    -0.354 N 
ATOM     45  C   UNL A   1      46.631  26.219  26.858  1.00  0.00     0.074 A 
ATOM     46  C   UNL A   1      46.876  24.859  26.433  1.00  0.00     0.031 C 
ATOM     47  C   UNL A   1      40.421  26.120  28.507  1.00  0.00     0.029 A 
ATOM     48  C   UNL A   1      41.346  27.246  28.590  1.00  0.00     0.049 A 
ATOM     49  H   UNL A   1      43.340  27.294  27.992  1.00  0.00     0.167 HD
ATOM     50  C   UNL A   1      47.566  27.199  26.864  1.00  0.00     0.037 A 
ATOM     51  C   UNL A   1      41.047  28.466  29.079  1.00  0.00     0.037 A 
ATOM     52  C   UNL A   1      47.315  28.558  27.271  1.00  0.00     0.049 A 
ATOM     53  C   UNL A   1      42.112  29.531  29.091  1.00  0.00     0.074 A 
ATOM     54  C   UNL A   1      48.182  29.636  27.259  1.00  0.00     0.029 A 
ATOM     55  N   UNL A   1      46.107  29.022  27.772  1.00  0.00    -0.354 N 
ATOM     56  N   UNL A   1      43.357  29.464  28.686  1.00  0.00    -0.248 NA
ATOM     57  C   UNL A   1      41.726  30.844  29.626  1.00  0.00     0.031 C 
ATOM     58  C   UNL A   1      47.517  30.738  27.805  1.00  0.00     0.029 A 
ATOM     59  C   UNL A   1      46.215  30.365  28.098  1.00  0.00     0.049 A 
ATOM     60  H   UNL A   1      45.293  28.479  27.878  1.00  0.00     0.167 HD
ATOM     61  C   UNL A   1      43.892  30.730  28.884  1.00  0.00     0.074 A 
ATOM     62  C   UNL A   1      42.832  31.550  29.433  1.00  0.00     0.031 C 
ATOM     63  C   UNL A   1      45.150  31.172  28.635  1.00  0.00     0.037 A 
BRANCH  50  64
ATOM     64  C   UNL A   1      48.955  26.839  26.415  1.00  0.00     0.064 A 
ATOM     65  C   UNL A   1      49.893  26.283  27.297  1.00  0.00     0.173 A 
ATOM     66  C   UNL A   1      49.340  27.016  25.077  1.00  0.00     0.173 A 
ATOM     67  F   UNL A   1      49.583  26.101  28.590  1.00  0.00    -0.203 F 
ATOM     68  C   UNL A   1      51.174  25.946  26.864  1.00  0.00     0.198 A 
ATOM     69  C   UNL A   1      50.609  26.647  24.640  1.00  0.00     0.198 A 
ATOM     70  F   UNL A   1      48.480  27.538  24.189  1.00  0.00    -0.203 F 
ATOM     71  F   UNL A   1      52.070  25.466  27.738  1.00  0.00    -0.200 F 
ATOM     72  C   UNL A   1      51.528  26.120  25.535  1.00  0.00     0.200 A 
ATOM     73  F   UNL A   1      50.944  26.801  23.351  1.00  0.00    -0.200 F 
ATOM     74  F   UNL A   1      52.757  25.788  25.119  1.00  0.00    -0.200 F 
ENDBRANCH  50  64
BRANCH  51  75
ATOM     75  C   UNL A   1      39.677  28.754  29.579  1.00  0.00     0.064 A 
ATOM     76  C   UNL A   1      38.705  29.313  28.738  1.00  0.00     0.173 A 
ATOM     77  C   UNL A   1      39.315  28.491  30.909  1.00  0.00     0.173 A 
ATOM     78  F   UNL A   1      39.008  29.602  27.464  1.00  0.00    -0.203 F 
ATOM     79  C   UNL A   1      37.432  29.623  29.213  1.00  0.00     0.198 A 
ATOM     80  C   UNL A   1      38.032  28.771  31.375  1.00  0.00     0.198 A 
ATOM     81  F   UNL A   1      40.205  27.953  31.754  1.00  0.00    -0.203 F 
ATOM     82  F   UNL A   1      36.540  30.207  28.402  1.00  0.00    -0.200 F 
ATOM     83  C   UNL A   1      37.095  29.346  30.529  1.00  0.00     0.200 A 
ATOM     84  F   UNL A   1      37.705  28.487  32.642  1.00  0.00    -0.200 F 
ATOM     85  F   UNL A   1      35.870  29.641  30.986  1.00  0.00    -0.200 F 
ENDBRANCH  51  75
BRANCH  63  86
ATOM     86  C   UNL A   1      45.440  32.620  28.912  1.00  0.00     0.064 A 
ATOM     87  C   UNL A   1      45.975  33.047  30.137  1.00  0.00     0.173 A 
ATOM     88  C   UNL A   1      45.212  33.590  27.923  1.00  0.00     0.173 A 
ATOM     89  F   UNL A   1      46.198  32.164  31.121  1.00  0.00    -0.203 F 
ATOM     90  C   UNL A   1      46.246  34.393  30.369  1.00  0.00     0.198 A 
ATOM     91  C   UNL A   1      45.517  34.929  28.146  1.00  0.00     0.198 A 
ATOM     92  F   UNL A   1      44.708  33.235  26.731  1.00  0.00    -0.203 F 
ATOM     93  F   UNL A   1      46.706  34.784  31.565  1.00  0.00    -0.200 F 
ATOM     94  C   UNL A   1      46.024  35.331  29.372  1.00  0.00     0.200 A 
ATOM     95  F   UNL A   1      45.318  35.832  27.175  1.00  0.00    -0.200 F 
ATOM     96  F   UNL A   1      46.294  36.625  29.595  1.00  0.00    -0.200 F 
ENDBRANCH  63  86
ENDBRANCH  37  38
ENDBRANCH  29  32
ENDBRANCH  27  28
ENDBRANCH  26  27
ENDBRANCH  25  26
ENDBRANCH   1  25
TORSDOF 17
ENDMDL
MODEL 3
REMARK VINA RESULT:     -11.3      5.657     10.969
REMARK SMILES C=CCN(CC(=O)NCCCCNC(=O)c1ccc(-c2c3nc(c(-c4c(F)c(F)c(F)c(F)c4F)c4ccc([nH]4)c(-c4c(F)c(F)c(F)c(F)c4F)c4nc(c(-c5c(F)c(F)c(F)c(F)c5F)c5ccc2[nH]5)C=C4)C=C3)cc1)C(=O)N1CC[C@@H]([NH+]2CCCCC2)C1
REMARK SMILES IDX 9 1 8 2 6 3 7 4 5 6 4 7 3 8 2 9 1 10 79 11 80 12 81 13 82 14
REMARK SMILES IDX 91 15 83 16 84 17 85 18 86 19 90 20 87 22 89 23 88 24 10 25
REMARK SMILES IDX 11 26 12 27 13 28 14 29 15 31 16 32 17 33 78 34 18 35 77 36
REMARK SMILES IDX 19 37 20 38 21 39 71 40 22 41 76 42 70 43 72 44 23 45 75 46
REMARK SMILES IDX 69 47 68 48 24 50 56 51 36 52 55 53 37 54 40 55 54 56 73 57
REMARK SMILES IDX 38 58 39 59 53 61 74 62 41 63 25 64 26 65 34 66 27 67 28 68
REMARK SMILES IDX 32 69 35 70 29 71 30 72 33 73 31 74 57 75 58 76 66 77 59 78
REMARK SMILES IDX 60 79 64 80 67 81 61 82 62 83 65 84 63 85 42 86 43 87 51 88
REMARK SMILES IDX 44 89 45 90 49 91 52 92 46 93 47 94 50 95 48 96
REMARK H PARENT 8 5 85 21 13 30 72 49 40 60
REMARK Flexibility Score: inf
ROOT
ATOM      1  C   UNL A   1      31.601  29.696  25.515  1.00  0.00     0.116 C 
ENDROOT
BRANCH   1   2
ATOM      2  N   UNL A   1      32.779  29.487  24.712  1.00  0.00    -0.355 N 
ATOM      3  C   UNL A   1      32.905  28.918  23.479  1.00  0.00     0.239 C 
ATOM      4  O   UNL A   1      33.918  29.229  22.838  1.00  0.00    -0.273 OA
ATOM      5  H   UNL A   1      33.620  29.803  25.114  1.00  0.00     0.163 HD
BRANCH   3   6
ATOM      6  C   UNL A   1      31.853  27.971  22.846  1.00  0.00     0.221 C 
BRANCH   6   7
ATOM      7  N   UNL A   1      31.958  26.501  22.954  1.00  0.00    -0.312 N 
BRANCH   7   8
ATOM      8  C   UNL A   1      30.701  25.769  23.062  1.00  0.00     0.149 C 
BRANCH   8   9
ATOM      9  C   UNL A   1      29.831  26.283  24.167  1.00  0.00    -0.013 C 
ATOM     10  C   UNL A   1      28.530  26.552  23.989  1.00  0.00     0.006 C 
ENDBRANCH   8   9
ENDBRANCH   7   8
BRANCH   7  11
ATOM     11  C   UNL A   1      33.120  25.754  22.720  1.00  0.00     0.320 C 
ATOM     12  O   UNL A   1      33.891  26.002  21.793  1.00  0.00    -0.248 OA
BRANCH  11  13
ATOM     13  N   UNL A   1      33.418  24.744  23.591  1.00  0.00    -0.318 N 
ATOM     14  C   UNL A   1      33.860  23.439  23.222  1.00  0.00     0.128 C 
ATOM     15  C   UNL A   1      33.772  24.929  25.004  1.00  0.00     0.186 C 
ATOM     16  C   UNL A   1      33.377  22.624  24.391  1.00  0.00     0.088 C 
ATOM     17  C   UNL A   1      33.850  23.462  25.589  1.00  0.00     0.205 C 
BRANCH  17  18
ATOM     18  N   UNL A   1      35.134  23.056  26.206  1.00  0.00    -0.331 N 
ATOM     19  C   UNL A   1      36.354  23.777  25.837  1.00  0.00     0.262 C 
ATOM     20  C   UNL A   1      35.382  21.606  26.183  1.00  0.00     0.262 C 
ATOM     21  H   UNL A   1      34.944  23.360  27.162  1.00  0.00     0.348 HD
ATOM     22  C   UNL A   1      37.000  23.357  24.509  1.00  0.00     0.062 C 
ATOM     23  C   UNL A   1      35.934  21.053  24.868  1.00  0.00     0.062 C 
ATOM     24  C   UNL A   1      37.124  21.847  24.335  1.00  0.00     0.012 C 
ENDBRANCH  17  18
ENDBRANCH  11  13
ENDBRANCH   7  11
ENDBRANCH   6   7
ENDBRANCH   3   6
ENDBRANCH   1   2
BRANCH   1  25
ATOM     25  C   UNL A   1      31.847  30.442  26.825  1.00  0.00     0.023 C 
BRANCH  25  26
ATOM     26  C   UNL A   1      31.614  31.954  26.793  1.00  0.00     0.023 C 
BRANCH  26  27
ATOM     27  C   UNL A   1      32.803  32.829  27.173  1.00  0.00     0.116 C 
BRANCH  27  28
ATOM     28  N   UNL A   1      32.434  34.169  27.605  1.00  0.00    -0.352 N 
ATOM     29  C   UNL A   1      32.996  34.952  28.584  1.00  0.00     0.251 C 
ATOM     30  H   UNL A   1      31.673  34.571  27.127  1.00  0.00     0.163 HD
ATOM     31  O   UNL A   1      32.496  36.039  28.864  1.00  0.00    -0.269 OA
BRANCH  29  32
ATOM     32  C   UNL A   1      34.174  34.469  29.335  1.00  0.00     0.039 A 
ATOM     33  C   UNL A   1      33.973  33.844  30.569  1.00  0.00     0.014 A 
ATOM     34  C   UNL A   1      35.467  34.612  28.824  1.00  0.00     0.014 A 
ATOM     35  C   UNL A   1      35.059  33.292  31.251  1.00  0.00     0.010 A 
ATOM     36  C   UNL A   1      36.536  33.994  29.467  1.00  0.00     0.010 A 
ATOM     37  C   UNL A   1      36.344  33.324  30.685  1.00  0.00    -0.014 A 
BRANCH  37  38
ATOM     38  C   UNL A   1      37.493  32.652  31.346  1.00  0.00     0.031 A 
ATOM     39  C   UNL A   1      38.170  31.482  30.687  1.00  0.00     0.074 A 
ATOM     40  C   UNL A   1      37.887  33.053  32.571  1.00  0.00     0.049 A 
ATOM     41  N   UNL A   1      39.141  30.726  31.134  1.00  0.00    -0.248 NA
ATOM     42  C   UNL A   1      37.670  31.092  29.359  1.00  0.00     0.031 C 
ATOM     43  C   UNL A   1      37.283  34.145  33.337  1.00  0.00     0.029 A 
ATOM     44  N   UNL A   1      38.882  32.585  33.392  1.00  0.00    -0.354 N 
ATOM     45  C   UNL A   1      39.359  29.770  30.151  1.00  0.00     0.074 A 
ATOM     46  C   UNL A   1      38.382  30.003  29.110  1.00  0.00     0.031 C 
ATOM     47  C   UNL A   1      37.933  34.278  34.503  1.00  0.00     0.029 A 
ATOM     48  C   UNL A   1      38.972  33.255  34.588  1.00  0.00     0.049 A 
ATOM     49  H   UNL A   1      39.475  31.839  33.147  1.00  0.00     0.167 HD
ATOM     50  C   UNL A   1      40.306  28.802  30.109  1.00  0.00     0.037 A 
ATOM     51  C   UNL A   1      39.791  33.061  35.640  1.00  0.00     0.037 A 
ATOM     52  C   UNL A   1      41.290  28.585  31.138  1.00  0.00     0.049 A 
ATOM     53  C   UNL A   1      40.821  31.964  35.575  1.00  0.00     0.074 A 
ATOM     54  C   UNL A   1      42.325  27.666  31.161  1.00  0.00     0.029 A 
ATOM     55  N   UNL A   1      41.354  29.290  32.331  1.00  0.00    -0.354 N 
ATOM     56  N   UNL A   1      41.065  31.113  34.609  1.00  0.00    -0.248 NA
ATOM     57  C   UNL A   1      41.694  31.807  36.747  1.00  0.00     0.031 C 
ATOM     58  C   UNL A   1      42.980  27.777  32.392  1.00  0.00     0.029 A 
ATOM     59  C   UNL A   1      42.395  28.808  33.109  1.00  0.00     0.049 A 
ATOM     60  H   UNL A   1      40.751  30.025  32.586  1.00  0.00     0.167 HD
ATOM     61  C   UNL A   1      42.137  30.342  35.040  1.00  0.00     0.074 A 
ATOM     62  C   UNL A   1      42.506  30.837  36.349  1.00  0.00     0.031 C 
ATOM     63  C   UNL A   1      42.758  29.316  34.408  1.00  0.00     0.037 A 
BRANCH  50  64
ATOM     64  C   UNL A   1      40.325  27.899  28.907  1.00  0.00     0.064 A 
ATOM     65  C   UNL A   1      41.078  28.210  27.764  1.00  0.00     0.173 A 
ATOM     66  C   UNL A   1      39.615  26.689  28.913  1.00  0.00     0.173 A 
ATOM     67  F   UNL A   1      41.768  29.358  27.699  1.00  0.00    -0.203 F 
ATOM     68  C   UNL A   1      41.092  27.358  26.661  1.00  0.00     0.198 A 
ATOM     69  C   UNL A   1      39.659  25.824  27.823  1.00  0.00     0.198 A 
ATOM     70  F   UNL A   1      38.884  26.339  29.983  1.00  0.00    -0.203 F 
ATOM     71  F   UNL A   1      41.776  27.703  25.561  1.00  0.00    -0.200 F 
ATOM     72  C   UNL A   1      40.391  26.163  26.694  1.00  0.00     0.200 A 
ATOM     73  F   UNL A   1      38.993  24.662  27.863  1.00  0.00    -0.200 F 
ATOM     74  F   UNL A   1      40.413  25.341  25.637  1.00  0.00    -0.200 F 
ENDBRANCH  50  64
BRANCH  51  75
ATOM     75  C   UNL A   1      39.686  33.935  36.839  1.00  0.00     0.064 A 
ATOM     76  C   UNL A   1      38.881  33.573  37.928  1.00  0.00     0.173 A 
ATOM     77  C   UNL A   1      40.375  35.155  36.915  1.00  0.00     0.173 A 
ATOM     78  F   UNL A   1      38.187  32.425  37.894  1.00  0.00    -0.203 F 
ATOM     79  C   UNL A   1      38.747  34.407  39.036  1.00  0.00     0.198 A 
ATOM     80  C   UNL A   1      40.266  35.974  38.038  1.00  0.00     0.198 A 
ATOM     81  F   UNL A   1      41.162  35.547  35.904  1.00  0.00    -0.203 F 
ATOM     82  F   UNL A   1      37.929  34.061  40.038  1.00  0.00    -0.200 F 
ATOM     83  C   UNL A   1      39.445  35.604  39.092  1.00  0.00     0.200 A 
ATOM     84  F   UNL A   1      40.954  37.122  38.095  1.00  0.00    -0.200 F 
ATOM     85  F   UNL A   1      39.319  36.406  40.158  1.00  0.00    -0.200 F 
ENDBRANCH  51  75
BRANCH  63  86
ATOM     86  C   UNL A   1      43.931  28.685  35.103  1.00  0.00     0.064 A 
ATOM     87  C   UNL A   1      43.780  27.581  35.955  1.00  0.00     0.173 A 
ATOM     88  C   UNL A   1      45.229  29.172  34.884  1.00  0.00     0.173 A 
ATOM     89  F   UNL A   1      42.560  27.085  36.209  1.00  0.00    -0.203 F 
ATOM     90  C   UNL A   1      44.883  27.004  36.581  1.00  0.00     0.198 A 
ATOM     91  C   UNL A   1      46.332  28.572  35.485  1.00  0.00     0.198 A 
ATOM     92  F   UNL A   1      45.430  30.222  34.074  1.00  0.00    -0.203 F 
ATOM     93  F   UNL A   1      44.709  25.984  37.432  1.00  0.00    -0.200 F 
ATOM     94  C   UNL A   1      46.157  27.495  36.340  1.00  0.00     0.200 A 
ATOM     95  F   UNL A   1      47.565  29.037  35.237  1.00  0.00    -0.200 F 
ATOM     96  F   UNL A   1      47.218  26.934  36.938  1.00  0.00    -0.200 F 
ENDBRANCH  63  86
ENDBRANCH  37  38
ENDBRANCH  29  32
ENDBRANCH  27  28
ENDBRANCH  26  27
ENDBRANCH  25  26
ENDBRANCH   1  25
TORSDOF 17
ENDMDL
