MODEL 1
REMARK VINA RESULT:     -13.4      0.000      0.000
REMARK SMILES C[C@H]1CN(C(=O)N2CC[NH+]([C@@H](C)C(=O)NCCCCNC(=O)c3ccc(-c4c5nc(c(-c6c(F)c(F)c(F)c(F)c6F)c6ccc([nH]6)c(-c6c(F)c(F)c(F)c(F)c6F)c6nc(c(-c7c(F)c(F)c(F)c(F)c7F)c7ccc4[nH]7)C=C6)C=C5)cc3)CC2)C[C@@H]1C
REMARK SMILES IDX 18 1 17 2 16 3 15 4 13 5 14 6 11 8 12 9 10 10 1 11 2 12 3 13
REMARK SMILES IDX 89 14 4 15 88 16 90 17 5 18 6 19 7 20 8 21 87 22 9 23 86 24
REMARK SMILES IDX 19 26 20 27 21 28 22 30 23 31 24 32 85 33 25 34 84 35 26 36
REMARK SMILES IDX 27 37 28 38 78 39 29 40 83 41 77 42 79 43 30 44 82 45 76 46
REMARK SMILES IDX 75 47 31 49 63 50 43 51 62 52 44 53 47 54 61 55 80 56 45 57
REMARK SMILES IDX 46 58 60 60 81 61 48 62 32 63 33 64 41 65 34 66 35 67 39 68
REMARK SMILES IDX 42 69 36 70 37 71 40 72 38 73 64 74 65 75 73 76 66 77 67 78
REMARK SMILES IDX 71 79 74 80 68 81 69 82 72 83 70 84 49 85 50 86 58 87 51 88
REMARK SMILES IDX 52 89 56 90 59 91 53 92 54 93 57 94 55 95
REMARK H PARENT 15 7 10 25 20 29 79 48 47 59
REMARK Flexibility Score: inf
ROOT
ATOM      1  C   UNL A   1      31.718  31.996  26.812  1.00  0.00     0.023 C 
ENDROOT
BRANCH   1   2
ATOM      2  C   UNL A   1      32.093  30.545  26.554  1.00  0.00     0.023 C 
BRANCH   2   3
ATOM      3  C   UNL A   1      31.463  29.916  25.304  1.00  0.00     0.116 C 
BRANCH   3   4
ATOM      4  N   UNL A   1      32.444  29.729  24.254  1.00  0.00    -0.351 N 
ATOM      5  C   UNL A   1      32.545  28.832  23.230  1.00  0.00     0.278 C 
ATOM      6  O   UNL A   1      33.605  28.876  22.592  1.00  0.00    -0.268 OA
ATOM      7  H   UNL A   1      33.185  30.377  24.285  1.00  0.00     0.163 HD
BRANCH   5   8
ATOM      8  C   UNL A   1      31.431  27.822  22.825  1.00  0.00     0.271 C 
ATOM      9  C   UNL A   1      30.142  28.475  22.335  1.00  0.00     0.086 C 
BRANCH   8  10
ATOM     10  N   UNL A   1      31.362  26.632  23.709  1.00  0.00    -0.322 N 
ATOM     11  C   UNL A   1      34.081  21.401  27.519  1.00  0.00     0.010 C 
ATOM     12  C   UNL A   1      33.253  21.230  26.245  1.00  0.00     0.010 C 
ATOM     13  C   UNL A   1      33.092  22.564  25.518  1.00  0.00     0.125 C 
ATOM     14  C   UNL A   1      33.970  20.352  25.200  1.00  0.00     0.010 C 
ATOM     15  N   UNL A   1      34.187  22.602  24.558  1.00  0.00    -0.324 N 
ATOM     16  C   UNL A   1      34.908  21.344  24.504  1.00  0.00     0.125 C 
ATOM     17  C   UNL A   1      32.976  19.751  24.198  1.00  0.00     0.010 C 
ATOM     18  C   UNL A   1      34.402  23.606  23.644  1.00  0.00     0.320 C 
ATOM     19  O   UNL A   1      35.266  23.572  22.775  1.00  0.00    -0.248 OA
ATOM     20  N   UNL A   1      33.448  24.594  23.698  1.00  0.00    -0.313 N 
ATOM     21  C   UNL A   1      32.521  24.687  22.592  1.00  0.00     0.183 C 
ATOM     22  C   UNL A   1      33.705  25.838  24.408  1.00  0.00     0.183 C 
ATOM     23  C   UNL A   1      31.217  25.316  23.086  1.00  0.00     0.284 C 
ATOM     24  C   UNL A   1      32.391  26.574  24.768  1.00  0.00     0.284 C 
ATOM     25  H   UNL A   1      30.456  26.824  24.136  1.00  0.00     0.348 HD
ENDBRANCH   8  10
ENDBRANCH   5   8
ENDBRANCH   3   4
ENDBRANCH   2   3
ENDBRANCH   1   2
BRANCH   1  26
ATOM     26  C   UNL A   1      32.838  32.852  27.373  1.00  0.00     0.116 C 
BRANCH  26  27
ATOM     27  N   UNL A   1      32.438  34.211  27.715  1.00  0.00    -0.352 N 
ATOM     28  C   UNL A   1      32.994  35.047  28.660  1.00  0.00     0.251 C 
ATOM     29  H   UNL A   1      31.677  34.577  27.210  1.00  0.00     0.163 HD
ATOM     30  O   UNL A   1      32.514  36.146  28.895  1.00  0.00    -0.269 OA
BRANCH  28  31
ATOM     31  C   UNL A   1      34.156  34.559  29.431  1.00  0.00     0.039 A 
ATOM     32  C   UNL A   1      33.935  33.911  30.648  1.00  0.00     0.014 A 
ATOM     33  C   UNL A   1      35.441  34.639  28.888  1.00  0.00     0.014 A 
ATOM     34  C   UNL A   1      34.995  33.254  31.274  1.00  0.00     0.010 A 
ATOM     35  C   UNL A   1      36.468  33.903  29.461  1.00  0.00     0.010 A 
ATOM     36  C   UNL A   1      36.256  33.200  30.657  1.00  0.00    -0.014 A 
BRANCH  36  37
ATOM     37  C   UNL A   1      37.375  32.422  31.242  1.00  0.00     0.031 A 
ATOM     38  C   UNL A   1      37.873  32.760  32.618  1.00  0.00     0.074 A 
ATOM     39  C   UNL A   1      37.999  31.483  30.505  1.00  0.00     0.049 A 
ATOM     40  N   UNL A   1      38.906  32.284  33.266  1.00  0.00    -0.248 NA
ATOM     41  C   UNL A   1      37.139  33.807  33.347  1.00  0.00     0.031 C 
ATOM     42  C   UNL A   1      37.655  31.113  29.131  1.00  0.00     0.029 A 
ATOM     43  N   UNL A   1      39.066  30.675  30.806  1.00  0.00    -0.354 N 
ATOM     44  C   UNL A   1      38.961  32.995  34.457  1.00  0.00     0.074 A 
ATOM     45  C   UNL A   1      37.895  33.972  34.420  1.00  0.00     0.031 C 
ATOM     46  C   UNL A   1      38.476  30.133  28.719  1.00  0.00     0.029 A 
ATOM     47  C   UNL A   1      39.425  29.830  29.785  1.00  0.00     0.049 A 
ATOM     48  H   UNL A   1      39.532  30.699  31.673  1.00  0.00     0.167 HD
ATOM     49  C   UNL A   1      39.807  32.830  35.501  1.00  0.00     0.037 A 
ATOM     50  C   UNL A   1      40.408  28.911  29.721  1.00  0.00     0.037 A 
ATOM     51  C   UNL A   1      40.827  31.819  35.558  1.00  0.00     0.049 A 
ATOM     52  C   UNL A   1      41.300  28.709  30.916  1.00  0.00     0.074 A 
ATOM     53  C   UNL A   1      41.681  31.512  36.601  1.00  0.00     0.029 A 
ATOM     54  N   UNL A   1      41.120  30.941  34.525  1.00  0.00    -0.354 N 
ATOM     55  N   UNL A   1      41.298  29.339  32.064  1.00  0.00    -0.248 NA
ATOM     56  C   UNL A   1      42.324  27.661  30.807  1.00  0.00     0.031 C 
ATOM     57  C   UNL A   1      42.512  30.465  36.190  1.00  0.00     0.029 A 
ATOM     58  C   UNL A   1      42.150  30.096  34.905  1.00  0.00     0.049 A 
ATOM     59  H   UNL A   1      40.665  30.920  33.653  1.00  0.00     0.167 HD
ATOM     60  C   UNL A   1      42.299  28.751  32.824  1.00  0.00     0.074 A 
ATOM     61  C   UNL A   1      42.881  27.704  32.009  1.00  0.00     0.031 C 
ATOM     62  C   UNL A   1      42.704  29.052  34.082  1.00  0.00     0.037 A 
BRANCH  49  63
ATOM     63  C   UNL A   1      39.647  33.755  36.670  1.00  0.00     0.064 A 
ATOM     64  C   UNL A   1      38.857  33.409  37.778  1.00  0.00     0.173 A 
ATOM     65  C   UNL A   1      40.300  34.996  36.691  1.00  0.00     0.173 A 
ATOM     66  F   UNL A   1      38.198  32.241  37.798  1.00  0.00    -0.203 F 
ATOM     67  C   UNL A   1      38.701  34.286  38.848  1.00  0.00     0.198 A 
ATOM     68  C   UNL A   1      40.166  35.857  37.777  1.00  0.00     0.198 A 
ATOM     69  F   UNL A   1      41.068  35.373  35.659  1.00  0.00    -0.203 F 
ATOM     70  F   UNL A   1      37.897  33.957  39.869  1.00  0.00    -0.200 F 
ATOM     71  C   UNL A   1      39.360  35.505  38.850  1.00  0.00     0.200 A 
ATOM     72  F   UNL A   1      40.810  37.032  37.782  1.00  0.00    -0.200 F 
ATOM     73  F   UNL A   1      39.210  36.347  39.881  1.00  0.00    -0.200 F 
ENDBRANCH  49  63
BRANCH  50  74
ATOM     74  C   UNL A   1      40.573  28.084  28.498  1.00  0.00     0.064 A 
ATOM     75  C   UNL A   1      39.949  26.833  28.392  1.00  0.00     0.173 A 
ATOM     76  C   UNL A   1      41.354  28.519  27.418  1.00  0.00     0.173 A 
ATOM     77  F   UNL A   1      39.209  26.367  29.408  1.00  0.00    -0.203 F 
ATOM     78  C   UNL A   1      40.113  26.040  27.258  1.00  0.00     0.198 A 
ATOM     79  C   UNL A   1      41.498  27.736  26.275  1.00  0.00     0.198 A 
ATOM     80  F   UNL A   1      41.966  29.710  27.469  1.00  0.00    -0.203 F 
ATOM     81  F   UNL A   1      39.538  24.832  27.199  1.00  0.00    -0.200 F 
ATOM     82  C   UNL A   1      40.884  26.494  26.198  1.00  0.00     0.200 A 
ATOM     83  F   UNL A   1      42.235  28.182  25.247  1.00  0.00    -0.200 F 
ATOM     84  F   UNL A   1      41.041  25.732  25.107  1.00  0.00    -0.200 F 
ENDBRANCH  50  74
BRANCH  62  85
ATOM     85  C   UNL A   1      43.803  28.219  34.666  1.00  0.00     0.064 A 
ATOM     86  C   UNL A   1      45.142  28.633  34.616  1.00  0.00     0.173 A 
ATOM     87  C   UNL A   1      43.507  27.018  35.327  1.00  0.00     0.173 A 
ATOM     88  F   UNL A   1      45.474  29.767  33.981  1.00  0.00    -0.203 F 
ATOM     89  C   UNL A   1      46.148  27.863  35.191  1.00  0.00     0.198 A 
ATOM     90  C   UNL A   1      44.513  26.262  35.923  1.00  0.00     0.198 A 
ATOM     91  F   UNL A   1      42.241  26.583  35.406  1.00  0.00    -0.203 F 
ATOM     92  F   UNL A   1      47.426  28.258  35.099  1.00  0.00    -0.200 F 
ATOM     93  C   UNL A   1      45.833  26.683  35.850  1.00  0.00     0.200 A 
ATOM     94  F   UNL A   1      44.207  25.129  36.568  1.00  0.00    -0.200 F 
ATOM     95  F   UNL A   1      46.803  25.948  36.410  1.00  0.00    -0.200 F 
ENDBRANCH  62  85
ENDBRANCH  36  37
ENDBRANCH  28  31
ENDBRANCH  26  27
ENDBRANCH   1  26
TORSDOF 12
ENDMDL
MODEL 2
REMARK VINA RESULT:     -13.3      0.151      1.590
REMARK SMILES C[C@H]1CN(C(=O)N2CC[NH+]([C@@H](C)C(=O)NCCCCNC(=O)c3ccc(-c4c5nc(c(-c6c(F)c(F)c(F)c(F)c6F)c6ccc([nH]6)c(-c6c(F)c(F)c(F)c(F)c6F)c6nc(c(-c7c(F)c(F)c(F)c(F)c7F)c7ccc4[nH]7)C=C6)C=C5)cc3)CC2)C[C@@H]1C
REMARK SMILES IDX 18 1 17 2 16 3 15 4 13 5 14 6 11 8 12 9 10 10 1 11 2 12 3 13
REMARK SMILES IDX 89 14 4 15 88 16 90 17 5 18 6 19 7 20 8 21 87 22 9 23 86 24
REMARK SMILES IDX 19 26 20 27 21 28 22 30 23 31 24 32 85 33 25 34 84 35 26 36
REMARK SMILES IDX 27 37 28 38 78 39 29 40 83 41 77 42 79 43 30 44 82 45 76 46
REMARK SMILES IDX 75 47 31 49 63 50 43 51 62 52 44 53 47 54 61 55 80 56 45 57
REMARK SMILES IDX 46 58 60 60 81 61 48 62 32 63 33 64 41 65 34 66 35 67 39 68
REMARK SMILES IDX 42 69 36 70 37 71 40 72 38 73 64 74 65 75 73 76 66 77 67 78
REMARK SMILES IDX 71 79 74 80 68 81 69 82 72 83 70 84 49 85 50 86 58 87 51 88
REMARK SMILES IDX 52 89 56 90 59 91 53 92 54 93 57 94 55 95
REMARK H PARENT 15 7 10 25 20 29 79 48 47 59
REMARK Flexibility Score: inf
ROOT
ATOM      1  C   UNL A   1      31.733  31.893  26.874  1.00  0.00     0.023 C 
ENDROOT
BRANCH   1   2
ATOM      2  C   UNL A   1      32.134  30.501  26.414  1.00  0.00     0.023 C 
BRANCH   2   3
ATOM      3  C   UNL A   1      31.416  29.992  25.156  1.00  0.00     0.116 C 
BRANCH   3   4
ATOM      4  N   UNL A   1      32.356  29.703  24.092  1.00  0.00    -0.351 N 
ATOM      5  C   UNL A   1      32.388  28.745  23.121  1.00  0.00     0.278 C 
ATOM      6  O   UNL A   1      33.429  28.706  22.451  1.00  0.00    -0.268 OA
ATOM      7  H   UNL A   1      33.123  30.319  24.063  1.00  0.00     0.163 HD
BRANCH   5   8
ATOM      8  C   UNL A   1      31.222  27.761  22.808  1.00  0.00     0.271 C 
ATOM      9  C   UNL A   1      29.919  28.445  22.399  1.00  0.00     0.086 C 
BRANCH   8  10
ATOM     10  N   UNL A   1      31.182  26.585  23.710  1.00  0.00    -0.322 N 
ATOM     11  C   UNL A   1      34.030  21.453  27.561  1.00  0.00     0.010 C 
ATOM     12  C   UNL A   1      33.187  21.250  26.301  1.00  0.00     0.010 C 
ATOM     13  C   UNL A   1      32.997  22.570  25.556  1.00  0.00     0.125 C 
ATOM     14  C   UNL A   1      33.902  20.366  25.259  1.00  0.00     0.010 C 
ATOM     15  N   UNL A   1      34.077  22.610  24.581  1.00  0.00    -0.324 N 
ATOM     16  C   UNL A   1      34.816  21.361  24.536  1.00  0.00     0.125 C 
ATOM     17  C   UNL A   1      32.904  19.737  24.280  1.00  0.00     0.010 C 
ATOM     18  C   UNL A   1      34.265  23.602  23.648  1.00  0.00     0.320 C 
ATOM     19  O   UNL A   1      35.118  23.568  22.768  1.00  0.00    -0.248 OA
ATOM     20  N   UNL A   1      33.297  24.578  23.701  1.00  0.00    -0.313 N 
ATOM     21  C   UNL A   1      32.355  24.640  22.607  1.00  0.00     0.183 C 
ATOM     22  C   UNL A   1      33.546  25.836  24.388  1.00  0.00     0.183 C 
ATOM     23  C   UNL A   1      31.048  25.258  23.109  1.00  0.00     0.284 C 
ATOM     24  C   UNL A   1      32.226  26.558  24.756  1.00  0.00     0.284 C 
ATOM     25  H   UNL A   1      30.280  26.770  24.146  1.00  0.00     0.348 HD
ENDBRANCH   8  10
ENDBRANCH   5   8
ENDBRANCH   3   4
ENDBRANCH   2   3
ENDBRANCH   1   2
BRANCH   1  26
ATOM     26  C   UNL A   1      32.890  32.782  27.293  1.00  0.00     0.116 C 
BRANCH  26  27
ATOM     27  N   UNL A   1      32.506  34.148  27.623  1.00  0.00    -0.352 N 
ATOM     28  C   UNL A   1      33.061  34.981  28.572  1.00  0.00     0.251 C 
ATOM     29  H   UNL A   1      31.757  34.523  27.106  1.00  0.00     0.163 HD
ATOM     30  O   UNL A   1      32.594  36.088  28.794  1.00  0.00    -0.269 OA
BRANCH  28  31
ATOM     31  C   UNL A   1      34.204  34.479  29.362  1.00  0.00     0.039 A 
ATOM     32  C   UNL A   1      33.954  33.785  30.547  1.00  0.00     0.014 A 
ATOM     33  C   UNL A   1      35.504  34.593  28.863  1.00  0.00     0.014 A 
ATOM     34  C   UNL A   1      35.002  33.119  31.183  1.00  0.00     0.010 A 
ATOM     35  C   UNL A   1      36.523  33.850  29.442  1.00  0.00     0.010 A 
ATOM     36  C   UNL A   1      36.282  33.102  30.605  1.00  0.00    -0.014 A 
BRANCH  36  37
ATOM     37  C   UNL A   1      37.393  32.317  31.198  1.00  0.00     0.031 A 
ATOM     38  C   UNL A   1      37.877  32.646  32.581  1.00  0.00     0.074 A 
ATOM     39  C   UNL A   1      38.022  31.381  30.462  1.00  0.00     0.049 A 
ATOM     40  N   UNL A   1      38.901  32.162  33.237  1.00  0.00    -0.248 NA
ATOM     41  C   UNL A   1      37.137  33.691  33.308  1.00  0.00     0.031 C 
ATOM     42  C   UNL A   1      37.692  31.020  29.081  1.00  0.00     0.029 A 
ATOM     43  N   UNL A   1      39.083  30.567  30.770  1.00  0.00    -0.354 N 
ATOM     44  C   UNL A   1      38.945  32.866  34.433  1.00  0.00     0.074 A 
ATOM     45  C   UNL A   1      37.883  33.847  34.391  1.00  0.00     0.031 C 
ATOM     46  C   UNL A   1      38.515  30.041  28.673  1.00  0.00     0.029 A 
ATOM     47  C   UNL A   1      39.450  29.727  29.747  1.00  0.00     0.049 A 
ATOM     48  H   UNL A   1      39.540  30.585  31.641  1.00  0.00     0.167 HD
ATOM     49  C   UNL A   1      39.778  32.692  35.485  1.00  0.00     0.037 A 
ATOM     50  C   UNL A   1      40.431  28.806  29.688  1.00  0.00     0.037 A 
ATOM     51  C   UNL A   1      40.795  31.677  35.548  1.00  0.00     0.049 A 
ATOM     52  C   UNL A   1      41.309  28.594  30.892  1.00  0.00     0.074 A 
ATOM     53  C   UNL A   1      41.637  31.362  36.598  1.00  0.00     0.029 A 
ATOM     54  N   UNL A   1      41.097  30.805  34.513  1.00  0.00    -0.354 N 
ATOM     55  N   UNL A   1      41.296  29.217  32.044  1.00  0.00    -0.248 NA
ATOM     56  C   UNL A   1      42.332  27.543  30.788  1.00  0.00     0.031 C 
ATOM     57  C   UNL A   1      42.468  30.314  36.190  1.00  0.00     0.029 A 
ATOM     58  C   UNL A   1      42.120  29.954  34.898  1.00  0.00     0.049 A 
ATOM     59  H   UNL A   1      40.651  30.791  33.635  1.00  0.00     0.167 HD
ATOM     60  C   UNL A   1      42.287  28.621  32.811  1.00  0.00     0.074 A 
ATOM     61  C   UNL A   1      42.875  27.577  31.996  1.00  0.00     0.031 C 
ATOM     62  C   UNL A   1      42.680  28.913  34.075  1.00  0.00     0.037 A 
BRANCH  49  63
ATOM     63  C   UNL A   1      39.609  33.610  36.658  1.00  0.00     0.064 A 
ATOM     64  C   UNL A   1      40.273  34.845  36.726  1.00  0.00     0.173 A 
ATOM     65  C   UNL A   1      38.762  33.260  37.721  1.00  0.00     0.173 A 
ATOM     66  F   UNL A   1      41.107  35.217  35.743  1.00  0.00    -0.203 F 
ATOM     67  C   UNL A   1      40.122  35.679  37.830  1.00  0.00     0.198 A 
ATOM     68  C   UNL A   1      38.591  34.112  38.809  1.00  0.00     0.198 A 
ATOM     69  F   UNL A   1      38.103  32.093  37.703  1.00  0.00    -0.203 F 
ATOM     70  F   UNL A   1      40.810  36.827  37.899  1.00  0.00    -0.200 F 
ATOM     71  C   UNL A   1      39.277  35.315  38.867  1.00  0.00     0.200 A 
ATOM     72  F   UNL A   1      37.767  33.763  39.807  1.00  0.00    -0.200 F 
ATOM     73  F   UNL A   1      39.132  36.121  39.928  1.00  0.00    -0.200 F 
ENDBRANCH  49  63
BRANCH  50  74
ATOM     74  C   UNL A   1      40.607  27.986  28.462  1.00  0.00     0.064 A 
ATOM     75  C   UNL A   1      41.403  28.444  27.403  1.00  0.00     0.173 A 
ATOM     76  C   UNL A   1      39.988  26.736  28.322  1.00  0.00     0.173 A 
ATOM     77  F   UNL A   1      41.999  29.643  27.485  1.00  0.00    -0.203 F 
ATOM     78  C   UNL A   1      41.558  27.692  26.241  1.00  0.00     0.198 A 
ATOM     79  C   UNL A   1      40.163  25.974  27.168  1.00  0.00     0.198 A 
ATOM     80  F   UNL A   1      39.222  26.251  29.309  1.00  0.00    -0.203 F 
ATOM     81  F   UNL A   1      42.292  28.172  25.228  1.00  0.00    -0.200 F 
ATOM     82  C   UNL A   1      40.942  26.454  26.126  1.00  0.00     0.200 A 
ATOM     83  F   UNL A   1      39.574  24.774  27.065  1.00  0.00    -0.200 F 
ATOM     84  F   UNL A   1      41.093  25.730  25.009  1.00  0.00    -0.200 F 
ENDBRANCH  50  74
BRANCH  62  85
ATOM     85  C   UNL A   1      43.770  28.073  34.666  1.00  0.00     0.064 A 
ATOM     86  C   UNL A   1      45.114  28.466  34.601  1.00  0.00     0.173 A 
ATOM     87  C   UNL A   1      43.459  26.887  35.349  1.00  0.00     0.173 A 
ATOM     88  F   UNL A   1      45.459  29.584  33.946  1.00  0.00    -0.203 F 
ATOM     89  C   UNL A   1      46.112  27.690  35.183  1.00  0.00     0.198 A 
ATOM     90  C   UNL A   1      44.458  26.127  35.951  1.00  0.00     0.198 A 
ATOM     91  F   UNL A   1      42.187  26.474  35.442  1.00  0.00    -0.203 F 
ATOM     92  F   UNL A   1      47.395  28.064  35.078  1.00  0.00    -0.200 F 
ATOM     93  C   UNL A   1      45.783  26.526  35.863  1.00  0.00     0.200 A 
ATOM     94  F   UNL A   1      44.138  25.009  36.616  1.00  0.00    -0.200 F 
ATOM     95  F   UNL A   1      46.746  25.786  36.430  1.00  0.00    -0.200 F 
ENDBRANCH  62  85
ENDBRANCH  36  37
ENDBRANCH  28  31
ENDBRANCH  26  27
ENDBRANCH   1  26
TORSDOF 12
ENDMDL
MODEL 3
REMARK VINA RESULT:     -13.2      5.306     11.270
REMARK SMILES C[C@H]1CN(C(=O)N2CC[NH+]([C@@H](C)C(=O)NCCCCNC(=O)c3ccc(-c4c5nc(c(-c6c(F)c(F)c(F)c(F)c6F)c6ccc([nH]6)c(-c6c(F)c(F)c(F)c(F)c6F)c6nc(c(-c7c(F)c(F)c(F)c(F)c7F)c7ccc4[nH]7)C=C6)C=C5)cc3)CC2)C[C@@H]1C
REMARK SMILES IDX 18 1 17 2 16 3 15 4 13 5 14 6 11 8 12 9 10 10 1 11 2 12 3 13
REMARK SMILES IDX 89 14 4 15 88 16 90 17 5 18 6 19 7 20 8 21 87 22 9 23 86 24
REMARK SMILES IDX 19 26 20 27 21 28 22 30 23 31 24 32 85 33 25 34 84 35 26 36
REMARK SMILES IDX 27 37 28 38 78 39 29 40 83 41 77 42 79 43 30 44 82 45 76 46
REMARK SMILES IDX 75 47 31 49 63 50 43 51 62 52 44 53 47 54 61 55 80 56 45 57
REMARK SMILES IDX 46 58 60 60 81 61 48 62 32 63 33 64 41 65 34 66 35 67 39 68
REMARK SMILES IDX 42 69 36 70 37 71 40 72 38 73 64 74 65 75 73 76 66 77 67 78
REMARK SMILES IDX 71 79 74 80 68 81 69 82 72 83 70 84 49 85 50 86 58 87 51 88
REMARK SMILES IDX 52 89 56 90 59 91 53 92 54 93 57 94 55 95
REMARK H PARENT 15 7 10 25 20 29 79 48 47 59
REMARK Flexibility Score: inf
ROOT
ATOM      1  C   UNL A   1      38.415  19.889  25.048  1.00  0.00     0.023 C 
ENDROOT
BRANCH   1   2
ATOM      2  C   UNL A   1      37.432  21.048  25.025  1.00  0.00     0.023 C 
BRANCH   2   3
ATOM      3  C   UNL A   1      35.950  20.652  24.971  1.00  0.00     0.116 C 
BRANCH   3   4
ATOM      4  N   UNL A   1      35.281  20.937  26.224  1.00  0.00    -0.351 N 
ATOM      5  C   UNL A   1      33.994  21.275  26.530  1.00  0.00     0.278 C 
ATOM      6  O   UNL A   1      33.797  21.587  27.712  1.00  0.00    -0.268 OA
ATOM      7  H   UNL A   1      35.870  20.876  27.010  1.00  0.00     0.163 HD
BRANCH   5   8
ATOM      8  C   UNL A   1      32.810  21.260  25.519  1.00  0.00     0.271 C 
ATOM      9  C   UNL A   1      32.443  19.870  25.006  1.00  0.00     0.086 C 
BRANCH   8  10
ATOM     10  N   UNL A   1      32.817  22.409  24.582  1.00  0.00    -0.322 N 
ATOM     11  C   UNL A   1      33.436  29.191  22.876  1.00  0.00     0.010 C 
ATOM     12  C   UNL A   1      32.151  28.367  22.779  1.00  0.00     0.010 C 
ATOM     13  C   UNL A   1      32.300  27.036  23.514  1.00  0.00     0.125 C 
ATOM     14  C   UNL A   1      30.973  29.037  23.516  1.00  0.00     0.010 C 
ATOM     15  N   UNL A   1      31.795  27.290  24.856  1.00  0.00    -0.324 N 
ATOM     16  C   UNL A   1      31.189  28.604  24.970  1.00  0.00     0.125 C 
ATOM     17  C   UNL A   1      29.624  28.530  22.993  1.00  0.00     0.010 C 
ATOM     18  C   UNL A   1      31.689  26.349  25.852  1.00  0.00     0.320 C 
ATOM     19  O   UNL A   1      31.164  26.554  26.941  1.00  0.00    -0.248 OA
ATOM     20  N   UNL A   1      32.091  25.096  25.452  1.00  0.00    -0.313 N 
ATOM     21  C   UNL A   1      31.070  24.086  25.295  1.00  0.00     0.183 C 
ATOM     22  C   UNL A   1      33.419  24.601  25.783  1.00  0.00     0.183 C 
ATOM     23  C   UNL A   1      31.542  23.054  24.269  1.00  0.00     0.284 C 
ATOM     24  C   UNL A   1      33.845  23.437  24.855  1.00  0.00     0.284 C 
ATOM     25  H   UNL A   1      33.072  21.902  23.735  1.00  0.00     0.348 HD
ENDBRANCH   8  10
ENDBRANCH   5   8
ENDBRANCH   3   4
ENDBRANCH   2   3
ENDBRANCH   1   2
BRANCH   1  26
ATOM     26  C   UNL A   1      39.629  20.101  25.934  1.00  0.00     0.116 C 
BRANCH  26  27
ATOM     27  N   UNL A   1      40.579  18.996  25.922  1.00  0.00    -0.352 N 
ATOM     28  C   UNL A   1      41.944  19.048  26.112  1.00  0.00     0.251 C 
ATOM     29  H   UNL A   1      40.201  18.103  25.757  1.00  0.00     0.163 HD
ATOM     30  O   UNL A   1      42.636  18.047  26.008  1.00  0.00    -0.269 OA
BRANCH  28  31
ATOM     31  C   UNL A   1      42.563  20.360  26.388  1.00  0.00     0.039 A 
ATOM     32  C   UNL A   1      43.034  21.124  25.318  1.00  0.00     0.014 A 
ATOM     33  C   UNL A   1      42.564  20.876  27.687  1.00  0.00     0.014 A 
ATOM     34  C   UNL A   1      43.416  22.447  25.538  1.00  0.00     0.010 A 
ATOM     35  C   UNL A   1      42.850  22.219  27.885  1.00  0.00     0.010 A 
ATOM     36  C   UNL A   1      43.275  23.019  26.813  1.00  0.00    -0.014 A 
BRANCH  36  37
ATOM     37  C   UNL A   1      43.571  24.452  27.060  1.00  0.00     0.031 A 
ATOM     38  C   UNL A   1      44.955  24.978  26.806  1.00  0.00     0.074 A 
ATOM     39  C   UNL A   1      42.629  25.251  27.597  1.00  0.00     0.049 A 
ATOM     40  N   UNL A   1      45.452  26.161  27.061  1.00  0.00    -0.248 NA
ATOM     41  C   UNL A   1      45.924  24.031  26.229  1.00  0.00     0.031 C 
ATOM     42  C   UNL A   1      41.270  24.841  27.955  1.00  0.00     0.029 A 
ATOM     43  N   UNL A   1      42.676  26.577  27.948  1.00  0.00    -0.354 N 
ATOM     44  C   UNL A   1      46.792  26.088  26.707  1.00  0.00     0.074 A 
ATOM     45  C   UNL A   1      47.046  24.732  26.273  1.00  0.00     0.031 C 
ATOM     46  C   UNL A   1      40.606  25.899  28.449  1.00  0.00     0.029 A 
ATOM     47  C   UNL A   1      41.499  27.051  28.474  1.00  0.00     0.049 A 
ATOM     48  H   UNL A   1      43.479  27.135  27.835  1.00  0.00     0.167 HD
ATOM     49  C   UNL A   1      47.723  27.071  26.715  1.00  0.00     0.037 A 
ATOM     50  C   UNL A   1      41.181  28.281  28.922  1.00  0.00     0.037 A 
ATOM     51  C   UNL A   1      47.453  28.432  27.091  1.00  0.00     0.049 A 
ATOM     52  C   UNL A   1      42.217  29.371  28.869  1.00  0.00     0.074 A 
ATOM     53  C   UNL A   1      48.302  29.523  27.057  1.00  0.00     0.029 A 
ATOM     54  N   UNL A   1      46.230  28.888  27.563  1.00  0.00    -0.354 N 
ATOM     55  N   UNL A   1      43.462  29.308  28.466  1.00  0.00    -0.248 NA
ATOM     56  C   UNL A   1      41.800  30.704  29.326  1.00  0.00     0.031 C 
ATOM     57  C   UNL A   1      47.601  30.636  27.532  1.00  0.00     0.029 A 
ATOM     58  C   UNL A   1      46.306  30.245  27.830  1.00  0.00     0.049 A 
ATOM     59  H   UNL A   1      45.428  28.331  27.688  1.00  0.00     0.167 HD
ATOM     60  C   UNL A   1      43.970  30.593  28.596  1.00  0.00     0.074 A 
ATOM     61  C   UNL A   1      42.894  31.418  29.105  1.00  0.00     0.031 C 
ATOM     62  C   UNL A   1      45.217  31.049  28.323  1.00  0.00     0.037 A 
BRANCH  49  63
ATOM     63  C   UNL A   1      49.113  26.708  26.288  1.00  0.00     0.064 A 
ATOM     64  C   UNL A   1      49.545  26.887  24.965  1.00  0.00     0.173 A 
ATOM     65  C   UNL A   1      50.030  26.187  27.213  1.00  0.00     0.173 A 
ATOM     66  F   UNL A   1      48.701  27.366  24.039  1.00  0.00    -0.203 F 
ATOM     67  C   UNL A   1      50.833  26.527  24.577  1.00  0.00     0.198 A 
ATOM     68  C   UNL A   1      51.326  25.856  26.827  1.00  0.00     0.198 A 
ATOM     69  F   UNL A   1      49.668  25.998  28.491  1.00  0.00    -0.203 F 
ATOM     70  F   UNL A   1      51.204  26.655  23.295  1.00  0.00    -0.200 F 
ATOM     71  C   UNL A   1      51.724  26.018  25.509  1.00  0.00     0.200 A 
ATOM     72  F   UNL A   1      52.189  25.372  27.731  1.00  0.00    -0.200 F 
ATOM     73  F   UNL A   1      52.963  25.673  25.134  1.00  0.00    -0.200 F 
ENDBRANCH  49  63
BRANCH  50  74
ATOM     74  C   UNL A   1      39.808  28.558  29.418  1.00  0.00     0.064 A 
ATOM     75  C   UNL A   1      38.817  29.034  28.548  1.00  0.00     0.173 A 
ATOM     76  C   UNL A   1      39.460  28.358  30.761  1.00  0.00     0.173 A 
ATOM     77  F   UNL A   1      39.110  29.259  27.259  1.00  0.00    -0.203 F 
ATOM     78  C   UNL A   1      37.532  29.316  29.007  1.00  0.00     0.198 A 
ATOM     79  C   UNL A   1      38.168  28.619  31.213  1.00  0.00     0.198 A 
ATOM     80  F   UNL A   1      40.371  27.900  31.630  1.00  0.00    -0.203 F 
ATOM     81  F   UNL A   1      36.615  29.808  28.163  1.00  0.00    -0.200 F 
ATOM     82  C   UNL A   1      37.206  29.104  30.339  1.00  0.00     0.200 A 
ATOM     83  F   UNL A   1      37.854  28.402  32.498  1.00  0.00    -0.200 F 
ATOM     84  F   UNL A   1      35.970  29.374  30.779  1.00  0.00    -0.200 F 
ENDBRANCH  50  74
BRANCH  62  85
ATOM     85  C   UNL A   1      45.475  32.509  28.535  1.00  0.00     0.064 A 
ATOM     86  C   UNL A   1      46.008  32.992  29.738  1.00  0.00     0.173 A 
ATOM     87  C   UNL A   1      45.232  33.428  27.503  1.00  0.00     0.173 A 
ATOM     88  F   UNL A   1      46.242  32.152  30.757  1.00  0.00    -0.203 F 
ATOM     89  C   UNL A   1      46.271  34.348  29.908  1.00  0.00     0.198 A 
ATOM     90  C   UNL A   1      45.520  34.780  27.668  1.00  0.00     0.198 A 
ATOM     91  F   UNL A   1      44.728  33.013  26.331  1.00  0.00    -0.203 F 
ATOM     92  F   UNL A   1      46.745  34.794  31.079  1.00  0.00    -0.200 F 
ATOM     93  C   UNL A   1      46.034  35.239  28.871  1.00  0.00     0.200 A 
ATOM     94  F   UNL A   1      45.300  35.639  26.662  1.00  0.00    -0.200 F 
ATOM     95  F   UNL A   1      46.296  36.543  29.034  1.00  0.00    -0.200 F 
ENDBRANCH  62  85
ENDBRANCH  36  37
ENDBRANCH  28  31
ENDBRANCH  26  27
ENDBRANCH   1  26
TORSDOF 12
ENDMDL
