MODEL 1
REMARK VINA RESULT:     -13.1      0.000      0.000
REMARK SMILES COc1cccc(C(=O)N2[C@@H](C(=O)NCCCCNC(=O)c3ccc(-c4c5nc(c(-c6c(F)c(F)c(F)c(F)c6F)c6ccc([nH]6)c(-c6c(F)c(F)c(F)c(F)c6F)c6nc(c(-c7c(F)c(F)c(F)c(F)c7F)c7ccc4[nH]7)C=C6)C=C5)cc3)CS[C@@H]2c2ccccc2Cl)c1
REMARK SMILES IDX 16 1 15 2 14 3 12 4 13 5 11 7 10 8 87 9 85 10 86 11 8 12
REMARK SMILES IDX 9 13 7 14 3 15 4 16 95 17 5 18 6 19 2 20 1 21 88 22 89 23
REMARK SMILES IDX 93 24 90 25 92 26 94 27 91 28 17 29 18 30 19 31 20 32 21 34
REMARK SMILES IDX 22 35 23 36 84 37 24 38 83 39 25 40 26 41 27 42 77 43 28 44
REMARK SMILES IDX 82 45 76 46 78 47 29 48 81 49 75 50 74 51 30 53 62 54 42 55
REMARK SMILES IDX 61 56 43 57 46 58 60 59 79 60 44 61 45 62 59 64 80 65 47 66
REMARK SMILES IDX 31 67 32 68 40 69 33 70 34 71 38 72 41 73 35 74 36 75 39 76
REMARK SMILES IDX 37 77 63 78 64 79 72 80 65 81 66 82 70 83 73 84 67 85 68 86
REMARK SMILES IDX 71 87 69 88 48 89 49 90 57 91 50 92 51 93 55 94 58 95 52 96
REMARK SMILES IDX 53 97 56 98 54 99
REMARK H PARENT 14 6 19 33 78 52 46 63
REMARK Flexibility Score: inf
ROOT
ATOM      1  C   UNL A   1      32.049  30.289  26.868  1.00  0.00     0.023 C 
ENDROOT
BRANCH   1   2
ATOM      2  C   UNL A   1      33.238  29.730  26.091  1.00  0.00     0.116 C 
BRANCH   2   3
ATOM      3  N   UNL A   1      32.978  29.834  24.663  1.00  0.00    -0.354 N 
ATOM      4  C   UNL A   1      32.687  28.822  23.785  1.00  0.00     0.243 C 
ATOM      5  O   UNL A   1      32.902  29.015  22.588  1.00  0.00    -0.273 OA
ATOM      6  H   UNL A   1      33.015  30.741  24.281  1.00  0.00     0.163 HD
BRANCH   4   7
ATOM      7  C   UNL A   1      32.128  27.495  24.332  1.00  0.00     0.186 C 
ATOM      8  N   UNL A   1      32.259  26.345  23.412  1.00  0.00    -0.310 N 
ATOM      9  C   UNL A   1      31.117  25.461  23.385  1.00  0.00     0.176 C 
ATOM     10  C   UNL A   1      30.634  27.702  24.651  1.00  0.00     0.107 C 
ATOM     11  S   UNL A   1      29.726  26.646  23.498  1.00  0.00    -0.129 SA
BRANCH   8  12
ATOM     12  C   UNL A   1      33.468  25.903  22.916  1.00  0.00     0.255 C 
ATOM     13  O   UNL A   1      33.853  26.150  21.780  1.00  0.00    -0.269 OA
BRANCH  12  14
ATOM     14  C   UNL A   1      34.272  24.966  23.775  1.00  0.00     0.043 A 
ATOM     15  C   UNL A   1      35.847  23.145  24.102  1.00  0.00     0.119 A 
ATOM     16  C   UNL A   1      35.897  23.440  25.468  1.00  0.00     0.046 A 
ATOM     17  C   UNL A   1      35.051  23.922  23.252  1.00  0.00     0.060 A 
ATOM     18  C   UNL A   1      35.147  24.486  25.996  1.00  0.00     0.005 A 
ATOM     19  C   UNL A   1      34.326  25.234  25.155  1.00  0.00     0.014 A 
BRANCH  15  20
ATOM     20  O   UNL A   1      36.626  22.083  23.734  1.00  0.00    -0.497 OA
ATOM     21  C   UNL A   1      37.435  21.490  24.741  1.00  0.00     0.278 C 
ENDBRANCH  15  20
ENDBRANCH  12  14
ENDBRANCH   8  12
BRANCH   9  22
ATOM     22  C   UNL A   1      30.938  24.355  24.437  1.00  0.00     0.003 A 
ATOM     23  C   UNL A   1      30.349  24.804  25.653  1.00  0.00     0.008 A 
ATOM     24  C   UNL A   1      31.314  22.998  24.407  1.00  0.00     0.047 A 
ATOM     25  C   UNL A   1      30.190  23.981  26.771  1.00  0.00     0.001 A 
ATOM     26  C   UNL A   1      31.137  22.170  25.534  1.00  0.00     0.021 A 
ATOM     27  Cl  UNL A   1      32.033  22.159  23.089  1.00  0.00    -0.084 Cl
ATOM     28  C   UNL A   1      30.592  22.658  26.714  1.00  0.00     0.002 A 
ENDBRANCH   9  22
ENDBRANCH   4   7
ENDBRANCH   2   3
ENDBRANCH   1   2
BRANCH   1  29
ATOM     29  C   UNL A   1      31.829  31.783  26.718  1.00  0.00     0.023 C 
BRANCH  29  30
ATOM     30  C   UNL A   1      32.908  32.631  27.362  1.00  0.00     0.116 C 
BRANCH  30  31
ATOM     31  N   UNL A   1      32.489  34.001  27.628  1.00  0.00    -0.352 N 
ATOM     32  C   UNL A   1      32.989  34.882  28.558  1.00  0.00     0.251 C 
ATOM     33  H   UNL A   1      31.754  34.340  27.069  1.00  0.00     0.163 HD
ATOM     34  O   UNL A   1      32.466  35.975  28.737  1.00  0.00    -0.269 OA
BRANCH  32  35
ATOM     35  C   UNL A   1      34.142  34.465  29.378  1.00  0.00     0.039 A 
ATOM     36  C   UNL A   1      33.908  33.845  30.607  1.00  0.00     0.014 A 
ATOM     37  C   UNL A   1      35.444  34.607  28.890  1.00  0.00     0.014 A 
ATOM     38  C   UNL A   1      34.979  33.292  31.308  1.00  0.00     0.010 A 
ATOM     39  C   UNL A   1      36.490  33.965  29.535  1.00  0.00     0.010 A 
ATOM     40  C   UNL A   1      36.270  33.306  30.754  1.00  0.00    -0.014 A 
BRANCH  40  41
ATOM     41  C   UNL A   1      37.408  32.648  31.439  1.00  0.00     0.031 A 
ATOM     42  C   UNL A   1      38.119  31.502  30.775  1.00  0.00     0.074 A 
ATOM     43  C   UNL A   1      37.752  33.034  32.684  1.00  0.00     0.049 A 
ATOM     44  N   UNL A   1      39.090  30.753  31.232  1.00  0.00    -0.248 NA
ATOM     45  C   UNL A   1      37.649  31.119  29.432  1.00  0.00     0.031 C 
ATOM     46  C   UNL A   1      37.088  34.083  33.460  1.00  0.00     0.029 A 
ATOM     47  N   UNL A   1      38.743  32.581  33.517  1.00  0.00    -0.354 N 
ATOM     48  C   UNL A   1      39.327  29.805  30.247  1.00  0.00     0.074 A 
ATOM     49  C   UNL A   1      38.361  30.029  29.195  1.00  0.00     0.031 C 
ATOM     50  C   UNL A   1      37.710  34.214  34.644  1.00  0.00     0.029 A 
ATOM     51  C   UNL A   1      38.794  33.240  34.721  1.00  0.00     0.049 A 
ATOM     52  H   UNL A   1      39.359  31.852  33.275  1.00  0.00     0.167 HD
ATOM     53  C   UNL A   1      40.287  28.851  30.209  1.00  0.00     0.037 A 
ATOM     54  C   UNL A   1      39.625  33.075  35.767  1.00  0.00     0.037 A 
ATOM     55  C   UNL A   1      41.276  28.662  31.236  1.00  0.00     0.049 A 
ATOM     56  C   UNL A   1      40.709  32.035  35.681  1.00  0.00     0.074 A 
ATOM     57  C   UNL A   1      42.340  27.779  31.257  1.00  0.00     0.029 A 
ATOM     58  N   UNL A   1      41.324  29.379  32.422  1.00  0.00    -0.354 N 
ATOM     59  N   UNL A   1      40.976  31.197  34.709  1.00  0.00    -0.248 NA
ATOM     60  C   UNL A   1      41.613  31.925  36.834  1.00  0.00     0.031 C 
ATOM     61  C   UNL A   1      43.012  27.936  32.474  1.00  0.00     0.029 A 
ATOM     62  C   UNL A   1      42.391  28.946  33.191  1.00  0.00     0.049 A 
ATOM     63  H   UNL A   1      40.693  30.089  32.679  1.00  0.00     0.167 HD
ATOM     64  C   UNL A   1      42.090  30.478  35.121  1.00  0.00     0.074 A 
ATOM     65  C   UNL A   1      42.461  30.993  36.422  1.00  0.00     0.031 C 
ATOM     66  C   UNL A   1      42.746  29.479  34.481  1.00  0.00     0.037 A 
BRANCH  53  67
ATOM     67  C   UNL A   1      40.323  27.951  29.009  1.00  0.00     0.064 A 
ATOM     68  C   UNL A   1      41.081  28.272  27.872  1.00  0.00     0.173 A 
ATOM     69  C   UNL A   1      39.617  26.739  29.006  1.00  0.00     0.173 A 
ATOM     70  F   UNL A   1      41.760  29.428  27.819  1.00  0.00    -0.203 F 
ATOM     71  C   UNL A   1      41.109  27.427  26.767  1.00  0.00     0.198 A 
ATOM     72  C   UNL A   1      39.672  25.881  27.910  1.00  0.00     0.198 A 
ATOM     73  F   UNL A   1      38.879  26.383  30.067  1.00  0.00    -0.203 F 
ATOM     74  F   UNL A   1      41.800  27.779  25.674  1.00  0.00    -0.200 F 
ATOM     75  C   UNL A   1      40.412  26.229  26.789  1.00  0.00     0.200 A 
ATOM     76  F   UNL A   1      39.006  24.718  27.936  1.00  0.00    -0.200 F 
ATOM     77  F   UNL A   1      40.446  25.412  25.728  1.00  0.00    -0.200 F 
ENDBRANCH  53  67
BRANCH  54  78
ATOM     78  C   UNL A   1      39.492  33.938  36.969  1.00  0.00     0.064 A 
ATOM     79  C   UNL A   1      40.104  35.200  37.019  1.00  0.00     0.173 A 
ATOM     80  C   UNL A   1      38.763  33.522  38.093  1.00  0.00     0.173 A 
ATOM     81  F   UNL A   1      40.827  35.633  35.976  1.00  0.00    -0.203 F 
ATOM     82  C   UNL A   1      40.012  36.000  38.155  1.00  0.00     0.198 A 
ATOM     83  C   UNL A   1      38.650  34.335  39.218  1.00  0.00     0.198 A 
ATOM     84  F   UNL A   1      38.155  32.327  38.093  1.00  0.00    -0.203 F 
ATOM     85  F   UNL A   1      40.647  37.180  38.193  1.00  0.00    -0.200 F 
ATOM     86  C   UNL A   1      39.281  35.570  39.252  1.00  0.00     0.200 A 
ATOM     87  F   UNL A   1      37.933  33.922  40.272  1.00  0.00    -0.200 F 
ATOM     88  F   UNL A   1      39.194  36.340  40.345  1.00  0.00    -0.200 F 
ENDBRANCH  54  78
BRANCH  66  89
ATOM     89  C   UNL A   1      43.946  28.899  35.169  1.00  0.00     0.064 A 
ATOM     90  C   UNL A   1      43.835  27.802  36.034  1.00  0.00     0.173 A 
ATOM     91  C   UNL A   1      45.223  29.426  34.931  1.00  0.00     0.173 A 
ATOM     92  F   UNL A   1      42.631  27.273  36.304  1.00  0.00    -0.203 F 
ATOM     93  C   UNL A   1      44.959  27.269  36.659  1.00  0.00     0.198 A 
ATOM     94  C   UNL A   1      46.349  28.872  35.534  1.00  0.00     0.198 A 
ATOM     95  F   UNL A   1      45.382  30.471  34.105  1.00  0.00    -0.203 F 
ATOM     96  F   UNL A   1      44.825  26.251  37.520  1.00  0.00    -0.200 F 
ATOM     97  C   UNL A   1      46.215  27.800  36.404  1.00  0.00     0.200 A 
ATOM     98  F   UNL A   1      47.562  29.378  35.276  1.00  0.00    -0.200 F 
ATOM     99  F   UNL A   1      47.297  27.283  37.002  1.00  0.00    -0.200 F 
ENDBRANCH  66  89
ENDBRANCH  40  41
ENDBRANCH  32  35
ENDBRANCH  30  31
ENDBRANCH  29  30
ENDBRANCH   1  29
TORSDOF 15
ENDMDL
MODEL 2
REMARK VINA RESULT:     -13.0      0.647      7.189
REMARK SMILES COc1cccc(C(=O)N2[C@@H](C(=O)NCCCCNC(=O)c3ccc(-c4c5nc(c(-c6c(F)c(F)c(F)c(F)c6F)c6ccc([nH]6)c(-c6c(F)c(F)c(F)c(F)c6F)c6nc(c(-c7c(F)c(F)c(F)c(F)c7F)c7ccc4[nH]7)C=C6)C=C5)cc3)CS[C@@H]2c2ccccc2Cl)c1
REMARK SMILES IDX 16 1 15 2 14 3 12 4 13 5 11 7 10 8 87 9 85 10 86 11 8 12
REMARK SMILES IDX 9 13 7 14 3 15 4 16 95 17 5 18 6 19 2 20 1 21 88 22 89 23
REMARK SMILES IDX 93 24 90 25 92 26 94 27 91 28 17 29 18 30 19 31 20 32 21 34
REMARK SMILES IDX 22 35 23 36 84 37 24 38 83 39 25 40 26 41 27 42 77 43 28 44
REMARK SMILES IDX 82 45 76 46 78 47 29 48 81 49 75 50 74 51 30 53 62 54 42 55
REMARK SMILES IDX 61 56 43 57 46 58 60 59 79 60 44 61 45 62 59 64 80 65 47 66
REMARK SMILES IDX 31 67 32 68 40 69 33 70 34 71 38 72 41 73 35 74 36 75 39 76
REMARK SMILES IDX 37 77 63 78 64 79 72 80 65 81 66 82 70 83 73 84 67 85 68 86
REMARK SMILES IDX 71 87 69 88 48 89 49 90 57 91 50 92 51 93 55 94 58 95 52 96
REMARK SMILES IDX 53 97 56 98 54 99
REMARK H PARENT 14 6 19 33 78 52 46 63
REMARK Flexibility Score: inf
ROOT
ATOM      1  C   UNL A   1      31.927  30.178  26.690  1.00  0.00     0.023 C 
ENDROOT
BRANCH   1   2
ATOM      2  C   UNL A   1      33.189  29.720  25.963  1.00  0.00     0.116 C 
BRANCH   2   3
ATOM      3  N   UNL A   1      32.970  29.778  24.526  1.00  0.00    -0.354 N 
ATOM      4  C   UNL A   1      32.714  28.737  23.672  1.00  0.00     0.243 C 
ATOM      5  O   UNL A   1      32.963  28.895  22.476  1.00  0.00    -0.273 OA
ATOM      6  H   UNL A   1      33.012  30.673  24.118  1.00  0.00     0.163 HD
BRANCH   4   7
ATOM      7  C   UNL A   1      32.150  27.422  24.243  1.00  0.00     0.186 C 
ATOM      8  N   UNL A   1      32.300  26.249  23.354  1.00  0.00    -0.310 N 
ATOM      9  C   UNL A   1      31.161  25.361  23.331  1.00  0.00     0.176 C 
ATOM     10  C   UNL A   1      30.649  27.632  24.531  1.00  0.00     0.107 C 
ATOM     11  S   UNL A   1      29.765  26.543  23.389  1.00  0.00    -0.129 SA
BRANCH   8  12
ATOM     12  C   UNL A   1      33.519  25.800  22.891  1.00  0.00     0.255 C 
ATOM     13  O   UNL A   1      33.921  26.017  21.755  1.00  0.00    -0.269 OA
BRANCH  12  14
ATOM     14  C   UNL A   1      34.312  24.890  23.789  1.00  0.00     0.043 A 
ATOM     15  C   UNL A   1      35.862  23.063  24.193  1.00  0.00     0.119 A 
ATOM     16  C   UNL A   1      35.922  23.418  25.544  1.00  0.00     0.046 A 
ATOM     17  C   UNL A   1      35.074  23.813  23.311  1.00  0.00     0.060 A 
ATOM     18  C   UNL A   1      35.188  24.497  26.027  1.00  0.00     0.005 A 
ATOM     19  C   UNL A   1      34.375  25.219  25.156  1.00  0.00     0.014 A 
BRANCH  15  20
ATOM     20  O   UNL A   1      36.625  21.974  23.870  1.00  0.00    -0.497 OA
ATOM     21  C   UNL A   1      36.770  20.965  24.861  1.00  0.00     0.278 C 
ENDBRANCH  15  20
ENDBRANCH  12  14
ENDBRANCH   8  12
BRANCH   9  22
ATOM     22  C   UNL A   1      30.967  24.282  24.407  1.00  0.00     0.003 A 
ATOM     23  C   UNL A   1      30.384  24.766  25.612  1.00  0.00     0.008 A 
ATOM     24  C   UNL A   1      31.326  22.920  24.408  1.00  0.00     0.047 A 
ATOM     25  C   UNL A   1      30.213  23.970  26.749  1.00  0.00     0.001 A 
ATOM     26  C   UNL A   1      31.138  22.120  25.553  1.00  0.00     0.021 A 
ATOM     27  Cl  UNL A   1      32.035  22.041  23.111  1.00  0.00    -0.084 Cl
ATOM     28  C   UNL A   1      30.598  22.642  26.722  1.00  0.00     0.002 A 
ENDBRANCH   9  22
ENDBRANCH   4   7
ENDBRANCH   2   3
ENDBRANCH   1   2
BRANCH   1  29
ATOM     29  C   UNL A   1      31.696  31.679  26.693  1.00  0.00     0.023 C 
BRANCH  29  30
ATOM     30  C   UNL A   1      32.854  32.476  27.262  1.00  0.00     0.116 C 
BRANCH  30  31
ATOM     31  N   UNL A   1      32.505  33.852  27.590  1.00  0.00    -0.352 N 
ATOM     32  C   UNL A   1      33.069  34.674  28.536  1.00  0.00     0.251 C 
ATOM     33  H   UNL A   1      31.770  34.245  27.066  1.00  0.00     0.163 HD
ATOM     34  O   UNL A   1      32.601  35.783  28.770  1.00  0.00    -0.269 OA
BRANCH  32  35
ATOM     35  C   UNL A   1      34.226  34.177  29.306  1.00  0.00     0.039 A 
ATOM     36  C   UNL A   1      34.000  33.316  30.381  1.00  0.00     0.014 A 
ATOM     37  C   UNL A   1      35.528  34.489  28.906  1.00  0.00     0.014 A 
ATOM     38  C   UNL A   1      35.086  32.703  31.005  1.00  0.00     0.010 A 
ATOM     39  C   UNL A   1      36.596  33.799  29.456  1.00  0.00     0.010 A 
ATOM     40  C   UNL A   1      36.388  32.903  30.515  1.00  0.00    -0.014 A 
BRANCH  40  41
ATOM     41  C   UNL A   1      37.549  32.195  31.105  1.00  0.00     0.031 A 
ATOM     42  C   UNL A   1      38.040  32.575  32.474  1.00  0.00     0.074 A 
ATOM     43  C   UNL A   1      38.203  31.265  30.381  1.00  0.00     0.049 A 
ATOM     44  N   UNL A   1      39.075  32.126  33.137  1.00  0.00    -0.248 NA
ATOM     45  C   UNL A   1      37.292  33.632  33.177  1.00  0.00     0.031 C 
ATOM     46  C   UNL A   1      37.867  30.864  29.013  1.00  0.00     0.029 A 
ATOM     47  N   UNL A   1      39.293  30.493  30.694  1.00  0.00    -0.354 N 
ATOM     48  C   UNL A   1      39.111  32.858  34.316  1.00  0.00     0.074 A 
ATOM     49  C   UNL A   1      38.036  33.823  34.254  1.00  0.00     0.031 C 
ATOM     50  C   UNL A   1      38.713  29.898  28.617  1.00  0.00     0.029 A 
ATOM     51  C   UNL A   1      39.667  29.635  29.689  1.00  0.00     0.049 A 
ATOM     52  H   UNL A   1      39.762  30.548  31.558  1.00  0.00     0.167 HD
ATOM     53  C   UNL A   1      39.947  32.716  35.371  1.00  0.00     0.037 A 
ATOM     54  C   UNL A   1      40.669  28.737  29.642  1.00  0.00     0.037 A 
ATOM     55  C   UNL A   1      40.984  31.722  35.449  1.00  0.00     0.049 A 
ATOM     56  C   UNL A   1      41.558  28.571  30.844  1.00  0.00     0.074 A 
ATOM     57  C   UNL A   1      41.833  31.441  36.504  1.00  0.00     0.029 A 
ATOM     58  N   UNL A   1      41.306  30.841  34.427  1.00  0.00    -0.354 N 
ATOM     59  N   UNL A   1      41.532  29.213  31.988  1.00  0.00    -0.248 NA
ATOM     60  C   UNL A   1      42.608  27.548  30.754  1.00  0.00     0.031 C 
ATOM     61  C   UNL A   1      42.694  30.413  36.108  1.00  0.00     0.029 A 
ATOM     62  C   UNL A   1      42.353  30.025  34.823  1.00  0.00     0.049 A 
ATOM     63  H   UNL A   1      40.857  30.801  33.553  1.00  0.00     0.167 HD
ATOM     64  C   UNL A   1      42.543  28.658  32.760  1.00  0.00     0.074 A 
ATOM     65  C   UNL A   1      43.151  27.613  31.962  1.00  0.00     0.031 C 
ATOM     66  C   UNL A   1      42.937  28.986  34.014  1.00  0.00     0.037 A 
BRANCH  53  67
ATOM     67  C   UNL A   1      39.761  33.646  36.533  1.00  0.00     0.064 A 
ATOM     68  C   UNL A   1      38.925  33.317  37.611  1.00  0.00     0.173 A 
ATOM     69  C   UNL A   1      40.450  34.867  36.586  1.00  0.00     0.173 A 
ATOM     70  F   UNL A   1      38.231  32.168  37.601  1.00  0.00    -0.203 F 
ATOM     71  C   UNL A   1      38.764  34.187  38.685  1.00  0.00     0.198 A 
ATOM     72  C   UNL A   1      40.309  35.721  37.677  1.00  0.00     0.198 A 
ATOM     73  F   UNL A   1      41.262  35.229  35.583  1.00  0.00    -0.203 F 
ATOM     74  F   UNL A   1      37.922  33.873  39.679  1.00  0.00    -0.200 F 
ATOM     75  C   UNL A   1      39.462  35.384  38.721  1.00  0.00     0.200 A 
ATOM     76  F   UNL A   1      40.992  36.874  37.716  1.00  0.00    -0.200 F 
ATOM     77  F   UNL A   1      39.312  36.217  39.760  1.00  0.00    -0.200 F 
ENDBRANCH  53  67
BRANCH  54  78
ATOM     78  C   UNL A   1      40.862  27.898  28.431  1.00  0.00     0.064 A 
ATOM     79  C   UNL A   1      41.671  28.338  27.373  1.00  0.00     0.173 A 
ATOM     80  C   UNL A   1      40.240  26.647  28.300  1.00  0.00     0.173 A 
ATOM     81  F   UNL A   1      42.271  29.535  27.445  1.00  0.00    -0.203 F 
ATOM     82  C   UNL A   1      41.830  27.572  26.221  1.00  0.00     0.198 A 
ATOM     83  C   UNL A   1      40.421  25.870  27.158  1.00  0.00     0.198 A 
ATOM     84  F   UNL A   1      39.461  26.178  29.285  1.00  0.00    -0.203 F 
ATOM     85  F   UNL A   1      42.569  28.040  25.205  1.00  0.00    -0.200 F 
ATOM     86  C   UNL A   1      41.209  26.337  26.116  1.00  0.00     0.200 A 
ATOM     87  F   UNL A   1      39.830  24.672  27.064  1.00  0.00    -0.200 F 
ATOM     88  F   UNL A   1      41.361  25.601  25.006  1.00  0.00    -0.200 F 
ENDBRANCH  54  78
BRANCH  66  89
ATOM     89  C   UNL A   1      44.058  28.187  34.610  1.00  0.00     0.064 A 
ATOM     90  C   UNL A   1      45.390  28.615  34.523  1.00  0.00     0.173 A 
ATOM     91  C   UNL A   1      43.791  26.998  35.304  1.00  0.00     0.173 A 
ATOM     92  F   UNL A   1      45.696  29.739  33.855  1.00  0.00    -0.203 F 
ATOM     93  C   UNL A   1      46.419  27.868  35.087  1.00  0.00     0.198 A 
ATOM     94  C   UNL A   1      44.820  26.268  35.893  1.00  0.00     0.198 A 
ATOM     95  F   UNL A   1      42.532  26.550  35.421  1.00  0.00    -0.203 F 
ATOM     96  F   UNL A   1      47.690  28.270  34.950  1.00  0.00    -0.200 F 
ATOM     97  C   UNL A   1      46.133  26.699  35.777  1.00  0.00     0.200 A 
ATOM     98  F   UNL A   1      44.540  25.146  36.570  1.00  0.00    -0.200 F 
ATOM     99  F   UNL A   1      47.124  25.982  36.324  1.00  0.00    -0.200 F 
ENDBRANCH  66  89
ENDBRANCH  40  41
ENDBRANCH  32  35
ENDBRANCH  30  31
ENDBRANCH  29  30
ENDBRANCH   1  29
TORSDOF 15
ENDMDL
MODEL 3
REMARK VINA RESULT:     -12.9      5.485     10.893
REMARK SMILES COc1cccc(C(=O)N2[C@@H](C(=O)NCCCCNC(=O)c3ccc(-c4c5nc(c(-c6c(F)c(F)c(F)c(F)c6F)c6ccc([nH]6)c(-c6c(F)c(F)c(F)c(F)c6F)c6nc(c(-c7c(F)c(F)c(F)c(F)c7F)c7ccc4[nH]7)C=C6)C=C5)cc3)CS[C@@H]2c2ccccc2Cl)c1
REMARK SMILES IDX 16 1 15 2 14 3 12 4 13 5 11 7 10 8 87 9 85 10 86 11 8 12
REMARK SMILES IDX 9 13 7 14 3 15 4 16 95 17 5 18 6 19 2 20 1 21 88 22 89 23
REMARK SMILES IDX 93 24 90 25 92 26 94 27 91 28 17 29 18 30 19 31 20 32 21 34
REMARK SMILES IDX 22 35 23 36 84 37 24 38 83 39 25 40 26 41 27 42 77 43 28 44
REMARK SMILES IDX 82 45 76 46 78 47 29 48 81 49 75 50 74 51 30 53 62 54 42 55
REMARK SMILES IDX 61 56 43 57 46 58 60 59 79 60 44 61 45 62 59 64 80 65 47 66
REMARK SMILES IDX 31 67 32 68 40 69 33 70 34 71 38 72 41 73 35 74 36 75 39 76
REMARK SMILES IDX 37 77 63 78 64 79 72 80 65 81 66 82 70 83 73 84 67 85 68 86
REMARK SMILES IDX 71 87 69 88 48 89 49 90 57 91 50 92 51 93 55 94 58 95 52 96
REMARK SMILES IDX 53 97 56 98 54 99
REMARK H PARENT 14 6 19 33 78 52 46 63
REMARK Flexibility Score: inf
ROOT
ATOM      1  C   UNL A   1      37.341  21.425  24.650  1.00  0.00     0.023 C 
ENDROOT
BRANCH   1   2
ATOM      2  C   UNL A   1      36.799  22.230  25.828  1.00  0.00     0.116 C 
BRANCH   2   3
ATOM      3  N   UNL A   1      35.714  21.496  26.460  1.00  0.00    -0.354 N 
ATOM      4  C   UNL A   1      34.370  21.756  26.391  1.00  0.00     0.243 C 
ATOM      5  O   UNL A   1      33.648  21.315  27.285  1.00  0.00    -0.273 OA
ATOM      6  H   UNL A   1      35.977  20.718  27.004  1.00  0.00     0.163 HD
BRANCH   4   7
ATOM      7  C   UNL A   1      33.830  22.597  25.217  1.00  0.00     0.186 C 
ATOM      8  N   UNL A   1      32.494  23.188  25.446  1.00  0.00    -0.310 N 
ATOM      9  C   UNL A   1      31.618  23.161  24.297  1.00  0.00     0.176 C 
ATOM     10  C   UNL A   1      33.760  21.689  23.973  1.00  0.00     0.107 C 
ATOM     11  S   UNL A   1      32.004  21.525  23.572  1.00  0.00    -0.129 SA
BRANCH   8  12
ATOM     12  C   UNL A   1      32.209  24.038  26.493  1.00  0.00     0.255 C 
ATOM     13  O   UNL A   1      31.599  23.682  27.494  1.00  0.00    -0.269 OA
BRANCH  12  14
ATOM     14  C   UNL A   1      32.552  25.493  26.322  1.00  0.00     0.043 A 
ATOM     15  C   UNL A   1      32.196  27.861  26.731  1.00  0.00     0.119 A 
ATOM     16  C   UNL A   1      33.424  28.146  26.124  1.00  0.00     0.046 A 
ATOM     17  C   UNL A   1      31.770  26.533  26.849  1.00  0.00     0.060 A 
ATOM     18  C   UNL A   1      34.218  27.122  25.617  1.00  0.00     0.005 A 
ATOM     19  C   UNL A   1      33.776  25.804  25.702  1.00  0.00     0.014 A 
BRANCH  15  20
ATOM     20  O   UNL A   1      31.522  28.969  27.167  1.00  0.00    -0.497 OA
ATOM     21  C   UNL A   1      32.121  30.234  26.920  1.00  0.00     0.278 C 
ENDBRANCH  15  20
ENDBRANCH  12  14
ENDBRANCH   8  12
BRANCH   9  22
ATOM     22  C   UNL A   1      31.699  24.239  23.205  1.00  0.00     0.003 A 
ATOM     23  C   UNL A   1      32.718  24.007  22.239  1.00  0.00     0.008 A 
ATOM     24  C   UNL A   1      30.971  25.435  23.048  1.00  0.00     0.047 A 
ATOM     25  C   UNL A   1      33.023  24.916  21.221  1.00  0.00     0.001 A 
ATOM     26  C   UNL A   1      31.275  26.339  22.011  1.00  0.00     0.021 A 
ATOM     27  Cl  UNL A   1      29.679  25.990  24.038  1.00  0.00    -0.084 Cl
ATOM     28  C   UNL A   1      32.303  26.092  21.111  1.00  0.00     0.002 A 
ENDBRANCH   9  22
ENDBRANCH   4   7
ENDBRANCH   2   3
ENDBRANCH   1   2
BRANCH   1  29
ATOM     29  C   UNL A   1      38.088  20.158  25.027  1.00  0.00     0.023 C 
BRANCH  29  30
ATOM     30  C   UNL A   1      39.355  20.406  25.823  1.00  0.00     0.116 C 
BRANCH  30  31
ATOM     31  N   UNL A   1      40.233  19.246  25.891  1.00  0.00    -0.352 N 
ATOM     32  C   UNL A   1      41.588  19.213  26.119  1.00  0.00     0.251 C 
ATOM     33  H   UNL A   1      39.801  18.372  25.758  1.00  0.00     0.163 HD
ATOM     34  O   UNL A   1      42.216  18.162  26.049  1.00  0.00    -0.269 OA
BRANCH  32  35
ATOM     35  C   UNL A   1      42.289  20.480  26.402  1.00  0.00     0.039 A 
ATOM     36  C   UNL A   1      42.806  21.217  25.336  1.00  0.00     0.014 A 
ATOM     37  C   UNL A   1      42.350  20.977  27.707  1.00  0.00     0.014 A 
ATOM     38  C   UNL A   1      43.314  22.495  25.572  1.00  0.00     0.010 A 
ATOM     39  C   UNL A   1      42.756  22.285  27.923  1.00  0.00     0.010 A 
ATOM     40  C   UNL A   1      43.248  23.056  26.859  1.00  0.00    -0.014 A 
BRANCH  40  41
ATOM     41  C   UNL A   1      43.700  24.444  27.117  1.00  0.00     0.031 A 
ATOM     42  C   UNL A   1      42.726  25.462  27.641  1.00  0.00     0.074 A 
ATOM     43  C   UNL A   1      44.962  24.803  26.811  1.00  0.00     0.049 A 
ATOM     44  N   UNL A   1      42.905  26.738  27.869  1.00  0.00    -0.248 NA
ATOM     45  C   UNL A   1      41.355  24.993  27.907  1.00  0.00     0.031 C 
ATOM     46  C   UNL A   1      45.976  23.923  26.227  1.00  0.00     0.029 A 
ATOM     47  N   UNL A   1      45.605  26.008  26.944  1.00  0.00    -0.354 N 
ATOM     48  C   UNL A   1      41.670  27.222  28.281  1.00  0.00     0.074 A 
ATOM     49  C   UNL A   1      40.735  26.121  28.213  1.00  0.00     0.031 C 
ATOM     50  C   UNL A   1      47.123  24.609  26.081  1.00  0.00     0.029 A 
ATOM     51  C   UNL A   1      46.915  25.982  26.531  1.00  0.00     0.049 A 
ATOM     52  H   UNL A   1      45.168  26.815  27.300  1.00  0.00     0.167 HD
ATOM     53  C   UNL A   1      41.352  28.466  28.708  1.00  0.00     0.037 A 
ATOM     54  C   UNL A   1      47.842  26.957  26.520  1.00  0.00     0.037 A 
ATOM     55  C   UNL A   1      42.297  29.545  28.820  1.00  0.00     0.049 A 
ATOM     56  C   UNL A   1      47.473  28.321  27.039  1.00  0.00     0.074 A 
ATOM     57  C   UNL A   1      42.096  30.820  29.317  1.00  0.00     0.029 A 
ATOM     58  N   UNL A   1      43.627  29.468  28.434  1.00  0.00    -0.354 N 
ATOM     59  N   UNL A   1      46.322  28.746  27.504  1.00  0.00    -0.248 NA
ATOM     60  C   UNL A   1      48.533  29.336  27.043  1.00  0.00     0.031 C 
ATOM     61  C   UNL A   1      43.296  31.528  29.199  1.00  0.00     0.029 A 
ATOM     62  C   UNL A   1      44.255  30.680  28.667  1.00  0.00     0.049 A 
ATOM     63  H   UNL A   1      44.059  28.672  28.051  1.00  0.00     0.167 HD
ATOM     64  C   UNL A   1      46.526  30.067  27.876  1.00  0.00     0.074 A 
ATOM     65  C   UNL A   1      47.916  30.368  27.602  1.00  0.00     0.031 C 
ATOM     66  C   UNL A   1      45.642  30.955  28.394  1.00  0.00     0.037 A 
BRANCH  53  67
ATOM     67  C   UNL A   1      39.927  28.720  29.104  1.00  0.00     0.064 A 
ATOM     68  C   UNL A   1      38.983  29.196  28.182  1.00  0.00     0.173 A 
ATOM     69  C   UNL A   1      39.493  28.455  30.411  1.00  0.00     0.173 A 
ATOM     70  F   UNL A   1      39.352  29.480  26.923  1.00  0.00    -0.203 F 
ATOM     71  C   UNL A   1      37.663  29.424  28.560  1.00  0.00     0.198 A 
ATOM     72  C   UNL A   1      38.164  28.656  30.778  1.00  0.00     0.198 A 
ATOM     73  F   UNL A   1      40.355  27.998  31.331  1.00  0.00    -0.203 F 
ATOM     74  F   UNL A   1      36.791  29.925  27.675  1.00  0.00    -0.200 F 
ATOM     75  C   UNL A   1      37.253  29.146  29.855  1.00  0.00     0.200 A 
ATOM     76  F   UNL A   1      37.766  28.378  32.027  1.00  0.00    -0.200 F 
ATOM     77  F   UNL A   1      35.980  29.358  30.216  1.00  0.00    -0.200 F 
ENDBRANCH  53  67
BRANCH  54  78
ATOM     78  C   UNL A   1      49.218  26.674  26.038  1.00  0.00     0.064 A 
ATOM     79  C   UNL A   1      49.597  26.983  24.724  1.00  0.00     0.173 A 
ATOM     80  C   UNL A   1      50.179  26.083  26.872  1.00  0.00     0.173 A 
ATOM     81  F   UNL A   1      48.707  27.532  23.884  1.00  0.00    -0.203 F 
ATOM     82  C   UNL A   1      50.875  26.690  24.254  1.00  0.00     0.198 A 
ATOM     83  C   UNL A   1      51.465  25.814  26.409  1.00  0.00     0.198 A 
ATOM     84  F   UNL A   1      49.869  25.773  28.139  1.00  0.00    -0.203 F 
ATOM     85  F   UNL A   1      51.194  26.952  22.979  1.00  0.00    -0.200 F 
ATOM     86  C   UNL A   1      51.810  26.110  25.098  1.00  0.00     0.200 A 
ATOM     87  F   UNL A   1      52.370  25.265  27.230  1.00  0.00    -0.200 F 
ATOM     88  F   UNL A   1      53.039  25.827  24.646  1.00  0.00    -0.200 F 
ENDBRANCH  54  78
BRANCH  66  89
ATOM     89  C   UNL A   1      46.160  32.323  28.724  1.00  0.00     0.064 A 
ATOM     90  C   UNL A   1      46.722  32.611  29.976  1.00  0.00     0.173 A 
ATOM     91  C   UNL A   1      46.126  33.345  27.765  1.00  0.00     0.173 A 
ATOM     92  F   UNL A   1      46.763  31.668  30.931  1.00  0.00    -0.203 F 
ATOM     93  C   UNL A   1      47.206  33.883  30.266  1.00  0.00     0.198 A 
ATOM     94  C   UNL A   1      46.638  34.608  28.048  1.00  0.00     0.198 A 
ATOM     95  F   UNL A   1      45.605  33.117  26.550  1.00  0.00    -0.203 F 
ATOM     96  F   UNL A   1      47.694  34.150  31.485  1.00  0.00    -0.200 F 
ATOM     97  C   UNL A   1      47.170  34.878  29.300  1.00  0.00     0.200 A 
ATOM     98  F   UNL A   1      46.614  35.564  27.110  1.00  0.00    -0.200 F 
ATOM     99  F   UNL A   1      47.641  36.101  29.579  1.00  0.00    -0.200 F 
ENDBRANCH  66  89
ENDBRANCH  40  41
ENDBRANCH  32  35
ENDBRANCH  30  31
ENDBRANCH  29  30
ENDBRANCH   1  29
TORSDOF 15
ENDMDL
