MODEL 1
REMARK VINA RESULT:     -12.7      0.000      0.000
REMARK SMILES CC1CCN(C(=O)N[C@]2(C(=O)NCCCCNC(=O)c3ccc(-c4c5nc(c(-c6c(F)c(F)c(F)c(F)c6F)c6ccc([nH]6)c(-c6c(F)c(F)c(F)c(F)c6F)c6nc(c(-c7c(F)c(F)c(F)c(F)c7F)c7ccc4[nH]7)C=C6)C=C5)cc3)CCSC2)CC1
REMARK SMILES IDX 15 1 14 2 13 3 12 4 10 5 11 6 9 8 83 9 86 10 84 11 85 12
REMARK SMILES IDX 8 13 1 14 2 15 3 16 88 17 4 18 87 19 5 20 6 21 7 22 16 24
REMARK SMILES IDX 17 25 18 26 19 28 20 29 21 30 82 31 22 32 81 33 23 34 24 35
REMARK SMILES IDX 25 36 75 37 26 38 80 39 74 40 76 41 27 42 79 43 73 44 72 45
REMARK SMILES IDX 28 47 60 48 40 49 59 50 41 51 44 52 58 53 77 54 42 55 43 56
REMARK SMILES IDX 57 58 78 59 45 60 29 61 30 62 38 63 31 64 32 65 36 66 39 67
REMARK SMILES IDX 33 68 34 69 37 70 35 71 61 72 62 73 70 74 63 75 64 76 68 77
REMARK SMILES IDX 71 78 65 79 66 80 69 81 67 82 46 83 47 84 55 85 48 86 49 87
REMARK SMILES IDX 53 88 56 89 50 90 51 91 54 92 52 93
REMARK H PARENT 12 7 8 23 17 27 76 46 44 57
REMARK Flexibility Score: inf
ROOT
ATOM      1  C   UNL A   1      31.344  32.044  26.841  1.00  0.00     0.023 C 
ENDROOT
BRANCH   1   2
ATOM      2  C   UNL A   1      31.322  31.050  25.681  1.00  0.00     0.023 C 
BRANCH   2   3
ATOM      3  C   UNL A   1      31.757  29.596  25.921  1.00  0.00     0.116 C 
BRANCH   3   4
ATOM      4  N   UNL A   1      32.839  29.093  25.097  1.00  0.00    -0.354 N 
ATOM      5  C   UNL A   1      32.901  28.588  23.836  1.00  0.00     0.246 C 
ATOM      6  O   UNL A   1      34.024  28.667  23.314  1.00  0.00    -0.272 OA
ATOM      7  H   UNL A   1      33.713  29.123  25.547  1.00  0.00     0.163 HD
BRANCH   5   8
ATOM      8  C   UNL A   1      31.711  27.994  23.023  1.00  0.00     0.130 C 
ATOM      9  C   UNL A   1      30.565  27.230  23.710  1.00  0.00     0.050 C 
ATOM     10  C   UNL A   1      31.101  29.261  22.340  1.00  0.00     0.108 C 
ATOM     11  C   UNL A   1      29.205  27.728  23.243  1.00  0.00     0.072 C 
ATOM     12  S   UNL A   1      29.447  29.491  23.028  1.00  0.00    -0.159 SA
BRANCH   8  13
ATOM     13  N   UNL A   1      32.293  27.108  21.966  1.00  0.00    -0.323 N 
ATOM     14  C   UNL A   1      35.952  24.071  25.815  1.00  0.00     0.008 C 
ATOM     15  C   UNL A   1      34.699  23.921  24.953  1.00  0.00    -0.011 C 
ATOM     16  C   UNL A   1      35.042  23.751  23.465  1.00  0.00     0.025 C 
ATOM     17  C   UNL A   1      33.800  25.145  25.135  1.00  0.00     0.025 C 
ATOM     18  C   UNL A   1      33.788  23.785  22.574  1.00  0.00     0.121 C 
ATOM     19  C   UNL A   1      32.565  25.047  24.242  1.00  0.00     0.121 C 
ATOM     20  N   UNL A   1      32.972  24.977  22.849  1.00  0.00    -0.325 N 
ATOM     21  C   UNL A   1      32.758  25.854  21.827  1.00  0.00     0.318 C 
ATOM     22  O   UNL A   1      33.029  25.555  20.657  1.00  0.00    -0.249 OA
ATOM     23  H   UNL A   1      32.352  27.590  21.110  1.00  0.00     0.166 HD
ENDBRANCH   8  13
ENDBRANCH   5   8
ENDBRANCH   3   4
ENDBRANCH   2   3
ENDBRANCH   1   2
BRANCH   1  24
ATOM     24  C   UNL A   1      32.642  32.790  27.091  1.00  0.00     0.116 C 
BRANCH  24  25
ATOM     25  N   UNL A   1      32.409  34.147  27.547  1.00  0.00    -0.352 N 
ATOM     26  C   UNL A   1      33.005  34.840  28.568  1.00  0.00     0.251 C 
ATOM     27  H   UNL A   1      31.719  34.643  27.050  1.00  0.00     0.163 HD
ATOM     28  O   UNL A   1      32.541  35.917  28.923  1.00  0.00    -0.269 OA
BRANCH  26  29
ATOM     29  C   UNL A   1      34.188  34.283  29.263  1.00  0.00     0.039 A 
ATOM     30  C   UNL A   1      33.981  33.516  30.413  1.00  0.00     0.014 A 
ATOM     31  C   UNL A   1      35.487  34.530  28.810  1.00  0.00     0.014 A 
ATOM     32  C   UNL A   1      35.071  32.958  31.080  1.00  0.00     0.010 A 
ATOM     33  C   UNL A   1      36.570  33.915  29.438  1.00  0.00     0.010 A 
ATOM     34  C   UNL A   1      36.373  33.127  30.582  1.00  0.00    -0.014 A 
BRANCH  34  35
ATOM     35  C   UNL A   1      37.532  32.481  31.250  1.00  0.00     0.031 A 
ATOM     36  C   UNL A   1      38.262  31.348  30.581  1.00  0.00     0.074 A 
ATOM     37  C   UNL A   1      37.900  32.889  32.480  1.00  0.00     0.049 A 
ATOM     38  N   UNL A   1      39.269  30.637  31.023  1.00  0.00    -0.248 NA
ATOM     39  C   UNL A   1      37.785  30.945  29.249  1.00  0.00     0.031 C 
ATOM     40  C   UNL A   1      37.244  33.947  33.249  1.00  0.00     0.029 A 
ATOM     41  N   UNL A   1      38.911  32.459  33.303  1.00  0.00    -0.354 N 
ATOM     42  C   UNL A   1      39.537  29.701  30.032  1.00  0.00     0.074 A 
ATOM     43  C   UNL A   1      38.556  29.900  28.988  1.00  0.00     0.031 C 
ATOM     44  C   UNL A   1      37.880  34.097  34.422  1.00  0.00     0.029 A 
ATOM     45  C   UNL A   1      38.962  33.122  34.504  1.00  0.00     0.049 A 
ATOM     46  H   UNL A   1      39.539  31.742  33.056  1.00  0.00     0.167 HD
ATOM     47  C   UNL A   1      40.524  28.776  29.990  1.00  0.00     0.037 A 
ATOM     48  C   UNL A   1      39.784  32.955  35.559  1.00  0.00     0.037 A 
ATOM     49  C   UNL A   1      41.513  28.597  31.023  1.00  0.00     0.049 A 
ATOM     50  C   UNL A   1      40.867  31.912  35.487  1.00  0.00     0.074 A 
ATOM     51  C   UNL A   1      42.591  27.730  31.042  1.00  0.00     0.029 A 
ATOM     52  N   UNL A   1      41.540  29.296  32.220  1.00  0.00    -0.354 N 
ATOM     53  N   UNL A   1      41.157  31.086  34.512  1.00  0.00    -0.248 NA
ATOM     54  C   UNL A   1      41.742  31.784  36.660  1.00  0.00     0.031 C 
ATOM     55  C   UNL A   1      43.238  27.864  32.275  1.00  0.00     0.029 A 
ATOM     56  C   UNL A   1      42.600  28.858  32.999  1.00  0.00     0.049 A 
ATOM     57  H   UNL A   1      40.901  29.998  32.480  1.00  0.00     0.167 HD
ATOM     58  C   UNL A   1      42.261  30.361  34.941  1.00  0.00     0.074 A 
ATOM     59  C   UNL A   1      42.602  30.860  36.256  1.00  0.00     0.031 C 
ATOM     60  C   UNL A   1      42.932  29.370  34.303  1.00  0.00     0.037 A 
BRANCH  47  61
ATOM     61  C   UNL A   1      40.594  27.880  28.787  1.00  0.00     0.064 A 
ATOM     62  C   UNL A   1      39.843  26.697  28.704  1.00  0.00     0.173 A 
ATOM     63  C   UNL A   1      41.375  28.239  27.677  1.00  0.00     0.173 A 
ATOM     64  F   UNL A   1      39.088  26.303  29.741  1.00  0.00    -0.203 F 
ATOM     65  C   UNL A   1      39.887  25.898  27.565  1.00  0.00     0.198 A 
ATOM     66  C   UNL A   1      41.392  27.453  26.527  1.00  0.00     0.198 A 
ATOM     67  F   UNL A   1      42.106  29.362  27.700  1.00  0.00    -0.203 F 
ATOM     68  F   UNL A   1      39.193  24.752  27.525  1.00  0.00    -0.200 F 
ATOM     69  C   UNL A   1      40.653  26.281  26.474  1.00  0.00     0.200 A 
ATOM     70  F   UNL A   1      42.121  27.833  25.469  1.00  0.00    -0.200 F 
ATOM     71  F   UNL A   1      40.682  25.518  25.373  1.00  0.00    -0.200 F 
ENDBRANCH  47  61
BRANCH  48  72
ATOM     72  C   UNL A   1      39.625  33.801  36.772  1.00  0.00     0.064 A 
ATOM     73  C   UNL A   1      38.844  33.372  37.855  1.00  0.00     0.173 A 
ATOM     74  C   UNL A   1      40.231  35.062  36.865  1.00  0.00     0.173 A 
ATOM     75  F   UNL A   1      38.228  32.182  37.806  1.00  0.00    -0.203 F 
ATOM     76  C   UNL A   1      38.651  34.185  38.970  1.00  0.00     0.198 A 
ATOM     77  C   UNL A   1      40.063  35.861  37.995  1.00  0.00     0.198 A 
ATOM     78  F   UNL A   1      40.994  35.518  35.861  1.00  0.00    -0.203 F 
ATOM     79  F   UNL A   1      37.852  33.774  39.965  1.00  0.00    -0.200 F 
ATOM     80  C   UNL A   1      39.264  35.427  39.042  1.00  0.00     0.200 A 
ATOM     81  F   UNL A   1      40.672  37.053  38.067  1.00  0.00    -0.200 F 
ATOM     82  F   UNL A   1      39.077  36.208  40.113  1.00  0.00    -0.200 F 
ENDBRANCH  48  72
BRANCH  60  83
ATOM     83  C   UNL A   1      44.123  28.784  35.005  1.00  0.00     0.064 A 
ATOM     84  C   UNL A   1      45.412  29.314  34.838  1.00  0.00     0.173 A 
ATOM     85  C   UNL A   1      43.969  27.700  35.882  1.00  0.00     0.173 A 
ATOM     86  F   UNL A   1      45.616  30.341  33.999  1.00  0.00    -0.203 F 
ATOM     87  C   UNL A   1      46.505  28.758  35.496  1.00  0.00     0.198 A 
ATOM     88  C   UNL A   1      45.059  27.169  36.566  1.00  0.00     0.198 A 
ATOM     89  F   UNL A   1      42.757  27.161  36.083  1.00  0.00    -0.203 F 
ATOM     90  F   UNL A   1      47.735  29.246  35.278  1.00  0.00    -0.200 F 
ATOM     91  C   UNL A   1      46.327  27.692  36.366  1.00  0.00     0.200 A 
ATOM     92  F   UNL A   1      44.881  26.149  37.416  1.00  0.00    -0.200 F 
ATOM     93  F   UNL A   1      47.379  27.163  37.004  1.00  0.00    -0.200 F 
ENDBRANCH  60  83
ENDBRANCH  34  35
ENDBRANCH  26  29
ENDBRANCH  24  25
ENDBRANCH   1  24
TORSDOF 12
ENDMDL
MODEL 2
REMARK VINA RESULT:     -12.7      5.745     11.086
REMARK SMILES CC1CCN(C(=O)N[C@]2(C(=O)NCCCCNC(=O)c3ccc(-c4c5nc(c(-c6c(F)c(F)c(F)c(F)c6F)c6ccc([nH]6)c(-c6c(F)c(F)c(F)c(F)c6F)c6nc(c(-c7c(F)c(F)c(F)c(F)c7F)c7ccc4[nH]7)C=C6)C=C5)cc3)CCSC2)CC1
REMARK SMILES IDX 15 1 14 2 13 3 12 4 10 5 11 6 9 8 83 9 86 10 84 11 85 12
REMARK SMILES IDX 8 13 1 14 2 15 3 16 88 17 4 18 87 19 5 20 6 21 7 22 16 24
REMARK SMILES IDX 17 25 18 26 19 28 20 29 21 30 82 31 22 32 81 33 23 34 24 35
REMARK SMILES IDX 25 36 75 37 26 38 80 39 74 40 76 41 27 42 79 43 73 44 72 45
REMARK SMILES IDX 28 47 60 48 40 49 59 50 41 51 44 52 58 53 77 54 42 55 43 56
REMARK SMILES IDX 57 58 78 59 45 60 29 61 30 62 38 63 31 64 32 65 36 66 39 67
REMARK SMILES IDX 33 68 34 69 37 70 35 71 61 72 62 73 70 74 63 75 64 76 68 77
REMARK SMILES IDX 71 78 65 79 66 80 69 81 67 82 46 83 47 84 55 85 48 86 49 87
REMARK SMILES IDX 53 88 56 89 50 90 51 91 54 92 52 93
REMARK H PARENT 12 7 8 23 17 27 76 46 44 57
REMARK Flexibility Score: inf
ROOT
ATOM      1  C   UNL A   1      38.064  19.768  24.765  1.00  0.00     0.023 C 
ENDROOT
BRANCH   1   2
ATOM      2  C   UNL A   1      36.617  20.178  25.035  1.00  0.00     0.023 C 
BRANCH   2   3
ATOM      3  C   UNL A   1      36.185  21.633  24.799  1.00  0.00     0.116 C 
BRANCH   3   4
ATOM      4  N   UNL A   1      35.558  22.317  25.914  1.00  0.00    -0.354 N 
ATOM      5  C   UNL A   1      34.314  22.275  26.462  1.00  0.00     0.246 C 
ATOM      6  O   UNL A   1      34.267  22.657  27.642  1.00  0.00    -0.272 OA
ATOM      7  H   UNL A   1      36.162  22.947  26.369  1.00  0.00     0.163 HD
BRANCH   5   8
ATOM      8  C   UNL A   1      33.020  21.759  25.765  1.00  0.00     0.130 C 
ATOM      9  C   UNL A   1      32.799  21.918  24.249  1.00  0.00     0.050 C 
ATOM     10  C   UNL A   1      33.048  20.229  26.087  1.00  0.00     0.108 C 
ATOM     11  C   UNL A   1      32.349  20.612  23.612  1.00  0.00     0.072 C 
ATOM     12  S   UNL A   1      33.256  19.359  24.517  1.00  0.00    -0.159 SA
BRANCH   8  13
ATOM     13  N   UNL A   1      31.856  22.381  26.471  1.00  0.00    -0.323 N 
ATOM     14  C   UNL A   1      34.160  28.046  26.344  1.00  0.00     0.008 C 
ATOM     15  C   UNL A   1      33.060  27.166  25.751  1.00  0.00    -0.011 C 
ATOM     16  C   UNL A   1      31.896  26.963  26.734  1.00  0.00     0.025 C 
ATOM     17  C   UNL A   1      33.642  25.807  25.361  1.00  0.00     0.025 C 
ATOM     18  C   UNL A   1      30.876  25.934  26.219  1.00  0.00     0.121 C 
ATOM     19  C   UNL A   1      32.552  24.887  24.818  1.00  0.00     0.121 C 
ATOM     20  N   UNL A   1      31.536  24.676  25.834  1.00  0.00    -0.325 N 
ATOM     21  C   UNL A   1      31.171  23.537  26.489  1.00  0.00     0.318 C 
ATOM     22  O   UNL A   1      30.164  23.504  27.207  1.00  0.00    -0.249 OA
ATOM     23  H   UNL A   1      31.474  21.749  27.122  1.00  0.00     0.166 HD
ENDBRANCH   8  13
ENDBRANCH   5   8
ENDBRANCH   3   4
ENDBRANCH   2   3
ENDBRANCH   1   2
BRANCH   1  24
ATOM     24  C   UNL A   1      39.095  20.129  25.820  1.00  0.00     0.116 C 
BRANCH  24  25
ATOM     25  N   UNL A   1      40.157  19.144  25.899  1.00  0.00    -0.352 N 
ATOM     26  C   UNL A   1      41.504  19.324  26.075  1.00  0.00     0.251 C 
ATOM     27  H   UNL A   1      39.867  18.208  25.812  1.00  0.00     0.163 HD
ATOM     28  O   UNL A   1      42.268  18.377  25.928  1.00  0.00    -0.269 OA
BRANCH  26  29
ATOM     29  C   UNL A   1      42.045  20.660  26.414  1.00  0.00     0.039 A 
ATOM     30  C   UNL A   1      42.384  21.523  25.368  1.00  0.00     0.014 A 
ATOM     31  C   UNL A   1      42.244  21.055  27.740  1.00  0.00     0.014 A 
ATOM     32  C   UNL A   1      42.876  22.797  25.652  1.00  0.00     0.010 A 
ATOM     33  C   UNL A   1      42.670  22.352  28.022  1.00  0.00     0.010 A 
ATOM     34  C   UNL A   1      42.995  23.234  26.980  1.00  0.00    -0.014 A 
BRANCH  34  35
ATOM     35  C   UNL A   1      43.455  24.613  27.288  1.00  0.00     0.031 A 
ATOM     36  C   UNL A   1      42.490  25.637  27.820  1.00  0.00     0.074 A 
ATOM     37  C   UNL A   1      44.736  24.953  27.048  1.00  0.00     0.049 A 
ATOM     38  N   UNL A   1      42.698  26.897  28.110  1.00  0.00    -0.248 NA
ATOM     39  C   UNL A   1      41.104  25.195  28.033  1.00  0.00     0.031 C 
ATOM     40  C   UNL A   1      45.756  24.061  26.493  1.00  0.00     0.029 A 
ATOM     41  N   UNL A   1      45.400  26.140  27.232  1.00  0.00    -0.354 N 
ATOM     42  C   UNL A   1      41.471  27.398  28.528  1.00  0.00     0.074 A 
ATOM     43  C   UNL A   1      40.513  26.321  28.406  1.00  0.00     0.031 C 
ATOM     44  C   UNL A   1      46.919  24.726  26.400  1.00  0.00     0.029 A 
ATOM     45  C   UNL A   1      46.719  26.099  26.852  1.00  0.00     0.049 A 
ATOM     46  H   UNL A   1      44.970  26.946  27.601  1.00  0.00     0.167 HD
ATOM     47  C   UNL A   1      41.178  28.635  28.991  1.00  0.00     0.037 A 
ATOM     48  C   UNL A   1      47.659  27.063  26.857  1.00  0.00     0.037 A 
ATOM     49  C   UNL A   1      42.141  29.698  29.132  1.00  0.00     0.049 A 
ATOM     50  C   UNL A   1      47.301  28.434  27.368  1.00  0.00     0.074 A 
ATOM     51  C   UNL A   1      41.954  30.967  29.651  1.00  0.00     0.029 A 
ATOM     52  N   UNL A   1      43.471  29.615  28.747  1.00  0.00    -0.354 N 
ATOM     53  N   UNL A   1      46.156  28.871  27.833  1.00  0.00    -0.248 NA
ATOM     54  C   UNL A   1      48.370  29.442  27.363  1.00  0.00     0.031 C 
ATOM     55  C   UNL A   1      43.157  31.671  29.529  1.00  0.00     0.029 A 
ATOM     56  C   UNL A   1      44.109  30.821  28.991  1.00  0.00     0.049 A 
ATOM     57  H   UNL A   1      43.899  28.818  28.358  1.00  0.00     0.167 HD
ATOM     58  C   UNL A   1      46.373  30.192  28.200  1.00  0.00     0.074 A 
ATOM     59  C   UNL A   1      47.765  30.479  27.924  1.00  0.00     0.031 C 
ATOM     60  C   UNL A   1      45.498  31.089  28.718  1.00  0.00     0.037 A 
BRANCH  47  61
ATOM     61  C   UNL A   1      39.757  28.918  29.385  1.00  0.00     0.064 A 
ATOM     62  C   UNL A   1      38.814  29.388  28.458  1.00  0.00     0.173 A 
ATOM     63  C   UNL A   1      39.316  28.658  30.692  1.00  0.00     0.173 A 
ATOM     64  F   UNL A   1      39.186  29.663  27.198  1.00  0.00    -0.203 F 
ATOM     65  C   UNL A   1      37.490  29.607  28.829  1.00  0.00     0.198 A 
ATOM     66  C   UNL A   1      37.984  28.848  31.051  1.00  0.00     0.198 A 
ATOM     67  F   UNL A   1      40.174  28.201  31.616  1.00  0.00    -0.203 F 
ATOM     68  F   UNL A   1      36.618  30.095  27.936  1.00  0.00    -0.200 F 
ATOM     69  C   UNL A   1      37.074  29.327  30.122  1.00  0.00     0.200 A 
ATOM     70  F   UNL A   1      37.581  28.563  32.297  1.00  0.00    -0.200 F 
ATOM     71  F   UNL A   1      35.796  29.524  30.472  1.00  0.00    -0.200 F 
ENDBRANCH  47  61
BRANCH  48  72
ATOM     72  C   UNL A   1      49.034  26.770  26.371  1.00  0.00     0.064 A 
ATOM     73  C   UNL A   1      49.392  26.994  25.034  1.00  0.00     0.173 A 
ATOM     74  C   UNL A   1      50.011  26.240  27.227  1.00  0.00     0.173 A 
ATOM     75  F   UNL A   1      48.487  27.482  24.172  1.00  0.00    -0.203 F 
ATOM     76  C   UNL A   1      50.663  26.671  24.565  1.00  0.00     0.198 A 
ATOM     77  C   UNL A   1      51.292  25.948  26.763  1.00  0.00     0.198 A 
ATOM     78  F   UNL A   1      49.724  26.013  28.517  1.00  0.00    -0.203 F 
ATOM     79  F   UNL A   1      50.959  26.841  23.269  1.00  0.00    -0.200 F 
ATOM     80  C   UNL A   1      51.614  26.152  25.430  1.00  0.00     0.200 A 
ATOM     81  F   UNL A   1      52.213  25.463  27.608  1.00  0.00    -0.200 F 
ATOM     82  F   UNL A   1      52.836  25.841  24.979  1.00  0.00    -0.200 F 
ENDBRANCH  48  72
BRANCH  60  83
ATOM     83  C   UNL A   1      46.028  32.453  29.054  1.00  0.00     0.064 A 
ATOM     84  C   UNL A   1      46.595  32.737  30.305  1.00  0.00     0.173 A 
ATOM     85  C   UNL A   1      45.998  33.481  28.099  1.00  0.00     0.173 A 
ATOM     86  F   UNL A   1      46.635  31.794  31.258  1.00  0.00    -0.203 F 
ATOM     87  C   UNL A   1      47.083  34.008  30.598  1.00  0.00     0.198 A 
ATOM     88  C   UNL A   1      46.518  34.741  28.384  1.00  0.00     0.198 A 
ATOM     89  F   UNL A   1      45.474  33.261  26.884  1.00  0.00    -0.203 F 
ATOM     90  F   UNL A   1      47.570  34.271  31.819  1.00  0.00    -0.200 F 
ATOM     91  C   UNL A   1      47.051  35.006  29.635  1.00  0.00     0.200 A 
ATOM     92  F   UNL A   1      46.500  35.698  27.446  1.00  0.00    -0.200 F 
ATOM     93  F   UNL A   1      47.527  36.226  29.917  1.00  0.00    -0.200 F 
ENDBRANCH  60  83
ENDBRANCH  34  35
ENDBRANCH  26  29
ENDBRANCH  24  25
ENDBRANCH   1  24
TORSDOF 12
ENDMDL
MODEL 3
REMARK VINA RESULT:     -12.6      0.588      7.456
REMARK SMILES CC1CCN(C(=O)N[C@]2(C(=O)NCCCCNC(=O)c3ccc(-c4c5nc(c(-c6c(F)c(F)c(F)c(F)c6F)c6ccc([nH]6)c(-c6c(F)c(F)c(F)c(F)c6F)c6nc(c(-c7c(F)c(F)c(F)c(F)c7F)c7ccc4[nH]7)C=C6)C=C5)cc3)CCSC2)CC1
REMARK SMILES IDX 15 1 14 2 13 3 12 4 10 5 11 6 9 8 83 9 86 10 84 11 85 12
REMARK SMILES IDX 8 13 1 14 2 15 3 16 88 17 4 18 87 19 5 20 6 21 7 22 16 24
REMARK SMILES IDX 17 25 18 26 19 28 20 29 21 30 82 31 22 32 81 33 23 34 24 35
REMARK SMILES IDX 25 36 75 37 26 38 80 39 74 40 76 41 27 42 79 43 73 44 72 45
REMARK SMILES IDX 28 47 60 48 40 49 59 50 41 51 44 52 58 53 77 54 42 55 43 56
REMARK SMILES IDX 57 58 78 59 45 60 29 61 30 62 38 63 31 64 32 65 36 66 39 67
REMARK SMILES IDX 33 68 34 69 37 70 35 71 61 72 62 73 70 74 63 75 64 76 68 77
REMARK SMILES IDX 71 78 65 79 66 80 69 81 67 82 46 83 47 84 55 85 48 86 49 87
REMARK SMILES IDX 53 88 56 89 50 90 51 91 54 92 52 93
REMARK H PARENT 12 7 8 23 17 27 76 46 44 57
REMARK Flexibility Score: inf
ROOT
ATOM      1  C   UNL A   1      31.403  31.948  26.876  1.00  0.00     0.023 C 
ENDROOT
BRANCH   1   2
ATOM      2  C   UNL A   1      31.332  30.959  25.714  1.00  0.00     0.023 C 
BRANCH   2   3
ATOM      3  C   UNL A   1      31.778  29.505  25.930  1.00  0.00     0.116 C 
BRANCH   3   4
ATOM      4  N   UNL A   1      32.841  29.014  25.074  1.00  0.00    -0.354 N 
ATOM      5  C   UNL A   1      32.882  28.562  23.792  1.00  0.00     0.246 C 
ATOM      6  O   UNL A   1      34.002  28.639  23.263  1.00  0.00    -0.272 OA
ATOM      7  H   UNL A   1      33.720  29.005  25.517  1.00  0.00     0.163 HD
BRANCH   5   8
ATOM      8  C   UNL A   1      31.671  28.031  22.966  1.00  0.00     0.130 C 
ATOM      9  C   UNL A   1      30.480  27.326  23.640  1.00  0.00     0.050 C 
ATOM     10  C   UNL A   1      31.135  29.328  22.278  1.00  0.00     0.108 C 
ATOM     11  C   UNL A   1      29.153  27.894  23.158  1.00  0.00     0.072 C 
ATOM     12  S   UNL A   1      29.487  29.642  22.948  1.00  0.00    -0.159 SA
BRANCH   8  13
ATOM     13  N   UNL A   1      32.218  27.116  21.914  1.00  0.00    -0.323 N 
ATOM     14  C   UNL A   1      35.889  24.078  25.751  1.00  0.00     0.008 C 
ATOM     15  C   UNL A   1      34.618  23.936  24.914  1.00  0.00    -0.011 C 
ATOM     16  C   UNL A   1      34.931  23.735  23.423  1.00  0.00     0.025 C 
ATOM     17  C   UNL A   1      33.745  25.180  25.090  1.00  0.00     0.025 C 
ATOM     18  C   UNL A   1      33.663  23.777  22.554  1.00  0.00     0.121 C 
ATOM     19  C   UNL A   1      32.493  25.090  24.220  1.00  0.00     0.121 C 
ATOM     20  N   UNL A   1      32.873  24.989  22.822  1.00  0.00    -0.325 N 
ATOM     21  C   UNL A   1      32.658  25.853  21.789  1.00  0.00     0.318 C 
ATOM     22  O   UNL A   1      32.903  25.529  20.620  1.00  0.00    -0.249 OA
ATOM     23  H   UNL A   1      32.271  27.583  21.050  1.00  0.00     0.166 HD
ENDBRANCH   8  13
ENDBRANCH   5   8
ENDBRANCH   3   4
ENDBRANCH   2   3
ENDBRANCH   1   2
BRANCH   1  24
ATOM     24  C   UNL A   1      32.720  32.673  27.090  1.00  0.00     0.116 C 
BRANCH  24  25
ATOM     25  N   UNL A   1      32.523  34.007  27.626  1.00  0.00    -0.352 N 
ATOM     26  C   UNL A   1      33.144  34.625  28.680  1.00  0.00     0.251 C 
ATOM     27  H   UNL A   1      31.843  34.548  27.164  1.00  0.00     0.163 HD
ATOM     28  O   UNL A   1      32.709  35.691  29.100  1.00  0.00    -0.269 OA
BRANCH  26  29
ATOM     29  C   UNL A   1      34.317  34.000  29.332  1.00  0.00     0.039 A 
ATOM     30  C   UNL A   1      34.092  33.076  30.356  1.00  0.00     0.014 A 
ATOM     31  C   UNL A   1      35.623  34.334  28.965  1.00  0.00     0.014 A 
ATOM     32  C   UNL A   1      35.173  32.452  30.977  1.00  0.00     0.010 A 
ATOM     33  C   UNL A   1      36.700  33.659  29.539  1.00  0.00     0.010 A 
ATOM     34  C   UNL A   1      36.485  32.715  30.555  1.00  0.00    -0.014 A 
BRANCH  34  35
ATOM     35  C   UNL A   1      37.638  32.005  31.167  1.00  0.00     0.031 A 
ATOM     36  C   UNL A   1      38.110  32.367  32.547  1.00  0.00     0.074 A 
ATOM     37  C   UNL A   1      38.286  31.060  30.457  1.00  0.00     0.049 A 
ATOM     38  N   UNL A   1      39.119  31.886  33.230  1.00  0.00    -0.248 NA
ATOM     39  C   UNL A   1      37.366  33.426  33.247  1.00  0.00     0.031 C 
ATOM     40  C   UNL A   1      37.950  30.651  29.093  1.00  0.00     0.029 A 
ATOM     41  N   UNL A   1      39.366  30.277  30.782  1.00  0.00    -0.354 N 
ATOM     42  C   UNL A   1      39.136  32.588  34.429  1.00  0.00     0.074 A 
ATOM     43  C   UNL A   1      38.069  33.562  34.362  1.00  0.00     0.031 C 
ATOM     44  C   UNL A   1      38.792  29.680  28.704  1.00  0.00     0.029 A 
ATOM     45  C   UNL A   1      39.751  29.425  29.776  1.00  0.00     0.049 A 
ATOM     46  H   UNL A   1      39.821  30.322  31.654  1.00  0.00     0.167 HD
ATOM     47  C   UNL A   1      39.953  32.418  35.495  1.00  0.00     0.037 A 
ATOM     48  C   UNL A   1      40.769  28.546  29.719  1.00  0.00     0.037 A 
ATOM     49  C   UNL A   1      41.000  31.431  35.565  1.00  0.00     0.049 A 
ATOM     50  C   UNL A   1      41.668  28.386  30.916  1.00  0.00     0.074 A 
ATOM     51  C   UNL A   1      41.839  31.139  36.626  1.00  0.00     0.029 A 
ATOM     52  N   UNL A   1      41.352  30.578  34.530  1.00  0.00    -0.354 N 
ATOM     53  N   UNL A   1      41.623  29.001  32.073  1.00  0.00    -0.248 NA
ATOM     54  C   UNL A   1      42.753  27.402  30.803  1.00  0.00     0.031 C 
ATOM     55  C   UNL A   1      42.736  30.148  36.215  1.00  0.00     0.029 A 
ATOM     56  C   UNL A   1      42.417  29.780  34.919  1.00  0.00     0.049 A 
ATOM     57  H   UNL A   1      40.913  30.545  33.650  1.00  0.00     0.167 HD
ATOM     58  C   UNL A   1      42.653  28.461  32.832  1.00  0.00     0.074 A 
ATOM     59  C   UNL A   1      43.291  27.453  32.012  1.00  0.00     0.031 C 
ATOM     60  C   UNL A   1      43.037  28.774  34.094  1.00  0.00     0.037 A 
BRANCH  47  61
ATOM     61  C   UNL A   1      39.753  33.317  36.682  1.00  0.00     0.064 A 
ATOM     62  C   UNL A   1      40.425  34.543  36.799  1.00  0.00     0.173 A 
ATOM     63  C   UNL A   1      38.831  32.977  37.684  1.00  0.00     0.173 A 
ATOM     64  F   UNL A   1      41.324  34.911  35.874  1.00  0.00    -0.203 F 
ATOM     65  C   UNL A   1      40.198  35.384  37.885  1.00  0.00     0.198 A 
ATOM     66  C   UNL A   1      38.584  33.835  38.752  1.00  0.00     0.198 A 
ATOM     67  F   UNL A   1      38.156  31.820  37.617  1.00  0.00    -0.203 F 
ATOM     68  F   UNL A   1      40.883  36.531  37.997  1.00  0.00    -0.200 F 
ATOM     69  C   UNL A   1      39.271  35.034  38.855  1.00  0.00     0.200 A 
ATOM     70  F   UNL A   1      37.677  33.502  39.680  1.00  0.00    -0.200 F 
ATOM     71  F   UNL A   1      39.043  35.853  39.892  1.00  0.00    -0.200 F 
ENDBRANCH  47  61
BRANCH  48  72
ATOM     72  C   UNL A   1      40.992  27.738  28.490  1.00  0.00     0.064 A 
ATOM     73  C   UNL A   1      41.867  28.176  27.485  1.00  0.00     0.173 A 
ATOM     74  C   UNL A   1      40.320  26.524  28.284  1.00  0.00     0.173 A 
ATOM     75  F   UNL A   1      42.518  29.340  27.626  1.00  0.00    -0.203 F 
ATOM     76  C   UNL A   1      42.037  27.447  26.310  1.00  0.00     0.198 A 
ATOM     77  C   UNL A   1      40.516  25.780  27.122  1.00  0.00     0.198 A 
ATOM     78  F   UNL A   1      39.478  26.055  29.216  1.00  0.00    -0.203 F 
ATOM     79  F   UNL A   1      42.834  27.919  25.342  1.00  0.00    -0.200 F 
ATOM     80  C   UNL A   1      41.365  26.248  26.131  1.00  0.00     0.200 A 
ATOM     81  F   UNL A   1      39.878  24.612  26.961  1.00  0.00    -0.200 F 
ATOM     82  F   UNL A   1      41.528  25.548  25.001  1.00  0.00    -0.200 F 
ENDBRANCH  48  72
BRANCH  60  83
ATOM     83  C   UNL A   1      44.178  27.993  34.680  1.00  0.00     0.064 A 
ATOM     84  C   UNL A   1      45.503  28.444  34.591  1.00  0.00     0.173 A 
ATOM     85  C   UNL A   1      43.938  26.794  35.367  1.00  0.00     0.173 A 
ATOM     86  F   UNL A   1      45.788  29.577  33.931  1.00  0.00    -0.203 F 
ATOM     87  C   UNL A   1      46.549  27.706  35.140  1.00  0.00     0.198 A 
ATOM     88  C   UNL A   1      44.982  26.077  35.946  1.00  0.00     0.198 A 
ATOM     89  F   UNL A   1      42.688  26.322  35.488  1.00  0.00    -0.203 F 
ATOM     90  F   UNL A   1      47.813  28.129  34.995  1.00  0.00    -0.200 F 
ATOM     91  C   UNL A   1      46.287  26.528  35.824  1.00  0.00     0.200 A 
ATOM     92  F   UNL A   1      44.724  24.947  36.618  1.00  0.00    -0.200 F 
ATOM     93  F   UNL A   1      47.293  25.824  36.358  1.00  0.00    -0.200 F 
ENDBRANCH  60  83
ENDBRANCH  34  35
ENDBRANCH  26  29
ENDBRANCH  24  25
ENDBRANCH   1  24
TORSDOF 12
ENDMDL
