MODEL 1
REMARK VINA RESULT:     -11.2      0.000      0.000
REMARK SMILES C[C@@H]([NH+]1CCC(CCC(=O)NCCCCNC(=O)c2ccc(-c3c4nc(c(-c5c(F)c(F)c(F)c(F)c5F)c5ccc([nH]5)c(-c5c(F)c(F)c(F)c(F)c5F)c5nc(c(-c6c(F)c(F)c(F)c(F)c6F)c6ccc3[nH]6)C=C5)C=C4)cc2)CC1)C1(C)CC1
REMARK SMILES IDX 12 1 11 2 9 3 10 4 8 6 7 7 6 8 3 9 4 10 83 11 5 13 82 14
REMARK SMILES IDX 2 15 1 16 84 17 85 18 86 19 87 20 13 21 14 22 15 23 16 24
REMARK SMILES IDX 17 25 18 27 19 28 20 29 81 30 21 31 80 32 22 33 23 34 24 35
REMARK SMILES IDX 74 36 25 37 79 38 73 39 75 40 26 41 78 42 72 43 71 44 27 46
REMARK SMILES IDX 59 47 39 48 58 49 40 50 43 51 57 52 76 53 41 54 42 55 56 57
REMARK SMILES IDX 77 58 44 59 28 60 29 61 37 62 30 63 31 64 35 65 38 66 32 67
REMARK SMILES IDX 33 68 36 69 34 70 60 71 61 72 69 73 62 74 63 75 67 76 70 77
REMARK SMILES IDX 64 78 65 79 68 80 66 81 45 82 46 83 54 84 47 85 48 86 52 87
REMARK SMILES IDX 55 88 49 89 50 90 53 91 51 92
REMARK H PARENT 11 5 3 12 16 26 75 45 43 56
REMARK Flexibility Score: inf
ROOT
ATOM      1  C   UNL A   1      35.150  32.938  27.971  1.00  0.00     0.116 C 
ENDROOT
BRANCH   1   2
ATOM      2  N   UNL A   1      35.570  31.560  28.118  1.00  0.00    -0.356 N 
ATOM      3  C   UNL A   1      34.941  30.409  27.753  1.00  0.00     0.220 C 
ATOM      4  O   UNL A   1      35.432  29.343  28.127  1.00  0.00    -0.275 OA
ATOM      5  H   UNL A   1      36.447  31.437  28.550  1.00  0.00     0.163 HD
BRANCH   3   6
ATOM      6  C   UNL A   1      33.697  30.434  26.878  1.00  0.00     0.100 C 
BRANCH   6   7
ATOM      7  C   UNL A   1      32.620  29.401  27.250  1.00  0.00     0.014 C 
BRANCH   7   8
ATOM      8  C   UNL A   1      32.443  28.277  26.219  1.00  0.00     0.000 C 
ATOM      9  N   UNL A   1      32.356  25.671  24.895  1.00  0.00    -0.332 N 
ATOM     10  C   UNL A   1      33.501  26.560  24.709  1.00  0.00     0.262 C 
ATOM     11  C   UNL A   1      31.141  26.278  25.446  1.00  0.00     0.262 C 
ATOM     12  H   UNL A   1      32.713  25.092  25.656  1.00  0.00     0.348 HD
ATOM     13  C   UNL A   1      33.732  27.523  25.880  1.00  0.00     0.065 C 
ATOM     14  C   UNL A   1      31.404  27.230  26.625  1.00  0.00     0.065 C 
BRANCH   9  15
ATOM     15  C   UNL A   1      32.087  24.704  23.809  1.00  0.00     0.186 C 
ATOM     16  C   UNL A   1      30.636  24.778  23.297  1.00  0.00     0.076 C 
BRANCH  15  17
ATOM     17  C   UNL A   1      32.515  23.232  23.991  1.00  0.00     0.019 C 
ATOM     18  C   UNL A   1      32.203  22.668  25.360  1.00  0.00     0.018 C 
ATOM     19  C   UNL A   1      32.520  22.216  22.871  1.00  0.00     0.013 C 
ATOM     20  C   UNL A   1      33.818  22.771  23.354  1.00  0.00     0.013 C 
ENDBRANCH  15  17
ENDBRANCH   9  15
ENDBRANCH   7   8
ENDBRANCH   6   7
ENDBRANCH   3   6
ENDBRANCH   1   2
BRANCH   1  21
ATOM     21  C   UNL A   1      34.386  33.394  29.216  1.00  0.00     0.023 C 
BRANCH  21  22
ATOM     22  C   UNL A   1      33.278  34.414  29.001  1.00  0.00     0.023 C 
BRANCH  22  23
ATOM     23  C   UNL A   1      33.557  35.826  29.503  1.00  0.00     0.116 C 
BRANCH  23  24
ATOM     24  N   UNL A   1      32.630  36.320  30.514  1.00  0.00    -0.352 N 
ATOM     25  C   UNL A   1      32.638  36.086  31.870  1.00  0.00     0.251 C 
ATOM     26  H   UNL A   1      31.904  36.897  30.184  1.00  0.00     0.163 HD
ATOM     27  O   UNL A   1      31.810  36.581  32.629  1.00  0.00    -0.269 OA
BRANCH  25  28
ATOM     28  C   UNL A   1      33.680  35.220  32.429  1.00  0.00     0.039 A 
ATOM     29  C   UNL A   1      33.366  33.920  32.836  1.00  0.00     0.014 A 
ATOM     30  C   UNL A   1      34.982  35.712  32.496  1.00  0.00     0.014 A 
ATOM     31  C   UNL A   1      34.392  33.078  33.258  1.00  0.00     0.010 A 
ATOM     32  C   UNL A   1      36.006  34.847  32.820  1.00  0.00     0.010 A 
ATOM     33  C   UNL A   1      35.718  33.531  33.219  1.00  0.00    -0.014 A 
BRANCH  33  34
ATOM     34  C   UNL A   1      36.862  32.696  33.636  1.00  0.00     0.031 A 
ATOM     35  C   UNL A   1      37.509  32.999  34.955  1.00  0.00     0.074 A 
ATOM     36  C   UNL A   1      37.394  31.818  32.766  1.00  0.00     0.049 A 
ATOM     37  N   UNL A   1      38.674  32.629  35.414  1.00  0.00    -0.248 NA
ATOM     38  C   UNL A   1      36.770  33.906  35.852  1.00  0.00     0.031 C 
ATOM     39  C   UNL A   1      36.855  31.502  31.441  1.00  0.00     0.029 A 
ATOM     40  N   UNL A   1      38.530  31.059  32.853  1.00  0.00    -0.354 N 
ATOM     41  C   UNL A   1      38.831  33.306  36.617  1.00  0.00     0.074 A 
ATOM     42  C   UNL A   1      37.664  34.136  36.801  1.00  0.00     0.031 C 
ATOM     43  C   UNL A   1      37.660  30.608  30.842  1.00  0.00     0.029 A 
ATOM     44  C   UNL A   1      38.788  30.327  31.720  1.00  0.00     0.049 A 
ATOM     45  H   UNL A   1      39.106  31.040  33.651  1.00  0.00     0.167 HD
ATOM     46  C   UNL A   1      39.861  33.223  37.489  1.00  0.00     0.037 A 
ATOM     47  C   UNL A   1      39.836  29.535  31.430  1.00  0.00     0.037 A 
ATOM     48  C   UNL A   1      40.972  32.328  37.307  1.00  0.00     0.049 A 
ATOM     49  C   UNL A   1      40.927  29.398  32.457  1.00  0.00     0.074 A 
ATOM     50  C   UNL A   1      42.028  32.074  38.161  1.00  0.00     0.029 A 
ATOM     51  N   UNL A   1      41.151  31.523  36.189  1.00  0.00    -0.354 N 
ATOM     52  N   UNL A   1      41.049  29.998  33.619  1.00  0.00    -0.248 NA
ATOM     53  C   UNL A   1      42.024  28.474  32.142  1.00  0.00     0.031 C 
ATOM     54  C   UNL A   1      42.862  31.134  37.548  1.00  0.00     0.029 A 
ATOM     55  C   UNL A   1      42.303  30.772  36.330  1.00  0.00     0.049 A 
ATOM     56  H   UNL A   1      40.546  31.491  35.413  1.00  0.00     0.167 HD
ATOM     57  C   UNL A   1      42.214  29.503  34.186  1.00  0.00     0.074 A 
ATOM     58  C   UNL A   1      42.755  28.542  33.244  1.00  0.00     0.031 C 
ATOM     59  C   UNL A   1      42.790  29.811  35.373  1.00  0.00     0.037 A 
BRANCH  46  60
ATOM     60  C   UNL A   1      39.830  34.105  38.704  1.00  0.00     0.064 A 
ATOM     61  C   UNL A   1      40.420  35.379  38.712  1.00  0.00     0.173 A 
ATOM     62  C   UNL A   1      39.177  33.681  39.872  1.00  0.00     0.173 A 
ATOM     63  F   UNL A   1      41.071  35.827  37.628  1.00  0.00    -0.203 F 
ATOM     64  C   UNL A   1      40.382  36.181  39.849  1.00  0.00     0.198 A 
ATOM     65  C   UNL A   1      39.114  34.500  40.998  1.00  0.00     0.198 A 
ATOM     66  F   UNL A   1      38.597  32.473  39.923  1.00  0.00    -0.203 F 
ATOM     67  F   UNL A   1      40.998  37.371  39.847  1.00  0.00    -0.200 F 
ATOM     68  C   UNL A   1      39.722  35.745  40.987  1.00  0.00     0.200 A 
ATOM     69  F   UNL A   1      38.467  34.080  42.094  1.00  0.00    -0.200 F 
ATOM     70  F   UNL A   1      39.678  36.523  42.078  1.00  0.00    -0.200 F 
ENDBRANCH  46  60
BRANCH  47  71
ATOM     71  C   UNL A   1      39.883  28.788  30.145  1.00  0.00     0.064 A 
ATOM     72  C   UNL A   1      40.485  29.357  29.014  1.00  0.00     0.173 A 
ATOM     73  C   UNL A   1      39.343  27.500  30.015  1.00  0.00     0.173 A 
ATOM     74  F   UNL A   1      41.005  30.591  29.083  1.00  0.00    -0.203 F 
ATOM     75  C   UNL A   1      40.523  28.678  27.797  1.00  0.00     0.198 A 
ATOM     76  C   UNL A   1      39.406  26.811  28.805  1.00  0.00     0.198 A 
ATOM     77  F   UNL A   1      38.766  26.904  31.069  1.00  0.00    -0.203 F 
ATOM     78  F   UNL A   1      41.065  29.267  26.721  1.00  0.00    -0.200 F 
ATOM     79  C   UNL A   1      39.987  27.404  27.694  1.00  0.00     0.200 A 
ATOM     80  F   UNL A   1      38.903  25.573  28.714  1.00  0.00    -0.200 F 
ATOM     81  F   UNL A   1      40.028  26.751  26.525  1.00  0.00    -0.200 F 
ENDBRANCH  47  71
BRANCH  59  82
ATOM     82  C   UNL A   1      44.039  29.067  35.731  1.00  0.00     0.064 A 
ATOM     83  C   UNL A   1      43.992  27.845  36.417  1.00  0.00     0.173 A 
ATOM     84  C   UNL A   1      45.292  29.562  35.343  1.00  0.00     0.173 A 
ATOM     85  F   UNL A   1      42.816  27.343  36.822  1.00  0.00    -0.203 F 
ATOM     86  C   UNL A   1      45.161  27.158  36.724  1.00  0.00     0.198 A 
ATOM     87  C   UNL A   1      46.456  28.858  35.625  1.00  0.00     0.198 A 
ATOM     88  F   UNL A   1      45.383  30.724  34.676  1.00  0.00    -0.203 F 
ATOM     89  F   UNL A   1      45.100  26.015  37.422  1.00  0.00    -0.200 F 
ATOM     90  C   UNL A   1      46.391  27.661  36.322  1.00  0.00     0.200 A 
ATOM     91  F   UNL A   1      47.642  29.336  35.225  1.00  0.00    -0.200 F 
ATOM     92  F   UNL A   1      47.514  26.991  36.613  1.00  0.00    -0.200 F 
ENDBRANCH  59  82
ENDBRANCH  33  34
ENDBRANCH  25  28
ENDBRANCH  23  24
ENDBRANCH  22  23
ENDBRANCH  21  22
ENDBRANCH   1  21
TORSDOF 15
ENDMDL
MODEL 2
REMARK VINA RESULT:     -11.0      0.490      2.033
REMARK SMILES C[C@@H]([NH+]1CCC(CCC(=O)NCCCCNC(=O)c2ccc(-c3c4nc(c(-c5c(F)c(F)c(F)c(F)c5F)c5ccc([nH]5)c(-c5c(F)c(F)c(F)c(F)c5F)c5nc(c(-c6c(F)c(F)c(F)c(F)c6F)c6ccc3[nH]6)C=C5)C=C4)cc2)CC1)C1(C)CC1
REMARK SMILES IDX 12 1 11 2 9 3 10 4 8 6 7 7 6 8 3 9 4 10 83 11 5 13 82 14
REMARK SMILES IDX 2 15 1 16 84 17 85 18 86 19 87 20 13 21 14 22 15 23 16 24
REMARK SMILES IDX 17 25 18 27 19 28 20 29 81 30 21 31 80 32 22 33 23 34 24 35
REMARK SMILES IDX 74 36 25 37 79 38 73 39 75 40 26 41 78 42 72 43 71 44 27 46
REMARK SMILES IDX 59 47 39 48 58 49 40 50 43 51 57 52 76 53 41 54 42 55 56 57
REMARK SMILES IDX 77 58 44 59 28 60 29 61 37 62 30 63 31 64 35 65 38 66 32 67
REMARK SMILES IDX 33 68 36 69 34 70 60 71 61 72 69 73 62 74 63 75 67 76 70 77
REMARK SMILES IDX 64 78 65 79 68 80 66 81 45 82 46 83 54 84 47 85 48 86 52 87
REMARK SMILES IDX 55 88 49 89 50 90 53 91 51 92
REMARK H PARENT 11 5 3 12 16 26 75 45 43 56
REMARK Flexibility Score: inf
ROOT
ATOM      1  C   UNL A   1      33.961  32.157  28.183  1.00  0.00     0.116 C 
ENDROOT
BRANCH   1   2
ATOM      2  N   UNL A   1      35.178  31.469  27.807  1.00  0.00    -0.356 N 
ATOM      3  C   UNL A   1      35.393  30.152  27.537  1.00  0.00     0.220 C 
ATOM      4  O   UNL A   1      36.558  29.778  27.389  1.00  0.00    -0.275 OA
ATOM      5  H   UNL A   1      35.975  32.044  27.736  1.00  0.00     0.163 HD
BRANCH   3   6
ATOM      6  C   UNL A   1      34.233  29.181  27.379  1.00  0.00     0.100 C 
BRANCH   6   7
ATOM      7  C   UNL A   1      33.436  29.325  26.072  1.00  0.00     0.014 C 
BRANCH   7   8
ATOM      8  C   UNL A   1      33.137  27.994  25.366  1.00  0.00     0.000 C 
ATOM      9  N   UNL A   1      32.210  25.289  24.753  1.00  0.00    -0.332 N 
ATOM     10  C   UNL A   1      33.596  25.527  25.149  1.00  0.00     0.262 C 
ATOM     11  C   UNL A   1      31.442  26.465  24.330  1.00  0.00     0.262 C 
ATOM     12  H   UNL A   1      31.813  25.046  25.661  1.00  0.00     0.348 HD
ATOM     13  C   UNL A   1      33.784  26.772  26.024  1.00  0.00     0.065 C 
ATOM     14  C   UNL A   1      31.643  27.693  25.233  1.00  0.00     0.065 C 
BRANCH   9  15
ATOM     15  C   UNL A   1      31.956  24.093  23.921  1.00  0.00     0.186 C 
ATOM     16  C   UNL A   1      30.557  24.108  23.274  1.00  0.00     0.076 C 
BRANCH  15  17
ATOM     17  C   UNL A   1      32.260  22.696  24.502  1.00  0.00     0.019 C 
ATOM     18  C   UNL A   1      31.710  22.479  25.895  1.00  0.00     0.018 C 
ATOM     19  C   UNL A   1      32.373  21.445  23.661  1.00  0.00     0.013 C 
ATOM     20  C   UNL A   1      33.614  22.067  24.206  1.00  0.00     0.013 C 
ENDBRANCH  15  17
ENDBRANCH   9  15
ENDBRANCH   7   8
ENDBRANCH   6   7
ENDBRANCH   3   6
ENDBRANCH   1   2
BRANCH   1  21
ATOM     21  C   UNL A   1      34.293  33.488  28.862  1.00  0.00     0.023 C 
BRANCH  21  22
ATOM     22  C   UNL A   1      33.207  34.553  28.844  1.00  0.00     0.023 C 
BRANCH  22  23
ATOM     23  C   UNL A   1      33.558  35.880  29.506  1.00  0.00     0.116 C 
BRANCH  23  24
ATOM     24  N   UNL A   1      32.613  36.337  30.519  1.00  0.00    -0.352 N 
ATOM     25  C   UNL A   1      32.608  36.066  31.868  1.00  0.00     0.251 C 
ATOM     26  H   UNL A   1      31.885  36.916  30.195  1.00  0.00     0.163 HD
ATOM     27  O   UNL A   1      31.766  36.532  32.630  1.00  0.00    -0.269 OA
BRANCH  25  28
ATOM     28  C   UNL A   1      33.652  35.197  32.415  1.00  0.00     0.039 A 
ATOM     29  C   UNL A   1      33.351  33.879  32.770  1.00  0.00     0.014 A 
ATOM     30  C   UNL A   1      34.945  35.705  32.526  1.00  0.00     0.014 A 
ATOM     31  C   UNL A   1      34.381  33.037  33.182  1.00  0.00     0.010 A 
ATOM     32  C   UNL A   1      35.976  34.844  32.838  1.00  0.00     0.010 A 
ATOM     33  C   UNL A   1      35.701  33.511  33.185  1.00  0.00    -0.014 A 
BRANCH  33  34
ATOM     34  C   UNL A   1      36.849  32.678  33.593  1.00  0.00     0.031 A 
ATOM     35  C   UNL A   1      37.509  32.987  34.905  1.00  0.00     0.074 A 
ATOM     36  C   UNL A   1      37.373  31.797  32.722  1.00  0.00     0.049 A 
ATOM     37  N   UNL A   1      38.679  32.620  35.354  1.00  0.00    -0.248 NA
ATOM     38  C   UNL A   1      36.778  33.897  35.805  1.00  0.00     0.031 C 
ATOM     39  C   UNL A   1      36.822  31.475  31.404  1.00  0.00     0.029 A 
ATOM     40  N   UNL A   1      38.511  31.039  32.801  1.00  0.00    -0.354 N 
ATOM     41  C   UNL A   1      38.848  33.302  36.552  1.00  0.00     0.074 A 
ATOM     42  C   UNL A   1      37.681  34.132  36.744  1.00  0.00     0.031 C 
ATOM     43  C   UNL A   1      37.621  30.579  30.800  1.00  0.00     0.029 A 
ATOM     44  C   UNL A   1      38.759  30.302  31.668  1.00  0.00     0.049 A 
ATOM     45  H   UNL A   1      39.095  31.023  33.593  1.00  0.00     0.167 HD
ATOM     46  C   UNL A   1      39.887  33.223  37.415  1.00  0.00     0.037 A 
ATOM     47  C   UNL A   1      39.804  29.510  31.371  1.00  0.00     0.037 A 
ATOM     48  C   UNL A   1      40.996  32.328  37.225  1.00  0.00     0.049 A 
ATOM     49  C   UNL A   1      40.906  29.379  32.388  1.00  0.00     0.074 A 
ATOM     50  C   UNL A   1      42.061  32.079  38.070  1.00  0.00     0.029 A 
ATOM     51  N   UNL A   1      41.164  31.519  36.109  1.00  0.00    -0.354 N 
ATOM     52  N   UNL A   1      41.038  29.983  33.546  1.00  0.00    -0.248 NA
ATOM     53  C   UNL A   1      42.000  28.454  32.066  1.00  0.00     0.031 C 
ATOM     54  C   UNL A   1      42.890  31.137  37.452  1.00  0.00     0.029 A 
ATOM     55  C   UNL A   1      42.319  30.770  36.241  1.00  0.00     0.049 A 
ATOM     56  H   UNL A   1      40.552  31.484  35.339  1.00  0.00     0.167 HD
ATOM     57  C   UNL A   1      42.209  29.492  34.104  1.00  0.00     0.074 A 
ATOM     58  C   UNL A   1      42.742  28.527  33.161  1.00  0.00     0.031 C 
ATOM     59  C   UNL A   1      42.797  29.805  35.283  1.00  0.00     0.037 A 
BRANCH  46  60
ATOM     60  C   UNL A   1      39.866  34.110  38.626  1.00  0.00     0.064 A 
ATOM     61  C   UNL A   1      39.268  33.707  39.830  1.00  0.00     0.173 A 
ATOM     62  C   UNL A   1      40.478  35.373  38.591  1.00  0.00     0.173 A 
ATOM     63  F   UNL A   1      38.655  32.517  39.915  1.00  0.00    -0.203 F 
ATOM     64  C   UNL A   1      39.258  34.545  40.943  1.00  0.00     0.198 A 
ATOM     65  C   UNL A   1      40.493  36.195  39.716  1.00  0.00     0.198 A 
ATOM     66  F   UNL A   1      41.064  35.811  37.467  1.00  0.00    -0.203 F 
ATOM     67  F   UNL A   1      38.635  34.158  42.064  1.00  0.00    -0.200 F 
ATOM     68  C   UNL A   1      39.877  35.784  40.887  1.00  0.00     0.200 A 
ATOM     69  F   UNL A   1      41.101  37.389  39.663  1.00  0.00    -0.200 F 
ATOM     70  F   UNL A   1      39.875  36.585  41.962  1.00  0.00    -0.200 F 
ENDBRANCH  46  60
BRANCH  47  71
ATOM     71  C   UNL A   1      39.839  28.758  30.089  1.00  0.00     0.064 A 
ATOM     72  C   UNL A   1      39.354  27.444  30.023  1.00  0.00     0.173 A 
ATOM     73  C   UNL A   1      40.343  29.325  28.910  1.00  0.00     0.173 A 
ATOM     74  F   UNL A   1      38.874  26.852  31.125  1.00  0.00    -0.203 F 
ATOM     75  C   UNL A   1      39.395  26.718  28.833  1.00  0.00     0.198 A 
ATOM     76  C   UNL A   1      40.358  28.608  27.714  1.00  0.00     0.198 A 
ATOM     77  F   UNL A   1      40.809  30.583  28.914  1.00  0.00    -0.203 F 
ATOM     78  F   UNL A   1      38.966  25.449  28.811  1.00  0.00    -0.200 F 
ATOM     79  C   UNL A   1      39.892  27.302  27.679  1.00  0.00     0.200 A 
ATOM     80  F   UNL A   1      40.822  29.181  26.596  1.00  0.00    -0.200 F 
ATOM     81  F   UNL A   1      39.927  26.605  26.535  1.00  0.00    -0.200 F 
ENDBRANCH  47  71
BRANCH  59  82
ATOM     82  C   UNL A   1      44.049  29.063  35.632  1.00  0.00     0.064 A 
ATOM     83  C   UNL A   1      45.314  29.554  35.280  1.00  0.00     0.173 A 
ATOM     84  C   UNL A   1      43.981  27.869  36.365  1.00  0.00     0.173 A 
ATOM     85  F   UNL A   1      45.425  30.684  34.566  1.00  0.00    -0.203 F 
ATOM     86  C   UNL A   1      46.468  28.860  35.630  1.00  0.00     0.198 A 
ATOM     87  C   UNL A   1      45.137  27.194  36.738  1.00  0.00     0.198 A 
ATOM     88  F   UNL A   1      42.792  27.366  36.730  1.00  0.00    -0.203 F 
ATOM     89  F   UNL A   1      47.667  29.321  35.245  1.00  0.00    -0.200 F 
ATOM     90  C   UNL A   1      46.379  27.686  36.364  1.00  0.00     0.200 A 
ATOM     91  F   UNL A   1      45.052  26.067  37.458  1.00  0.00    -0.200 F 
ATOM     92  F   UNL A   1      47.493  27.025  36.706  1.00  0.00    -0.200 F 
ENDBRANCH  59  82
ENDBRANCH  33  34
ENDBRANCH  25  28
ENDBRANCH  23  24
ENDBRANCH  22  23
ENDBRANCH  21  22
ENDBRANCH   1  21
TORSDOF 15
ENDMDL
MODEL 3
REMARK VINA RESULT:     -10.8      1.898      7.997
REMARK SMILES C[C@@H]([NH+]1CCC(CCC(=O)NCCCCNC(=O)c2ccc(-c3c4nc(c(-c5c(F)c(F)c(F)c(F)c5F)c5ccc([nH]5)c(-c5c(F)c(F)c(F)c(F)c5F)c5nc(c(-c6c(F)c(F)c(F)c(F)c6F)c6ccc3[nH]6)C=C5)C=C4)cc2)CC1)C1(C)CC1
REMARK SMILES IDX 12 1 11 2 9 3 10 4 8 6 7 7 6 8 3 9 4 10 83 11 5 13 82 14
REMARK SMILES IDX 2 15 1 16 84 17 85 18 86 19 87 20 13 21 14 22 15 23 16 24
REMARK SMILES IDX 17 25 18 27 19 28 20 29 81 30 21 31 80 32 22 33 23 34 24 35
REMARK SMILES IDX 74 36 25 37 79 38 73 39 75 40 26 41 78 42 72 43 71 44 27 46
REMARK SMILES IDX 59 47 39 48 58 49 40 50 43 51 57 52 76 53 41 54 42 55 56 57
REMARK SMILES IDX 77 58 44 59 28 60 29 61 37 62 30 63 31 64 35 65 38 66 32 67
REMARK SMILES IDX 33 68 36 69 34 70 60 71 61 72 69 73 62 74 63 75 67 76 70 77
REMARK SMILES IDX 64 78 65 79 68 80 66 81 45 82 46 83 54 84 47 85 48 86 52 87
REMARK SMILES IDX 55 88 49 89 50 90 53 91 51 92
REMARK H PARENT 11 5 3 12 16 26 75 45 43 56
REMARK Flexibility Score: inf
ROOT
ATOM      1  C   UNL A   1      32.279  29.352  25.540  1.00  0.00     0.116 C 
ENDROOT
BRANCH   1   2
ATOM      2  N   UNL A   1      31.309  29.951  24.648  1.00  0.00    -0.356 N 
ATOM      3  C   UNL A   1      30.415  29.365  23.805  1.00  0.00     0.220 C 
ATOM      4  O   UNL A   1      29.797  30.092  23.025  1.00  0.00    -0.275 OA
ATOM      5  H   UNL A   1      31.295  30.936  24.650  1.00  0.00     0.163 HD
BRANCH   3   6
ATOM      6  C   UNL A   1      30.154  27.867  23.850  1.00  0.00     0.100 C 
BRANCH   6   7
ATOM      7  C   UNL A   1      30.543  27.100  22.575  1.00  0.00     0.014 C 
BRANCH   7   8
ATOM      8  C   UNL A   1      31.402  25.852  22.828  1.00  0.00     0.000 C 
ATOM      9  N   UNL A   1      33.522  24.031  23.688  1.00  0.00    -0.332 N 
ATOM     10  C   UNL A   1      33.495  24.545  22.321  1.00  0.00     0.262 C 
ATOM     11  C   UNL A   1      32.284  24.166  24.461  1.00  0.00     0.262 C 
ATOM     12  H   UNL A   1      34.155  24.711  24.111  1.00  0.00     0.348 HD
ATOM     13  C   UNL A   1      32.789  25.900  22.183  1.00  0.00     0.065 C 
ATOM     14  C   UNL A   1      31.606  25.538  24.311  1.00  0.00     0.065 C 
BRANCH   9  15
ATOM     15  C   UNL A   1      34.204  22.734  23.893  1.00  0.00     0.186 C 
ATOM     16  C   UNL A   1      33.317  21.710  24.627  1.00  0.00     0.076 C 
BRANCH  15  17
ATOM     17  C   UNL A   1      35.632  22.721  24.479  1.00  0.00     0.019 C 
ATOM     18  C   UNL A   1      35.813  23.632  25.673  1.00  0.00     0.018 C 
ATOM     19  C   UNL A   1      36.532  21.507  24.463  1.00  0.00     0.013 C 
ATOM     20  C   UNL A   1      36.808  22.627  23.518  1.00  0.00     0.013 C 
ENDBRANCH  15  17
ENDBRANCH   9  15
ENDBRANCH   7   8
ENDBRANCH   6   7
ENDBRANCH   3   6
ENDBRANCH   1   2
BRANCH   1  21
ATOM     21  C   UNL A   1      32.283  30.083  26.885  1.00  0.00     0.023 C 
BRANCH  21  22
ATOM     22  C   UNL A   1      31.910  31.557  26.863  1.00  0.00     0.023 C 
BRANCH  22  23
ATOM     23  C   UNL A   1      33.010  32.534  27.264  1.00  0.00     0.116 C 
BRANCH  23  24
ATOM     24  N   UNL A   1      32.552  33.871  27.623  1.00  0.00    -0.352 N 
ATOM     25  C   UNL A   1      33.075  34.730  28.562  1.00  0.00     0.251 C 
ATOM     26  H   UNL A   1      31.767  34.202  27.129  1.00  0.00     0.163 HD
ATOM     27  O   UNL A   1      32.612  35.850  28.759  1.00  0.00    -0.269 OA
BRANCH  25  28
ATOM     28  C   UNL A   1      34.233  34.296  29.346  1.00  0.00     0.039 A 
ATOM     29  C   UNL A   1      34.048  33.535  30.505  1.00  0.00     0.014 A 
ATOM     30  C   UNL A   1      35.506  34.621  28.882  1.00  0.00     0.014 A 
ATOM     31  C   UNL A   1      35.165  33.037  31.172  1.00  0.00     0.010 A 
ATOM     32  C   UNL A   1      36.604  34.047  29.487  1.00  0.00     0.010 A 
ATOM     33  C   UNL A   1      36.443  33.266  30.645  1.00  0.00    -0.014 A 
BRANCH  33  34
ATOM     34  C   UNL A   1      37.675  32.762  31.283  1.00  0.00     0.031 A 
ATOM     35  C   UNL A   1      38.420  31.655  30.596  1.00  0.00     0.074 A 
ATOM     36  C   UNL A   1      37.997  33.175  32.522  1.00  0.00     0.049 A 
ATOM     37  N   UNL A   1      39.335  30.851  31.067  1.00  0.00    -0.248 NA
ATOM     38  C   UNL A   1      38.027  31.369  29.205  1.00  0.00     0.031 C 
ATOM     39  C   UNL A   1      37.293  34.211  33.282  1.00  0.00     0.029 A 
ATOM     40  N   UNL A   1      38.978  32.746  33.375  1.00  0.00    -0.354 N 
ATOM     41  C   UNL A   1      39.576  29.930  30.056  1.00  0.00     0.074 A 
ATOM     42  C   UNL A   1      38.690  30.249  28.961  1.00  0.00     0.031 C 
ATOM     43  C   UNL A   1      37.870  34.340  34.489  1.00  0.00     0.029 A 
ATOM     44  C   UNL A   1      38.950  33.367  34.600  1.00  0.00     0.049 A 
ATOM     45  H   UNL A   1      39.639  32.057  33.135  1.00  0.00     0.167 HD
ATOM     46  C   UNL A   1      40.473  28.918  30.049  1.00  0.00     0.037 A 
ATOM     47  C   UNL A   1      39.709  33.151  35.690  1.00  0.00     0.037 A 
ATOM     48  C   UNL A   1      41.391  28.678  31.130  1.00  0.00     0.049 A 
ATOM     49  C   UNL A   1      40.755  32.071  35.623  1.00  0.00     0.074 A 
ATOM     50  C   UNL A   1      42.414  27.752  31.208  1.00  0.00     0.029 A 
ATOM     51  N   UNL A   1      41.402  29.396  32.319  1.00  0.00    -0.354 N 
ATOM     52  N   UNL A   1      41.019  31.236  34.645  1.00  0.00    -0.248 NA
ATOM     53  C   UNL A   1      41.613  31.905  36.802  1.00  0.00     0.031 C 
ATOM     54  C   UNL A   1      43.027  27.890  32.457  1.00  0.00     0.029 A 
ATOM     55  C   UNL A   1      42.413  28.930  33.140  1.00  0.00     0.049 A 
ATOM     56  H   UNL A   1      40.782  30.127  32.544  1.00  0.00     0.167 HD
ATOM     57  C   UNL A   1      42.090  30.467  35.076  1.00  0.00     0.074 A 
ATOM     58  C   UNL A   1      42.435  30.947  36.400  1.00  0.00     0.031 C 
ATOM     59  C   UNL A   1      42.732  29.456  34.444  1.00  0.00     0.037 A 
BRANCH  46  60
ATOM     60  C   UNL A   1      40.508  28.014  28.852  1.00  0.00     0.064 A 
ATOM     61  C   UNL A   1      39.775  26.817  28.803  1.00  0.00     0.173 A 
ATOM     62  C   UNL A   1      41.266  28.360  27.722  1.00  0.00     0.173 A 
ATOM     63  F   UNL A   1      39.046  26.429  29.861  1.00  0.00    -0.203 F 
ATOM     64  C   UNL A   1      39.821  25.990  27.684  1.00  0.00     0.198 A 
ATOM     65  C   UNL A   1      41.285  27.546  26.592  1.00  0.00     0.198 A 
ATOM     66  F   UNL A   1      41.988  29.491  27.713  1.00  0.00    -0.203 F 
ATOM     67  F   UNL A   1      39.154  24.829  27.684  1.00  0.00    -0.200 F 
ATOM     68  C   UNL A   1      40.569  26.360  26.576  1.00  0.00     0.200 A 
ATOM     69  F   UNL A   1      42.001  27.910  25.518  1.00  0.00    -0.200 F 
ATOM     70  F   UNL A   1      40.606  25.568  25.496  1.00  0.00    -0.200 F 
ENDBRANCH  46  60
BRANCH  47  71
ATOM     71  C   UNL A   1      39.537  33.990  36.906  1.00  0.00     0.064 A 
ATOM     72  C   UNL A   1      38.784  33.521  37.992  1.00  0.00     0.173 A 
ATOM     73  C   UNL A   1      40.118  35.261  37.018  1.00  0.00     0.173 A 
ATOM     74  F   UNL A   1      38.198  32.317  37.929  1.00  0.00    -0.203 F 
ATOM     75  C   UNL A   1      38.599  34.301  39.133  1.00  0.00     0.198 A 
ATOM     76  C   UNL A   1      39.955  36.029  38.170  1.00  0.00     0.198 A 
ATOM     77  F   UNL A   1      40.858  35.753  36.013  1.00  0.00    -0.203 F 
ATOM     78  F   UNL A   1      37.836  33.844  40.136  1.00  0.00    -0.200 F 
ATOM     79  C   UNL A   1      39.188  35.552  39.223  1.00  0.00     0.200 A 
ATOM     80  F   UNL A   1      40.541  37.230  38.262  1.00  0.00    -0.200 F 
ATOM     81  F   UNL A   1      39.012  36.299  40.321  1.00  0.00    -0.200 F 
ENDBRANCH  47  71
BRANCH  59  82
ATOM     82  C   UNL A   1      43.895  28.842  35.159  1.00  0.00     0.064 A 
ATOM     83  C   UNL A   1      43.732  27.746  36.018  1.00  0.00     0.173 A 
ATOM     84  C   UNL A   1      45.192  29.331  34.945  1.00  0.00     0.173 A 
ATOM     85  F   UNL A   1      42.507  27.257  36.263  1.00  0.00    -0.203 F 
ATOM     86  C   UNL A   1      44.827  27.177  36.658  1.00  0.00     0.198 A 
ATOM     87  C   UNL A   1      46.287  28.740  35.564  1.00  0.00     0.198 A 
ATOM     88  F   UNL A   1      45.396  30.373  34.124  1.00  0.00    -0.203 F 
ATOM     89  F   UNL A   1      44.646  26.160  37.512  1.00  0.00    -0.200 F 
ATOM     90  C   UNL A   1      46.104  27.669  36.426  1.00  0.00     0.200 A 
ATOM     91  F   UNL A   1      47.521  29.207  35.329  1.00  0.00    -0.200 F 
ATOM     92  F   UNL A   1      47.157  27.113  37.038  1.00  0.00    -0.200 F 
ENDBRANCH  59  82
ENDBRANCH  33  34
ENDBRANCH  25  28
ENDBRANCH  23  24
ENDBRANCH  22  23
ENDBRANCH  21  22
ENDBRANCH   1  21
TORSDOF 15
ENDMDL
