MODEL 1
REMARK VINA RESULT:     -12.8      0.000      0.000
REMARK SMILES Cc1cc(C(=O)N2C[C@@H](C(=O)NCCCCNC(=O)c3ccc(-c4c5nc(c(-c6c(F)c(F)c(F)c(F)c6F)c6ccc([nH]6)c(-c6c(F)c(F)c(F)c(F)c6F)c6nc(c(-c7c(F)c(F)c(F)c(F)c7F)c7ccc4[nH]7)C=C6)C=C5)cc3)[C@H](C3CC3)C2)sc1C
REMARK SMILES IDX 14 1 13 2 12 3 10 4 11 5 9 7 7 8 8 9 87 10 83 11 5 12 6 13
REMARK SMILES IDX 4 14 1 15 2 16 3 17 89 18 88 19 90 20 84 21 85 22 86 23
REMARK SMILES IDX 15 24 16 25 17 26 18 27 19 29 20 30 21 31 82 32 22 33 81 34
REMARK SMILES IDX 23 35 24 36 25 37 75 38 26 39 80 40 74 41 76 42 27 43 79 44
REMARK SMILES IDX 73 45 72 46 28 48 60 49 40 50 59 51 41 52 44 53 58 54 77 55
REMARK SMILES IDX 42 56 43 57 57 59 78 60 45 61 29 62 30 63 38 64 31 65 32 66
REMARK SMILES IDX 36 67 39 68 33 69 34 70 37 71 35 72 61 73 62 74 70 75 63 76
REMARK SMILES IDX 64 77 68 78 71 79 65 80 66 81 69 82 67 83 46 84 47 85 55 86
REMARK SMILES IDX 48 87 49 88 53 89 56 90 50 91 51 92 54 93 52 94
REMARK H PARENT 12 6 17 28 76 47 44 58
REMARK Flexibility Score: inf
ROOT
ATOM      1  C   UNL A   1      31.801  30.443  26.871  1.00  0.00     0.023 C 
ENDROOT
BRANCH   1   2
ATOM      2  C   UNL A   1      33.219  29.930  27.091  1.00  0.00     0.116 C 
BRANCH   2   3
ATOM      3  N   UNL A   1      33.918  29.586  25.866  1.00  0.00    -0.356 N 
ATOM      4  C   UNL A   1      33.688  28.552  25.001  1.00  0.00     0.225 C 
ATOM      5  O   UNL A   1      34.306  28.546  23.935  1.00  0.00    -0.275 OA
ATOM      6  H   UNL A   1      34.662  30.183  25.622  1.00  0.00     0.163 HD
BRANCH   4   7
ATOM      7  C   UNL A   1      32.721  27.446  25.371  1.00  0.00     0.103 C 
ATOM      8  N   UNL A   1      32.462  25.152  25.513  1.00  0.00    -0.337 N 
ATOM      9  C   UNL A   1      33.499  26.157  25.626  1.00  0.00     0.133 C 
ATOM     10  C   UNL A   1      31.560  25.513  24.441  1.00  0.00     0.124 C 
ATOM     11  C   UNL A   1      31.763  27.034  24.225  1.00  0.00     0.026 C 
BRANCH   8  12
ATOM     12  C   UNL A   1      32.205  24.023  26.274  1.00  0.00     0.263 C 
ATOM     13  O   UNL A   1      31.455  24.124  27.249  1.00  0.00    -0.268 OA
BRANCH  12  14
ATOM     14  C   UNL A   1      32.884  22.760  25.992  1.00  0.00     0.093 A 
ATOM     15  C   UNL A   1      36.087  20.897  25.287  1.00  0.00     0.045 C 
ATOM     16  C   UNL A   1      34.658  21.293  25.464  1.00  0.00    -0.037 A 
ATOM     17  C   UNL A   1      34.254  22.563  25.998  1.00  0.00     0.029 A 
ATOM     18  C   UNL A   1      33.553  20.536  25.112  1.00  0.00     0.005 A 
ATOM     19  S   UNL A   1      32.095  21.397  25.328  1.00  0.00    -0.135 S 
ATOM     20  C   UNL A   1      33.513  19.157  24.540  1.00  0.00     0.056 C 
ENDBRANCH  12  14
ENDBRANCH   8  12
BRANCH  11  21
ATOM     21  C   UNL A   1      30.420  27.727  24.144  1.00  0.00    -0.005 C 
ATOM     22  C   UNL A   1      30.209  29.155  23.702  1.00  0.00     0.004 C 
ATOM     23  C   UNL A   1      29.760  28.019  22.823  1.00  0.00     0.004 C 
ENDBRANCH  11  21
ENDBRANCH   4   7
ENDBRANCH   2   3
ENDBRANCH   1   2
BRANCH   1  24
ATOM     24  C   UNL A   1      31.641  31.960  26.788  1.00  0.00     0.023 C 
BRANCH  24  25
ATOM     25  C   UNL A   1      32.811  32.790  27.310  1.00  0.00     0.116 C 
BRANCH  25  26
ATOM     26  N   UNL A   1      32.446  34.149  27.687  1.00  0.00    -0.352 N 
ATOM     27  C   UNL A   1      32.986  34.986  28.636  1.00  0.00     0.251 C 
ATOM     28  H   UNL A   1      31.691  34.528  27.182  1.00  0.00     0.163 HD
ATOM     29  O   UNL A   1      32.470  36.073  28.861  1.00  0.00    -0.269 OA
BRANCH  27  30
ATOM     30  C   UNL A   1      34.160  34.554  29.425  1.00  0.00     0.039 A 
ATOM     31  C   UNL A   1      33.951  34.030  30.703  1.00  0.00     0.014 A 
ATOM     32  C   UNL A   1      35.452  34.624  28.899  1.00  0.00     0.014 A 
ATOM     33  C   UNL A   1      35.019  33.466  31.403  1.00  0.00     0.010 A 
ATOM     34  C   UNL A   1      36.501  33.994  29.563  1.00  0.00     0.010 A 
ATOM     35  C   UNL A   1      36.289  33.382  30.809  1.00  0.00    -0.014 A 
BRANCH  35  36
ATOM     36  C   UNL A   1      37.383  32.600  31.438  1.00  0.00     0.031 A 
ATOM     37  C   UNL A   1      37.913  32.972  32.793  1.00  0.00     0.074 A 
ATOM     38  C   UNL A   1      37.963  31.603  30.741  1.00  0.00     0.049 A 
ATOM     39  N   UNL A   1      38.918  32.459  33.457  1.00  0.00    -0.248 NA
ATOM     40  C   UNL A   1      37.241  34.084  33.483  1.00  0.00     0.031 C 
ATOM     41  C   UNL A   1      37.581  31.181  29.391  1.00  0.00     0.029 A 
ATOM     42  N   UNL A   1      39.009  30.773  31.061  1.00  0.00    -0.354 N 
ATOM     43  C   UNL A   1      39.007  33.190  34.634  1.00  0.00     0.074 A 
ATOM     44  C   UNL A   1      37.983  34.213  34.573  1.00  0.00     0.031 C 
ATOM     45  C   UNL A   1      38.365  30.161  29.008  1.00  0.00     0.029 A 
ATOM     46  C   UNL A   1      39.332  29.882  30.064  1.00  0.00     0.049 A 
ATOM     47  H   UNL A   1      39.484  30.811  31.923  1.00  0.00     0.167 HD
ATOM     48  C   UNL A   1      39.851  33.011  35.678  1.00  0.00     0.037 A 
ATOM     49  C   UNL A   1      40.305  28.954  30.003  1.00  0.00     0.037 A 
ATOM     50  C   UNL A   1      40.853  31.980  35.746  1.00  0.00     0.049 A 
ATOM     51  C   UNL A   1      41.235  28.783  31.172  1.00  0.00     0.074 A 
ATOM     52  C   UNL A   1      41.705  31.673  36.793  1.00  0.00     0.029 A 
ATOM     53  N   UNL A   1      41.142  31.090  34.722  1.00  0.00    -0.354 N 
ATOM     54  N   UNL A   1      41.259  29.432  32.310  1.00  0.00    -0.248 NA
ATOM     55  C   UNL A   1      42.274  27.752  31.048  1.00  0.00     0.031 C 
ATOM     56  C   UNL A   1      42.541  30.627  36.386  1.00  0.00     0.029 A 
ATOM     57  C   UNL A   1      42.179  30.251  35.103  1.00  0.00     0.049 A 
ATOM     58  H   UNL A   1      40.680  31.057  33.854  1.00  0.00     0.167 HD
ATOM     59  C   UNL A   1      42.296  28.875  33.044  1.00  0.00     0.074 A 
ATOM     60  C   UNL A   1      42.867  27.823  32.231  1.00  0.00     0.031 C 
ATOM     61  C   UNL A   1      42.739  29.209  34.282  1.00  0.00     0.037 A 
BRANCH  48  62
ATOM     62  C   UNL A   1      39.723  33.950  36.842  1.00  0.00     0.064 A 
ATOM     63  C   UNL A   1      38.939  33.628  37.960  1.00  0.00     0.173 A 
ATOM     64  C   UNL A   1      40.430  35.160  36.863  1.00  0.00     0.173 A 
ATOM     65  F   UNL A   1      38.235  32.486  37.985  1.00  0.00    -0.203 F 
ATOM     66  C   UNL A   1      38.847  34.497  39.044  1.00  0.00     0.198 A 
ATOM     67  C   UNL A   1      40.359  36.013  37.961  1.00  0.00     0.198 A 
ATOM     68  F   UNL A   1      41.201  35.512  35.822  1.00  0.00    -0.203 F 
ATOM     69  F   UNL A   1      38.057  34.187  40.083  1.00  0.00    -0.200 F 
ATOM     70  C   UNL A   1      39.563  35.684  39.047  1.00  0.00     0.200 A 
ATOM     71  F   UNL A   1      41.061  37.156  37.968  1.00  0.00    -0.200 F 
ATOM     72  F   UNL A   1      39.481  36.515  40.096  1.00  0.00    -0.200 F 
ENDBRANCH  48  62
BRANCH  49  73
ATOM     73  C   UNL A   1      40.443  28.102  28.794  1.00  0.00     0.064 A 
ATOM     74  C   UNL A   1      41.232  28.513  27.711  1.00  0.00     0.173 A 
ATOM     75  C   UNL A   1      39.787  26.866  28.691  1.00  0.00     0.173 A 
ATOM     76  F   UNL A   1      41.861  29.698  27.754  1.00  0.00    -0.203 F 
ATOM     77  C   UNL A   1      41.347  27.730  26.564  1.00  0.00     0.198 A 
ATOM     78  C   UNL A   1      39.925  26.071  27.555  1.00  0.00     0.198 A 
ATOM     79  F   UNL A   1      39.023  26.425  29.700  1.00  0.00    -0.203 F 
ATOM     80  F   UNL A   1      42.073  28.168  25.527  1.00  0.00    -0.200 F 
ATOM     81  C   UNL A   1      40.698  26.508  26.489  1.00  0.00     0.200 A 
ATOM     82  F   UNL A   1      39.306  24.884  27.491  1.00  0.00    -0.200 F 
ATOM     83  F   UNL A   1      40.811  25.753  25.388  1.00  0.00    -0.200 F 
ENDBRANCH  49  73
BRANCH  61  84
ATOM     84  C   UNL A   1      43.886  28.417  34.837  1.00  0.00     0.064 A 
ATOM     85  C   UNL A   1      43.675  27.247  35.579  1.00  0.00     0.173 A 
ATOM     86  C   UNL A   1      45.209  28.815  34.596  1.00  0.00     0.173 A 
ATOM     87  F   UNL A   1      42.427  26.834  35.852  1.00  0.00    -0.203 F 
ATOM     88  C   UNL A   1      44.748  26.514  36.079  1.00  0.00     0.198 A 
ATOM     89  C   UNL A   1      46.280  28.066  35.073  1.00  0.00     0.198 A 
ATOM     90  F   UNL A   1      45.463  29.925  33.887  1.00  0.00    -0.203 F 
ATOM     91  F   UNL A   1      44.524  25.424  36.825  1.00  0.00    -0.200 F 
ATOM     92  C   UNL A   1      46.050  26.920  35.820  1.00  0.00     0.200 A 
ATOM     93  F   UNL A   1      47.537  28.452  34.812  1.00  0.00    -0.200 F 
ATOM     94  F   UNL A   1      47.082  26.212  36.298  1.00  0.00    -0.200 F 
ENDBRANCH  61  84
ENDBRANCH  35  36
ENDBRANCH  27  30
ENDBRANCH  25  26
ENDBRANCH  24  25
ENDBRANCH   1  24
TORSDOF 14
ENDMDL
MODEL 2
REMARK VINA RESULT:     -12.7      5.411     10.906
REMARK SMILES Cc1cc(C(=O)N2C[C@@H](C(=O)NCCCCNC(=O)c3ccc(-c4c5nc(c(-c6c(F)c(F)c(F)c(F)c6F)c6ccc([nH]6)c(-c6c(F)c(F)c(F)c(F)c6F)c6nc(c(-c7c(F)c(F)c(F)c(F)c7F)c7ccc4[nH]7)C=C6)C=C5)cc3)[C@H](C3CC3)C2)sc1C
REMARK SMILES IDX 14 1 13 2 12 3 10 4 11 5 9 7 7 8 8 9 87 10 83 11 5 12 6 13
REMARK SMILES IDX 4 14 1 15 2 16 3 17 89 18 88 19 90 20 84 21 85 22 86 23
REMARK SMILES IDX 15 24 16 25 17 26 18 27 19 29 20 30 21 31 82 32 22 33 81 34
REMARK SMILES IDX 23 35 24 36 25 37 75 38 26 39 80 40 74 41 76 42 27 43 79 44
REMARK SMILES IDX 73 45 72 46 28 48 60 49 40 50 59 51 41 52 44 53 58 54 77 55
REMARK SMILES IDX 42 56 43 57 57 59 78 60 45 61 29 62 30 63 38 64 31 65 32 66
REMARK SMILES IDX 36 67 39 68 33 69 34 70 37 71 35 72 61 73 62 74 70 75 63 76
REMARK SMILES IDX 64 77 68 78 71 79 65 80 66 81 69 82 67 83 46 84 47 85 55 86
REMARK SMILES IDX 48 87 49 88 53 89 56 90 50 91 51 92 54 93 52 94
REMARK H PARENT 12 6 17 28 76 47 44 58
REMARK Flexibility Score: inf
ROOT
ATOM      1  C   UNL A   1      37.237  21.108  24.541  1.00  0.00     0.023 C 
ENDROOT
BRANCH   1   2
ATOM      2  C   UNL A   1      37.400  22.433  25.278  1.00  0.00     0.116 C 
BRANCH   2   3
ATOM      3  N   UNL A   1      36.421  22.646  26.329  1.00  0.00    -0.356 N 
ATOM      4  C   UNL A   1      35.116  23.039  26.227  1.00  0.00     0.225 C 
ATOM      5  O   UNL A   1      34.423  23.001  27.244  1.00  0.00    -0.275 OA
ATOM      6  H   UNL A   1      36.742  22.483  27.245  1.00  0.00     0.163 HD
BRANCH   4   7
ATOM      7  C   UNL A   1      34.565  23.528  24.902  1.00  0.00     0.103 C 
ATOM      8  N   UNL A   1      33.314  25.189  23.889  1.00  0.00    -0.337 N 
ATOM      9  C   UNL A   1      34.206  25.007  25.017  1.00  0.00     0.133 C 
ATOM     10  C   UNL A   1      32.472  24.021  23.752  1.00  0.00     0.124 C 
ATOM     11  C   UNL A   1      33.212  22.887  24.506  1.00  0.00     0.026 C 
BRANCH   8  12
ATOM     12  C   UNL A   1      33.218  26.217  22.966  1.00  0.00     0.263 C 
ATOM     13  O   UNL A   1      33.858  26.130  21.914  1.00  0.00    -0.268 OA
BRANCH  12  14
ATOM     14  C   UNL A   1      32.455  27.426  23.268  1.00  0.00     0.093 A 
ATOM     15  C   UNL A   1      31.703  30.269  25.631  1.00  0.00     0.045 C 
ATOM     16  C   UNL A   1      31.681  29.277  24.514  1.00  0.00    -0.037 A 
ATOM     17  C   UNL A   1      32.717  28.305  24.305  1.00  0.00     0.029 A 
ATOM     18  C   UNL A   1      30.674  29.129  23.575  1.00  0.00     0.005 A 
ATOM     19  S   UNL A   1      30.943  27.786  22.558  1.00  0.00    -0.135 S 
ATOM     20  C   UNL A   1      29.426  29.934  23.414  1.00  0.00     0.056 C 
ENDBRANCH  12  14
ENDBRANCH   8  12
BRANCH  11  21
ATOM     21  C   UNL A   1      33.245  21.638  23.652  1.00  0.00    -0.005 C 
ATOM     22  C   UNL A   1      32.423  20.397  23.903  1.00  0.00     0.004 C 
ATOM     23  C   UNL A   1      32.111  21.282  22.727  1.00  0.00     0.004 C 
ENDBRANCH  11  21
ENDBRANCH   4   7
ENDBRANCH   2   3
ENDBRANCH   1   2
BRANCH   1  24
ATOM     24  C   UNL A   1      38.049  19.933  25.084  1.00  0.00     0.023 C 
BRANCH  24  25
ATOM     25  C   UNL A   1      39.349  20.286  25.800  1.00  0.00     0.116 C 
BRANCH  25  26
ATOM     26  N   UNL A   1      40.304  19.189  25.859  1.00  0.00    -0.352 N 
ATOM     27  C   UNL A   1      41.646  19.190  26.163  1.00  0.00     0.251 C 
ATOM     28  H   UNL A   1      39.929  18.303  25.647  1.00  0.00     0.163 HD
ATOM     29  O   UNL A   1      42.299  18.159  26.069  1.00  0.00    -0.269 OA
BRANCH  27  30
ATOM     30  C   UNL A   1      42.317  20.450  26.552  1.00  0.00     0.039 A 
ATOM     31  C   UNL A   1      43.018  21.163  25.576  1.00  0.00     0.014 A 
ATOM     32  C   UNL A   1      42.226  20.947  27.853  1.00  0.00     0.014 A 
ATOM     33  C   UNL A   1      43.522  22.431  25.874  1.00  0.00     0.010 A 
ATOM     34  C   UNL A   1      42.660  22.241  28.129  1.00  0.00     0.010 A 
ATOM     35  C   UNL A   1      43.286  23.008  27.133  1.00  0.00    -0.014 A 
BRANCH  35  36
ATOM     36  C   UNL A   1      43.620  24.430  27.403  1.00  0.00     0.031 A 
ATOM     37  C   UNL A   1      45.048  24.892  27.428  1.00  0.00     0.074 A 
ATOM     38  C   UNL A   1      42.630  25.289  27.717  1.00  0.00     0.049 A 
ATOM     39  N   UNL A   1      45.530  26.071  27.730  1.00  0.00    -0.248 NA
ATOM     40  C   UNL A   1      46.073  23.891  27.094  1.00  0.00     0.031 C 
ATOM     41  C   UNL A   1      41.207  24.950  27.785  1.00  0.00     0.029 A 
ATOM     42  N   UNL A   1      42.669  26.619  28.055  1.00  0.00    -0.354 N 
ATOM     43  C   UNL A   1      46.910  25.952  27.635  1.00  0.00     0.074 A 
ATOM     44  C   UNL A   1      47.192  24.574  27.292  1.00  0.00     0.031 C 
ATOM     45  C   UNL A   1      40.508  26.046  28.122  1.00  0.00     0.029 A 
ATOM     46  C   UNL A   1      41.433  27.153  28.334  1.00  0.00     0.049 A 
ATOM     47  H   UNL A   1      43.502  27.141  28.094  1.00  0.00     0.167 HD
ATOM     48  C   UNL A   1      47.854  26.910  27.798  1.00  0.00     0.037 A 
ATOM     49  C   UNL A   1      41.085  28.392  28.729  1.00  0.00     0.037 A 
ATOM     50  C   UNL A   1      47.570  28.285  28.118  1.00  0.00     0.049 A 
ATOM     51  C   UNL A   1      42.154  29.434  28.913  1.00  0.00     0.074 A 
ATOM     52  C   UNL A   1      48.454  29.344  28.229  1.00  0.00     0.029 A 
ATOM     53  N   UNL A   1      46.306  28.791  28.381  1.00  0.00    -0.354 N 
ATOM     54  N   UNL A   1      43.450  29.327  28.745  1.00  0.00    -0.248 NA
ATOM     55  C   UNL A   1      41.713  30.768  29.340  1.00  0.00     0.031 C 
ATOM     56  C   UNL A   1      47.731  30.481  28.605  1.00  0.00     0.029 A 
ATOM     57  C   UNL A   1      46.390  30.142  28.683  1.00  0.00     0.049 A 
ATOM     58  H   UNL A   1      45.472  28.269  28.357  1.00  0.00     0.167 HD
ATOM     59  C   UNL A   1      43.975  30.580  29.025  1.00  0.00     0.074 A 
ATOM     60  C   UNL A   1      42.857  31.438  29.355  1.00  0.00     0.031 C 
ATOM     61  C   UNL A   1      45.269  30.983  29.013  1.00  0.00     0.037 A 
BRANCH  48  62
ATOM     62  C   UNL A   1      49.289  26.506  27.626  1.00  0.00     0.064 A 
ATOM     63  C   UNL A   1      49.868  26.385  26.354  1.00  0.00     0.173 A 
ATOM     64  C   UNL A   1      50.107  26.287  28.743  1.00  0.00     0.173 A 
ATOM     65  F   UNL A   1      49.126  26.575  25.253  1.00  0.00    -0.203 F 
ATOM     66  C   UNL A   1      51.207  26.032  26.208  1.00  0.00     0.198 A 
ATOM     67  C   UNL A   1      51.452  25.963  28.594  1.00  0.00     0.198 A 
ATOM     68  F   UNL A   1      49.603  26.397  29.983  1.00  0.00    -0.203 F 
ATOM     69  F   UNL A   1      51.728  25.880  24.981  1.00  0.00    -0.200 F 
ATOM     70  C   UNL A   1      52.000  25.829  27.327  1.00  0.00     0.200 A 
ATOM     71  F   UNL A   1      52.221  25.778  29.677  1.00  0.00    -0.200 F 
ATOM     72  F   UNL A   1      53.291  25.499  27.185  1.00  0.00    -0.200 F 
ENDBRANCH  48  62
BRANCH  49  73
ATOM     73  C   UNL A   1      39.656  28.723  28.965  1.00  0.00     0.064 A 
ATOM     74  C   UNL A   1      38.856  29.229  27.932  1.00  0.00     0.173 A 
ATOM     75  C   UNL A   1      39.062  28.545  30.224  1.00  0.00     0.173 A 
ATOM     76  F   UNL A   1      39.385  29.436  26.717  1.00  0.00    -0.203 F 
ATOM     77  C   UNL A   1      37.521  29.564  28.152  1.00  0.00     0.198 A 
ATOM     78  C   UNL A   1      37.721  28.855  30.436  1.00  0.00     0.198 A 
ATOM     79  F   UNL A   1      39.784  28.061  31.245  1.00  0.00    -0.203 F 
ATOM     80  F   UNL A   1      36.792  30.087  27.158  1.00  0.00    -0.200 F 
ATOM     81  C   UNL A   1      36.954  29.371  29.402  1.00  0.00     0.200 A 
ATOM     82  F   UNL A   1      37.171  28.655  31.642  1.00  0.00    -0.200 F 
ATOM     83  F   UNL A   1      35.670  29.689  29.613  1.00  0.00    -0.200 F 
ENDBRANCH  49  73
BRANCH  61  84
ATOM     84  C   UNL A   1      45.544  32.419  29.351  1.00  0.00     0.064 A 
ATOM     85  C   UNL A   1      45.533  33.417  28.366  1.00  0.00     0.173 A 
ATOM     86  C   UNL A   1      45.789  32.804  30.677  1.00  0.00     0.173 A 
ATOM     87  F   UNL A   1      45.321  33.097  27.081  1.00  0.00    -0.203 F 
ATOM     88  C   UNL A   1      45.778  34.748  28.695  1.00  0.00     0.198 A 
ATOM     89  C   UNL A   1      46.006  34.138  31.007  1.00  0.00     0.198 A 
ATOM     90  F   UNL A   1      45.806  31.887  31.656  1.00  0.00    -0.203 F 
ATOM     91  F   UNL A   1      45.808  35.680  27.733  1.00  0.00    -0.200 F 
ATOM     92  C   UNL A   1      46.007  35.109  30.016  1.00  0.00     0.200 A 
ATOM     93  F   UNL A   1      46.215  34.487  32.284  1.00  0.00    -0.200 F 
ATOM     94  F   UNL A   1      46.238  36.390  30.331  1.00  0.00    -0.200 F 
ENDBRANCH  61  84
ENDBRANCH  35  36
ENDBRANCH  27  30
ENDBRANCH  25  26
ENDBRANCH  24  25
ENDBRANCH   1  24
TORSDOF 14
ENDMDL
MODEL 3
REMARK VINA RESULT:     -12.6      5.511     10.249
REMARK SMILES Cc1cc(C(=O)N2C[C@@H](C(=O)NCCCCNC(=O)c3ccc(-c4c5nc(c(-c6c(F)c(F)c(F)c(F)c6F)c6ccc([nH]6)c(-c6c(F)c(F)c(F)c(F)c6F)c6nc(c(-c7c(F)c(F)c(F)c(F)c7F)c7ccc4[nH]7)C=C6)C=C5)cc3)[C@H](C3CC3)C2)sc1C
REMARK SMILES IDX 14 1 13 2 12 3 10 4 11 5 9 7 7 8 8 9 87 10 83 11 5 12 6 13
REMARK SMILES IDX 4 14 1 15 2 16 3 17 89 18 88 19 90 20 84 21 85 22 86 23
REMARK SMILES IDX 15 24 16 25 17 26 18 27 19 29 20 30 21 31 82 32 22 33 81 34
REMARK SMILES IDX 23 35 24 36 25 37 75 38 26 39 80 40 74 41 76 42 27 43 79 44
REMARK SMILES IDX 73 45 72 46 28 48 60 49 40 50 59 51 41 52 44 53 58 54 77 55
REMARK SMILES IDX 42 56 43 57 57 59 78 60 45 61 29 62 30 63 38 64 31 65 32 66
REMARK SMILES IDX 36 67 39 68 33 69 34 70 37 71 35 72 61 73 62 74 70 75 63 76
REMARK SMILES IDX 64 77 68 78 71 79 65 80 66 81 69 82 67 83 46 84 47 85 55 86
REMARK SMILES IDX 48 87 49 88 53 89 56 90 50 91 51 92 54 93 52 94
REMARK H PARENT 12 6 17 28 76 47 44 58
REMARK Flexibility Score: inf
ROOT
ATOM      1  C   UNL A   1      37.287  21.456  24.533  1.00  0.00     0.023 C 
ENDROOT
BRANCH   1   2
ATOM      2  C   UNL A   1      37.388  22.683  25.432  1.00  0.00     0.116 C 
BRANCH   2   3
ATOM      3  N   UNL A   1      36.415  22.706  26.509  1.00  0.00    -0.356 N 
ATOM      4  C   UNL A   1      35.091  23.048  26.470  1.00  0.00     0.225 C 
ATOM      5  O   UNL A   1      34.414  22.840  27.477  1.00  0.00    -0.275 OA
ATOM      6  H   UNL A   1      36.755  22.436  27.392  1.00  0.00     0.163 HD
BRANCH   4   7
ATOM      7  C   UNL A   1      34.501  23.684  25.228  1.00  0.00     0.103 C 
ATOM      8  N   UNL A   1      33.149  25.397  24.460  1.00  0.00    -0.337 N 
ATOM      9  C   UNL A   1      34.060  25.110  25.550  1.00  0.00     0.133 C 
ATOM     10  C   UNL A   1      32.373  24.213  24.161  1.00  0.00     0.124 C 
ATOM     11  C   UNL A   1      33.182  23.029  24.747  1.00  0.00     0.026 C 
BRANCH   8  12
ATOM     12  C   UNL A   1      32.986  26.537  23.690  1.00  0.00     0.263 C 
ATOM     13  O   UNL A   1      33.550  26.596  22.593  1.00  0.00    -0.268 OA
BRANCH  12  14
ATOM     14  C   UNL A   1      32.246  27.687  24.203  1.00  0.00     0.093 A 
ATOM     15  C   UNL A   1      29.613  30.337  23.674  1.00  0.00     0.045 C 
ATOM     16  C   UNL A   1      30.736  29.504  24.200  1.00  0.00    -0.037 A 
ATOM     17  C   UNL A   1      31.125  28.250  23.618  1.00  0.00     0.029 A 
ATOM     18  C   UNL A   1      31.563  29.828  25.261  1.00  0.00     0.005 A 
ATOM     19  S   UNL A   1      32.824  28.694  25.457  1.00  0.00    -0.135 S 
ATOM     20  C   UNL A   1      31.506  31.023  26.155  1.00  0.00     0.056 C 
ENDBRANCH  12  14
ENDBRANCH   8  12
BRANCH  11  21
ATOM     21  C   UNL A   1      33.278  21.915  23.726  1.00  0.00    -0.005 C 
ATOM     22  C   UNL A   1      32.521  20.611  23.796  1.00  0.00     0.004 C 
ATOM     23  C   UNL A   1      32.163  21.637  22.754  1.00  0.00     0.004 C 
ENDBRANCH  11  21
ENDBRANCH   4   7
ENDBRANCH   2   3
ENDBRANCH   1   2
BRANCH   1  24
ATOM     24  C   UNL A   1      38.005  20.201  25.027  1.00  0.00     0.023 C 
BRANCH  24  25
ATOM     25  C   UNL A   1      39.274  20.428  25.844  1.00  0.00     0.116 C 
BRANCH  25  26
ATOM     26  N   UNL A   1      40.185  19.292  25.844  1.00  0.00    -0.352 N 
ATOM     27  C   UNL A   1      41.538  19.234  26.091  1.00  0.00     0.251 C 
ATOM     28  H   UNL A   1      39.766  18.427  25.633  1.00  0.00     0.163 HD
ATOM     29  O   UNL A   1      42.143  18.179  25.951  1.00  0.00    -0.269 OA
BRANCH  27  30
ATOM     30  C   UNL A   1      42.276  20.458  26.472  1.00  0.00     0.039 A 
ATOM     31  C   UNL A   1      42.974  21.155  25.482  1.00  0.00     0.014 A 
ATOM     32  C   UNL A   1      42.249  20.941  27.782  1.00  0.00     0.014 A 
ATOM     33  C   UNL A   1      43.542  22.395  25.779  1.00  0.00     0.010 A 
ATOM     34  C   UNL A   1      42.748  22.211  28.059  1.00  0.00     0.010 A 
ATOM     35  C   UNL A   1      43.373  22.964  27.052  1.00  0.00    -0.014 A 
BRANCH  35  36
ATOM     36  C   UNL A   1      43.778  24.366  27.328  1.00  0.00     0.031 A 
ATOM     37  C   UNL A   1      42.772  25.379  27.793  1.00  0.00     0.074 A 
ATOM     38  C   UNL A   1      45.044  24.748  27.068  1.00  0.00     0.049 A 
ATOM     39  N   UNL A   1      42.925  26.663  27.998  1.00  0.00    -0.248 NA
ATOM     40  C   UNL A   1      41.405  24.890  28.035  1.00  0.00     0.031 C 
ATOM     41  C   UNL A   1      46.102  23.874  26.556  1.00  0.00     0.029 A 
ATOM     42  N   UNL A   1      45.654  25.973  27.181  1.00  0.00    -0.354 N 
ATOM     43  C   UNL A   1      41.678  27.137  28.382  1.00  0.00     0.074 A 
ATOM     44  C   UNL A   1      40.767  26.012  28.335  1.00  0.00     0.031 C 
ATOM     45  C   UNL A   1      47.234  24.584  26.419  1.00  0.00     0.029 A 
ATOM     46  C   UNL A   1      46.973  25.970  26.792  1.00  0.00     0.049 A 
ATOM     47  H   UNL A   1      45.192  26.777  27.509  1.00  0.00     0.167 HD
ATOM     48  C   UNL A   1      41.330  28.390  28.758  1.00  0.00     0.037 A 
ATOM     49  C   UNL A   1      47.869  26.973  26.732  1.00  0.00     0.037 A 
ATOM     50  C   UNL A   1      42.242  29.502  28.824  1.00  0.00     0.049 A 
ATOM     51  C   UNL A   1      47.453  28.357  27.145  1.00  0.00     0.074 A 
ATOM     52  C   UNL A   1      41.999  30.792  29.265  1.00  0.00     0.029 A 
ATOM     53  N   UNL A   1      43.572  29.457  28.435  1.00  0.00    -0.354 N 
ATOM     54  N   UNL A   1      46.289  28.776  27.578  1.00  0.00    -0.248 NA
ATOM     55  C   UNL A   1      48.475  29.409  27.062  1.00  0.00     0.031 C 
ATOM     56  C   UNL A   1      43.170  31.540  29.099  1.00  0.00     0.029 A 
ATOM     57  C   UNL A   1      44.156  30.705  28.599  1.00  0.00     0.049 A 
ATOM     58  H   UNL A   1      44.035  28.659  28.093  1.00  0.00     0.167 HD
ATOM     59  C   UNL A   1      46.444  30.130  27.838  1.00  0.00     0.074 A 
ATOM     60  C   UNL A   1      47.819  30.460  27.532  1.00  0.00     0.031 C 
ATOM     61  C   UNL A   1      45.525  31.021  28.287  1.00  0.00     0.037 A 
BRANCH  48  62
ATOM     62  C   UNL A   1      39.897  28.628  29.136  1.00  0.00     0.064 A 
ATOM     63  C   UNL A   1      39.438  28.410  30.444  1.00  0.00     0.173 A 
ATOM     64  C   UNL A   1      38.985  29.127  28.196  1.00  0.00     0.173 A 
ATOM     65  F   UNL A   1      40.270  27.924  31.379  1.00  0.00    -0.203 F 
ATOM     66  C   UNL A   1      38.113  28.657  30.789  1.00  0.00     0.198 A 
ATOM     67  C   UNL A   1      37.667  29.400  28.551  1.00  0.00     0.198 A 
ATOM     68  F   UNL A   1      39.374  29.360  26.932  1.00  0.00    -0.203 F 
ATOM     69  F   UNL A   1      37.687  28.400  32.034  1.00  0.00    -0.200 F 
ATOM     70  C   UNL A   1      37.230  29.159  29.845  1.00  0.00     0.200 A 
ATOM     71  F   UNL A   1      36.817  29.897  27.640  1.00  0.00    -0.200 F 
ATOM     72  F   UNL A   1      35.956  29.405  30.180  1.00  0.00    -0.200 F 
ENDBRANCH  48  62
BRANCH  49  73
ATOM     73  C   UNL A   1      49.256  26.703  26.273  1.00  0.00     0.064 A 
ATOM     74  C   UNL A   1      50.234  26.253  27.170  1.00  0.00     0.173 A 
ATOM     75  C   UNL A   1      49.634  26.893  24.936  1.00  0.00     0.173 A 
ATOM     76  F   UNL A   1      49.925  26.077  28.464  1.00  0.00    -0.203 F 
ATOM     77  C   UNL A   1      51.543  26.021  26.752  1.00  0.00     0.198 A 
ATOM     78  C   UNL A   1      50.937  26.634  24.513  1.00  0.00     0.198 A 
ATOM     79  F   UNL A   1      48.735  27.318  24.037  1.00  0.00    -0.203 F 
ATOM     80  F   UNL A   1      52.469  25.633  27.640  1.00  0.00    -0.200 F 
ATOM     81  C   UNL A   1      51.891  26.206  25.423  1.00  0.00     0.200 A 
ATOM     82  F   UNL A   1      51.267  26.802  23.225  1.00  0.00    -0.200 F 
ATOM     83  F   UNL A   1      53.149  25.980  25.020  1.00  0.00    -0.200 F 
ENDBRANCH  49  73
BRANCH  61  84
ATOM     84  C   UNL A   1      45.985  32.435  28.490  1.00  0.00     0.064 A 
ATOM     85  C   UNL A   1      46.484  32.872  29.725  1.00  0.00     0.173 A 
ATOM     86  C   UNL A   1      45.954  33.352  27.429  1.00  0.00     0.173 A 
ATOM     87  F   UNL A   1      46.516  32.037  30.775  1.00  0.00    -0.203 F 
ATOM     88  C   UNL A   1      46.917  34.184  29.897  1.00  0.00     0.198 A 
ATOM     89  C   UNL A   1      46.414  34.655  27.597  1.00  0.00     0.198 A 
ATOM     90  F   UNL A   1      45.489  32.982  26.227  1.00  0.00    -0.203 F 
ATOM     91  F   UNL A   1      47.348  34.594  31.098  1.00  0.00    -0.200 F 
ATOM     92  C   UNL A   1      46.888  35.073  28.831  1.00  0.00     0.200 A 
ATOM     93  F   UNL A   1      46.396  35.509  26.564  1.00  0.00    -0.200 F 
ATOM     94  F   UNL A   1      47.310  36.333  28.997  1.00  0.00    -0.200 F 
ENDBRANCH  61  84
ENDBRANCH  35  36
ENDBRANCH  27  30
ENDBRANCH  25  26
ENDBRANCH  24  25
ENDBRANCH   1  24
TORSDOF 14
ENDMDL
