MODEL 1
REMARK VINA RESULT:     -13.7      0.000      0.000
REMARK SMILES [NH2+]=C1S[C@@H](C(=O)Nc2ccc(C(=O)NCCCCNC(=O)c3ccc(-c4c5nc(c(-c6c(F)c(F)c(F)c(F)c6F)c6ccc([nH]6)c(-c6c(F)c(F)c(F)c(F)c6F)c6nc(c(-c7c(F)c(F)c(F)c(F)c7F)c7ccc4[nH]7)C=C6)C=C5)cc3)cc2)CC(=O)N1/N=C/c1ccc(Cl)cc1
REMARK SMILES IDX 15 1 14 2 12 3 13 4 11 6 8 7 9 8 86 9 10 10 85 11 7 12 5 13
REMARK SMILES IDX 6 14 4 16 1 17 2 18 3 21 90 22 88 23 87 24 89 25 91 26 92 27
REMARK SMILES IDX 93 28 94 29 99 30 95 31 98 32 96 33 97 34 16 35 17 36 18 37
REMARK SMILES IDX 19 38 20 39 21 41 22 42 23 43 84 44 24 45 83 46 25 47 26 48
REMARK SMILES IDX 27 49 77 50 28 51 82 52 76 53 78 54 29 55 81 56 75 57 74 58
REMARK SMILES IDX 30 60 62 61 42 62 61 63 43 64 46 65 60 66 79 67 44 68 45 69
REMARK SMILES IDX 59 71 80 72 47 73 31 74 32 75 40 76 33 77 34 78 38 79 41 80
REMARK SMILES IDX 35 81 36 82 39 83 37 84 63 85 64 86 72 87 65 88 66 89 70 90
REMARK SMILES IDX 73 91 67 92 68 93 71 94 69 95 48 96 49 97 57 98 50 99 51 100
REMARK SMILES IDX 55 101 58 102 52 103 53 104 56 105 54 106
REMARK H PARENT 14 5 7 15 1 19 1 20 19 40 78 59 46 70
REMARK Flexibility Score: inf
ROOT
ATOM      1  C   UNL A   1      36.440  22.021  25.697  1.00  0.00     0.116 C 
ENDROOT
BRANCH   1   2
ATOM      2  N   UNL A   1      35.486  21.551  26.695  1.00  0.00    -0.352 N 
ATOM      3  C   UNL A   1      34.301  22.098  27.119  1.00  0.00     0.251 C 
ATOM      4  O   UNL A   1      33.542  21.419  27.809  1.00  0.00    -0.269 OA
ATOM      5  H   UNL A   1      35.731  20.705  27.135  1.00  0.00     0.163 HD
BRANCH   3   6
ATOM      6  C   UNL A   1      33.876  23.447  26.687  1.00  0.00     0.039 A 
ATOM      7  C   UNL A   1      32.943  25.860  25.661  1.00  0.00     0.041 A 
ATOM      8  C   UNL A   1      32.068  25.024  26.352  1.00  0.00     0.027 A 
ATOM      9  C   UNL A   1      34.306  25.574  25.627  1.00  0.00     0.027 A 
ATOM     10  C   UNL A   1      32.529  23.799  26.836  1.00  0.00     0.016 A 
ATOM     11  C   UNL A   1      34.777  24.375  26.160  1.00  0.00     0.016 A 
BRANCH   7  12
ATOM     12  N   UNL A   1      32.438  27.021  25.086  1.00  0.00    -0.325 N 
ATOM     13  C   UNL A   1      32.589  27.514  23.824  1.00  0.00     0.238 C 
ATOM     14  O   UNL A   1      32.412  28.729  23.674  1.00  0.00    -0.273 OA
ATOM     15  H   UNL A   1      31.889  27.575  25.685  1.00  0.00     0.169 HD
BRANCH  13  16
ATOM     16  C   UNL A   1      32.732  26.613  22.581  1.00  0.00     0.160 C 
ATOM     17  N   UNL A   1      30.226  24.107  23.809  1.00  0.00    -0.279 N 
ATOM     18  C   UNL A   1      31.292  24.413  23.154  1.00  0.00     0.338 C 
ATOM     19  H   UNL A   1      29.428  24.681  23.750  1.00  0.00     0.302 HD
ATOM     20  H   UNL A   1      30.208  23.297  24.368  1.00  0.00     0.302 HD
ATOM     21  S   UNL A   1      31.161  25.834  22.168  1.00  0.00    -0.022 SA
ATOM     22  N   UNL A   1      32.487  23.692  23.145  1.00  0.00    -0.057 N 
ATOM     23  C   UNL A   1      33.711  24.183  22.659  1.00  0.00     0.337 C 
ATOM     24  C   UNL A   1      33.885  25.669  22.389  1.00  0.00     0.155 C 
ATOM     25  O   UNL A   1      34.693  23.461  22.430  1.00  0.00    -0.244 OA
BRANCH  22  26
ATOM     26  N   UNL A   1      32.584  22.350  23.588  1.00  0.00    -0.082 NA
ATOM     27  C   UNL A   1      32.119  21.362  22.898  1.00  0.00     0.167 C 
BRANCH  27  28
ATOM     28  C   UNL A   1      32.362  19.965  23.315  1.00  0.00    -0.003 A 
ATOM     29  C   UNL A   1      32.591  19.726  24.673  1.00  0.00     0.011 A 
ATOM     30  C   UNL A   1      32.412  18.916  22.397  1.00  0.00     0.011 A 
ATOM     31  C   UNL A   1      32.841  18.424  25.116  1.00  0.00     0.021 A 
ATOM     32  C   UNL A   1      32.653  17.612  22.843  1.00  0.00     0.021 A 
ATOM     33  C   UNL A   1      32.864  17.372  24.201  1.00  0.00     0.041 A 
ATOM     34  Cl  UNL A   1      33.162  15.770  24.753  1.00  0.00    -0.084 Cl
ENDBRANCH  27  28
ENDBRANCH  22  26
ENDBRANCH  13  16
ENDBRANCH   7  12
ENDBRANCH   3   6
ENDBRANCH   1   2
BRANCH   1  35
ATOM     35  C   UNL A   1      36.626  20.979  24.598  1.00  0.00     0.023 C 
BRANCH  35  36
ATOM     36  C   UNL A   1      37.636  19.891  24.971  1.00  0.00     0.023 C 
BRANCH  36  37
ATOM     37  C   UNL A   1      38.891  20.419  25.664  1.00  0.00     0.116 C 
BRANCH  37  38
ATOM     38  N   UNL A   1      39.919  19.395  25.801  1.00  0.00    -0.352 N 
ATOM     39  C   UNL A   1      41.254  19.517  26.084  1.00  0.00     0.251 C 
ATOM     40  H   UNL A   1      39.605  18.471  25.669  1.00  0.00     0.163 HD
ATOM     41  O   UNL A   1      42.005  18.549  25.947  1.00  0.00    -0.269 OA
BRANCH  39  42
ATOM     42  C   UNL A   1      41.811  20.808  26.540  1.00  0.00     0.039 A 
ATOM     43  C   UNL A   1      42.237  21.737  25.587  1.00  0.00     0.014 A 
ATOM     44  C   UNL A   1      41.940  21.096  27.902  1.00  0.00     0.014 A 
ATOM     45  C   UNL A   1      42.724  22.980  25.998  1.00  0.00     0.010 A 
ATOM     46  C   UNL A   1      42.350  22.364  28.307  1.00  0.00     0.010 A 
ATOM     47  C   UNL A   1      42.748  23.320  27.361  1.00  0.00    -0.014 A 
BRANCH  47  48
ATOM     48  C   UNL A   1      43.173  24.672  27.810  1.00  0.00     0.031 A 
ATOM     49  C   UNL A   1      42.147  25.721  28.144  1.00  0.00     0.074 A 
ATOM     50  C   UNL A   1      44.486  24.976  27.854  1.00  0.00     0.049 A 
ATOM     51  N   UNL A   1      42.324  26.973  28.481  1.00  0.00    -0.248 NA
ATOM     52  C   UNL A   1      40.734  25.316  28.067  1.00  0.00     0.031 C 
ATOM     53  C   UNL A   1      45.577  24.063  27.507  1.00  0.00     0.029 A 
ATOM     54  N   UNL A   1      45.127  26.142  28.192  1.00  0.00    -0.354 N 
ATOM     55  C   UNL A   1      41.051  27.508  28.638  1.00  0.00     0.074 A 
ATOM     56  C   UNL A   1      40.109  26.458  28.315  1.00  0.00     0.031 C 
ATOM     57  C   UNL A   1      46.749  24.698  27.665  1.00  0.00     0.029 A 
ATOM     58  C   UNL A   1      46.495  26.073  28.081  1.00  0.00     0.049 A 
ATOM     59  H   UNL A   1      44.651  26.953  28.487  1.00  0.00     0.167 HD
ATOM     60  C   UNL A   1      40.702  28.755  29.034  1.00  0.00     0.037 A 
ATOM     61  C   UNL A   1      47.437  27.017  28.274  1.00  0.00     0.037 A 
ATOM     62  C   UNL A   1      41.641  29.789  29.382  1.00  0.00     0.049 A 
ATOM     63  C   UNL A   1      47.016  28.396  28.708  1.00  0.00     0.074 A 
ATOM     64  C   UNL A   1      41.383  31.060  29.863  1.00  0.00     0.029 A 
ATOM     65  N   UNL A   1      43.020  29.672  29.279  1.00  0.00    -0.354 N 
ATOM     66  N   UNL A   1      45.812  28.863  28.932  1.00  0.00    -0.248 NA
ATOM     67  C   UNL A   1      48.087  29.379  28.924  1.00  0.00     0.031 C 
ATOM     68  C   UNL A   1      42.600  31.735  29.995  1.00  0.00     0.029 A 
ATOM     69  C   UNL A   1      43.622  30.861  29.660  1.00  0.00     0.049 A 
ATOM     70  H   UNL A   1      43.499  28.866  28.980  1.00  0.00     0.167 HD
ATOM     71  C   UNL A   1      45.983  30.177  29.348  1.00  0.00     0.074 A 
ATOM     72  C   UNL A   1      47.408  30.429  29.362  1.00  0.00     0.031 C 
ATOM     73  C   UNL A   1      45.044  31.093  29.686  1.00  0.00     0.037 A 
BRANCH  60  74
ATOM     74  C   UNL A   1      39.239  29.083  29.119  1.00  0.00     0.064 A 
ATOM     75  C   UNL A   1      38.544  29.049  30.337  1.00  0.00     0.173 A 
ATOM     76  C   UNL A   1      38.541  29.512  27.978  1.00  0.00     0.173 A 
ATOM     77  F   UNL A   1      39.162  28.640  31.456  1.00  0.00    -0.203 F 
ATOM     78  C   UNL A   1      37.202  29.416  30.407  1.00  0.00     0.198 A 
ATOM     79  C   UNL A   1      37.208  29.907  28.058  1.00  0.00     0.198 A 
ATOM     80  F   UNL A   1      39.159  29.569  26.789  1.00  0.00    -0.203 F 
ATOM     81  F   UNL A   1      36.549  29.341  31.575  1.00  0.00    -0.200 F 
ATOM     82  C   UNL A   1      36.539  29.854  29.271  1.00  0.00     0.200 A 
ATOM     83  F   UNL A   1      36.574  30.346  26.962  1.00  0.00    -0.200 F 
ATOM     84  F   UNL A   1      35.253  30.224  29.345  1.00  0.00    -0.200 F 
ENDBRANCH  60  74
BRANCH  61  85
ATOM     85  C   UNL A   1      48.875  26.696  28.060  1.00  0.00     0.064 A 
ATOM     86  C   UNL A   1      49.438  26.718  26.776  1.00  0.00     0.173 A 
ATOM     87  C   UNL A   1      49.706  26.323  29.127  1.00  0.00     0.173 A 
ATOM     88  F   UNL A   1      48.681  27.048  25.718  1.00  0.00    -0.203 F 
ATOM     89  C   UNL A   1      50.763  26.345  26.563  1.00  0.00     0.198 A 
ATOM     90  C   UNL A   1      51.041  25.985  28.917  1.00  0.00     0.198 A 
ATOM     91  F   UNL A   1      49.220  26.289  30.376  1.00  0.00    -0.203 F 
ATOM     92  F   UNL A   1      51.255  26.313  25.317  1.00  0.00    -0.200 F 
ATOM     93  C   UNL A   1      51.565  25.983  27.634  1.00  0.00     0.200 A 
ATOM     94  F   UNL A   1      51.816  25.651  29.958  1.00  0.00    -0.200 F 
ATOM     95  F   UNL A   1      52.839  25.620  27.429  1.00  0.00    -0.200 F 
ENDBRANCH  61  85
BRANCH  73  96
ATOM     96  C   UNL A   1      45.524  32.439  30.149  1.00  0.00     0.064 A 
ATOM     97  C   UNL A   1      45.857  32.686  31.490  1.00  0.00     0.173 A 
ATOM     98  C   UNL A   1      45.692  33.485  29.229  1.00  0.00     0.173 A 
ATOM     99  F   UNL A   1      45.702  31.724  32.412  1.00  0.00    -0.203 F 
ATOM    100  C   UNL A   1      46.312  33.938  31.896  1.00  0.00     0.198 A 
ATOM    101  C   UNL A   1      46.181  34.725  29.632  1.00  0.00     0.198 A 
ATOM    102  F   UNL A   1      45.396  33.301  27.934  1.00  0.00    -0.203 F 
ATOM    103  F   UNL A   1      46.574  34.165  33.190  1.00  0.00    -0.200 F 
ATOM    104  C   UNL A   1      46.483  34.952  30.966  1.00  0.00     0.200 A 
ATOM    105  F   UNL A   1      46.361  35.698  28.728  1.00  0.00    -0.200 F 
ATOM    106  F   UNL A   1      46.931  36.154  31.357  1.00  0.00    -0.200 F 
ENDBRANCH  73  96
ENDBRANCH  47  48
ENDBRANCH  39  42
ENDBRANCH  37  38
ENDBRANCH  36  37
ENDBRANCH  35  36
ENDBRANCH   1  35
TORSDOF 15
ENDMDL
MODEL 2
REMARK VINA RESULT:     -13.7      0.857      1.786
REMARK SMILES [NH2+]=C1S[C@@H](C(=O)Nc2ccc(C(=O)NCCCCNC(=O)c3ccc(-c4c5nc(c(-c6c(F)c(F)c(F)c(F)c6F)c6ccc([nH]6)c(-c6c(F)c(F)c(F)c(F)c6F)c6nc(c(-c7c(F)c(F)c(F)c(F)c7F)c7ccc4[nH]7)C=C6)C=C5)cc3)cc2)CC(=O)N1/N=C/c1ccc(Cl)cc1
REMARK SMILES IDX 15 1 14 2 12 3 13 4 11 6 8 7 9 8 86 9 10 10 85 11 7 12 5 13
REMARK SMILES IDX 6 14 4 16 1 17 2 18 3 21 90 22 88 23 87 24 89 25 91 26 92 27
REMARK SMILES IDX 93 28 94 29 99 30 95 31 98 32 96 33 97 34 16 35 17 36 18 37
REMARK SMILES IDX 19 38 20 39 21 41 22 42 23 43 84 44 24 45 83 46 25 47 26 48
REMARK SMILES IDX 27 49 77 50 28 51 82 52 76 53 78 54 29 55 81 56 75 57 74 58
REMARK SMILES IDX 30 60 62 61 42 62 61 63 43 64 46 65 60 66 79 67 44 68 45 69
REMARK SMILES IDX 59 71 80 72 47 73 31 74 32 75 40 76 33 77 34 78 38 79 41 80
REMARK SMILES IDX 35 81 36 82 39 83 37 84 63 85 64 86 72 87 65 88 66 89 70 90
REMARK SMILES IDX 73 91 67 92 68 93 71 94 69 95 48 96 49 97 57 98 50 99 51 100
REMARK SMILES IDX 55 101 58 102 52 103 53 104 56 105 54 106
REMARK H PARENT 14 5 7 15 1 19 1 20 19 40 78 59 46 70
REMARK Flexibility Score: inf
ROOT
ATOM      1  C   UNL A   1      36.545  22.032  25.528  1.00  0.00     0.116 C 
ENDROOT
BRANCH   1   2
ATOM      2  N   UNL A   1      35.592  21.540  26.517  1.00  0.00    -0.352 N 
ATOM      3  C   UNL A   1      34.415  22.084  26.965  1.00  0.00     0.251 C 
ATOM      4  O   UNL A   1      33.654  21.391  27.638  1.00  0.00    -0.269 OA
ATOM      5  H   UNL A   1      35.833  20.678  26.929  1.00  0.00     0.163 HD
BRANCH   3   6
ATOM      6  C   UNL A   1      34.000  23.450  26.578  1.00  0.00     0.039 A 
ATOM      7  C   UNL A   1      33.070  25.900  25.643  1.00  0.00     0.041 A 
ATOM      8  C   UNL A   1      32.216  25.075  26.372  1.00  0.00     0.027 A 
ATOM      9  C   UNL A   1      34.421  25.581  25.524  1.00  0.00     0.027 A 
ATOM     10  C   UNL A   1      32.674  23.832  26.811  1.00  0.00     0.016 A 
ATOM     11  C   UNL A   1      34.892  24.364  26.012  1.00  0.00     0.016 A 
BRANCH   7  12
ATOM     12  N   UNL A   1      32.562  27.083  25.115  1.00  0.00    -0.325 N 
ATOM     13  C   UNL A   1      32.647  27.589  23.851  1.00  0.00     0.238 C 
ATOM     14  O   UNL A   1      32.494  28.810  23.728  1.00  0.00    -0.273 OA
ATOM     15  H   UNL A   1      32.066  27.643  25.754  1.00  0.00     0.169 HD
BRANCH  13  16
ATOM     16  C   UNL A   1      32.687  26.702  22.591  1.00  0.00     0.160 C 
ATOM     17  N   UNL A   1      30.057  24.351  23.866  1.00  0.00    -0.279 N 
ATOM     18  C   UNL A   1      31.120  24.595  23.180  1.00  0.00     0.338 C 
ATOM     19  H   UNL A   1      29.299  24.979  23.843  1.00  0.00     0.302 HD
ATOM     20  H   UNL A   1      30.002  23.534  24.413  1.00  0.00     0.302 HD
ATOM     21  S   UNL A   1      31.054  26.039  22.220  1.00  0.00    -0.022 SA
ATOM     22  N   UNL A   1      32.261  23.795  23.120  1.00  0.00    -0.057 N 
ATOM     23  C   UNL A   1      33.500  24.210  22.600  1.00  0.00     0.337 C 
ATOM     24  C   UNL A   1      33.766  25.685  22.346  1.00  0.00     0.155 C 
ATOM     25  O   UNL A   1      34.421  23.427  22.327  1.00  0.00    -0.244 OA
BRANCH  22  26
ATOM     26  N   UNL A   1      32.280  22.442  23.539  1.00  0.00    -0.082 NA
ATOM     27  C   UNL A   1      32.262  21.461  22.700  1.00  0.00     0.167 C 
BRANCH  27  28
ATOM     28  C   UNL A   1      32.428  20.066  23.160  1.00  0.00    -0.003 A 
ATOM     29  C   UNL A   1      32.798  19.864  24.493  1.00  0.00     0.011 A 
ATOM     30  C   UNL A   1      32.273  18.979  22.300  1.00  0.00     0.011 A 
ATOM     31  C   UNL A   1      32.982  18.565  24.973  1.00  0.00     0.021 A 
ATOM     32  C   UNL A   1      32.449  17.678  22.785  1.00  0.00     0.021 A 
ATOM     33  C   UNL A   1      32.800  17.477  24.119  1.00  0.00     0.041 A 
ATOM     34  Cl  UNL A   1      33.019  15.879  24.718  1.00  0.00    -0.084 Cl
ENDBRANCH  27  28
ENDBRANCH  22  26
ENDBRANCH  13  16
ENDBRANCH   7  12
ENDBRANCH   3   6
ENDBRANCH   1   2
BRANCH   1  35
ATOM     35  C   UNL A   1      36.832  20.962  24.479  1.00  0.00     0.023 C 
BRANCH  35  36
ATOM     36  C   UNL A   1      37.741  19.845  24.998  1.00  0.00     0.023 C 
BRANCH  36  37
ATOM     37  C   UNL A   1      38.983  20.346  25.736  1.00  0.00     0.116 C 
BRANCH  37  38
ATOM     38  N   UNL A   1      40.001  19.313  25.868  1.00  0.00    -0.352 N 
ATOM     39  C   UNL A   1      41.353  19.426  26.061  1.00  0.00     0.251 C 
ATOM     40  H   UNL A   1      39.665  18.389  25.810  1.00  0.00     0.163 HD
ATOM     41  O   UNL A   1      42.079  18.438  25.936  1.00  0.00    -0.269 OA
BRANCH  39  42
ATOM     42  C   UNL A   1      41.957  20.730  26.406  1.00  0.00     0.039 A 
ATOM     43  C   UNL A   1      42.273  21.624  25.379  1.00  0.00     0.014 A 
ATOM     44  C   UNL A   1      42.237  21.066  27.734  1.00  0.00     0.014 A 
ATOM     45  C   UNL A   1      42.803  22.878  25.688  1.00  0.00     0.010 A 
ATOM     46  C   UNL A   1      42.690  22.347  28.045  1.00  0.00     0.010 A 
ATOM     47  C   UNL A   1      42.978  23.267  27.027  1.00  0.00    -0.014 A 
BRANCH  47  48
ATOM     48  C   UNL A   1      43.451  24.632  27.377  1.00  0.00     0.031 A 
ATOM     49  C   UNL A   1      42.489  25.655  27.917  1.00  0.00     0.074 A 
ATOM     50  C   UNL A   1      44.735  24.972  27.146  1.00  0.00     0.049 A 
ATOM     51  N   UNL A   1      42.697  26.914  28.209  1.00  0.00    -0.248 NA
ATOM     52  C   UNL A   1      41.103  25.212  28.136  1.00  0.00     0.031 C 
ATOM     53  C   UNL A   1      45.754  24.086  26.580  1.00  0.00     0.029 A 
ATOM     54  N   UNL A   1      45.400  26.156  27.342  1.00  0.00    -0.354 N 
ATOM     55  C   UNL A   1      41.471  27.415  28.628  1.00  0.00     0.074 A 
ATOM     56  C   UNL A   1      40.512  26.339  28.510  1.00  0.00     0.031 C 
ATOM     57  C   UNL A   1      46.916  24.753  26.490  1.00  0.00     0.029 A 
ATOM     58  C   UNL A   1      46.717  26.123  26.949  1.00  0.00     0.049 A 
ATOM     59  H   UNL A   1      44.975  26.956  27.730  1.00  0.00     0.167 HD
ATOM     60  C   UNL A   1      41.178  28.655  29.088  1.00  0.00     0.037 A 
ATOM     61  C   UNL A   1      47.652  27.093  26.941  1.00  0.00     0.037 A 
ATOM     62  C   UNL A   1      42.141  29.715  29.232  1.00  0.00     0.049 A 
ATOM     63  C   UNL A   1      47.293  28.463  27.453  1.00  0.00     0.074 A 
ATOM     64  C   UNL A   1      41.954  30.982  29.756  1.00  0.00     0.029 A 
ATOM     65  N   UNL A   1      43.470  29.635  28.844  1.00  0.00    -0.354 N 
ATOM     66  N   UNL A   1      46.150  28.899  27.923  1.00  0.00    -0.248 NA
ATOM     67  C   UNL A   1      48.358  29.476  27.441  1.00  0.00     0.031 C 
ATOM     68  C   UNL A   1      43.153  31.690  29.631  1.00  0.00     0.029 A 
ATOM     69  C   UNL A   1      44.106  30.842  29.091  1.00  0.00     0.049 A 
ATOM     70  H   UNL A   1      43.898  28.840  28.452  1.00  0.00     0.167 HD
ATOM     71  C   UNL A   1      46.367  30.219  28.293  1.00  0.00     0.074 A 
ATOM     72  C   UNL A   1      47.757  30.509  28.010  1.00  0.00     0.031 C 
ATOM     73  C   UNL A   1      45.495  31.112  28.820  1.00  0.00     0.037 A 
BRANCH  60  74
ATOM     74  C   UNL A   1      39.756  28.944  29.476  1.00  0.00     0.064 A 
ATOM     75  C   UNL A   1      38.816  29.408  28.544  1.00  0.00     0.173 A 
ATOM     76  C   UNL A   1      39.310  28.677  30.780  1.00  0.00     0.173 A 
ATOM     77  F   UNL A   1      39.192  29.686  27.286  1.00  0.00    -0.203 F 
ATOM     78  C   UNL A   1      37.487  29.612  28.907  1.00  0.00     0.198 A 
ATOM     79  C   UNL A   1      37.973  28.853  31.131  1.00  0.00     0.198 A 
ATOM     80  F   UNL A   1      40.165  28.225  31.709  1.00  0.00    -0.203 F 
ATOM     81  F   UNL A   1      36.615  30.091  28.009  1.00  0.00    -0.200 F 
ATOM     82  C   UNL A   1      37.065  29.324  30.196  1.00  0.00     0.200 A 
ATOM     83  F   UNL A   1      37.564  28.558  32.373  1.00  0.00    -0.200 F 
ATOM     84  F   UNL A   1      35.782  29.503  30.538  1.00  0.00    -0.200 F 
ENDBRANCH  60  74
BRANCH  61  85
ATOM     85  C   UNL A   1      49.022  26.809  26.432  1.00  0.00     0.064 A 
ATOM     86  C   UNL A   1      49.354  27.029  25.088  1.00  0.00     0.173 A 
ATOM     87  C   UNL A   1      50.015  26.277  27.268  1.00  0.00     0.173 A 
ATOM     88  F   UNL A   1      48.434  27.517  24.242  1.00  0.00    -0.203 F 
ATOM     89  C   UNL A   1      50.612  26.694  24.591  1.00  0.00     0.198 A 
ATOM     90  C   UNL A   1      51.284  25.976  26.778  1.00  0.00     0.198 A 
ATOM     91  F   UNL A   1      49.752  26.052  28.563  1.00  0.00    -0.203 F 
ATOM     92  F   UNL A   1      50.879  26.853  23.288  1.00  0.00    -0.200 F 
ATOM     93  C   UNL A   1      51.578  26.171  25.438  1.00  0.00     0.200 A 
ATOM     94  F   UNL A   1      52.219  25.487  27.605  1.00  0.00    -0.200 F 
ATOM     95  F   UNL A   1      52.786  25.845  24.960  1.00  0.00    -0.200 F 
ENDBRANCH  61  85
BRANCH  73  96
ATOM     96  C   UNL A   1      46.024  32.473  29.173  1.00  0.00     0.064 A 
ATOM     97  C   UNL A   1      45.978  33.544  28.267  1.00  0.00     0.173 A 
ATOM     98  C   UNL A   1      46.545  32.719  30.452  1.00  0.00     0.173 A 
ATOM     99  F   UNL A   1      45.501  33.359  27.027  1.00  0.00    -0.203 F 
ATOM    100  C   UNL A   1      46.462  34.801  28.619  1.00  0.00     0.198 A 
ATOM    101  C   UNL A   1      46.996  33.985  30.813  1.00  0.00     0.198 A 
ATOM    102  F   UNL A   1      46.605  31.733  31.359  1.00  0.00    -0.203 F 
ATOM    103  F   UNL A   1      46.457  35.795  27.721  1.00  0.00    -0.200 F 
ATOM    104  C   UNL A   1      46.962  35.023  29.894  1.00  0.00     0.200 A 
ATOM    105  F   UNL A   1      47.462  34.202  32.051  1.00  0.00    -0.200 F 
ATOM    106  F   UNL A   1      47.419  36.236  30.235  1.00  0.00    -0.200 F 
ENDBRANCH  73  96
ENDBRANCH  47  48
ENDBRANCH  39  42
ENDBRANCH  37  38
ENDBRANCH  36  37
ENDBRANCH  35  36
ENDBRANCH   1  35
TORSDOF 15
ENDMDL
MODEL 3
REMARK VINA RESULT:     -13.6      2.655      4.773
REMARK SMILES [NH2+]=C1S[C@@H](C(=O)Nc2ccc(C(=O)NCCCCNC(=O)c3ccc(-c4c5nc(c(-c6c(F)c(F)c(F)c(F)c6F)c6ccc([nH]6)c(-c6c(F)c(F)c(F)c(F)c6F)c6nc(c(-c7c(F)c(F)c(F)c(F)c7F)c7ccc4[nH]7)C=C6)C=C5)cc3)cc2)CC(=O)N1/N=C/c1ccc(Cl)cc1
REMARK SMILES IDX 15 1 14 2 12 3 13 4 11 6 8 7 9 8 86 9 10 10 85 11 7 12 5 13
REMARK SMILES IDX 6 14 4 16 1 17 2 18 3 21 90 22 88 23 87 24 89 25 91 26 92 27
REMARK SMILES IDX 93 28 94 29 99 30 95 31 98 32 96 33 97 34 16 35 17 36 18 37
REMARK SMILES IDX 19 38 20 39 21 41 22 42 23 43 84 44 24 45 83 46 25 47 26 48
REMARK SMILES IDX 27 49 77 50 28 51 82 52 76 53 78 54 29 55 81 56 75 57 74 58
REMARK SMILES IDX 30 60 62 61 42 62 61 63 43 64 46 65 60 66 79 67 44 68 45 69
REMARK SMILES IDX 59 71 80 72 47 73 31 74 32 75 40 76 33 77 34 78 38 79 41 80
REMARK SMILES IDX 35 81 36 82 39 83 37 84 63 85 64 86 72 87 65 88 66 89 70 90
REMARK SMILES IDX 73 91 67 92 68 93 71 94 69 95 48 96 49 97 57 98 50 99 51 100
REMARK SMILES IDX 55 101 58 102 52 103 53 104 56 105 54 106
REMARK H PARENT 14 5 7 15 1 19 1 20 19 40 78 59 46 70
REMARK Flexibility Score: inf
ROOT
ATOM      1  C   UNL A   1      37.153  21.577  25.548  1.00  0.00     0.116 C 
ENDROOT
BRANCH   1   2
ATOM      2  N   UNL A   1      36.023  21.516  26.468  1.00  0.00    -0.352 N 
ATOM      3  C   UNL A   1      34.728  21.944  26.315  1.00  0.00     0.251 C 
ATOM      4  O   UNL A   1      33.881  21.590  27.132  1.00  0.00    -0.269 OA
ATOM      5  H   UNL A   1      36.221  21.100  27.338  1.00  0.00     0.163 HD
BRANCH   3   6
ATOM      6  C   UNL A   1      34.313  22.743  25.141  1.00  0.00     0.039 A 
ATOM      7  C   UNL A   1      33.359  24.384  23.106  1.00  0.00     0.041 A 
ATOM      8  C   UNL A   1      34.255  24.899  24.040  1.00  0.00     0.027 A 
ATOM      9  C   UNL A   1      33.071  23.020  23.089  1.00  0.00     0.027 A 
ATOM     10  C   UNL A   1      34.707  24.085  25.080  1.00  0.00     0.016 A 
ATOM     11  C   UNL A   1      33.567  22.194  24.096  1.00  0.00     0.016 A 
BRANCH   7  12
ATOM     12  N   UNL A   1      32.831  25.240  22.147  1.00  0.00    -0.325 N 
ATOM     13  C   UNL A   1      31.592  25.803  22.056  1.00  0.00     0.238 C 
ATOM     14  O   UNL A   1      31.227  26.172  20.933  1.00  0.00    -0.273 OA
ATOM     15  H   UNL A   1      33.448  25.476  21.417  1.00  0.00     0.169 HD
BRANCH  13  16
ATOM     16  C   UNL A   1      30.756  26.198  23.290  1.00  0.00     0.160 C 
ATOM     17  N   UNL A   1      31.048  29.876  22.613  1.00  0.00    -0.279 N 
ATOM     18  C   UNL A   1      30.945  28.878  23.422  1.00  0.00     0.338 C 
ATOM     19  H   UNL A   1      30.510  29.899  21.788  1.00  0.00     0.302 HD
ATOM     20  H   UNL A   1      31.663  30.616  22.819  1.00  0.00     0.302 HD
ATOM     21  S   UNL A   1      29.783  27.677  22.959  1.00  0.00    -0.022 SA
ATOM     22  N   UNL A   1      31.642  28.718  24.620  1.00  0.00    -0.057 N 
ATOM     23  C   UNL A   1      31.728  27.513  25.338  1.00  0.00     0.337 C 
ATOM     24  C   UNL A   1      31.315  26.204  24.684  1.00  0.00     0.155 C 
ATOM     25  O   UNL A   1      32.133  27.442  26.508  1.00  0.00    -0.244 OA
BRANCH  22  26
ATOM     26  N   UNL A   1      32.308  29.783  25.276  1.00  0.00    -0.082 NA
ATOM     27  C   UNL A   1      31.710  30.550  26.126  1.00  0.00     0.167 C 
BRANCH  27  28
ATOM     28  C   UNL A   1      32.464  31.557  26.901  1.00  0.00    -0.003 A 
ATOM     29  C   UNL A   1      33.642  31.141  27.528  1.00  0.00     0.011 A 
ATOM     30  C   UNL A   1      32.011  32.867  27.051  1.00  0.00     0.011 A 
ATOM     31  C   UNL A   1      34.384  32.052  28.285  1.00  0.00     0.021 A 
ATOM     32  C   UNL A   1      32.760  33.781  27.801  1.00  0.00     0.021 A 
ATOM     33  C   UNL A   1      33.944  33.369  28.412  1.00  0.00     0.041 A 
ATOM     34  Cl  UNL A   1      34.867  34.489  29.337  1.00  0.00    -0.084 Cl
ENDBRANCH  27  28
ENDBRANCH  22  26
ENDBRANCH  13  16
ENDBRANCH   7  12
ENDBRANCH   3   6
ENDBRANCH   1   2
BRANCH   1  35
ATOM     35  C   UNL A   1      37.151  20.371  24.613  1.00  0.00     0.023 C 
BRANCH  35  36
ATOM     36  C   UNL A   1      38.190  19.315  24.998  1.00  0.00     0.023 C 
BRANCH  36  37
ATOM     37  C   UNL A   1      39.412  19.879  25.722  1.00  0.00     0.116 C 
BRANCH  37  38
ATOM     38  N   UNL A   1      40.468  18.888  25.878  1.00  0.00    -0.352 N 
ATOM     39  C   UNL A   1      41.813  19.056  26.082  1.00  0.00     0.251 C 
ATOM     40  H   UNL A   1      40.169  17.951  25.828  1.00  0.00     0.163 HD
ATOM     41  O   UNL A   1      42.578  18.096  25.976  1.00  0.00    -0.269 OA
BRANCH  39  42
ATOM     42  C   UNL A   1      42.362  20.387  26.417  1.00  0.00     0.039 A 
ATOM     43  C   UNL A   1      42.782  21.227  25.382  1.00  0.00     0.014 A 
ATOM     44  C   UNL A   1      42.488  20.801  27.746  1.00  0.00     0.014 A 
ATOM     45  C   UNL A   1      43.262  22.505  25.676  1.00  0.00     0.010 A 
ATOM     46  C   UNL A   1      42.891  22.104  28.033  1.00  0.00     0.010 A 
ATOM     47  C   UNL A   1      43.283  22.970  27.002  1.00  0.00    -0.014 A 
BRANCH  47  48
ATOM     48  C   UNL A   1      43.700  24.360  27.324  1.00  0.00     0.031 A 
ATOM     49  C   UNL A   1      42.682  25.378  27.764  1.00  0.00     0.074 A 
ATOM     50  C   UNL A   1      44.987  24.725  27.157  1.00  0.00     0.049 A 
ATOM     51  N   UNL A   1      42.842  26.652  28.016  1.00  0.00    -0.248 NA
ATOM     52  C   UNL A   1      41.296  24.907  27.917  1.00  0.00     0.031 C 
ATOM     53  C   UNL A   1      46.060  23.846  26.689  1.00  0.00     0.029 A 
ATOM     54  N   UNL A   1      45.610  25.934  27.344  1.00  0.00    -0.354 N 
ATOM     55  C   UNL A   1      41.581  27.137  28.340  1.00  0.00     0.074 A 
ATOM     56  C   UNL A   1      40.656  26.031  28.209  1.00  0.00     0.031 C 
ATOM     57  C   UNL A   1      47.208  24.539  26.641  1.00  0.00     0.029 A 
ATOM     58  C   UNL A   1      46.948  25.920  27.032  1.00  0.00     0.049 A 
ATOM     59  H   UNL A   1      45.142  26.736  27.673  1.00  0.00     0.167 HD
ATOM     60  C   UNL A   1      41.230  28.385  28.731  1.00  0.00     0.037 A 
ATOM     61  C   UNL A   1      47.859  26.913  27.041  1.00  0.00     0.037 A 
ATOM     62  C   UNL A   1      42.156  29.476  28.889  1.00  0.00     0.049 A 
ATOM     63  C   UNL A   1      47.436  28.292  27.474  1.00  0.00     0.074 A 
ATOM     64  C   UNL A   1      41.907  30.757  29.350  1.00  0.00     0.029 A 
ATOM     65  N   UNL A   1      43.508  29.416  28.585  1.00  0.00    -0.354 N 
ATOM     66  N   UNL A   1      46.256  28.716  27.857  1.00  0.00    -0.248 NA
ATOM     67  C   UNL A   1      48.475  29.332  27.484  1.00  0.00     0.031 C 
ATOM     68  C   UNL A   1      43.094  31.491  29.268  1.00  0.00     0.029 A 
ATOM     69  C   UNL A   1      44.098  30.648  28.821  1.00  0.00     0.049 A 
ATOM     70  H   UNL A   1      43.978  28.618  28.252  1.00  0.00     0.167 HD
ATOM     71  C   UNL A   1      46.419  30.055  28.186  1.00  0.00     0.074 A 
ATOM     72  C   UNL A   1      47.815  30.371  27.974  1.00  0.00     0.031 C 
ATOM     73  C   UNL A   1      45.494  30.944  28.622  1.00  0.00     0.037 A 
BRANCH  60  74
ATOM     74  C   UNL A   1      39.781  28.651  29.021  1.00  0.00     0.064 A 
ATOM     75  C   UNL A   1      39.238  28.467  30.302  1.00  0.00     0.173 A 
ATOM     76  C   UNL A   1      38.942  29.172  28.023  1.00  0.00     0.173 A 
ATOM     77  F   UNL A   1      39.995  27.965  31.290  1.00  0.00    -0.203 F 
ATOM     78  C   UNL A   1      37.907  28.777  30.568  1.00  0.00     0.198 A 
ATOM     79  C   UNL A   1      37.619  29.509  28.300  1.00  0.00     0.198 A 
ATOM     80  F   UNL A   1      39.411  29.374  26.782  1.00  0.00    -0.203 F 
ATOM     81  F   UNL A   1      37.401  28.559  31.789  1.00  0.00    -0.200 F 
ATOM     82  C   UNL A   1      37.103  29.307  29.571  1.00  0.00     0.200 A 
ATOM     83  F   UNL A   1      36.848  30.038  27.340  1.00  0.00    -0.200 F 
ATOM     84  F   UNL A   1      35.827  29.623  29.833  1.00  0.00    -0.200 F 
ENDBRANCH  60  74
BRANCH  61  85
ATOM     85  C   UNL A   1      49.263  26.647  26.626  1.00  0.00     0.064 A 
ATOM     86  C   UNL A   1      50.232  26.253  27.561  1.00  0.00     0.173 A 
ATOM     87  C   UNL A   1      49.676  26.817  25.296  1.00  0.00     0.173 A 
ATOM     88  F   UNL A   1      49.893  26.096  28.850  1.00  0.00    -0.203 F 
ATOM     89  C   UNL A   1      51.563  26.076  27.190  1.00  0.00     0.198 A 
ATOM     90  C   UNL A   1      51.000  26.604  24.919  1.00  0.00     0.198 A 
ATOM     91  F   UNL A   1      48.790  27.187  24.361  1.00  0.00    -0.203 F 
ATOM     92  F   UNL A   1      52.478  25.764  28.117  1.00  0.00    -0.200 F 
ATOM     93  C   UNL A   1      51.945  26.247  25.868  1.00  0.00     0.200 A 
ATOM     94  F   UNL A   1      51.361  26.755  23.637  1.00  0.00    -0.200 F 
ATOM     95  F   UNL A   1      53.226  26.082  25.511  1.00  0.00    -0.200 F 
ENDBRANCH  61  85
BRANCH  73  96
ATOM     96  C   UNL A   1      45.967  32.332  28.950  1.00  0.00     0.064 A 
ATOM     97  C   UNL A   1      46.433  32.672  30.229  1.00  0.00     0.173 A 
ATOM     98  C   UNL A   1      45.994  33.323  27.957  1.00  0.00     0.173 A 
ATOM     99  F   UNL A   1      46.416  31.766  31.218  1.00  0.00    -0.203 F 
ATOM    100  C   UNL A   1      46.879  33.962  30.509  1.00  0.00     0.198 A 
ATOM    101  C   UNL A   1      46.474  34.601  28.230  1.00  0.00     0.198 A 
ATOM    102  F   UNL A   1      45.568  33.048  26.716  1.00  0.00    -0.203 F 
ATOM    103  F   UNL A   1      47.270  34.279  31.751  1.00  0.00    -0.200 F 
ATOM    104  C   UNL A   1      46.908  34.921  29.508  1.00  0.00     0.200 A 
ATOM    105  F   UNL A   1      46.518  35.521  27.257  1.00  0.00    -0.200 F 
ATOM    106  F   UNL A   1      47.348  36.159  29.776  1.00  0.00    -0.200 F 
ENDBRANCH  73  96
ENDBRANCH  47  48
ENDBRANCH  39  42
ENDBRANCH  37  38
ENDBRANCH  36  37
ENDBRANCH  35  36
ENDBRANCH   1  35
TORSDOF 15
ENDMDL
