MODEL 1
REMARK VINA RESULT:     -12.0      0.000      0.000
REMARK SMILES C[C@H](/N=C(\Cc1ccccc1)C(=O)OC(C)(C)C)C(=O)NCCCCNC(=O)c1ccc(-c2c3nc(c(-c4c(F)c(F)c(F)c(F)c4F)c4ccc([nH]4)c(-c4c(F)c(F)c(F)c(F)c4F)c4nc(c(-c5c(F)c(F)c(F)c(F)c5F)c5ccc2[nH]5)C=C4)C=C3)cc1
REMARK SMILES IDX 22 1 21 2 19 3 20 4 2 6 1 7 3 8 4 9 5 10 6 11 7 12 11 13
REMARK SMILES IDX 8 14 10 15 9 16 12 17 13 18 14 19 15 20 16 21 17 22 18 23
REMARK SMILES IDX 23 24 24 25 25 26 26 27 27 28 28 30 29 31 30 32 91 33 31 34
REMARK SMILES IDX 90 35 32 36 33 37 34 38 84 39 35 40 89 41 83 42 85 43 36 44
REMARK SMILES IDX 88 45 82 46 81 47 37 49 69 50 49 51 68 52 50 53 53 54 67 55
REMARK SMILES IDX 86 56 51 57 52 58 66 60 87 61 54 62 38 63 39 64 47 65 40 66
REMARK SMILES IDX 41 67 45 68 48 69 42 70 43 71 46 72 44 73 70 74 71 75 79 76
REMARK SMILES IDX 72 77 73 78 77 79 80 80 74 81 75 82 78 83 76 84 55 85 56 86
REMARK SMILES IDX 64 87 57 88 58 89 62 90 65 91 59 92 60 93 63 94 61 95
REMARK H PARENT 21 5 26 29 85 48 53 59
REMARK Flexibility Score: inf
ROOT
ATOM      1  C   UNL A   1      31.817  29.930  25.263  1.00  0.00     0.116 C 
ENDROOT
BRANCH   1   2
ATOM      2  N   UNL A   1      33.004  29.682  24.485  1.00  0.00    -0.354 N 
ATOM      3  C   UNL A   1      33.250  28.702  23.564  1.00  0.00     0.244 C 
ATOM      4  O   UNL A   1      34.345  28.737  22.992  1.00  0.00    -0.273 OA
ATOM      5  H   UNL A   1      33.746  30.309  24.638  1.00  0.00     0.163 HD
BRANCH   3   6
ATOM      6  C   UNL A   1      32.191  27.649  23.181  1.00  0.00     0.191 C 
ATOM      7  C   UNL A   1      31.101  28.228  22.302  1.00  0.00     0.044 C 
BRANCH   6   8
ATOM      8  N   UNL A   1      31.802  26.843  24.337  1.00  0.00    -0.269 NA
ATOM      9  C   UNL A   1      32.423  26.227  25.271  1.00  0.00     0.125 C 
BRANCH   9  10
ATOM     10  C   UNL A   1      33.913  26.051  25.447  1.00  0.00     0.099 C 
BRANCH  10  11
ATOM     11  C   UNL A   1      34.584  24.851  24.826  1.00  0.00    -0.042 A 
ATOM     12  C   UNL A   1      35.601  24.230  25.576  1.00  0.00     0.004 A 
ATOM     13  C   UNL A   1      34.288  24.344  23.557  1.00  0.00     0.004 A 
ATOM     14  C   UNL A   1      36.311  23.145  25.067  1.00  0.00     0.000 A 
ATOM     15  C   UNL A   1      35.013  23.266  23.041  1.00  0.00     0.000 A 
ATOM     16  C   UNL A   1      36.023  22.668  23.794  1.00  0.00     0.000 A 
ENDBRANCH  10  11
ENDBRANCH   9  10
BRANCH   9  17
ATOM     17  C   UNL A   1      31.516  25.512  26.307  1.00  0.00     0.353 C 
ATOM     18  O   UNL A   1      30.517  26.021  26.762  1.00  0.00    -0.245 OA
BRANCH  17  19
ATOM     19  O   UNL A   1      32.015  24.294  26.600  1.00  0.00    -0.455 OA
BRANCH  19  20
ATOM     20  C   UNL A   1      31.460  23.101  25.990  1.00  0.00     0.104 C 
ATOM     21  C   UNL A   1      30.944  23.375  24.571  1.00  0.00     0.056 C 
ATOM     22  C   UNL A   1      32.471  21.952  26.018  1.00  0.00     0.056 C 
ATOM     23  C   UNL A   1      30.263  22.736  26.880  1.00  0.00     0.056 C 
ENDBRANCH  19  20
ENDBRANCH  17  19
ENDBRANCH   9  17
ENDBRANCH   6   8
ENDBRANCH   3   6
ENDBRANCH   1   2
BRANCH   1  24
ATOM     24  C   UNL A   1      32.136  30.436  26.669  1.00  0.00     0.023 C 
BRANCH  24  25
ATOM     25  C   UNL A   1      31.740  31.892  26.910  1.00  0.00     0.023 C 
BRANCH  25  26
ATOM     26  C   UNL A   1      32.862  32.783  27.430  1.00  0.00     0.116 C 
BRANCH  26  27
ATOM     27  N   UNL A   1      32.456  34.159  27.681  1.00  0.00    -0.352 N 
ATOM     28  C   UNL A   1      32.986  35.040  28.594  1.00  0.00     0.251 C 
ATOM     29  H   UNL A   1      31.714  34.499  27.131  1.00  0.00     0.163 HD
ATOM     30  O   UNL A   1      32.485  36.145  28.770  1.00  0.00    -0.269 OA
BRANCH  28  31
ATOM     31  C   UNL A   1      34.146  34.609  29.400  1.00  0.00     0.039 A 
ATOM     32  C   UNL A   1      33.925  34.029  30.650  1.00  0.00     0.014 A 
ATOM     33  C   UNL A   1      35.438  34.699  28.876  1.00  0.00     0.014 A 
ATOM     34  C   UNL A   1      34.997  33.468  31.345  1.00  0.00     0.010 A 
ATOM     35  C   UNL A   1      36.490  34.068  29.531  1.00  0.00     0.010 A 
ATOM     36  C   UNL A   1      36.279  33.444  30.771  1.00  0.00    -0.014 A 
BRANCH  36  37
ATOM     37  C   UNL A   1      37.413  32.767  31.448  1.00  0.00     0.031 A 
ATOM     38  C   UNL A   1      38.087  31.593  30.794  1.00  0.00     0.074 A 
ATOM     39  C   UNL A   1      37.789  33.162  32.680  1.00  0.00     0.049 A 
ATOM     40  N   UNL A   1      39.046  30.828  31.249  1.00  0.00    -0.248 NA
ATOM     41  C   UNL A   1      37.593  31.207  29.462  1.00  0.00     0.031 C 
ATOM     42  C   UNL A   1      37.178  34.252  33.443  1.00  0.00     0.029 A 
ATOM     43  N   UNL A   1      38.770  32.684  33.514  1.00  0.00    -0.354 N 
ATOM     44  C   UNL A   1      39.258  29.865  30.271  1.00  0.00     0.074 A 
ATOM     45  C   UNL A   1      38.289  30.105  29.224  1.00  0.00     0.031 C 
ATOM     46  C   UNL A   1      37.816  34.379  34.618  1.00  0.00     0.029 A 
ATOM     47  C   UNL A   1      38.852  33.355  34.710  1.00  0.00     0.049 A 
ATOM     48  H   UNL A   1      39.358  31.930  33.277  1.00  0.00     0.167 HD
ATOM     49  C   UNL A   1      40.193  28.887  30.237  1.00  0.00     0.037 A 
ATOM     50  C   UNL A   1      39.670  33.162  35.763  1.00  0.00     0.037 A 
ATOM     51  C   UNL A   1      41.173  28.671  31.269  1.00  0.00     0.049 A 
ATOM     52  C   UNL A   1      40.696  32.062  35.702  1.00  0.00     0.074 A 
ATOM     53  C   UNL A   1      42.208  27.753  31.296  1.00  0.00     0.029 A 
ATOM     54  N   UNL A   1      41.235  29.380  32.459  1.00  0.00    -0.354 N 
ATOM     55  N   UNL A   1      40.941  31.210  34.735  1.00  0.00    -0.248 NA
ATOM     56  C   UNL A   1      41.563  31.901  36.877  1.00  0.00     0.031 C 
ATOM     57  C   UNL A   1      42.863  27.870  32.526  1.00  0.00     0.029 A 
ATOM     58  C   UNL A   1      42.274  28.901  33.241  1.00  0.00     0.049 A 
ATOM     59  H   UNL A   1      40.630  30.115  32.712  1.00  0.00     0.167 HD
ATOM     60  C   UNL A   1      42.009  30.436  35.171  1.00  0.00     0.074 A 
ATOM     61  C   UNL A   1      42.373  30.929  36.483  1.00  0.00     0.031 C 
ATOM     62  C   UNL A   1      42.631  29.409  34.541  1.00  0.00     0.037 A 
BRANCH  49  63
ATOM     63  C   UNL A   1      40.202  27.975  29.045  1.00  0.00     0.064 A 
ATOM     64  C   UNL A   1      40.919  28.291  27.880  1.00  0.00     0.173 A 
ATOM     65  C   UNL A   1      39.511  26.755  29.077  1.00  0.00     0.173 A 
ATOM     66  F   UNL A   1      41.586  29.452  27.790  1.00  0.00    -0.203 F 
ATOM     67  C   UNL A   1      40.918  27.433  26.782  1.00  0.00     0.198 A 
ATOM     68  C   UNL A   1      39.541  25.884  27.991  1.00  0.00     0.198 A 
ATOM     69  F   UNL A   1      38.814  26.401  30.167  1.00  0.00    -0.203 F 
ATOM     70  F   UNL A   1      41.566  27.782  25.661  1.00  0.00    -0.200 F 
ATOM     71  C   UNL A   1      40.235  26.228  26.841  1.00  0.00     0.200 A 
ATOM     72  F   UNL A   1      38.892  24.713  28.055  1.00  0.00    -0.200 F 
ATOM     73  F   UNL A   1      40.242  25.400  25.788  1.00  0.00    -0.200 F 
ENDBRANCH  49  63
BRANCH  50  74
ATOM     74  C   UNL A   1      39.575  34.047  36.954  1.00  0.00     0.064 A 
ATOM     75  C   UNL A   1      40.263  35.267  36.998  1.00  0.00     0.173 A 
ATOM     76  C   UNL A   1      38.808  33.690  38.072  1.00  0.00     0.173 A 
ATOM     77  F   UNL A   1      41.027  35.642  35.961  1.00  0.00    -0.203 F 
ATOM     78  C   UNL A   1      40.209  36.086  38.125  1.00  0.00     0.198 A 
ATOM     79  C   UNL A   1      38.728  34.524  39.186  1.00  0.00     0.198 A 
ATOM     80  F   UNL A   1      38.125  32.537  38.079  1.00  0.00    -0.203 F 
ATOM     81  F   UNL A   1      40.918  37.222  38.159  1.00  0.00    -0.200 F 
ATOM     82  C   UNL A   1      39.437  35.716  39.216  1.00  0.00     0.200 A 
ATOM     83  F   UNL A   1      37.970  34.170  40.233  1.00  0.00    -0.200 F 
ATOM     84  F   UNL A   1      39.382  36.504  40.298  1.00  0.00    -0.200 F 
ENDBRANCH  50  74
BRANCH  62  85
ATOM     85  C   UNL A   1      43.798  28.776  35.242  1.00  0.00     0.064 A 
ATOM     86  C   UNL A   1      45.106  29.255  35.079  1.00  0.00     0.173 A 
ATOM     87  C   UNL A   1      43.597  27.701  36.123  1.00  0.00     0.173 A 
ATOM     88  F   UNL A   1      45.353  30.271  34.237  1.00  0.00    -0.203 F 
ATOM     89  C   UNL A   1      46.173  28.664  35.750  1.00  0.00     0.198 A 
ATOM     90  C   UNL A   1      44.662  27.135  36.818  1.00  0.00     0.198 A 
ATOM     91  F   UNL A   1      42.365  27.210  36.321  1.00  0.00    -0.203 F 
ATOM     92  F   UNL A   1      47.421  29.105  35.540  1.00  0.00    -0.200 F 
ATOM     93  C   UNL A   1      45.950  27.611  36.625  1.00  0.00     0.200 A 
ATOM     94  F   UNL A   1      44.441  26.128  37.674  1.00  0.00    -0.200 F 
ATOM     95  F   UNL A   1      46.977  27.050  37.277  1.00  0.00    -0.200 F 
ENDBRANCH  62  85
ENDBRANCH  36  37
ENDBRANCH  28  31
ENDBRANCH  26  27
ENDBRANCH  25  26
ENDBRANCH  24  25
ENDBRANCH   1  24
TORSDOF 17
ENDMDL
MODEL 2
REMARK VINA RESULT:     -12.0      0.597      7.451
REMARK SMILES C[C@H](/N=C(\Cc1ccccc1)C(=O)OC(C)(C)C)C(=O)NCCCCNC(=O)c1ccc(-c2c3nc(c(-c4c(F)c(F)c(F)c(F)c4F)c4ccc([nH]4)c(-c4c(F)c(F)c(F)c(F)c4F)c4nc(c(-c5c(F)c(F)c(F)c(F)c5F)c5ccc2[nH]5)C=C4)C=C3)cc1
REMARK SMILES IDX 22 1 21 2 19 3 20 4 2 6 1 7 3 8 4 9 5 10 6 11 7 12 11 13
REMARK SMILES IDX 8 14 10 15 9 16 12 17 13 18 14 19 15 20 16 21 17 22 18 23
REMARK SMILES IDX 23 24 24 25 25 26 26 27 27 28 28 30 29 31 30 32 91 33 31 34
REMARK SMILES IDX 90 35 32 36 33 37 34 38 84 39 35 40 89 41 83 42 85 43 36 44
REMARK SMILES IDX 88 45 82 46 81 47 37 49 69 50 49 51 68 52 50 53 53 54 67 55
REMARK SMILES IDX 86 56 51 57 52 58 66 60 87 61 54 62 38 63 39 64 47 65 40 66
REMARK SMILES IDX 41 67 45 68 48 69 42 70 43 71 46 72 44 73 70 74 71 75 79 76
REMARK SMILES IDX 72 77 73 78 77 79 80 80 74 81 75 82 78 83 76 84 55 85 56 86
REMARK SMILES IDX 64 87 57 88 58 89 62 90 65 91 59 92 60 93 63 94 61 95
REMARK H PARENT 21 5 26 29 85 48 53 59
REMARK Flexibility Score: inf
ROOT
ATOM      1  C   UNL A   1      31.688  29.962  25.277  1.00  0.00     0.116 C 
ENDROOT
BRANCH   1   2
ATOM      2  N   UNL A   1      32.917  29.735  24.560  1.00  0.00    -0.354 N 
ATOM      3  C   UNL A   1      33.228  28.758  23.657  1.00  0.00     0.244 C 
ATOM      4  O   UNL A   1      34.349  28.814  23.140  1.00  0.00    -0.273 OA
ATOM      5  H   UNL A   1      33.637  30.379  24.747  1.00  0.00     0.163 HD
BRANCH   3   6
ATOM      6  C   UNL A   1      32.211  27.681  23.227  1.00  0.00     0.191 C 
ATOM      7  C   UNL A   1      31.124  28.247  22.336  1.00  0.00     0.044 C 
BRANCH   6   8
ATOM      8  N   UNL A   1      31.822  26.838  24.355  1.00  0.00    -0.269 NA
ATOM      9  C   UNL A   1      32.440  26.228  25.296  1.00  0.00     0.125 C 
BRANCH   9  10
ATOM     10  C   UNL A   1      33.930  26.107  25.512  1.00  0.00     0.099 C 
BRANCH  10  11
ATOM     11  C   UNL A   1      34.644  24.879  25.003  1.00  0.00    -0.042 A 
ATOM     12  C   UNL A   1      34.346  24.467  23.691  1.00  0.00     0.004 A 
ATOM     13  C   UNL A   1      35.543  24.115  25.755  1.00  0.00     0.004 A 
ATOM     14  C   UNL A   1      34.920  23.318  23.149  1.00  0.00     0.000 A 
ATOM     15  C   UNL A   1      36.104  22.954  25.216  1.00  0.00     0.000 A 
ATOM     16  C   UNL A   1      35.793  22.556  23.916  1.00  0.00     0.000 A 
ENDBRANCH  10  11
ENDBRANCH   9  10
BRANCH   9  17
ATOM     17  C   UNL A   1      31.533  25.458  26.291  1.00  0.00     0.353 C 
ATOM     18  O   UNL A   1      30.551  25.952  26.798  1.00  0.00    -0.245 OA
BRANCH  17  19
ATOM     19  O   UNL A   1      32.009  24.212  26.486  1.00  0.00    -0.455 OA
BRANCH  19  20
ATOM     20  C   UNL A   1      31.350  23.066  25.890  1.00  0.00     0.104 C 
ATOM     21  C   UNL A   1      30.133  22.620  26.710  1.00  0.00     0.056 C 
ATOM     22  C   UNL A   1      30.985  23.345  24.430  1.00  0.00     0.056 C 
ATOM     23  C   UNL A   1      32.403  21.949  25.938  1.00  0.00     0.056 C 
ENDBRANCH  19  20
ENDBRANCH  17  19
ENDBRANCH   9  17
ENDBRANCH   6   8
ENDBRANCH   3   6
ENDBRANCH   1   2
BRANCH   1  24
ATOM     24  C   UNL A   1      31.926  30.485  26.692  1.00  0.00     0.023 C 
BRANCH  24  25
ATOM     25  C   UNL A   1      31.602  31.968  26.869  1.00  0.00     0.023 C 
BRANCH  25  26
ATOM     26  C   UNL A   1      32.788  32.840  27.268  1.00  0.00     0.116 C 
BRANCH  26  27
ATOM     27  N   UNL A   1      32.424  34.202  27.631  1.00  0.00    -0.352 N 
ATOM     28  C   UNL A   1      32.993  34.996  28.599  1.00  0.00     0.251 C 
ATOM     29  H   UNL A   1      31.682  34.603  27.123  1.00  0.00     0.163 HD
ATOM     30  O   UNL A   1      32.526  36.096  28.868  1.00  0.00    -0.269 OA
BRANCH  28  31
ATOM     31  C   UNL A   1      34.155  34.474  29.347  1.00  0.00     0.039 A 
ATOM     32  C   UNL A   1      33.936  33.770  30.532  1.00  0.00     0.014 A 
ATOM     33  C   UNL A   1      35.444  34.606  28.825  1.00  0.00     0.014 A 
ATOM     34  C   UNL A   1      35.008  33.130  31.157  1.00  0.00     0.010 A 
ATOM     35  C   UNL A   1      36.493  33.901  29.403  1.00  0.00     0.010 A 
ATOM     36  C   UNL A   1      36.286  33.154  30.574  1.00  0.00    -0.014 A 
BRANCH  36  37
ATOM     37  C   UNL A   1      37.418  32.401  31.168  1.00  0.00     0.031 A 
ATOM     38  C   UNL A   1      37.925  32.761  32.536  1.00  0.00     0.074 A 
ATOM     39  C   UNL A   1      38.034  31.442  30.449  1.00  0.00     0.049 A 
ATOM     40  N   UNL A   1      38.940  32.270  33.200  1.00  0.00    -0.248 NA
ATOM     41  C   UNL A   1      37.214  33.840  33.240  1.00  0.00     0.031 C 
ATOM     42  C   UNL A   1      37.671  31.039  29.089  1.00  0.00     0.029 A 
ATOM     43  N   UNL A   1      39.105  30.640  30.758  1.00  0.00    -0.354 N 
ATOM     44  C   UNL A   1      38.999  32.989  34.387  1.00  0.00     0.074 A 
ATOM     45  C   UNL A   1      37.956  33.989  34.328  1.00  0.00     0.031 C 
ATOM     46  C   UNL A   1      38.484  30.046  28.693  1.00  0.00     0.029 A 
ATOM     47  C   UNL A   1      39.451  29.771  29.752  1.00  0.00     0.049 A 
ATOM     48  H   UNL A   1      39.581  30.684  31.619  1.00  0.00     0.167 HD
ATOM     49  C   UNL A   1      39.831  32.814  35.440  1.00  0.00     0.037 A 
ATOM     50  C   UNL A   1      40.440  28.858  29.690  1.00  0.00     0.037 A 
ATOM     51  C   UNL A   1      40.848  31.798  35.505  1.00  0.00     0.049 A 
ATOM     52  C   UNL A   1      41.355  28.688  30.873  1.00  0.00     0.074 A 
ATOM     53  C   UNL A   1      41.695  31.492  36.556  1.00  0.00     0.029 A 
ATOM     54  N   UNL A   1      41.160  30.927  34.473  1.00  0.00    -0.354 N 
ATOM     55  N   UNL A   1      41.349  29.319  32.023  1.00  0.00    -0.248 NA
ATOM     56  C   UNL A   1      42.412  27.675  30.752  1.00  0.00     0.031 C 
ATOM     57  C   UNL A   1      42.556  30.471  36.140  1.00  0.00     0.029 A 
ATOM     58  C   UNL A   1      42.206  30.100  34.851  1.00  0.00     0.049 A 
ATOM     59  H   UNL A   1      40.706  30.898  33.599  1.00  0.00     0.167 HD
ATOM     60  C   UNL A   1      42.375  28.758  32.772  1.00  0.00     0.074 A 
ATOM     61  C   UNL A   1      42.974  27.727  31.951  1.00  0.00     0.031 C 
ATOM     62  C   UNL A   1      42.785  29.071  34.026  1.00  0.00     0.037 A 
BRANCH  49  63
ATOM     63  C   UNL A   1      39.674  33.741  36.610  1.00  0.00     0.064 A 
ATOM     64  C   UNL A   1      38.870  33.409  37.713  1.00  0.00     0.173 A 
ATOM     65  C   UNL A   1      40.362  34.963  36.647  1.00  0.00     0.173 A 
ATOM     66  F   UNL A   1      38.180  32.258  37.723  1.00  0.00    -0.203 F 
ATOM     67  C   UNL A   1      38.737  34.280  38.791  1.00  0.00     0.198 A 
ATOM     68  C   UNL A   1      40.254  35.815  37.743  1.00  0.00     0.198 A 
ATOM     69  F   UNL A   1      41.148  35.327  35.623  1.00  0.00    -0.203 F 
ATOM     70  F   UNL A   1      37.920  33.965  39.807  1.00  0.00    -0.200 F 
ATOM     71  C   UNL A   1      39.434  35.478  38.809  1.00  0.00     0.200 A 
ATOM     72  F   UNL A   1      40.939  36.967  37.765  1.00  0.00    -0.200 F 
ATOM     73  F   UNL A   1      39.311  36.311  39.851  1.00  0.00    -0.200 F 
ENDBRANCH  49  63
BRANCH  50  74
ATOM     74  C   UNL A   1      40.600  28.011  28.478  1.00  0.00     0.064 A 
ATOM     75  C   UNL A   1      39.986  26.754  28.395  1.00  0.00     0.173 A 
ATOM     76  C   UNL A   1      41.375  28.432  27.388  1.00  0.00     0.173 A 
ATOM     77  F   UNL A   1      39.252  26.299  29.421  1.00  0.00    -0.203 F 
ATOM     78  C   UNL A   1      40.161  25.938  27.279  1.00  0.00     0.198 A 
ATOM     79  C   UNL A   1      41.523  27.629  26.258  1.00  0.00     0.198 A 
ATOM     80  F   UNL A   1      41.979  29.628  27.414  1.00  0.00    -0.203 F 
ATOM     81  F   UNL A   1      39.603  24.720  27.248  1.00  0.00    -0.200 F 
ATOM     82  C   UNL A   1      40.925  26.379  26.209  1.00  0.00     0.200 A 
ATOM     83  F   UNL A   1      42.251  28.065  25.221  1.00  0.00    -0.200 F 
ATOM     84  F   UNL A   1      41.091  25.597  25.134  1.00  0.00    -0.200 F 
ENDBRANCH  50  74
BRANCH  62  85
ATOM     85  C   UNL A   1      43.908  28.259  34.606  1.00  0.00     0.064 A 
ATOM     86  C   UNL A   1      43.676  27.047  35.271  1.00  0.00     0.173 A 
ATOM     87  C   UNL A   1      45.238  28.682  34.456  1.00  0.00     0.173 A 
ATOM     88  F   UNL A   1      42.421  26.607  35.455  1.00  0.00    -0.203 F 
ATOM     89  C   UNL A   1      44.731  26.301  35.789  1.00  0.00     0.198 A 
ATOM     90  C   UNL A   1      46.293  27.917  34.945  1.00  0.00     0.198 A 
ATOM     91  F   UNL A   1      45.515  29.830  33.820  1.00  0.00    -0.203 F 
ATOM     92  F   UNL A   1      44.483  25.171  36.465  1.00  0.00    -0.200 F 
ATOM     93  C   UNL A   1      46.039  26.732  35.618  1.00  0.00     0.200 A 
ATOM     94  F   UNL A   1      47.555  28.327  34.764  1.00  0.00    -0.200 F 
ATOM     95  F   UNL A   1      47.054  26.008  36.108  1.00  0.00    -0.200 F 
ENDBRANCH  62  85
ENDBRANCH  36  37
ENDBRANCH  28  31
ENDBRANCH  26  27
ENDBRANCH  25  26
ENDBRANCH  24  25
ENDBRANCH   1  24
TORSDOF 17
ENDMDL
MODEL 3
REMARK VINA RESULT:     -11.9      2.233      8.005
REMARK SMILES C[C@H](/N=C(\Cc1ccccc1)C(=O)OC(C)(C)C)C(=O)NCCCCNC(=O)c1ccc(-c2c3nc(c(-c4c(F)c(F)c(F)c(F)c4F)c4ccc([nH]4)c(-c4c(F)c(F)c(F)c(F)c4F)c4nc(c(-c5c(F)c(F)c(F)c(F)c5F)c5ccc2[nH]5)C=C4)C=C3)cc1
REMARK SMILES IDX 22 1 21 2 19 3 20 4 2 6 1 7 3 8 4 9 5 10 6 11 7 12 11 13
REMARK SMILES IDX 8 14 10 15 9 16 12 17 13 18 14 19 15 20 16 21 17 22 18 23
REMARK SMILES IDX 23 24 24 25 25 26 26 27 27 28 28 30 29 31 30 32 91 33 31 34
REMARK SMILES IDX 90 35 32 36 33 37 34 38 84 39 35 40 89 41 83 42 85 43 36 44
REMARK SMILES IDX 88 45 82 46 81 47 37 49 69 50 49 51 68 52 50 53 53 54 67 55
REMARK SMILES IDX 86 56 51 57 52 58 66 60 87 61 54 62 38 63 39 64 47 65 40 66
REMARK SMILES IDX 41 67 45 68 48 69 42 70 43 71 46 72 44 73 70 74 71 75 79 76
REMARK SMILES IDX 72 77 73 78 77 79 80 80 74 81 75 82 78 83 76 84 55 85 56 86
REMARK SMILES IDX 64 87 57 88 58 89 62 90 65 91 59 92 60 93 63 94 61 95
REMARK H PARENT 21 5 26 29 85 48 53 59
REMARK Flexibility Score: inf
ROOT
ATOM      1  C   UNL A   1      32.164  26.002  26.428  1.00  0.00     0.116 C 
ENDROOT
BRANCH   1   2
ATOM      2  N   UNL A   1      31.058  25.155  26.796  1.00  0.00    -0.354 N 
ATOM      3  C   UNL A   1      30.984  23.791  26.835  1.00  0.00     0.244 C 
ATOM      4  O   UNL A   1      29.923  23.303  27.238  1.00  0.00    -0.273 OA
ATOM      5  H   UNL A   1      30.236  25.628  27.058  1.00  0.00     0.163 HD
BRANCH   3   6
ATOM      6  C   UNL A   1      32.185  22.892  26.480  1.00  0.00     0.191 C 
ATOM      7  C   UNL A   1      33.168  22.774  27.628  1.00  0.00     0.044 C 
BRANCH   6   8
ATOM      8  N   UNL A   1      32.700  23.195  25.147  1.00  0.00    -0.269 NA
ATOM      9  C   UNL A   1      33.671  22.776  24.426  1.00  0.00     0.125 C 
BRANCH   9  10
ATOM     10  C   UNL A   1      34.755  21.793  24.796  1.00  0.00     0.099 C 
BRANCH  10  11
ATOM     11  C   UNL A   1      36.088  22.319  25.269  1.00  0.00    -0.042 A 
ATOM     12  C   UNL A   1      37.179  21.431  25.216  1.00  0.00     0.004 A 
ATOM     13  C   UNL A   1      36.298  23.603  25.782  1.00  0.00     0.004 A 
ATOM     14  C   UNL A   1      38.439  21.810  25.674  1.00  0.00     0.000 A 
ATOM     15  C   UNL A   1      37.558  23.976  26.257  1.00  0.00     0.000 A 
ATOM     16  C   UNL A   1      38.627  23.081  26.204  1.00  0.00     0.000 A 
ENDBRANCH  10  11
ENDBRANCH   9  10
BRANCH   9  17
ATOM     17  C   UNL A   1      33.779  23.428  23.022  1.00  0.00     0.353 C 
ATOM     18  O   UNL A   1      34.796  23.400  22.365  1.00  0.00    -0.245 OA
BRANCH  17  19
ATOM     19  O   UNL A   1      32.609  24.005  22.685  1.00  0.00    -0.455 OA
BRANCH  19  20
ATOM     20  C   UNL A   1      32.548  25.416  22.354  1.00  0.00     0.104 C 
ATOM     21  C   UNL A   1      33.606  26.225  23.116  1.00  0.00     0.056 C 
ATOM     22  C   UNL A   1      32.648  25.626  20.841  1.00  0.00     0.056 C 
ATOM     23  C   UNL A   1      31.159  25.863  22.831  1.00  0.00     0.056 C 
ENDBRANCH  19  20
ENDBRANCH  17  19
ENDBRANCH   9  17
ENDBRANCH   6   8
ENDBRANCH   3   6
ENDBRANCH   1   2
BRANCH   1  24
ATOM     24  C   UNL A   1      31.969  27.447  26.882  1.00  0.00     0.023 C 
BRANCH  24  25
ATOM     25  C   UNL A   1      31.912  28.457  25.736  1.00  0.00     0.023 C 
BRANCH  25  26
ATOM     26  C   UNL A   1      33.045  29.476  25.723  1.00  0.00     0.116 C 
BRANCH  26  27
ATOM     27  N   UNL A   1      32.671  30.782  26.248  1.00  0.00    -0.352 N 
ATOM     28  C   UNL A   1      33.353  31.548  27.165  1.00  0.00     0.251 C 
ATOM     29  H   UNL A   1      31.830  31.162  25.905  1.00  0.00     0.163 HD
ATOM     30  O   UNL A   1      32.876  32.592  27.594  1.00  0.00    -0.269 OA
BRANCH  28  31
ATOM     31  C   UNL A   1      34.655  31.060  27.662  1.00  0.00     0.039 A 
ATOM     32  C   UNL A   1      35.691  31.975  27.857  1.00  0.00     0.014 A 
ATOM     33  C   UNL A   1      34.815  29.719  28.016  1.00  0.00     0.014 A 
ATOM     34  C   UNL A   1      36.867  31.557  28.481  1.00  0.00     0.010 A 
ATOM     35  C   UNL A   1      35.952  29.323  28.710  1.00  0.00     0.010 A 
ATOM     36  C   UNL A   1      36.989  30.239  28.952  1.00  0.00    -0.014 A 
BRANCH  36  37
ATOM     37  C   UNL A   1      38.189  29.798  29.705  1.00  0.00     0.031 A 
ATOM     38  C   UNL A   1      38.451  30.334  31.085  1.00  0.00     0.074 A 
ATOM     39  C   UNL A   1      39.080  28.973  29.120  1.00  0.00     0.049 A 
ATOM     40  N   UNL A   1      39.472  30.124  31.876  1.00  0.00    -0.248 NA
ATOM     41  C   UNL A   1      37.444  31.254  31.636  1.00  0.00     0.031 C 
ATOM     42  C   UNL A   1      38.967  28.429  27.765  1.00  0.00     0.029 A 
ATOM     43  N   UNL A   1      40.263  28.456  29.586  1.00  0.00    -0.354 N 
ATOM     44  C   UNL A   1      39.238  30.896  33.006  1.00  0.00     0.074 A 
ATOM     45  C   UNL A   1      38.010  31.624  32.775  1.00  0.00     0.031 C 
ATOM     46  C   UNL A   1      40.021  27.632  27.522  1.00  0.00     0.029 A 
ATOM     47  C   UNL A   1      40.903  27.642  28.684  1.00  0.00     0.049 A 
ATOM     48  H   UNL A   1      40.621  28.652  30.483  1.00  0.00     0.167 HD
ATOM     49  C   UNL A   1      39.968  30.971  34.143  1.00  0.00     0.037 A 
ATOM     50  C   UNL A   1      42.073  26.980  28.784  1.00  0.00     0.037 A 
ATOM     51  C   UNL A   1      41.175  30.223  34.379  1.00  0.00     0.049 A 
ATOM     52  C   UNL A   1      42.868  27.086  30.058  1.00  0.00     0.074 A 
ATOM     53  C   UNL A   1      41.950  30.174  35.525  1.00  0.00     0.029 A 
ATOM     54  N   UNL A   1      41.785  29.396  33.448  1.00  0.00    -0.354 N 
ATOM     55  N   UNL A   1      42.595  27.755  31.152  1.00  0.00    -0.248 NA
ATOM     56  C   UNL A   1      44.133  26.340  30.112  1.00  0.00     0.031 C 
ATOM     57  C   UNL A   1      43.058  29.360  35.268  1.00  0.00     0.029 A 
ATOM     58  C   UNL A   1      42.942  28.854  33.983  1.00  0.00     0.049 A 
ATOM     59  H   UNL A   1      41.447  29.220  32.540  1.00  0.00     0.167 HD
ATOM     60  C   UNL A   1      43.634  27.485  32.033  1.00  0.00     0.074 A 
ATOM     61  C   UNL A   1      44.535  26.581  31.351  1.00  0.00     0.031 C 
ATOM     62  C   UNL A   1      43.824  27.946  33.294  1.00  0.00     0.037 A 
BRANCH  49  63
ATOM     63  C   UNL A   1      39.481  31.894  35.222  1.00  0.00     0.064 A 
ATOM     64  C   UNL A   1      39.835  33.253  35.246  1.00  0.00     0.173 A 
ATOM     65  C   UNL A   1      38.623  31.424  36.227  1.00  0.00     0.173 A 
ATOM     66  F   UNL A   1      40.664  33.752  34.317  1.00  0.00    -0.203 F 
ATOM     67  C   UNL A   1      39.373  34.096  36.254  1.00  0.00     0.198 A 
ATOM     68  C   UNL A   1      38.136  32.278  37.213  1.00  0.00     0.198 A 
ATOM     69  F   UNL A   1      38.249  30.136  36.249  1.00  0.00    -0.203 F 
ATOM     70  F   UNL A   1      39.769  35.377  36.286  1.00  0.00    -0.200 F 
ATOM     71  C   UNL A   1      38.518  33.611  37.231  1.00  0.00     0.200 A 
ATOM     72  F   UNL A   1      37.298  31.811  38.149  1.00  0.00    -0.200 F 
ATOM     73  F   UNL A   1      38.068  34.426  38.195  1.00  0.00    -0.200 F 
ENDBRANCH  49  63
BRANCH  50  74
ATOM     74  C   UNL A   1      42.550  26.134  27.658  1.00  0.00     0.064 A 
ATOM     75  C   UNL A   1      43.516  26.611  26.761  1.00  0.00     0.173 A 
ATOM     76  C   UNL A   1      42.048  24.842  27.448  1.00  0.00     0.173 A 
ATOM     77  F   UNL A   1      44.012  27.849  26.909  1.00  0.00    -0.203 F 
ATOM     78  C   UNL A   1      43.943  25.840  25.683  1.00  0.00     0.198 A 
ATOM     79  C   UNL A   1      42.498  24.058  26.387  1.00  0.00     0.198 A 
ATOM     80  F   UNL A   1      41.126  24.336  28.279  1.00  0.00    -0.203 F 
ATOM     81  F   UNL A   1      44.830  26.341  24.812  1.00  0.00    -0.200 F 
ATOM     82  C   UNL A   1      43.438  24.562  25.499  1.00  0.00     0.200 A 
ATOM     83  F   UNL A   1      42.018  22.819  26.222  1.00  0.00    -0.200 F 
ATOM     84  F   UNL A   1      43.850  23.818  24.464  1.00  0.00    -0.200 F 
ENDBRANCH  50  74
BRANCH  62  85
ATOM     85  C   UNL A   1      45.030  27.446  34.036  1.00  0.00     0.064 A 
ATOM     86  C   UNL A   1      44.998  26.263  34.788  1.00  0.00     0.173 A 
ATOM     87  C   UNL A   1      46.248  28.141  33.958  1.00  0.00     0.173 A 
ATOM     88  F   UNL A   1      43.854  25.570  34.907  1.00  0.00    -0.203 F 
ATOM     89  C   UNL A   1      46.130  25.808  35.456  1.00  0.00     0.198 A 
ATOM     90  C   UNL A   1      47.388  27.665  34.599  1.00  0.00     0.198 A 
ATOM     91  F   UNL A   1      46.336  29.273  33.245  1.00  0.00    -0.203 F 
ATOM     92  F   UNL A   1      46.063  24.702  36.210  1.00  0.00    -0.200 F 
ATOM     93  C   UNL A   1      47.326  26.504  35.354  1.00  0.00     0.200 A 
ATOM     94  F   UNL A   1      48.545  28.330  34.487  1.00  0.00    -0.200 F 
ATOM     95  F   UNL A   1      48.419  26.058  35.990  1.00  0.00    -0.200 F 
ENDBRANCH  62  85
ENDBRANCH  36  37
ENDBRANCH  28  31
ENDBRANCH  26  27
ENDBRANCH  25  26
ENDBRANCH  24  25
ENDBRANCH   1  24
TORSDOF 17
ENDMDL
