MODEL 1
REMARK VINA RESULT:     -13.9      0.000      0.000
REMARK SMILES Cc1ccc(NC(=O)[C@H]2CC=CC[C@H]2C(=O)NCCCCNC(=O)c2ccc(-c3c4nc(c(-c5c(F)c(F)c(F)c(F)c5F)c5ccc([nH]5)c(-c5c(F)c(F)c(F)c(F)c5F)c5nc(c(-c6c(F)c(F)c(F)c(F)c6F)c6ccc3[nH]6)C=C5)C=C4)cc2)cc1F
REMARK SMILES IDX 19 1 18 2 17 3 15 4 16 5 14 7 9 8 10 9 11 10 13 11 12 12
REMARK SMILES IDX 7 13 6 14 8 16 5 17 1 18 2 19 3 20 89 21 4 22 88 23 90 24
REMARK SMILES IDX 20 25 21 26 22 27 23 28 24 30 25 31 26 32 87 33 27 34 86 35
REMARK SMILES IDX 28 36 29 37 30 38 80 39 31 40 85 41 79 42 81 43 32 44 84 45
REMARK SMILES IDX 78 46 77 47 33 49 65 50 45 51 64 52 46 53 49 54 63 55 82 56
REMARK SMILES IDX 47 57 48 58 62 60 83 61 50 62 34 63 35 64 43 65 36 66 37 67
REMARK SMILES IDX 41 68 44 69 38 70 39 71 42 72 40 73 66 74 67 75 75 76 68 77
REMARK SMILES IDX 69 78 73 79 76 80 70 81 71 82 74 83 72 84 51 85 52 86 60 87
REMARK SMILES IDX 53 88 54 89 58 90 61 91 55 92 56 93 59 94 57 95
REMARK H PARENT 17 6 6 15 22 29 81 48 49 59
REMARK Flexibility Score: inf
ROOT
ATOM      1  C   UNL A   1      32.026  28.334  26.028  1.00  0.00     0.023 C 
ENDROOT
BRANCH   1   2
ATOM      2  C   UNL A   1      31.476  26.937  26.328  1.00  0.00     0.116 C 
BRANCH   2   3
ATOM      3  N   UNL A   1      31.140  26.165  25.147  1.00  0.00    -0.356 N 
ATOM      4  C   UNL A   1      31.835  25.223  24.458  1.00  0.00     0.224 C 
ATOM      5  O   UNL A   1      31.218  24.614  23.578  1.00  0.00    -0.275 OA
ATOM      6  H   UNL A   1      30.247  26.357  24.780  1.00  0.00     0.163 HD
BRANCH   4   7
ATOM      7  C   UNL A   1      33.282  24.854  24.771  1.00  0.00     0.095 C 
ATOM      8  C   UNL A   1      33.570  23.953  26.008  1.00  0.00     0.095 C 
ATOM      9  C   UNL A   1      34.773  22.979  25.862  1.00  0.00     0.041 C 
ATOM     10  C   UNL A   1      35.385  22.811  24.514  1.00  0.00    -0.030 C 
ATOM     11  C   UNL A   1      33.986  24.558  23.430  1.00  0.00     0.041 C 
ATOM     12  C   UNL A   1      35.039  23.510  23.434  1.00  0.00    -0.030 C 
BRANCH   8  13
ATOM     13  C   UNL A   1      32.392  23.234  26.678  1.00  0.00     0.228 C 
ATOM     14  N   UNL A   1      32.015  21.956  26.395  1.00  0.00    -0.326 N 
ATOM     15  H   UNL A   1      31.466  21.553  27.107  1.00  0.00     0.169 HD
ATOM     16  O   UNL A   1      31.730  23.794  27.562  1.00  0.00    -0.274 OA
BRANCH  14  17
ATOM     17  C   UNL A   1      32.233  21.086  25.320  1.00  0.00     0.044 A 
ATOM     18  C   UNL A   1      32.752  18.163  22.193  1.00  0.00     0.047 C 
ATOM     19  C   UNL A   1      32.601  19.165  23.295  1.00  0.00    -0.015 A 
ATOM     20  C   UNL A   1      32.890  18.845  24.622  1.00  0.00     0.008 A 
ATOM     21  C   UNL A   1      32.135  20.448  23.005  1.00  0.00     0.128 A 
ATOM     22  C   UNL A   1      32.691  19.795  25.628  1.00  0.00     0.026 A 
ATOM     23  C   UNL A   1      31.948  21.403  23.999  1.00  0.00     0.065 A 
ATOM     24  F   UNL A   1      31.817  20.769  21.743  1.00  0.00    -0.207 F 
ENDBRANCH  14  17
ENDBRANCH   8  13
ENDBRANCH   4   7
ENDBRANCH   2   3
ENDBRANCH   1   2
BRANCH   1  25
ATOM     25  C   UNL A   1      33.542  28.479  25.891  1.00  0.00     0.023 C 
BRANCH  25  26
ATOM     26  C   UNL A   1      34.206  28.670  27.233  1.00  0.00     0.116 C 
BRANCH  26  27
ATOM     27  N   UNL A   1      34.100  30.056  27.697  1.00  0.00    -0.352 N 
ATOM     28  C   UNL A   1      34.977  30.768  28.495  1.00  0.00     0.251 C 
ATOM     29  H   UNL A   1      33.299  30.544  27.402  1.00  0.00     0.163 HD
ATOM     30  O   UNL A   1      34.665  31.813  29.020  1.00  0.00    -0.269 OA
BRANCH  28  31
ATOM     31  C   UNL A   1      36.316  30.188  28.687  1.00  0.00     0.039 A 
ATOM     32  C   UNL A   1      36.648  29.465  29.836  1.00  0.00     0.014 A 
ATOM     33  C   UNL A   1      37.205  30.313  27.630  1.00  0.00     0.014 A 
ATOM     34  C   UNL A   1      37.868  28.788  29.877  1.00  0.00     0.010 A 
ATOM     35  C   UNL A   1      38.290  29.488  27.585  1.00  0.00     0.010 A 
ATOM     36  C   UNL A   1      38.671  28.784  28.731  1.00  0.00    -0.014 A 
BRANCH  36  37
ATOM     37  C   UNL A   1      39.986  28.168  28.631  1.00  0.00     0.031 A 
ATOM     38  C   UNL A   1      40.168  26.739  28.358  1.00  0.00     0.074 A 
ATOM     39  C   UNL A   1      41.046  28.999  28.754  1.00  0.00     0.049 A 
ATOM     40  N   UNL A   1      41.161  26.057  28.813  1.00  0.00    -0.248 NA
ATOM     41  C   UNL A   1      39.245  25.953  27.549  1.00  0.00     0.031 C 
ATOM     42  C   UNL A   1      42.455  28.756  28.506  1.00  0.00     0.029 A 
ATOM     43  N   UNL A   1      41.013  30.298  29.290  1.00  0.00    -0.354 N 
ATOM     44  C   UNL A   1      41.180  24.858  28.140  1.00  0.00     0.074 A 
ATOM     45  C   UNL A   1      39.907  24.791  27.455  1.00  0.00     0.031 C 
ATOM     46  C   UNL A   1      43.167  29.709  29.138  1.00  0.00     0.029 A 
ATOM     47  C   UNL A   1      42.239  30.493  29.941  1.00  0.00     0.049 A 
ATOM     48  H   UNL A   1      40.274  30.943  29.220  1.00  0.00     0.167 HD
ATOM     49  C   UNL A   1      42.341  24.139  28.110  1.00  0.00     0.037 A 
ATOM     50  C   UNL A   1      42.235  30.631  31.301  1.00  0.00     0.037 A 
ATOM     51  C   UNL A   1      43.414  24.870  28.785  1.00  0.00     0.049 A 
ATOM     52  C   UNL A   1      42.953  29.507  32.007  1.00  0.00     0.074 A 
ATOM     53  C   UNL A   1      44.425  25.701  28.330  1.00  0.00     0.029 A 
ATOM     54  N   UNL A   1      43.342  25.072  30.148  1.00  0.00    -0.354 N 
ATOM     55  N   UNL A   1      43.381  28.432  31.410  1.00  0.00    -0.248 NA
ATOM     56  C   UNL A   1      43.158  29.463  33.452  1.00  0.00     0.031 C 
ATOM     57  C   UNL A   1      44.965  26.396  29.449  1.00  0.00     0.029 A 
ATOM     58  C   UNL A   1      44.290  25.975  30.581  1.00  0.00     0.049 A 
ATOM     59  H   UNL A   1      42.693  24.625  30.739  1.00  0.00     0.167 HD
ATOM     60  C   UNL A   1      43.866  27.557  32.337  1.00  0.00     0.074 A 
ATOM     61  C   UNL A   1      43.700  28.243  33.606  1.00  0.00     0.031 C 
ATOM     62  C   UNL A   1      44.333  26.323  31.991  1.00  0.00     0.037 A 
BRANCH  49  63
ATOM     63  C   UNL A   1      42.607  22.919  27.258  1.00  0.00     0.064 A 
ATOM     64  C   UNL A   1      41.963  21.693  27.543  1.00  0.00     0.173 A 
ATOM     65  C   UNL A   1      43.473  22.885  26.151  1.00  0.00     0.173 A 
ATOM     66  F   UNL A   1      41.028  21.594  28.497  1.00  0.00    -0.203 F 
ATOM     67  C   UNL A   1      42.247  20.513  26.852  1.00  0.00     0.198 A 
ATOM     68  C   UNL A   1      43.788  21.694  25.483  1.00  0.00     0.198 A 
ATOM     69  F   UNL A   1      44.000  24.006  25.642  1.00  0.00    -0.203 F 
ATOM     70  F   UNL A   1      41.608  19.382  27.182  1.00  0.00    -0.200 F 
ATOM     71  C   UNL A   1      43.183  20.506  25.842  1.00  0.00     0.200 A 
ATOM     72  F   UNL A   1      44.679  21.708  24.481  1.00  0.00    -0.200 F 
ATOM     73  F   UNL A   1      43.480  19.368  25.202  1.00  0.00    -0.200 F 
ENDBRANCH  49  63
BRANCH  50  74
ATOM     74  C   UNL A   1      40.978  31.284  31.792  1.00  0.00     0.064 A 
ATOM     75  C   UNL A   1      40.015  30.470  32.425  1.00  0.00     0.173 A 
ATOM     76  C   UNL A   1      40.934  32.660  32.061  1.00  0.00     0.173 A 
ATOM     77  F   UNL A   1      40.009  29.145  32.208  1.00  0.00    -0.203 F 
ATOM     78  C   UNL A   1      39.162  30.984  33.401  1.00  0.00     0.198 A 
ATOM     79  C   UNL A   1      40.059  33.175  33.021  1.00  0.00     0.198 A 
ATOM     80  F   UNL A   1      41.811  33.493  31.482  1.00  0.00    -0.203 F 
ATOM     81  F   UNL A   1      38.367  30.157  34.096  1.00  0.00    -0.200 F 
ATOM     82  C   UNL A   1      39.209  32.331  33.721  1.00  0.00     0.200 A 
ATOM     83  F   UNL A   1      40.099  34.480  33.326  1.00  0.00    -0.200 F 
ATOM     84  F   UNL A   1      38.463  32.803  34.729  1.00  0.00    -0.200 F 
ENDBRANCH  50  74
BRANCH  62  85
ATOM     85  C   UNL A   1      44.866  25.334  32.983  1.00  0.00     0.064 A 
ATOM     86  C   UNL A   1      44.048  24.732  33.951  1.00  0.00     0.173 A 
ATOM     87  C   UNL A   1      46.243  25.032  33.057  1.00  0.00     0.173 A 
ATOM     88  F   UNL A   1      42.741  25.024  34.024  1.00  0.00    -0.203 F 
ATOM     89  C   UNL A   1      44.562  23.828  34.881  1.00  0.00     0.198 A 
ATOM     90  C   UNL A   1      46.763  24.182  34.026  1.00  0.00     0.198 A 
ATOM     91  F   UNL A   1      47.123  25.529  32.177  1.00  0.00    -0.203 F 
ATOM     92  F   UNL A   1      43.736  23.219  35.739  1.00  0.00    -0.200 F 
ATOM     93  C   UNL A   1      45.919  23.559  34.923  1.00  0.00     0.200 A 
ATOM     94  F   UNL A   1      48.084  23.960  34.073  1.00  0.00    -0.200 F 
ATOM     95  F   UNL A   1      46.414  22.701  35.825  1.00  0.00    -0.200 F 
ENDBRANCH  62  85
ENDBRANCH  36  37
ENDBRANCH  28  31
ENDBRANCH  26  27
ENDBRANCH  25  26
ENDBRANCH   1  25
TORSDOF 13
ENDMDL
MODEL 2
REMARK VINA RESULT:     -13.7      3.769      9.782
REMARK SMILES Cc1ccc(NC(=O)[C@H]2CC=CC[C@H]2C(=O)NCCCCNC(=O)c2ccc(-c3c4nc(c(-c5c(F)c(F)c(F)c(F)c5F)c5ccc([nH]5)c(-c5c(F)c(F)c(F)c(F)c5F)c5nc(c(-c6c(F)c(F)c(F)c(F)c6F)c6ccc3[nH]6)C=C5)C=C4)cc2)cc1F
REMARK SMILES IDX 19 1 18 2 17 3 15 4 16 5 14 7 9 8 10 9 11 10 13 11 12 12
REMARK SMILES IDX 7 13 6 14 8 16 5 17 1 18 2 19 3 20 89 21 4 22 88 23 90 24
REMARK SMILES IDX 20 25 21 26 22 27 23 28 24 30 25 31 26 32 87 33 27 34 86 35
REMARK SMILES IDX 28 36 29 37 30 38 80 39 31 40 85 41 79 42 81 43 32 44 84 45
REMARK SMILES IDX 78 46 77 47 33 49 65 50 45 51 64 52 46 53 49 54 63 55 82 56
REMARK SMILES IDX 47 57 48 58 62 60 83 61 50 62 34 63 35 64 43 65 36 66 37 67
REMARK SMILES IDX 41 68 44 69 38 70 39 71 42 72 40 73 66 74 67 75 75 76 68 77
REMARK SMILES IDX 69 78 73 79 76 80 70 81 71 82 74 83 72 84 51 85 52 86 60 87
REMARK SMILES IDX 53 88 54 89 58 90 61 91 55 92 56 93 59 94 57 95
REMARK H PARENT 17 6 6 15 22 29 81 48 49 59
REMARK Flexibility Score: inf
ROOT
ATOM      1  C   UNL A   1      35.713  23.704  25.789  1.00  0.00     0.023 C 
ENDROOT
BRANCH   1   2
ATOM      2  C   UNL A   1      34.879  23.859  24.515  1.00  0.00     0.116 C 
BRANCH   2   3
ATOM      3  N   UNL A   1      33.452  23.972  24.748  1.00  0.00    -0.356 N 
ATOM      4  C   UNL A   1      32.667  25.043  25.034  1.00  0.00     0.224 C 
ATOM      5  O   UNL A   1      31.446  24.854  25.018  1.00  0.00    -0.275 OA
ATOM      6  H   UNL A   1      32.965  23.118  24.689  1.00  0.00     0.163 HD
BRANCH   4   7
ATOM      7  C   UNL A   1      33.220  26.441  25.296  1.00  0.00     0.095 C 
ATOM      8  C   UNL A   1      33.689  27.295  24.081  1.00  0.00     0.095 C 
ATOM      9  C   UNL A   1      33.466  28.828  24.214  1.00  0.00     0.041 C 
ATOM     10  C   UNL A   1      32.630  29.324  25.344  1.00  0.00    -0.030 C 
ATOM     11  C   UNL A   1      32.348  27.088  26.393  1.00  0.00     0.041 C 
ATOM     12  C   UNL A   1      32.134  28.555  26.311  1.00  0.00    -0.030 C 
BRANCH   8  13
ATOM     13  C   UNL A   1      33.305  26.831  22.670  1.00  0.00     0.228 C 
ATOM     14  N   UNL A   1      32.205  27.265  21.994  1.00  0.00    -0.326 N 
ATOM     15  H   UNL A   1      32.271  27.121  21.022  1.00  0.00     0.169 HD
ATOM     16  O   UNL A   1      34.025  26.038  22.048  1.00  0.00    -0.274 OA
BRANCH  14  17
ATOM     17  C   UNL A   1      31.001  27.871  22.371  1.00  0.00     0.044 A 
ATOM     18  C   UNL A   1      27.280  29.877  23.220  1.00  0.00     0.047 C 
ATOM     19  C   UNL A   1      28.589  29.211  22.932  1.00  0.00    -0.015 A 
ATOM     20  C   UNL A   1      29.631  29.886  22.296  1.00  0.00     0.008 A 
ATOM     21  C   UNL A   1      28.776  27.872  23.281  1.00  0.00     0.128 A 
ATOM     22  C   UNL A   1      30.821  29.214  22.003  1.00  0.00     0.026 A 
ATOM     23  C   UNL A   1      29.964  27.202  23.007  1.00  0.00     0.065 A 
ATOM     24  F   UNL A   1      27.778  27.192  23.862  1.00  0.00    -0.207 F 
ENDBRANCH  14  17
ENDBRANCH   8  13
ENDBRANCH   4   7
ENDBRANCH   2   3
ENDBRANCH   1   2
BRANCH   1  25
ATOM     25  C   UNL A   1      37.126  23.136  25.641  1.00  0.00     0.023 C 
BRANCH  25  26
ATOM     26  C   UNL A   1      38.162  24.058  26.238  1.00  0.00     0.116 C 
BRANCH  26  27
ATOM     27  N   UNL A   1      39.499  23.462  26.206  1.00  0.00    -0.352 N 
ATOM     28  C   UNL A   1      40.721  24.071  26.428  1.00  0.00     0.251 C 
ATOM     29  H   UNL A   1      39.534  22.501  25.998  1.00  0.00     0.163 HD
ATOM     30  O   UNL A   1      41.768  23.543  26.125  1.00  0.00    -0.269 OA
BRANCH  28  31
ATOM     31  C   UNL A   1      40.691  25.406  27.046  1.00  0.00     0.039 A 
ATOM     32  C   UNL A   1      40.608  26.571  26.278  1.00  0.00     0.014 A 
ATOM     33  C   UNL A   1      40.653  25.450  28.431  1.00  0.00     0.014 A 
ATOM     34  C   UNL A   1      40.399  27.790  26.925  1.00  0.00     0.010 A 
ATOM     35  C   UNL A   1      40.241  26.598  29.040  1.00  0.00     0.010 A 
ATOM     36  C   UNL A   1      40.189  27.788  28.308  1.00  0.00    -0.014 A 
BRANCH  36  37
ATOM     37  C   UNL A   1      40.006  28.975  29.131  1.00  0.00     0.031 A 
ATOM     38  C   UNL A   1      38.914  29.928  28.909  1.00  0.00     0.074 A 
ATOM     39  C   UNL A   1      40.875  29.132  30.155  1.00  0.00     0.049 A 
ATOM     40  N   UNL A   1      39.017  31.187  29.157  1.00  0.00    -0.248 NA
ATOM     41  C   UNL A   1      37.610  29.544  28.384  1.00  0.00     0.031 C 
ATOM     42  C   UNL A   1      40.851  30.067  31.264  1.00  0.00     0.029 A 
ATOM     43  N   UNL A   1      42.105  28.467  30.298  1.00  0.00    -0.354 N 
ATOM     44  C   UNL A   1      37.750  31.720  29.117  1.00  0.00     0.074 A 
ATOM     45  C   UNL A   1      36.929  30.691  28.517  1.00  0.00     0.031 C 
ATOM     46  C   UNL A   1      42.089  30.136  31.788  1.00  0.00     0.029 A 
ATOM     47  C   UNL A   1      42.976  29.367  30.926  1.00  0.00     0.049 A 
ATOM     48  H   UNL A   1      42.313  27.548  30.012  1.00  0.00     0.167 HD
ATOM     49  C   UNL A   1      37.517  32.908  29.748  1.00  0.00     0.037 A 
ATOM     50  C   UNL A   1      44.048  29.833  30.217  1.00  0.00     0.037 A 
ATOM     51  C   UNL A   1      38.722  33.367  30.440  1.00  0.00     0.049 A 
ATOM     52  C   UNL A   1      43.982  31.319  29.962  1.00  0.00     0.074 A 
ATOM     53  C   UNL A   1      39.162  33.255  31.749  1.00  0.00     0.029 A 
ATOM     54  N   UNL A   1      39.822  33.749  29.701  1.00  0.00    -0.354 N 
ATOM     55  N   UNL A   1      42.943  32.056  30.231  1.00  0.00    -0.248 NA
ATOM     56  C   UNL A   1      45.043  32.071  29.298  1.00  0.00     0.031 C 
ATOM     57  C   UNL A   1      40.546  33.589  31.781  1.00  0.00     0.029 A 
ATOM     58  C   UNL A   1      40.938  33.916  30.495  1.00  0.00     0.049 A 
ATOM     59  H   UNL A   1      39.813  33.887  28.726  1.00  0.00     0.167 HD
ATOM     60  C   UNL A   1      43.148  33.322  29.767  1.00  0.00     0.074 A 
ATOM     61  C   UNL A   1      44.476  33.284  29.183  1.00  0.00     0.031 C 
ATOM     62  C   UNL A   1      42.194  34.291  29.869  1.00  0.00     0.037 A 
BRANCH  49  63
ATOM     63  C   UNL A   1      36.162  33.536  29.985  1.00  0.00     0.064 A 
ATOM     64  C   UNL A   1      35.384  33.991  28.895  1.00  0.00     0.173 A 
ATOM     65  C   UNL A   1      35.568  33.714  31.247  1.00  0.00     0.173 A 
ATOM     66  F   UNL A   1      35.765  33.793  27.627  1.00  0.00    -0.203 F 
ATOM     67  C   UNL A   1      34.173  34.667  29.063  1.00  0.00     0.198 A 
ATOM     68  C   UNL A   1      34.373  34.426  31.418  1.00  0.00     0.198 A 
ATOM     69  F   UNL A   1      36.090  33.161  32.349  1.00  0.00    -0.203 F 
ATOM     70  F   UNL A   1      33.492  35.083  27.986  1.00  0.00    -0.200 F 
ATOM     71  C   UNL A   1      33.682  34.912  30.326  1.00  0.00     0.200 A 
ATOM     72  F   UNL A   1      33.891  34.631  32.652  1.00  0.00    -0.200 F 
ATOM     73  F   UNL A   1      32.538  35.589  30.488  1.00  0.00    -0.200 F 
ENDBRANCH  49  63
BRANCH  50  74
ATOM     74  C   UNL A   1      44.550  28.819  29.234  1.00  0.00     0.064 A 
ATOM     75  C   UNL A   1      45.177  27.661  29.741  1.00  0.00     0.173 A 
ATOM     76  C   UNL A   1      44.029  28.752  27.933  1.00  0.00     0.173 A 
ATOM     77  F   UNL A   1      45.693  27.666  30.980  1.00  0.00    -0.203 F 
ATOM     78  C   UNL A   1      45.134  26.453  29.047  1.00  0.00     0.198 A 
ATOM     79  C   UNL A   1      44.012  27.543  27.230  1.00  0.00     0.198 A 
ATOM     80  F   UNL A   1      43.433  29.819  27.384  1.00  0.00    -0.203 F 
ATOM     81  F   UNL A   1      45.600  25.335  29.623  1.00  0.00    -0.200 F 
ATOM     82  C   UNL A   1      44.523  26.388  27.806  1.00  0.00     0.200 A 
ATOM     83  F   UNL A   1      43.427  27.483  26.025  1.00  0.00    -0.200 F 
ATOM     84  F   UNL A   1      44.392  25.208  27.187  1.00  0.00    -0.200 F 
ENDBRANCH  50  74
BRANCH  62  85
ATOM     85  C   UNL A   1      42.381  35.690  29.364  1.00  0.00     0.064 A 
ATOM     86  C   UNL A   1      41.882  36.109  28.122  1.00  0.00     0.173 A 
ATOM     87  C   UNL A   1      43.159  36.632  30.072  1.00  0.00     0.173 A 
ATOM     88  F   UNL A   1      41.209  35.262  27.330  1.00  0.00    -0.203 F 
ATOM     89  C   UNL A   1      42.082  37.409  27.656  1.00  0.00     0.198 A 
ATOM     90  C   UNL A   1      43.411  37.905  29.576  1.00  0.00     0.198 A 
ATOM     91  F   UNL A   1      43.674  36.358  31.279  1.00  0.00    -0.203 F 
ATOM     92  F   UNL A   1      41.526  37.791  26.500  1.00  0.00    -0.200 F 
ATOM     93  C   UNL A   1      42.852  38.303  28.379  1.00  0.00     0.200 A 
ATOM     94  F   UNL A   1      44.188  38.746  30.273  1.00  0.00    -0.200 F 
ATOM     95  F   UNL A   1      43.055  39.547  27.925  1.00  0.00    -0.200 F 
ENDBRANCH  62  85
ENDBRANCH  36  37
ENDBRANCH  28  31
ENDBRANCH  26  27
ENDBRANCH  25  26
ENDBRANCH   1  25
TORSDOF 13
ENDMDL
MODEL 3
REMARK VINA RESULT:     -13.6      1.160      2.026
REMARK SMILES Cc1ccc(NC(=O)[C@H]2CC=CC[C@H]2C(=O)NCCCCNC(=O)c2ccc(-c3c4nc(c(-c5c(F)c(F)c(F)c(F)c5F)c5ccc([nH]5)c(-c5c(F)c(F)c(F)c(F)c5F)c5nc(c(-c6c(F)c(F)c(F)c(F)c6F)c6ccc3[nH]6)C=C5)C=C4)cc2)cc1F
REMARK SMILES IDX 19 1 18 2 17 3 15 4 16 5 14 7 9 8 10 9 11 10 13 11 12 12
REMARK SMILES IDX 7 13 6 14 8 16 5 17 1 18 2 19 3 20 89 21 4 22 88 23 90 24
REMARK SMILES IDX 20 25 21 26 22 27 23 28 24 30 25 31 26 32 87 33 27 34 86 35
REMARK SMILES IDX 28 36 29 37 30 38 80 39 31 40 85 41 79 42 81 43 32 44 84 45
REMARK SMILES IDX 78 46 77 47 33 49 65 50 45 51 64 52 46 53 49 54 63 55 82 56
REMARK SMILES IDX 47 57 48 58 62 60 83 61 50 62 34 63 35 64 43 65 36 66 37 67
REMARK SMILES IDX 41 68 44 69 38 70 39 71 42 72 40 73 66 74 67 75 75 76 68 77
REMARK SMILES IDX 69 78 73 79 76 80 70 81 71 82 74 83 72 84 51 85 52 86 60 87
REMARK SMILES IDX 53 88 54 89 58 90 61 91 55 92 56 93 59 94 57 95
REMARK H PARENT 17 6 6 15 22 29 81 48 49 59
REMARK Flexibility Score: inf
ROOT
ATOM      1  C   UNL A   1      32.611  28.224  26.048  1.00  0.00     0.023 C 
ENDROOT
BRANCH   1   2
ATOM      2  C   UNL A   1      33.229  26.823  26.030  1.00  0.00     0.116 C 
BRANCH   2   3
ATOM      3  N   UNL A   1      32.949  26.066  24.826  1.00  0.00    -0.356 N 
ATOM      4  C   UNL A   1      33.438  24.883  24.371  1.00  0.00     0.224 C 
ATOM      5  O   UNL A   1      32.884  24.400  23.378  1.00  0.00    -0.275 OA
ATOM      6  H   UNL A   1      32.284  26.483  24.232  1.00  0.00     0.163 HD
BRANCH   4   7
ATOM      7  C   UNL A   1      34.565  24.121  25.062  1.00  0.00     0.095 C 
ATOM      8  C   UNL A   1      34.227  23.277  26.326  1.00  0.00     0.095 C 
ATOM      9  C   UNL A   1      35.060  21.977  26.507  1.00  0.00     0.041 C 
ATOM     10  C   UNL A   1      35.916  21.525  25.374  1.00  0.00    -0.030 C 
ATOM     11  C   UNL A   1      35.463  23.519  23.960  1.00  0.00     0.041 C 
ATOM     12  C   UNL A   1      36.097  22.207  24.245  1.00  0.00    -0.030 C 
BRANCH   8  13
ATOM     13  C   UNL A   1      32.752  23.003  26.649  1.00  0.00     0.228 C 
ATOM     14  N   UNL A   1      32.052  21.932  26.180  1.00  0.00    -0.326 N 
ATOM     15  H   UNL A   1      31.246  21.739  26.712  1.00  0.00     0.169 HD
ATOM     16  O   UNL A   1      32.120  23.754  27.404  1.00  0.00    -0.274 OA
BRANCH  14  17
ATOM     17  C   UNL A   1      32.223  21.043  25.112  1.00  0.00     0.044 A 
ATOM     18  C   UNL A   1      32.563  18.077  22.001  1.00  0.00     0.047 C 
ATOM     19  C   UNL A   1      32.471  19.091  23.099  1.00  0.00    -0.015 A 
ATOM     20  C   UNL A   1      32.667  18.743  24.436  1.00  0.00     0.008 A 
ATOM     21  C   UNL A   1      32.158  20.416  22.793  1.00  0.00     0.128 A 
ATOM     22  C   UNL A   1      32.526  19.710  25.436  1.00  0.00     0.026 A 
ATOM     23  C   UNL A   1      32.032  21.387  23.781  1.00  0.00     0.065 A 
ATOM     24  F   UNL A   1      31.931  20.768  21.520  1.00  0.00    -0.207 F 
ENDBRANCH  14  17
ENDBRANCH   8  13
ENDBRANCH   4   7
ENDBRANCH   2   3
ENDBRANCH   1   2
BRANCH   1  25
ATOM     25  C   UNL A   1      33.534  29.397  26.384  1.00  0.00     0.023 C 
BRANCH  25  26
ATOM     26  C   UNL A   1      34.531  29.030  27.458  1.00  0.00     0.116 C 
BRANCH  26  27
ATOM     27  N   UNL A   1      34.773  30.146  28.375  1.00  0.00    -0.352 N 
ATOM     28  C   UNL A   1      35.905  30.420  29.121  1.00  0.00     0.251 C 
ATOM     29  H   UNL A   1      34.032  30.786  28.474  1.00  0.00     0.163 HD
ATOM     30  O   UNL A   1      35.899  31.220  30.030  1.00  0.00    -0.269 OA
BRANCH  28  31
ATOM     31  C   UNL A   1      37.126  29.681  28.763  1.00  0.00     0.039 A 
ATOM     32  C   UNL A   1      37.881  30.009  27.633  1.00  0.00     0.014 A 
ATOM     33  C   UNL A   1      37.547  28.705  29.653  1.00  0.00     0.014 A 
ATOM     34  C   UNL A   1      39.121  29.396  27.450  1.00  0.00     0.010 A 
ATOM     35  C   UNL A   1      38.836  28.268  29.587  1.00  0.00     0.010 A 
ATOM     36  C   UNL A   1      39.602  28.544  28.450  1.00  0.00    -0.014 A 
BRANCH  36  37
ATOM     37  C   UNL A   1      40.849  27.795  28.386  1.00  0.00     0.031 A 
ATOM     38  C   UNL A   1      40.890  26.353  28.131  1.00  0.00     0.074 A 
ATOM     39  C   UNL A   1      41.985  28.515  28.525  1.00  0.00     0.049 A 
ATOM     40  N   UNL A   1      41.798  25.578  28.615  1.00  0.00    -0.248 NA
ATOM     41  C   UNL A   1      39.909  25.655  27.310  1.00  0.00     0.031 C 
ATOM     42  C   UNL A   1      43.367  28.128  28.310  1.00  0.00     0.029 A 
ATOM     43  N   UNL A   1      42.074  29.818  29.046  1.00  0.00    -0.354 N 
ATOM     44  C   UNL A   1      41.709  24.375  27.955  1.00  0.00     0.074 A 
ATOM     45  C   UNL A   1      40.451  24.430  27.243  1.00  0.00     0.031 C 
ATOM     46  C   UNL A   1      44.159  29.011  28.949  1.00  0.00     0.029 A 
ATOM     47  C   UNL A   1      43.299  29.895  29.723  1.00  0.00     0.049 A 
ATOM     48  H   UNL A   1      41.406  30.534  28.954  1.00  0.00     0.167 HD
ATOM     49  C   UNL A   1      42.791  23.542  27.958  1.00  0.00     0.037 A 
ATOM     50  C   UNL A   1      43.280  30.049  31.081  1.00  0.00     0.037 A 
ATOM     51  C   UNL A   1      43.918  24.168  28.650  1.00  0.00     0.049 A 
ATOM     52  C   UNL A   1      43.864  28.867  31.814  1.00  0.00     0.074 A 
ATOM     53  C   UNL A   1      45.018  24.886  28.210  1.00  0.00     0.029 A 
ATOM     54  N   UNL A   1      43.838  24.392  30.009  1.00  0.00    -0.354 N 
ATOM     55  N   UNL A   1      44.193  27.746  31.238  1.00  0.00    -0.248 NA
ATOM     56  C   UNL A   1      44.033  28.820  33.264  1.00  0.00     0.031 C 
ATOM     57  C   UNL A   1      45.603  25.536  29.334  1.00  0.00     0.029 A 
ATOM     58  C   UNL A   1      44.864  25.200  30.454  1.00  0.00     0.049 A 
ATOM     59  H   UNL A   1      43.134  24.022  30.590  1.00  0.00     0.167 HD
ATOM     60  C   UNL A   1      44.566  26.839  32.184  1.00  0.00     0.074 A 
ATOM     61  C   UNL A   1      44.444  27.553  33.442  1.00  0.00     0.031 C 
ATOM     62  C   UNL A   1      44.912  25.559  31.862  1.00  0.00     0.037 A 
BRANCH  49  63
ATOM     63  C   UNL A   1      42.949  22.291  27.125  1.00  0.00     0.064 A 
ATOM     64  C   UNL A   1      42.107  21.175  27.342  1.00  0.00     0.173 A 
ATOM     65  C   UNL A   1      43.897  22.122  26.100  1.00  0.00     0.173 A 
ATOM     66  F   UNL A   1      41.086  21.222  28.207  1.00  0.00    -0.203 F 
ATOM     67  C   UNL A   1      42.275  19.962  26.671  1.00  0.00     0.198 A 
ATOM     68  C   UNL A   1      44.091  20.893  25.455  1.00  0.00     0.198 A 
ATOM     69  F   UNL A   1      44.628  23.149  25.649  1.00  0.00    -0.203 F 
ATOM     70  F   UNL A   1      41.448  18.940  26.933  1.00  0.00    -0.200 F 
ATOM     71  C   UNL A   1      43.287  19.810  25.749  1.00  0.00     0.200 A 
ATOM     72  F   UNL A   1      45.061  20.769  24.537  1.00  0.00    -0.200 F 
ATOM     73  F   UNL A   1      43.469  18.637  25.130  1.00  0.00    -0.200 F 
ENDBRANCH  49  63
BRANCH  50  74
ATOM     74  C   UNL A   1      42.086  30.833  31.537  1.00  0.00     0.064 A 
ATOM     75  C   UNL A   1      41.978  32.176  31.120  1.00  0.00     0.173 A 
ATOM     76  C   UNL A   1      40.906  30.187  31.939  1.00  0.00     0.173 A 
ATOM     77  F   UNL A   1      43.073  32.845  30.723  1.00  0.00    -0.203 F 
ATOM     78  C   UNL A   1      40.736  32.785  30.955  1.00  0.00     0.198 A 
ATOM     79  C   UNL A   1      39.665  30.812  31.796  1.00  0.00     0.198 A 
ATOM     80  F   UNL A   1      40.938  28.915  32.359  1.00  0.00    -0.203 F 
ATOM     81  F   UNL A   1      40.658  34.008  30.409  1.00  0.00    -0.200 F 
ATOM     82  C   UNL A   1      39.578  32.090  31.263  1.00  0.00     0.200 A 
ATOM     83  F   UNL A   1      38.544  30.142  32.101  1.00  0.00    -0.200 F 
ATOM     84  F   UNL A   1      38.383  32.639  31.008  1.00  0.00    -0.200 F 
ENDBRANCH  50  74
BRANCH  62  85
ATOM     85  C   UNL A   1      45.320  24.533  32.875  1.00  0.00     0.064 A 
ATOM     86  C   UNL A   1      46.599  24.518  33.450  1.00  0.00     0.173 A 
ATOM     87  C   UNL A   1      44.466  23.466  33.229  1.00  0.00     0.173 A 
ATOM     88  F   UNL A   1      47.516  25.434  33.109  1.00  0.00    -0.203 F 
ATOM     89  C   UNL A   1      46.970  23.544  34.377  1.00  0.00     0.198 A 
ATOM     90  C   UNL A   1      44.861  22.461  34.103  1.00  0.00     0.198 A 
ATOM     91  F   UNL A   1      43.212  23.380  32.762  1.00  0.00    -0.203 F 
ATOM     92  F   UNL A   1      48.174  23.608  34.958  1.00  0.00    -0.200 F 
ATOM     93  C   UNL A   1      46.105  22.512  34.697  1.00  0.00     0.200 A 
ATOM     94  F   UNL A   1      44.022  21.451  34.375  1.00  0.00    -0.200 F 
ATOM     95  F   UNL A   1      46.468  21.570  35.578  1.00  0.00    -0.200 F 
ENDBRANCH  62  85
ENDBRANCH  36  37
ENDBRANCH  28  31
ENDBRANCH  26  27
ENDBRANCH  25  26
ENDBRANCH   1  25
TORSDOF 13
ENDMDL
