MODEL 1
REMARK VINA RESULT:     -11.5      0.000      0.000
REMARK SMILES CC(C)(O)CCOc1ccc(C(=O)NCCCCNC(=O)c2ccc(-c3c4nc(c(-c5c(F)c(F)c(F)c(F)c5F)c5ccc([nH]5)c(-c5c(F)c(F)c(F)c(F)c5F)c5nc(c(-c6c(F)c(F)c(F)c(F)c6F)c6ccc3[nH]6)C=C5)C=C4)cc2)cc1
REMARK SMILES IDX 15 1 14 2 12 3 13 4 11 6 8 7 9 8 86 9 10 10 85 11 7 12 6 13
REMARK SMILES IDX 5 14 2 15 1 16 3 17 4 18 16 20 17 21 18 22 19 23 20 24 21 26
REMARK SMILES IDX 22 27 23 28 84 29 24 30 83 31 25 32 26 33 27 34 77 35 28 36
REMARK SMILES IDX 82 37 76 38 78 39 29 40 81 41 75 42 74 43 30 45 62 46 42 47
REMARK SMILES IDX 61 48 43 49 46 50 60 51 79 52 44 53 45 54 59 56 80 57 47 58
REMARK SMILES IDX 31 59 32 60 40 61 33 62 34 63 38 64 41 65 35 66 36 67 39 68
REMARK SMILES IDX 37 69 63 70 64 71 72 72 65 73 66 74 70 75 73 76 67 77 68 78
REMARK SMILES IDX 71 79 69 80 48 81 49 82 57 83 50 84 51 85 55 86 58 87 52 88
REMARK SMILES IDX 53 89 56 90 54 91
REMARK H PARENT 14 5 4 19 19 25 78 44 46 55
REMARK Flexibility Score: inf
ROOT
ATOM      1  C   UNL A   1      36.831  22.558  25.508  1.00  0.00     0.116 C 
ENDROOT
BRANCH   1   2
ATOM      2  N   UNL A   1      36.103  23.681  24.935  1.00  0.00    -0.352 N 
ATOM      3  C   UNL A   1      34.799  23.762  24.492  1.00  0.00     0.251 C 
ATOM      4  O   UNL A   1      34.416  24.780  23.921  1.00  0.00    -0.269 OA
ATOM      5  H   UNL A   1      36.622  24.512  24.850  1.00  0.00     0.163 HD
BRANCH   3   6
ATOM      6  C   UNL A   1      33.874  22.617  24.646  1.00  0.00     0.040 A 
ATOM      7  C   UNL A   1      32.492  20.196  24.781  1.00  0.00     0.119 A 
ATOM      8  C   UNL A   1      32.498  20.934  23.594  1.00  0.00     0.047 A 
ATOM      9  C   UNL A   1      32.978  20.788  25.944  1.00  0.00     0.047 A 
ATOM     10  C   UNL A   1      33.184  22.150  23.525  1.00  0.00     0.017 A 
ATOM     11  C   UNL A   1      33.692  21.987  25.877  1.00  0.00     0.017 A 
BRANCH   7  12
ATOM     12  O   UNL A   1      32.095  18.895  24.652  1.00  0.00    -0.493 OA
BRANCH  12  13
ATOM     13  C   UNL A   1      32.553  18.130  23.533  1.00  0.00     0.232 C 
BRANCH  13  14
ATOM     14  C   UNL A   1      33.782  17.224  23.776  1.00  0.00     0.076 C 
BRANCH  14  15
ATOM     15  C   UNL A   1      33.866  16.409  25.089  1.00  0.00     0.062 C 
ATOM     16  C   UNL A   1      35.243  15.766  25.286  1.00  0.00     0.042 C 
ATOM     17  C   UNL A   1      32.822  15.282  25.105  1.00  0.00     0.042 C 
BRANCH  15  18
ATOM     18  O   UNL A   1      33.534  17.248  26.193  1.00  0.00    -0.390 OA
ATOM     19  H   UNL A   1      33.675  18.176  25.948  1.00  0.00     0.211 HD
ENDBRANCH  15  18
ENDBRANCH  14  15
ENDBRANCH  13  14
ENDBRANCH  12  13
ENDBRANCH   7  12
ENDBRANCH   3   6
ENDBRANCH   1   2
BRANCH   1  20
ATOM     20  C   UNL A   1      37.360  21.582  24.454  1.00  0.00     0.023 C 
BRANCH  20  21
ATOM     21  C   UNL A   1      37.934  20.270  24.991  1.00  0.00     0.023 C 
BRANCH  21  22
ATOM     22  C   UNL A   1      39.091  20.403  25.976  1.00  0.00     0.116 C 
BRANCH  22  23
ATOM     23  N   UNL A   1      40.071  19.331  25.877  1.00  0.00    -0.352 N 
ATOM     24  C   UNL A   1      41.436  19.374  26.068  1.00  0.00     0.251 C 
ATOM     25  H   UNL A   1      39.707  18.448  25.640  1.00  0.00     0.163 HD
ATOM     26  O   UNL A   1      42.118  18.385  25.848  1.00  0.00    -0.269 OA
BRANCH  24  27
ATOM     27  C   UNL A   1      42.081  20.635  26.501  1.00  0.00     0.039 A 
ATOM     28  C   UNL A   1      42.583  21.505  25.528  1.00  0.00     0.014 A 
ATOM     29  C   UNL A   1      42.174  20.972  27.853  1.00  0.00     0.014 A 
ATOM     30  C   UNL A   1      43.098  22.748  25.906  1.00  0.00     0.010 A 
ATOM     31  C   UNL A   1      42.615  22.242  28.222  1.00  0.00     0.010 A 
ATOM     32  C   UNL A   1      43.075  23.146  27.252  1.00  0.00    -0.014 A 
BRANCH  32  33
ATOM     33  C   UNL A   1      43.510  24.507  27.664  1.00  0.00     0.031 A 
ATOM     34  C   UNL A   1      42.491  25.560  28.005  1.00  0.00     0.074 A 
ATOM     35  C   UNL A   1      44.821  24.819  27.663  1.00  0.00     0.049 A 
ATOM     36  N   UNL A   1      42.672  26.821  28.312  1.00  0.00    -0.248 NA
ATOM     37  C   UNL A   1      41.080  25.148  27.968  1.00  0.00     0.031 C 
ATOM     38  C   UNL A   1      45.907  23.904  27.306  1.00  0.00     0.029 A 
ATOM     39  N   UNL A   1      45.465  25.996  27.958  1.00  0.00    -0.354 N 
ATOM     40  C   UNL A   1      41.401  27.351  28.491  1.00  0.00     0.074 A 
ATOM     41  C   UNL A   1      40.457  26.294  28.203  1.00  0.00     0.031 C 
ATOM     42  C   UNL A   1      47.081  24.545  27.426  1.00  0.00     0.029 A 
ATOM     43  C   UNL A   1      46.831  25.927  27.825  1.00  0.00     0.049 A 
ATOM     44  H   UNL A   1      44.993  26.813  28.239  1.00  0.00     0.167 HD
ATOM     45  C   UNL A   1      41.053  28.600  28.886  1.00  0.00     0.037 A 
ATOM     46  C   UNL A   1      47.775  26.872  27.994  1.00  0.00     0.037 A 
ATOM     47  C   UNL A   1      41.995  29.646  29.190  1.00  0.00     0.049 A 
ATOM     48  C   UNL A   1      47.361  28.258  28.414  1.00  0.00     0.074 A 
ATOM     49  C   UNL A   1      41.744  30.926  29.651  1.00  0.00     0.029 A 
ATOM     50  N   UNL A   1      43.371  29.534  29.053  1.00  0.00    -0.354 N 
ATOM     51  N   UNL A   1      46.160  28.727  28.652  1.00  0.00    -0.248 NA
ATOM     52  C   UNL A   1      48.435  29.245  28.591  1.00  0.00     0.031 C 
ATOM     53  C   UNL A   1      42.962  31.607  29.741  1.00  0.00     0.029 A 
ATOM     54  C   UNL A   1      43.980  30.731  29.398  1.00  0.00     0.049 A 
ATOM     55  H   UNL A   1      43.846  28.724  28.758  1.00  0.00     0.167 HD
ATOM     56  C   UNL A   1      46.337  30.050  29.039  1.00  0.00     0.074 A 
ATOM     57  C   UNL A   1      47.762  30.304  29.017  1.00  0.00     0.031 C 
ATOM     58  C   UNL A   1      45.401  30.969  29.381  1.00  0.00     0.037 A 
BRANCH  45  59
ATOM     59  C   UNL A   1      39.587  28.906  29.014  1.00  0.00     0.064 A 
ATOM     60  C   UNL A   1      38.917  28.803  30.243  1.00  0.00     0.173 A 
ATOM     61  C   UNL A   1      38.850  29.343  27.903  1.00  0.00     0.173 A 
ATOM     62  F   UNL A   1      39.572  28.381  31.336  1.00  0.00    -0.203 F 
ATOM     63  C   UNL A   1      37.560  29.092  30.348  1.00  0.00     0.198 A 
ATOM     64  C   UNL A   1      37.500  29.664  28.018  1.00  0.00     0.198 A 
ATOM     65  F   UNL A   1      39.441  29.467  26.704  1.00  0.00    -0.203 F 
ATOM     66  F   UNL A   1      36.930  28.933  31.520  1.00  0.00    -0.200 F 
ATOM     67  C   UNL A   1      36.854  29.531  29.237  1.00  0.00     0.200 A 
ATOM     68  F   UNL A   1      36.823  30.103  26.947  1.00  0.00    -0.200 F 
ATOM     69  F   UNL A   1      35.549  29.816  29.341  1.00  0.00    -0.200 F 
ENDBRANCH  45  59
BRANCH  46  70
ATOM     70  C   UNL A   1      49.211  26.538  27.790  1.00  0.00     0.064 A 
ATOM     71  C   UNL A   1      50.065  26.330  28.882  1.00  0.00     0.173 A 
ATOM     72  C   UNL A   1      49.761  26.434  26.504  1.00  0.00     0.173 A 
ATOM     73  F   UNL A   1      49.591  26.440  30.132  1.00  0.00    -0.203 F 
ATOM     74  C   UNL A   1      51.418  26.053  28.697  1.00  0.00     0.198 A 
ATOM     75  C   UNL A   1      51.107  26.126  26.319  1.00  0.00     0.198 A 
ATOM     76  F   UNL A   1      48.987  26.620  25.424  1.00  0.00    -0.203 F 
ATOM     77  F   UNL A   1      52.221  25.910  29.760  1.00  0.00    -0.200 F 
ATOM     78  C   UNL A   1      51.937  25.946  27.416  1.00  0.00     0.200 A 
ATOM     79  F   UNL A   1      51.602  26.007  25.080  1.00  0.00    -0.200 F 
ATOM     80  F   UNL A   1      53.238  25.678  27.238  1.00  0.00    -0.200 F 
ENDBRANCH  46  70
BRANCH  58  81
ATOM     81  C   UNL A   1      45.888  32.326  29.803  1.00  0.00     0.064 A 
ATOM     82  C   UNL A   1      46.029  33.380  28.887  1.00  0.00     0.173 A 
ATOM     83  C   UNL A   1      46.180  32.586  31.152  1.00  0.00     0.173 A 
ATOM     84  F   UNL A   1      45.778  33.180  27.585  1.00  0.00    -0.203 F 
ATOM     85  C   UNL A   1      46.469  34.634  29.302  1.00  0.00     0.198 A 
ATOM     86  C   UNL A   1      46.585  33.851  31.568  1.00  0.00     0.198 A 
ATOM     87  F   UNL A   1      46.054  31.616  32.069  1.00  0.00    -0.203 F 
ATOM     88  F   UNL A   1      46.645  35.612  28.401  1.00  0.00    -0.200 F 
ATOM     89  C   UNL A   1      46.738  34.871  30.642  1.00  0.00     0.200 A 
ATOM     90  F   UNL A   1      46.830  34.081  32.865  1.00  0.00    -0.200 F 
ATOM     91  F   UNL A   1      47.152  36.082  31.040  1.00  0.00    -0.200 F 
ENDBRANCH  58  81
ENDBRANCH  32  33
ENDBRANCH  24  27
ENDBRANCH  22  23
ENDBRANCH  21  22
ENDBRANCH  20  21
ENDBRANCH   1  20
TORSDOF 16
ENDMDL
MODEL 2
REMARK VINA RESULT:     -11.3      5.710     10.737
REMARK SMILES CC(C)(O)CCOc1ccc(C(=O)NCCCCNC(=O)c2ccc(-c3c4nc(c(-c5c(F)c(F)c(F)c(F)c5F)c5ccc([nH]5)c(-c5c(F)c(F)c(F)c(F)c5F)c5nc(c(-c6c(F)c(F)c(F)c(F)c6F)c6ccc3[nH]6)C=C5)C=C4)cc2)cc1
REMARK SMILES IDX 15 1 14 2 12 3 13 4 11 6 8 7 9 8 86 9 10 10 85 11 7 12 6 13
REMARK SMILES IDX 5 14 2 15 1 16 3 17 4 18 16 20 17 21 18 22 19 23 20 24 21 26
REMARK SMILES IDX 22 27 23 28 84 29 24 30 83 31 25 32 26 33 27 34 77 35 28 36
REMARK SMILES IDX 82 37 76 38 78 39 29 40 81 41 75 42 74 43 30 45 62 46 42 47
REMARK SMILES IDX 61 48 43 49 46 50 60 51 79 52 44 53 45 54 59 56 80 57 47 58
REMARK SMILES IDX 31 59 32 60 40 61 33 62 34 63 38 64 41 65 35 66 36 67 39 68
REMARK SMILES IDX 37 69 63 70 64 71 72 72 65 73 66 74 70 75 73 76 67 77 68 78
REMARK SMILES IDX 71 79 69 80 48 81 49 82 57 83 50 84 51 85 55 86 58 87 52 88
REMARK SMILES IDX 53 89 56 90 54 91
REMARK H PARENT 14 5 4 19 19 25 78 44 46 55
REMARK Flexibility Score: inf
ROOT
ATOM      1  C   UNL A   1      31.451  29.667  25.234  1.00  0.00     0.116 C 
ENDROOT
BRANCH   1   2
ATOM      2  N   UNL A   1      32.485  29.712  24.210  1.00  0.00    -0.352 N 
ATOM      3  C   UNL A   1      33.345  28.727  23.772  1.00  0.00     0.251 C 
ATOM      4  O   UNL A   1      34.236  29.011  22.977  1.00  0.00    -0.269 OA
ATOM      5  H   UNL A   1      32.587  30.581  23.761  1.00  0.00     0.163 HD
BRANCH   3   6
ATOM      6  C   UNL A   1      33.241  27.345  24.291  1.00  0.00     0.040 A 
ATOM      7  C   UNL A   1      33.478  24.679  25.084  1.00  0.00     0.119 A 
ATOM      8  C   UNL A   1      32.965  24.992  23.822  1.00  0.00     0.047 A 
ATOM      9  C   UNL A   1      33.646  25.701  26.014  1.00  0.00     0.047 A 
ATOM     10  C   UNL A   1      32.839  26.326  23.424  1.00  0.00     0.017 A 
ATOM     11  C   UNL A   1      33.553  27.037  25.615  1.00  0.00     0.017 A 
BRANCH   7  12
ATOM     12  O   UNL A   1      33.872  23.380  25.243  1.00  0.00    -0.493 OA
BRANCH  12  13
ATOM     13  C   UNL A   1      34.280  22.626  24.098  1.00  0.00     0.232 C 
BRANCH  13  14
ATOM     14  C   UNL A   1      35.790  22.307  23.987  1.00  0.00     0.076 C 
BRANCH  14  15
ATOM     15  C   UNL A   1      36.660  22.342  25.266  1.00  0.00     0.062 C 
ATOM     16  C   UNL A   1      37.223  23.739  25.547  1.00  0.00     0.042 C 
ATOM     17  C   UNL A   1      37.850  21.378  25.148  1.00  0.00     0.042 C 
BRANCH  15  18
ATOM     18  O   UNL A   1      35.898  21.868  26.374  1.00  0.00    -0.390 OA
ATOM     19  H   UNL A   1      36.053  20.918  26.490  1.00  0.00     0.211 HD
ENDBRANCH  15  18
ENDBRANCH  14  15
ENDBRANCH  13  14
ENDBRANCH  12  13
ENDBRANCH   7  12
ENDBRANCH   3   6
ENDBRANCH   1   2
BRANCH   1  20
ATOM     20  C   UNL A   1      31.876  30.327  26.548  1.00  0.00     0.023 C 
BRANCH  20  21
ATOM     21  C   UNL A   1      31.651  31.838  26.637  1.00  0.00     0.023 C 
BRANCH  21  22
ATOM     22  C   UNL A   1      32.800  32.647  27.234  1.00  0.00     0.116 C 
BRANCH  22  23
ATOM     23  N   UNL A   1      32.430  34.007  27.597  1.00  0.00    -0.352 N 
ATOM     24  C   UNL A   1      32.980  34.838  28.551  1.00  0.00     0.251 C 
ATOM     25  H   UNL A   1      31.680  34.390  27.088  1.00  0.00     0.163 HD
ATOM     26  O   UNL A   1      32.474  35.924  28.784  1.00  0.00    -0.269 OA
BRANCH  24  27
ATOM     27  C   UNL A   1      34.162  34.391  29.326  1.00  0.00     0.039 A 
ATOM     28  C   UNL A   1      33.963  33.778  30.567  1.00  0.00     0.014 A 
ATOM     29  C   UNL A   1      35.455  34.554  28.826  1.00  0.00     0.014 A 
ATOM     30  C   UNL A   1      35.053  33.252  31.264  1.00  0.00     0.010 A 
ATOM     31  C   UNL A   1      36.532  33.962  29.485  1.00  0.00     0.010 A 
ATOM     32  C   UNL A   1      36.342  33.298  30.707  1.00  0.00    -0.014 A 
BRANCH  32  33
ATOM     33  C   UNL A   1      37.498  32.645  31.376  1.00  0.00     0.031 A 
ATOM     34  C   UNL A   1      38.191  31.478  30.727  1.00  0.00     0.074 A 
ATOM     35  C   UNL A   1      37.880  33.055  32.602  1.00  0.00     0.049 A 
ATOM     36  N   UNL A   1      39.165  30.732  31.186  1.00  0.00    -0.248 NA
ATOM     37  C   UNL A   1      37.706  31.080  29.397  1.00  0.00     0.031 C 
ATOM     38  C   UNL A   1      37.260  34.142  33.360  1.00  0.00     0.029 A 
ATOM     39  N   UNL A   1      38.873  32.596  33.433  1.00  0.00    -0.354 N 
ATOM     40  C   UNL A   1      39.399  29.773  30.210  1.00  0.00     0.074 A 
ATOM     41  C   UNL A   1      38.428  29.994  29.159  1.00  0.00     0.031 C 
ATOM     42  C   UNL A   1      37.900  34.283  34.532  1.00  0.00     0.029 A 
ATOM     43  C   UNL A   1      38.947  33.270  34.629  1.00  0.00     0.049 A 
ATOM     44  H   UNL A   1      39.476  31.856  33.195  1.00  0.00     0.167 HD
ATOM     45  C   UNL A   1      40.352  28.811  30.178  1.00  0.00     0.037 A 
ATOM     46  C   UNL A   1      39.758  33.085  35.688  1.00  0.00     0.037 A 
ATOM     47  C   UNL A   1      41.328  28.604  31.217  1.00  0.00     0.049 A 
ATOM     48  C   UNL A   1      40.796  31.995  35.637  1.00  0.00     0.074 A 
ATOM     49  C   UNL A   1      42.370  27.694  31.253  1.00  0.00     0.029 A 
ATOM     50  N   UNL A   1      41.378  29.314  32.408  1.00  0.00    -0.354 N 
ATOM     51  N   UNL A   1      41.055  31.142  34.676  1.00  0.00    -0.248 NA
ATOM     52  C   UNL A   1      41.658  31.846  36.818  1.00  0.00     0.031 C 
ATOM     53  C   UNL A   1      43.015  27.813  32.488  1.00  0.00     0.029 A 
ATOM     54  C   UNL A   1      42.416  28.843  33.197  1.00  0.00     0.049 A 
ATOM     55  H   UNL A   1      40.767  30.044  32.656  1.00  0.00     0.167 HD
ATOM     56  C   UNL A   1      42.128  30.380  35.121  1.00  0.00     0.074 A 
ATOM     57  C   UNL A   1      42.481  30.881  36.432  1.00  0.00     0.031 C 
ATOM     58  C   UNL A   1      42.763  29.357  34.497  1.00  0.00     0.037 A 
BRANCH  45  59
ATOM     59  C   UNL A   1      40.388  27.905  28.980  1.00  0.00     0.064 A 
ATOM     60  C   UNL A   1      41.132  28.229  27.833  1.00  0.00     0.173 A 
ATOM     61  C   UNL A   1      39.702  26.682  28.989  1.00  0.00     0.173 A 
ATOM     62  F   UNL A   1      41.799  29.392  27.767  1.00  0.00    -0.203 F 
ATOM     63  C   UNL A   1      41.158  27.380  26.731  1.00  0.00     0.198 A 
ATOM     64  C   UNL A   1      39.759  25.819  27.898  1.00  0.00     0.198 A 
ATOM     65  F   UNL A   1      38.981  26.318  30.061  1.00  0.00    -0.203 F 
ATOM     66  F   UNL A   1      41.830  27.737  25.628  1.00  0.00    -0.200 F 
ATOM     67  C   UNL A   1      40.479  26.171  26.767  1.00  0.00     0.200 A 
ATOM     68  F   UNL A   1      39.114  24.644  27.940  1.00  0.00    -0.200 F 
ATOM     69  F   UNL A   1      40.511  25.351  25.709  1.00  0.00    -0.200 F 
ENDBRANCH  45  59
BRANCH  46  70
ATOM     70  C   UNL A   1      39.639  33.965  36.882  1.00  0.00     0.064 A 
ATOM     71  C   UNL A   1      38.843  33.594  37.974  1.00  0.00     0.173 A 
ATOM     72  C   UNL A   1      40.306  35.196  36.951  1.00  0.00     0.173 A 
ATOM     73  F   UNL A   1      38.167  32.435  37.946  1.00  0.00    -0.203 F 
ATOM     74  C   UNL A   1      38.699  34.430  39.079  1.00  0.00     0.198 A 
ATOM     75  C   UNL A   1      40.187  36.018  38.070  1.00  0.00     0.198 A 
ATOM     76  F   UNL A   1      41.084  35.598  35.935  1.00  0.00    -0.203 F 
ATOM     77  F   UNL A   1      37.890  34.073  40.086  1.00  0.00    -0.200 F 
ATOM     78  C   UNL A   1      39.376  35.639  39.128  1.00  0.00     0.200 A 
ATOM     79  F   UNL A   1      40.855  37.178  38.121  1.00  0.00    -0.200 F 
ATOM     80  F   UNL A   1      39.240  36.443  40.192  1.00  0.00    -0.200 F 
ENDBRANCH  46  70
BRANCH  58  81
ATOM     81  C   UNL A   1      43.934  28.736  35.206  1.00  0.00     0.064 A 
ATOM     82  C   UNL A   1      45.243  29.207  35.024  1.00  0.00     0.173 A 
ATOM     83  C   UNL A   1      43.735  27.681  36.110  1.00  0.00     0.173 A 
ATOM     84  F   UNL A   1      45.489  30.202  34.160  1.00  0.00    -0.203 F 
ATOM     85  C   UNL A   1      46.312  28.626  35.702  1.00  0.00     0.198 A 
ATOM     86  C   UNL A   1      44.801  27.127  36.812  1.00  0.00     0.198 A 
ATOM     87  F   UNL A   1      42.502  27.199  36.326  1.00  0.00    -0.203 F 
ATOM     88  F   UNL A   1      47.561  29.057  35.474  1.00  0.00    -0.200 F 
ATOM     89  C   UNL A   1      46.090  27.593  36.601  1.00  0.00     0.200 A 
ATOM     90  F   UNL A   1      44.583  26.140  37.692  1.00  0.00    -0.200 F 
ATOM     91  F   UNL A   1      47.119  27.043  37.259  1.00  0.00    -0.200 F 
ENDBRANCH  58  81
ENDBRANCH  32  33
ENDBRANCH  24  27
ENDBRANCH  22  23
ENDBRANCH  21  22
ENDBRANCH  20  21
ENDBRANCH   1  20
TORSDOF 16
ENDMDL
MODEL 3
REMARK VINA RESULT:     -11.3      1.893      4.040
REMARK SMILES CC(C)(O)CCOc1ccc(C(=O)NCCCCNC(=O)c2ccc(-c3c4nc(c(-c5c(F)c(F)c(F)c(F)c5F)c5ccc([nH]5)c(-c5c(F)c(F)c(F)c(F)c5F)c5nc(c(-c6c(F)c(F)c(F)c(F)c6F)c6ccc3[nH]6)C=C5)C=C4)cc2)cc1
REMARK SMILES IDX 15 1 14 2 12 3 13 4 11 6 8 7 9 8 86 9 10 10 85 11 7 12 6 13
REMARK SMILES IDX 5 14 2 15 1 16 3 17 4 18 16 20 17 21 18 22 19 23 20 24 21 26
REMARK SMILES IDX 22 27 23 28 84 29 24 30 83 31 25 32 26 33 27 34 77 35 28 36
REMARK SMILES IDX 82 37 76 38 78 39 29 40 81 41 75 42 74 43 30 45 62 46 42 47
REMARK SMILES IDX 61 48 43 49 46 50 60 51 79 52 44 53 45 54 59 56 80 57 47 58
REMARK SMILES IDX 31 59 32 60 40 61 33 62 34 63 38 64 41 65 35 66 36 67 39 68
REMARK SMILES IDX 37 69 63 70 64 71 72 72 65 73 66 74 70 75 73 76 67 77 68 78
REMARK SMILES IDX 71 79 69 80 48 81 49 82 57 83 50 84 51 85 55 86 58 87 52 88
REMARK SMILES IDX 53 89 56 90 54 91
REMARK H PARENT 14 5 4 19 19 25 78 44 46 55
REMARK Flexibility Score: inf
ROOT
ATOM      1  C   UNL A   1      35.589  20.591  25.125  1.00  0.00     0.116 C 
ENDROOT
BRANCH   1   2
ATOM      2  N   UNL A   1      35.020  21.114  26.359  1.00  0.00    -0.352 N 
ATOM      3  C   UNL A   1      34.286  22.259  26.584  1.00  0.00     0.251 C 
ATOM      4  O   UNL A   1      34.005  22.583  27.735  1.00  0.00    -0.269 OA
ATOM      5  H   UNL A   1      35.185  20.564  27.158  1.00  0.00     0.163 HD
BRANCH   3   6
ATOM      6  C   UNL A   1      33.880  23.132  25.459  1.00  0.00     0.040 A 
ATOM      7  C   UNL A   1      33.524  24.644  23.140  1.00  0.00     0.119 A 
ATOM      8  C   UNL A   1      34.211  25.185  24.231  1.00  0.00     0.047 A 
ATOM      9  C   UNL A   1      32.829  23.450  23.308  1.00  0.00     0.047 A 
ATOM     10  C   UNL A   1      34.385  24.433  25.397  1.00  0.00     0.017 A 
ATOM     11  C   UNL A   1      33.024  22.678  24.456  1.00  0.00     0.017 A 
BRANCH   7  12
ATOM     12  O   UNL A   1      33.700  25.309  21.959  1.00  0.00    -0.493 OA
BRANCH  12  13
ATOM     13  C   UNL A   1      33.016  26.546  21.741  1.00  0.00     0.232 C 
BRANCH  13  14
ATOM     14  C   UNL A   1      31.495  26.549  22.022  1.00  0.00     0.076 C 
BRANCH  14  15
ATOM     15  C   UNL A   1      30.852  27.806  22.657  1.00  0.00     0.062 C 
ATOM     16  C   UNL A   1      31.737  28.422  23.746  1.00  0.00     0.042 C 
ATOM     17  C   UNL A   1      29.498  27.467  23.297  1.00  0.00     0.042 C 
BRANCH  15  18
ATOM     18  O   UNL A   1      30.561  28.759  21.637  1.00  0.00    -0.390 OA
ATOM     19  H   UNL A   1      30.560  28.319  20.773  1.00  0.00     0.211 HD
ENDBRANCH  15  18
ENDBRANCH  14  15
ENDBRANCH  13  14
ENDBRANCH  12  13
ENDBRANCH   7  12
ENDBRANCH   3   6
ENDBRANCH   1   2
BRANCH   1  20
ATOM     20  C   UNL A   1      37.037  21.030  24.896  1.00  0.00     0.023 C 
BRANCH  20  21
ATOM     21  C   UNL A   1      38.089  19.921  24.974  1.00  0.00     0.023 C 
BRANCH  21  22
ATOM     22  C   UNL A   1      39.328  20.236  25.807  1.00  0.00     0.116 C 
BRANCH  22  23
ATOM     23  N   UNL A   1      40.295  19.149  25.853  1.00  0.00    -0.352 N 
ATOM     24  C   UNL A   1      41.651  19.195  26.095  1.00  0.00     0.251 C 
ATOM     25  H   UNL A   1      39.927  18.251  25.686  1.00  0.00     0.163 HD
ATOM     26  O   UNL A   1      42.327  18.182  26.000  1.00  0.00    -0.269 OA
BRANCH  24  27
ATOM     27  C   UNL A   1      42.298  20.485  26.431  1.00  0.00     0.039 A 
ATOM     28  C   UNL A   1      42.910  21.219  25.410  1.00  0.00     0.014 A 
ATOM     29  C   UNL A   1      42.285  20.982  27.736  1.00  0.00     0.014 A 
ATOM     30  C   UNL A   1      43.430  22.487  25.681  1.00  0.00     0.010 A 
ATOM     31  C   UNL A   1      42.734  22.277  27.989  1.00  0.00     0.010 A 
ATOM     32  C   UNL A   1      43.304  23.046  26.963  1.00  0.00    -0.014 A 
BRANCH  32  33
ATOM     33  C   UNL A   1      43.746  24.438  27.248  1.00  0.00     0.031 A 
ATOM     34  C   UNL A   1      42.764  25.458  27.755  1.00  0.00     0.074 A 
ATOM     35  C   UNL A   1      45.016  24.803  26.980  1.00  0.00     0.049 A 
ATOM     36  N   UNL A   1      42.941  26.735  27.989  1.00  0.00    -0.248 NA
ATOM     37  C   UNL A   1      41.395  24.986  28.007  1.00  0.00     0.031 C 
ATOM     38  C   UNL A   1      46.053  23.923  26.440  1.00  0.00     0.029 A 
ATOM     39  N   UNL A   1      45.648  26.016  27.114  1.00  0.00    -0.354 N 
ATOM     40  C   UNL A   1      41.707  27.217  28.402  1.00  0.00     0.074 A 
ATOM     41  C   UNL A   1      40.776  26.112  28.331  1.00  0.00     0.031 C 
ATOM     42  C   UNL A   1      47.195  24.616  26.311  1.00  0.00     0.029 A 
ATOM     43  C   UNL A   1      46.963  25.999  26.716  1.00  0.00     0.049 A 
ATOM     44  H   UNL A   1      45.201  26.821  27.461  1.00  0.00     0.167 HD
ATOM     45  C   UNL A   1      41.383  28.463  28.826  1.00  0.00     0.037 A 
ATOM     46  C   UNL A   1      47.876  26.988  26.673  1.00  0.00     0.037 A 
ATOM     47  C   UNL A   1      42.316  29.557  28.912  1.00  0.00     0.049 A 
ATOM     48  C   UNL A   1      47.487  28.369  27.130  1.00  0.00     0.074 A 
ATOM     49  C   UNL A   1      42.099  30.841  29.382  1.00  0.00     0.029 A 
ATOM     50  N   UNL A   1      43.643  29.498  28.510  1.00  0.00    -0.354 N 
ATOM     51  N   UNL A   1      46.335  28.795  27.588  1.00  0.00    -0.248 NA
ATOM     52  C   UNL A   1      48.526  29.405  27.068  1.00  0.00     0.031 C 
ATOM     53  C   UNL A   1      43.278  31.574  29.213  1.00  0.00     0.029 A 
ATOM     54  C   UNL A   1      44.250  30.731  28.698  1.00  0.00     0.049 A 
ATOM     55  H   UNL A   1      44.088  28.699  28.148  1.00  0.00     0.167 HD
ATOM     56  C   UNL A   1      46.520  30.136  27.900  1.00  0.00     0.074 A 
ATOM     57  C   UNL A   1      47.900  30.449  27.592  1.00  0.00     0.031 C 
ATOM     58  C   UNL A   1      45.627  31.027  28.397  1.00  0.00     0.037 A 
BRANCH  45  59
ATOM     59  C   UNL A   1      39.958  28.712  29.231  1.00  0.00     0.064 A 
ATOM     60  C   UNL A   1      38.998  29.166  28.312  1.00  0.00     0.173 A 
ATOM     61  C   UNL A   1      39.535  28.459  30.545  1.00  0.00     0.173 A 
ATOM     62  F   UNL A   1      39.351  29.433  27.045  1.00  0.00    -0.203 F 
ATOM     63  C   UNL A   1      37.681  29.390  28.701  1.00  0.00     0.198 A 
ATOM     64  C   UNL A   1      38.209  28.651  30.922  1.00  0.00     0.198 A 
ATOM     65  F   UNL A   1      40.408  28.017  31.464  1.00  0.00    -0.203 F 
ATOM     66  F   UNL A   1      36.797  29.876  27.819  1.00  0.00    -0.200 F 
ATOM     67  C   UNL A   1      37.284  29.124  30.003  1.00  0.00     0.200 A 
ATOM     68  F   UNL A   1      37.824  28.379  32.177  1.00  0.00    -0.200 F 
ATOM     69  F   UNL A   1      36.015  29.332  30.374  1.00  0.00    -0.200 F 
ENDBRANCH  45  59
BRANCH  46  70
ATOM     70  C   UNL A   1      49.258  26.708  26.199  1.00  0.00     0.064 A 
ATOM     71  C   UNL A   1      49.621  26.929  24.863  1.00  0.00     0.173 A 
ATOM     72  C   UNL A   1      50.240  26.203  27.065  1.00  0.00     0.173 A 
ATOM     73  F   UNL A   1      48.712  27.390  23.991  1.00  0.00    -0.203 F 
ATOM     74  C   UNL A   1      50.903  26.634  24.405  1.00  0.00     0.198 A 
ATOM     75  C   UNL A   1      51.532  25.938  26.613  1.00  0.00     0.198 A 
ATOM     76  F   UNL A   1      49.948  25.977  28.354  1.00  0.00    -0.203 F 
ATOM     77  F   UNL A   1      51.207  26.806  23.111  1.00  0.00    -0.200 F 
ATOM     78  C   UNL A   1      51.859  26.144  25.282  1.00  0.00     0.200 A 
ATOM     79  F   UNL A   1      52.457  25.480  27.467  1.00  0.00    -0.200 F 
ATOM     80  F   UNL A   1      53.094  25.863  24.842  1.00  0.00    -0.200 F 
ENDBRANCH  46  70
BRANCH  58  81
ATOM     81  C   UNL A   1      46.122  32.417  28.680  1.00  0.00     0.064 A 
ATOM     82  C   UNL A   1      46.696  32.761  29.913  1.00  0.00     0.173 A 
ATOM     83  C   UNL A   1      46.057  33.408  27.687  1.00  0.00     0.173 A 
ATOM     84  F   UNL A   1      46.768  31.856  30.900  1.00  0.00    -0.203 F 
ATOM     85  C   UNL A   1      47.162  34.052  30.149  1.00  0.00     0.198 A 
ATOM     86  C   UNL A   1      46.556  34.687  27.916  1.00  0.00     0.198 A 
ATOM     87  F   UNL A   1      45.525  33.129  26.488  1.00  0.00    -0.203 F 
ATOM     88  F   UNL A   1      47.660  34.372  31.353  1.00  0.00    -0.200 F 
ATOM     89  C   UNL A   1      47.099  35.010  29.149  1.00  0.00     0.200 A 
ATOM     90  F   UNL A   1      46.508  35.607  26.943  1.00  0.00    -0.200 F 
ATOM     91  F   UNL A   1      47.557  36.249  29.376  1.00  0.00    -0.200 F 
ENDBRANCH  58  81
ENDBRANCH  32  33
ENDBRANCH  24  27
ENDBRANCH  22  23
ENDBRANCH  21  22
ENDBRANCH  20  21
ENDBRANCH   1  20
TORSDOF 16
ENDMDL
