MODEL 1
REMARK VINA RESULT:     -12.1      0.000      0.000
REMARK SMILES CC1(C)C[C@@]([NH2+]CCN=[N+]=[N-])(C(=O)NCCCCNC(=O)c2ccc(-c3c4nc(c(-c5c(F)c(F)c(F)c(F)c5F)c5ccc([nH]5)c(-c5c(F)c(F)c(F)c(F)c5F)c5nc(c(-c6c(F)c(F)c(F)c(F)c6F)c6ccc3[nH]6)C=C5)C=C4)cc2)C(C)(C)O1
REMARK SMILES IDX 15 1 14 2 12 3 13 4 5 6 1 7 2 8 3 9 4 10 88 11 85 12 86 13
REMARK SMILES IDX 87 14 6 15 7 18 8 19 9 20 10 21 11 22 16 23 17 24 18 25
REMARK SMILES IDX 19 26 20 27 21 29 22 30 23 31 84 32 24 33 83 34 25 35 26 36
REMARK SMILES IDX 27 37 77 38 28 39 82 40 76 41 78 42 29 43 81 44 75 45 74 46
REMARK SMILES IDX 30 48 62 49 42 50 61 51 43 52 46 53 60 54 79 55 44 56 45 57
REMARK SMILES IDX 59 59 80 60 47 61 31 62 32 63 40 64 33 65 34 66 38 67 41 68
REMARK SMILES IDX 35 69 36 70 39 71 37 72 63 73 64 74 72 75 65 76 66 77 70 78
REMARK SMILES IDX 73 79 67 80 68 81 71 82 69 83 48 84 49 85 57 86 50 87 51 88
REMARK SMILES IDX 55 89 58 90 52 91 53 92 56 93 54 94
REMARK H PARENT 14 5 6 16 6 17 19 28 78 47 46 58
REMARK Flexibility Score: inf
ROOT
ATOM      1  C   UNL A   1      32.756  29.831  25.759  1.00  0.00     0.116 C 
ENDROOT
BRANCH   1   2
ATOM      2  N   UNL A   1      33.189  29.709  24.383  1.00  0.00    -0.351 N 
ATOM      3  C   UNL A   1      32.918  28.806  23.403  1.00  0.00     0.284 C 
ATOM      4  O   UNL A   1      33.716  28.827  22.454  1.00  0.00    -0.268 OA
ATOM      5  H   UNL A   1      33.803  30.425  24.099  1.00  0.00     0.163 HD
BRANCH   3   6
ATOM      6  C   UNL A   1      31.617  27.935  23.338  1.00  0.00     0.206 C 
ATOM      7  C   UNL A   1      29.917  25.750  25.879  1.00  0.00     0.042 C 
ATOM      8  C   UNL A   1      30.139  26.367  24.496  1.00  0.00     0.070 C 
ATOM      9  C   UNL A   1      28.798  26.418  23.757  1.00  0.00     0.042 C 
ATOM     10  C   UNL A   1      30.852  27.707  24.639  1.00  0.00     0.117 C 
ATOM     11  O   UNL A   1      31.037  25.561  23.731  1.00  0.00    -0.362 OA
ATOM     12  C   UNL A   1      31.986  26.421  23.020  1.00  0.00     0.127 C 
ATOM     13  C   UNL A   1      33.359  25.983  23.567  1.00  0.00     0.049 C 
ATOM     14  C   UNL A   1      31.903  26.045  21.538  1.00  0.00     0.049 C 
BRANCH   6  15
ATOM     15  N   UNL A   1      30.651  28.514  22.336  1.00  0.00    -0.331 N 
ATOM     16  H   UNL A   1      29.942  27.806  22.150  1.00  0.00     0.347 HD
ATOM     17  H   UNL A   1      31.230  28.776  21.538  1.00  0.00     0.347 HD
BRANCH  15  18
ATOM     18  C   UNL A   1      29.950  29.750  22.707  1.00  0.00     0.267 C 
BRANCH  18  19
ATOM     19  C   UNL A   1      28.526  29.774  22.124  1.00  0.00     0.152 C 
BRANCH  19  20
ATOM     20  N   UNL A   1      28.417  30.805  21.077  1.00  0.00    -0.088 NA
ATOM     21  N   UNL A   1      28.201  31.964  21.477  1.00  0.00     0.001 N 
ATOM     22  N   UNL A   1      28.033  33.030  21.835  1.00  0.00    -0.003 NA
ENDBRANCH  19  20
ENDBRANCH  18  19
ENDBRANCH  15  18
ENDBRANCH   6  15
ENDBRANCH   3   6
ENDBRANCH   1   2
BRANCH   1  23
ATOM     23  C   UNL A   1      31.645  30.880  25.860  1.00  0.00     0.023 C 
BRANCH  23  24
ATOM     24  C   UNL A   1      31.706  31.698  27.153  1.00  0.00     0.023 C 
BRANCH  24  25
ATOM     25  C   UNL A   1      32.885  32.660  27.232  1.00  0.00     0.116 C 
BRANCH  25  26
ATOM     26  N   UNL A   1      32.483  34.026  27.532  1.00  0.00    -0.352 N 
ATOM     27  C   UNL A   1      32.972  34.856  28.509  1.00  0.00     0.251 C 
ATOM     28  H   UNL A   1      31.773  34.402  26.963  1.00  0.00     0.163 HD
ATOM     29  O   UNL A   1      32.445  35.938  28.741  1.00  0.00    -0.269 OA
BRANCH  27  30
ATOM     30  C   UNL A   1      34.128  34.400  29.303  1.00  0.00     0.039 A 
ATOM     31  C   UNL A   1      33.899  33.680  30.475  1.00  0.00     0.014 A 
ATOM     32  C   UNL A   1      35.427  34.623  28.841  1.00  0.00     0.014 A 
ATOM     33  C   UNL A   1      34.982  33.126  31.156  1.00  0.00     0.010 A 
ATOM     34  C   UNL A   1      36.494  33.999  29.473  1.00  0.00     0.010 A 
ATOM     35  C   UNL A   1      36.283  33.248  30.638  1.00  0.00    -0.014 A 
BRANCH  35  36
ATOM     36  C   UNL A   1      37.437  32.597  31.306  1.00  0.00     0.031 A 
ATOM     37  C   UNL A   1      38.149  31.458  30.633  1.00  0.00     0.074 A 
ATOM     38  C   UNL A   1      37.802  32.995  32.540  1.00  0.00     0.049 A 
ATOM     39  N   UNL A   1      39.142  30.728  31.073  1.00  0.00    -0.248 NA
ATOM     40  C   UNL A   1      37.662  31.068  29.300  1.00  0.00     0.031 C 
ATOM     41  C   UNL A   1      37.156  34.056  33.313  1.00  0.00     0.029 A 
ATOM     42  N   UNL A   1      38.804  32.548  33.364  1.00  0.00    -0.354 N 
ATOM     43  C   UNL A   1      39.388  29.791  30.078  1.00  0.00     0.074 A 
ATOM     44  C   UNL A   1      38.402  30.001  29.042  1.00  0.00     0.031 C 
ATOM     45  C   UNL A   1      37.796  34.200  34.485  1.00  0.00     0.029 A 
ATOM     46  C   UNL A   1      38.867  33.211  34.565  1.00  0.00     0.049 A 
ATOM     47  H   UNL A   1      39.420  31.820  33.118  1.00  0.00     0.167 HD
ATOM     48  C   UNL A   1      40.367  28.858  30.024  1.00  0.00     0.037 A 
ATOM     49  C   UNL A   1      39.692  33.036  35.615  1.00  0.00     0.037 A 
ATOM     50  C   UNL A   1      41.356  28.665  31.052  1.00  0.00     0.049 A 
ATOM     51  C   UNL A   1      40.756  31.974  35.538  1.00  0.00     0.074 A 
ATOM     52  C   UNL A   1      42.424  27.787  31.068  1.00  0.00     0.029 A 
ATOM     53  N   UNL A   1      41.391  29.359  32.254  1.00  0.00    -0.354 N 
ATOM     54  N   UNL A   1      41.031  31.145  34.560  1.00  0.00    -0.248 NA
ATOM     55  C   UNL A   1      41.631  31.827  36.709  1.00  0.00     0.031 C 
ATOM     56  C   UNL A   1      43.067  27.903  32.304  1.00  0.00     0.029 A 
ATOM     57  C   UNL A   1      42.443  28.904  33.032  1.00  0.00     0.049 A 
ATOM     58  H   UNL A   1      40.761  30.068  32.515  1.00  0.00     0.167 HD
ATOM     59  C   UNL A   1      42.127  30.404  34.982  1.00  0.00     0.074 A 
ATOM     60  C   UNL A   1      42.477  30.894  36.299  1.00  0.00     0.031 C 
ATOM     61  C   UNL A   1      42.785  29.409  34.338  1.00  0.00     0.037 A 
BRANCH  48  62
ATOM     62  C   UNL A   1      40.415  27.969  28.813  1.00  0.00     0.064 A 
ATOM     63  C   UNL A   1      41.149  28.317  27.669  1.00  0.00     0.173 A 
ATOM     64  C   UNL A   1      39.746  26.735  28.810  1.00  0.00     0.173 A 
ATOM     65  F   UNL A   1      41.798  29.490  27.613  1.00  0.00    -0.203 F 
ATOM     66  C   UNL A   1      41.184  27.481  26.556  1.00  0.00     0.198 A 
ATOM     67  C   UNL A   1      39.812  25.885  27.710  1.00  0.00     0.198 A 
ATOM     68  F   UNL A   1      39.033  26.349  29.878  1.00  0.00    -0.203 F 
ATOM     69  F   UNL A   1      41.845  27.862  25.454  1.00  0.00    -0.200 F 
ATOM     70  C   UNL A   1      40.524  26.262  26.581  1.00  0.00     0.200 A 
ATOM     71  F   UNL A   1      39.187  24.700  27.741  1.00  0.00    -0.200 F 
ATOM     72  F   UNL A   1      40.566  25.454  25.512  1.00  0.00    -0.200 F 
ENDBRANCH  48  62
BRANCH  49  73
ATOM     73  C   UNL A   1      39.560  33.897  36.821  1.00  0.00     0.064 A 
ATOM     74  C   UNL A   1      40.213  35.135  36.899  1.00  0.00     0.173 A 
ATOM     75  C   UNL A   1      38.792  33.495  37.925  1.00  0.00     0.173 A 
ATOM     76  F   UNL A   1      40.974  35.556  35.878  1.00  0.00    -0.203 F 
ATOM     77  C   UNL A   1      40.128  35.925  38.044  1.00  0.00     0.198 A 
ATOM     78  C   UNL A   1      38.680  34.302  39.055  1.00  0.00     0.198 A 
ATOM     79  F   UNL A   1      38.141  32.323  37.901  1.00  0.00    -0.203 F 
ATOM     80  F   UNL A   1      40.808  37.077  38.112  1.00  0.00    -0.200 F 
ATOM     81  C   UNL A   1      39.356  35.511  39.119  1.00  0.00     0.200 A 
ATOM     82  F   UNL A   1      37.918  33.905  40.085  1.00  0.00    -0.200 F 
ATOM     83  F   UNL A   1      39.271  36.271  40.218  1.00  0.00    -0.200 F 
ENDBRANCH  49  73
BRANCH  61  84
ATOM     84  C   UNL A   1      43.979  28.810  35.027  1.00  0.00     0.064 A 
ATOM     85  C   UNL A   1      45.271  29.330  34.857  1.00  0.00     0.173 A 
ATOM     86  C   UNL A   1      43.819  27.725  35.904  1.00  0.00     0.173 A 
ATOM     87  F   UNL A   1      45.482  30.357  34.020  1.00  0.00    -0.203 F 
ATOM     88  C   UNL A   1      46.362  28.765  35.514  1.00  0.00     0.198 A 
ATOM     89  C   UNL A   1      44.905  27.189  36.588  1.00  0.00     0.198 A 
ATOM     90  F   UNL A   1      42.603  27.196  36.110  1.00  0.00    -0.203 F 
ATOM     91  F   UNL A   1      47.594  29.242  35.293  1.00  0.00    -0.200 F 
ATOM     92  C   UNL A   1      46.176  27.702  36.386  1.00  0.00     0.200 A 
ATOM     93  F   UNL A   1      44.721  26.174  37.443  1.00  0.00    -0.200 F 
ATOM     94  F   UNL A   1      47.226  27.167  37.025  1.00  0.00    -0.200 F 
ENDBRANCH  61  84
ENDBRANCH  35  36
ENDBRANCH  27  30
ENDBRANCH  25  26
ENDBRANCH  24  25
ENDBRANCH  23  24
ENDBRANCH   1  23
TORSDOF 15
ENDMDL
MODEL 2
REMARK VINA RESULT:     -12.0      0.770      2.381
REMARK SMILES CC1(C)C[C@@]([NH2+]CCN=[N+]=[N-])(C(=O)NCCCCNC(=O)c2ccc(-c3c4nc(c(-c5c(F)c(F)c(F)c(F)c5F)c5ccc([nH]5)c(-c5c(F)c(F)c(F)c(F)c5F)c5nc(c(-c6c(F)c(F)c(F)c(F)c6F)c6ccc3[nH]6)C=C5)C=C4)cc2)C(C)(C)O1
REMARK SMILES IDX 15 1 14 2 12 3 13 4 5 6 1 7 2 8 3 9 4 10 88 11 85 12 86 13
REMARK SMILES IDX 87 14 6 15 7 18 8 19 9 20 10 21 11 22 16 23 17 24 18 25
REMARK SMILES IDX 19 26 20 27 21 29 22 30 23 31 84 32 24 33 83 34 25 35 26 36
REMARK SMILES IDX 27 37 77 38 28 39 82 40 76 41 78 42 29 43 81 44 75 45 74 46
REMARK SMILES IDX 30 48 62 49 42 50 61 51 43 52 46 53 60 54 79 55 44 56 45 57
REMARK SMILES IDX 59 59 80 60 47 61 31 62 32 63 40 64 33 65 34 66 38 67 41 68
REMARK SMILES IDX 35 69 36 70 39 71 37 72 63 73 64 74 72 75 65 76 66 77 70 78
REMARK SMILES IDX 73 79 67 80 68 81 71 82 69 83 48 84 49 85 57 86 50 87 51 88
REMARK SMILES IDX 55 89 58 90 52 91 53 92 56 93 54 94
REMARK H PARENT 14 5 6 16 6 17 19 28 78 47 46 58
REMARK Flexibility Score: inf
ROOT
ATOM      1  C   UNL A   1      31.738  29.570  25.711  1.00  0.00     0.116 C 
ENDROOT
BRANCH   1   2
ATOM      2  N   UNL A   1      31.325  28.226  26.055  1.00  0.00    -0.351 N 
ATOM      3  C   UNL A   1      31.092  27.109  25.313  1.00  0.00     0.284 C 
ATOM      4  O   UNL A   1      30.437  26.235  25.899  1.00  0.00    -0.268 OA
ATOM      5  H   UNL A   1      31.184  28.092  27.021  1.00  0.00     0.163 HD
BRANCH   3   6
ATOM      6  C   UNL A   1      31.739  26.827  23.914  1.00  0.00     0.206 C 
ATOM      7  C   UNL A   1      32.941  23.660  22.286  1.00  0.00     0.042 C 
ATOM      8  C   UNL A   1      32.725  25.171  22.408  1.00  0.00     0.070 C 
ATOM      9  C   UNL A   1      32.650  25.774  21.002  1.00  0.00     0.042 C 
ATOM     10  C   UNL A   1      31.519  25.447  23.298  1.00  0.00     0.117 C 
ATOM     11  O   UNL A   1      33.824  25.776  23.093  1.00  0.00    -0.362 OA
ATOM     12  C   UNL A   1      33.324  26.769  24.045  1.00  0.00     0.127 C 
ATOM     13  C   UNL A   1      33.821  26.252  25.410  1.00  0.00     0.049 C 
ATOM     14  C   UNL A   1      34.035  28.087  23.728  1.00  0.00     0.049 C 
BRANCH   6  15
ATOM     15  N   UNL A   1      31.282  27.854  22.911  1.00  0.00    -0.331 N 
ATOM     16  H   UNL A   1      31.646  27.576  22.001  1.00  0.00     0.347 HD
ATOM     17  H   UNL A   1      31.632  28.743  23.270  1.00  0.00     0.347 HD
BRANCH  15  18
ATOM     18  C   UNL A   1      29.835  28.058  22.762  1.00  0.00     0.267 C 
BRANCH  18  19
ATOM     19  C   UNL A   1      29.492  29.556  22.695  1.00  0.00     0.152 C 
BRANCH  19  20
ATOM     20  N   UNL A   1      29.198  29.955  21.308  1.00  0.00    -0.088 NA
ATOM     21  N   UNL A   1      28.593  31.035  21.170  1.00  0.00     0.001 N 
ATOM     22  N   UNL A   1      28.066  32.033  21.033  1.00  0.00    -0.003 NA
ENDBRANCH  19  20
ENDBRANCH  18  19
ENDBRANCH  15  18
ENDBRANCH   6  15
ENDBRANCH   3   6
ENDBRANCH   1   2
BRANCH   1  23
ATOM     23  C   UNL A   1      32.036  30.360  26.988  1.00  0.00     0.023 C 
BRANCH  23  24
ATOM     24  C   UNL A   1      31.778  31.862  26.840  1.00  0.00     0.023 C 
BRANCH  24  25
ATOM     25  C   UNL A   1      32.934  32.746  27.294  1.00  0.00     0.116 C 
BRANCH  25  26
ATOM     26  N   UNL A   1      32.520  34.104  27.610  1.00  0.00    -0.352 N 
ATOM     27  C   UNL A   1      33.000  34.927  28.598  1.00  0.00     0.251 C 
ATOM     28  H   UNL A   1      31.808  34.481  27.044  1.00  0.00     0.163 HD
ATOM     29  O   UNL A   1      32.463  36.001  28.841  1.00  0.00    -0.269 OA
BRANCH  27  30
ATOM     30  C   UNL A   1      34.157  34.470  29.389  1.00  0.00     0.039 A 
ATOM     31  C   UNL A   1      33.932  33.817  30.601  1.00  0.00     0.014 A 
ATOM     32  C   UNL A   1      35.452  34.626  28.889  1.00  0.00     0.014 A 
ATOM     33  C   UNL A   1      35.011  33.261  31.285  1.00  0.00     0.010 A 
ATOM     34  C   UNL A   1      36.512  33.997  29.528  1.00  0.00     0.010 A 
ATOM     35  C   UNL A   1      36.303  33.312  30.735  1.00  0.00    -0.014 A 
BRANCH  35  36
ATOM     36  C   UNL A   1      37.449  32.656  31.410  1.00  0.00     0.031 A 
ATOM     37  C   UNL A   1      38.160  31.514  30.741  1.00  0.00     0.074 A 
ATOM     38  C   UNL A   1      37.808  33.051  32.646  1.00  0.00     0.049 A 
ATOM     39  N   UNL A   1      39.147  30.779  31.186  1.00  0.00    -0.248 NA
ATOM     40  C   UNL A   1      37.680  31.126  29.405  1.00  0.00     0.031 C 
ATOM     41  C   UNL A   1      37.162  34.116  33.416  1.00  0.00     0.029 A 
ATOM     42  N   UNL A   1      38.803  32.600  33.477  1.00  0.00    -0.354 N 
ATOM     43  C   UNL A   1      39.396  29.841  30.193  1.00  0.00     0.074 A 
ATOM     44  C   UNL A   1      38.417  30.056  29.151  1.00  0.00     0.031 C 
ATOM     45  C   UNL A   1      37.795  34.256  34.591  1.00  0.00     0.029 A 
ATOM     46  C   UNL A   1      38.862  33.262  34.678  1.00  0.00     0.049 A 
ATOM     47  H   UNL A   1      39.417  31.869  33.234  1.00  0.00     0.167 HD
ATOM     48  C   UNL A   1      40.371  28.903  30.145  1.00  0.00     0.037 A 
ATOM     49  C   UNL A   1      39.679  33.083  35.733  1.00  0.00     0.037 A 
ATOM     50  C   UNL A   1      41.352  28.706  31.180  1.00  0.00     0.049 A 
ATOM     51  C   UNL A   1      40.738  32.016  35.662  1.00  0.00     0.074 A 
ATOM     52  C   UNL A   1      42.416  27.823  31.202  1.00  0.00     0.029 A 
ATOM     53  N   UNL A   1      41.382  29.400  32.382  1.00  0.00    -0.354 N 
ATOM     54  N   UNL A   1      41.015  31.186  34.686  1.00  0.00    -0.248 NA
ATOM     55  C   UNL A   1      41.605  31.865  36.839  1.00  0.00     0.031 C 
ATOM     56  C   UNL A   1      43.051  27.935  32.442  1.00  0.00     0.029 A 
ATOM     57  C   UNL A   1      42.427  28.939  33.166  1.00  0.00     0.049 A 
ATOM     58  H   UNL A   1      40.754  30.112  32.639  1.00  0.00     0.167 HD
ATOM     59  C   UNL A   1      42.105  30.440  35.115  1.00  0.00     0.074 A 
ATOM     60  C   UNL A   1      42.449  30.928  36.434  1.00  0.00     0.031 C 
ATOM     61  C   UNL A   1      42.763  29.442  34.475  1.00  0.00     0.037 A 
BRANCH  48  62
ATOM     62  C   UNL A   1      40.422  28.015  28.934  1.00  0.00     0.064 A 
ATOM     63  C   UNL A   1      39.719  26.801  28.878  1.00  0.00     0.173 A 
ATOM     64  C   UNL A   1      41.156  28.398  27.801  1.00  0.00     0.173 A 
ATOM     65  F   UNL A   1      39.011  26.380  29.937  1.00  0.00    -0.203 F 
ATOM     66  C   UNL A   1      39.776  25.990  27.748  1.00  0.00     0.198 A 
ATOM     67  C   UNL A   1      41.181  27.602  26.659  1.00  0.00     0.198 A 
ATOM     68  F   UNL A   1      41.843  29.549  27.797  1.00  0.00    -0.203 F 
ATOM     69  F   UNL A   1      39.143  24.808  27.740  1.00  0.00    -0.200 F 
ATOM     70  C   UNL A   1      40.499  26.395  26.636  1.00  0.00     0.200 A 
ATOM     71  F   UNL A   1      41.868  28.003  25.580  1.00  0.00    -0.200 F 
ATOM     72  F   UNL A   1      40.545  25.618  25.546  1.00  0.00    -0.200 F 
ENDBRANCH  48  62
BRANCH  49  73
ATOM     73  C   UNL A   1      39.543  33.944  36.939  1.00  0.00     0.064 A 
ATOM     74  C   UNL A   1      38.794  33.522  38.046  1.00  0.00     0.173 A 
ATOM     75  C   UNL A   1      40.146  35.209  37.005  1.00  0.00     0.173 A 
ATOM     76  F   UNL A   1      38.183  32.328  38.025  1.00  0.00    -0.203 F 
ATOM     77  C   UNL A   1      38.628  34.342  39.160  1.00  0.00     0.198 A 
ATOM     78  C   UNL A   1      40.007  36.014  38.134  1.00  0.00     0.198 A 
ATOM     79  F   UNL A   1      40.879  35.660  35.976  1.00  0.00    -0.203 F 
ATOM     80  F   UNL A   1      37.861  33.936  40.180  1.00  0.00    -0.200 F 
ATOM     81  C   UNL A   1      39.240  35.586  39.206  1.00  0.00     0.200 A 
ATOM     82  F   UNL A   1      40.616  37.209  38.180  1.00  0.00    -0.200 F 
ATOM     83  F   UNL A   1      39.083  36.373  40.278  1.00  0.00    -0.200 F 
ENDBRANCH  49  73
BRANCH  61  84
ATOM     84  C   UNL A   1      43.950  28.838  35.172  1.00  0.00     0.064 A 
ATOM     85  C   UNL A   1      43.821  27.745  36.042  1.00  0.00     0.173 A 
ATOM     86  C   UNL A   1      45.240  29.336  34.931  1.00  0.00     0.173 A 
ATOM     87  F   UNL A   1      42.610  27.238  36.317  1.00  0.00    -0.203 F 
ATOM     88  C   UNL A   1      44.937  27.195  36.669  1.00  0.00     0.198 A 
ATOM     89  C   UNL A   1      46.356  28.760  35.529  1.00  0.00     0.198 A 
ATOM     90  F   UNL A   1      45.419  30.375  34.100  1.00  0.00    -0.203 F 
ATOM     91  F   UNL A   1      44.784  26.188  37.540  1.00  0.00    -0.200 F 
ATOM     92  C   UNL A   1      46.203  27.696  36.405  1.00  0.00     0.200 A 
ATOM     93  F   UNL A   1      47.579  29.234  35.259  1.00  0.00    -0.200 F 
ATOM     94  F   UNL A   1      47.276  27.158  37.002  1.00  0.00    -0.200 F 
ENDBRANCH  61  84
ENDBRANCH  35  36
ENDBRANCH  27  30
ENDBRANCH  25  26
ENDBRANCH  24  25
ENDBRANCH  23  24
ENDBRANCH   1  23
TORSDOF 15
ENDMDL
MODEL 3
REMARK VINA RESULT:     -11.9      0.972      7.414
REMARK SMILES CC1(C)C[C@@]([NH2+]CCN=[N+]=[N-])(C(=O)NCCCCNC(=O)c2ccc(-c3c4nc(c(-c5c(F)c(F)c(F)c(F)c5F)c5ccc([nH]5)c(-c5c(F)c(F)c(F)c(F)c5F)c5nc(c(-c6c(F)c(F)c(F)c(F)c6F)c6ccc3[nH]6)C=C5)C=C4)cc2)C(C)(C)O1
REMARK SMILES IDX 15 1 14 2 12 3 13 4 5 6 1 7 2 8 3 9 4 10 88 11 85 12 86 13
REMARK SMILES IDX 87 14 6 15 7 18 8 19 9 20 10 21 11 22 16 23 17 24 18 25
REMARK SMILES IDX 19 26 20 27 21 29 22 30 23 31 84 32 24 33 83 34 25 35 26 36
REMARK SMILES IDX 27 37 77 38 28 39 82 40 76 41 78 42 29 43 81 44 75 45 74 46
REMARK SMILES IDX 30 48 62 49 42 50 61 51 43 52 46 53 60 54 79 55 44 56 45 57
REMARK SMILES IDX 59 59 80 60 47 61 31 62 32 63 40 64 33 65 34 66 38 67 41 68
REMARK SMILES IDX 35 69 36 70 39 71 37 72 63 73 64 74 72 75 65 76 66 77 70 78
REMARK SMILES IDX 73 79 67 80 68 81 71 82 69 83 48 84 49 85 57 86 50 87 51 88
REMARK SMILES IDX 55 89 58 90 52 91 53 92 56 93 54 94
REMARK H PARENT 14 5 6 16 6 17 19 28 78 47 46 58
REMARK Flexibility Score: inf
ROOT
ATOM      1  C   UNL A   1      31.720  29.656  25.766  1.00  0.00     0.116 C 
ENDROOT
BRANCH   1   2
ATOM      2  N   UNL A   1      31.340  28.308  26.134  1.00  0.00    -0.351 N 
ATOM      3  C   UNL A   1      31.108  27.180  25.410  1.00  0.00     0.284 C 
ATOM      4  O   UNL A   1      30.486  26.300  26.022  1.00  0.00    -0.268 OA
ATOM      5  H   UNL A   1      31.227  28.183  27.104  1.00  0.00     0.163 HD
BRANCH   3   6
ATOM      6  C   UNL A   1      31.723  26.894  23.997  1.00  0.00     0.206 C 
ATOM      7  C   UNL A   1      32.858  23.720  22.337  1.00  0.00     0.042 C 
ATOM      8  C   UNL A   1      32.660  25.233  22.467  1.00  0.00     0.070 C 
ATOM      9  C   UNL A   1      32.562  25.840  21.064  1.00  0.00     0.042 C 
ATOM     10  C   UNL A   1      31.476  25.519  23.382  1.00  0.00     0.117 C 
ATOM     11  O   UNL A   1      33.779  25.825  23.130  1.00  0.00    -0.362 OA
ATOM     12  C   UNL A   1      33.309  26.821  24.094  1.00  0.00     0.127 C 
ATOM     13  C   UNL A   1      33.830  26.295  25.447  1.00  0.00     0.049 C 
ATOM     14  C   UNL A   1      34.027  28.133  23.766  1.00  0.00     0.049 C 
BRANCH   6  15
ATOM     15  N   UNL A   1      31.255  27.929  23.006  1.00  0.00    -0.331 N 
ATOM     16  H   UNL A   1      31.614  27.660  22.091  1.00  0.00     0.347 HD
ATOM     17  H   UNL A   1      31.603  28.816  23.371  1.00  0.00     0.347 HD
BRANCH  15  18
ATOM     18  C   UNL A   1      29.806  28.129  22.868  1.00  0.00     0.267 C 
BRANCH  18  19
ATOM     19  C   UNL A   1      29.497  29.454  22.151  1.00  0.00     0.152 C 
BRANCH  19  20
ATOM     20  N   UNL A   1      29.356  30.546  23.130  1.00  0.00    -0.088 NA
ATOM     21  N   UNL A   1      28.190  30.841  23.451  1.00  0.00     0.001 N 
ATOM     22  N   UNL A   1      27.129  31.098  23.771  1.00  0.00    -0.003 NA
ENDBRANCH  19  20
ENDBRANCH  18  19
ENDBRANCH  15  18
ENDBRANCH   6  15
ENDBRANCH   3   6
ENDBRANCH   1   2
BRANCH   1  23
ATOM     23  C   UNL A   1      31.958  30.488  27.029  1.00  0.00     0.023 C 
BRANCH  23  24
ATOM     24  C   UNL A   1      31.721  31.986  26.816  1.00  0.00     0.023 C 
BRANCH  24  25
ATOM     25  C   UNL A   1      32.911  32.867  27.177  1.00  0.00     0.116 C 
BRANCH  25  26
ATOM     26  N   UNL A   1      32.520  34.197  27.619  1.00  0.00    -0.352 N 
ATOM     27  C   UNL A   1      33.025  34.923  28.668  1.00  0.00     0.251 C 
ATOM     28  H   UNL A   1      31.804  34.630  27.100  1.00  0.00     0.163 HD
ATOM     29  O   UNL A   1      32.506  35.977  29.014  1.00  0.00    -0.269 OA
BRANCH  27  30
ATOM     30  C   UNL A   1      34.189  34.385  29.397  1.00  0.00     0.039 A 
ATOM     31  C   UNL A   1      33.973  33.623  30.545  1.00  0.00     0.014 A 
ATOM     32  C   UNL A   1      35.479  34.576  28.895  1.00  0.00     0.014 A 
ATOM     33  C   UNL A   1      35.056  32.996  31.159  1.00  0.00     0.010 A 
ATOM     34  C   UNL A   1      36.541  33.881  29.458  1.00  0.00     0.010 A 
ATOM     35  C   UNL A   1      36.340  33.088  30.598  1.00  0.00    -0.014 A 
BRANCH  35  36
ATOM     36  C   UNL A   1      37.490  32.362  31.192  1.00  0.00     0.031 A 
ATOM     37  C   UNL A   1      37.993  32.742  32.556  1.00  0.00     0.074 A 
ATOM     38  C   UNL A   1      38.112  31.404  30.479  1.00  0.00     0.049 A 
ATOM     39  N   UNL A   1      39.012  32.264  33.225  1.00  0.00    -0.248 NA
ATOM     40  C   UNL A   1      37.274  33.822  33.251  1.00  0.00     0.031 C 
ATOM     41  C   UNL A   1      37.745  30.982  29.126  1.00  0.00     0.029 A 
ATOM     42  N   UNL A   1      39.190  30.614  30.791  1.00  0.00    -0.354 N 
ATOM     43  C   UNL A   1      39.060  32.991  34.407  1.00  0.00     0.074 A 
ATOM     44  C   UNL A   1      38.011  33.984  34.338  1.00  0.00     0.031 C 
ATOM     45  C   UNL A   1      38.562  29.992  28.736  1.00  0.00     0.029 A 
ATOM     46  C   UNL A   1      39.539  29.739  29.792  1.00  0.00     0.049 A 
ATOM     47  H   UNL A   1      39.669  30.670  31.650  1.00  0.00     0.167 HD
ATOM     48  C   UNL A   1      39.888  32.825  35.465  1.00  0.00     0.037 A 
ATOM     49  C   UNL A   1      40.539  28.839  29.731  1.00  0.00     0.037 A 
ATOM     50  C   UNL A   1      40.920  31.824  35.532  1.00  0.00     0.049 A 
ATOM     51  C   UNL A   1      41.461  28.693  30.913  1.00  0.00     0.074 A 
ATOM     52  C   UNL A   1      41.774  31.535  36.580  1.00  0.00     0.029 A 
ATOM     53  N   UNL A   1      41.242  30.951  34.501  1.00  0.00    -0.354 N 
ATOM     54  N   UNL A   1      41.449  29.332  32.058  1.00  0.00    -0.248 NA
ATOM     55  C   UNL A   1      42.533  27.696  30.796  1.00  0.00     0.031 C 
ATOM     56  C   UNL A   1      42.655  30.533  36.162  1.00  0.00     0.029 A 
ATOM     57  C   UNL A   1      42.305  30.147  34.879  1.00  0.00     0.049 A 
ATOM     58  H   UNL A   1      40.784  30.911  33.631  1.00  0.00     0.167 HD
ATOM     59  C   UNL A   1      42.485  28.792  32.809  1.00  0.00     0.074 A 
ATOM     60  C   UNL A   1      43.095  27.761  31.994  1.00  0.00     0.031 C 
ATOM     61  C   UNL A   1      42.895  29.118  34.059  1.00  0.00     0.037 A 
BRANCH  48  62
ATOM     62  C   UNL A   1      39.715  33.751  36.635  1.00  0.00     0.064 A 
ATOM     63  C   UNL A   1      40.334  35.011  36.679  1.00  0.00     0.173 A 
ATOM     64  C   UNL A   1      38.891  33.391  37.713  1.00  0.00     0.173 A 
ATOM     65  F   UNL A   1      41.142  35.402  35.682  1.00  0.00    -0.203 F 
ATOM     66  C   UNL A   1      40.163  35.857  37.771  1.00  0.00     0.198 A 
ATOM     67  C   UNL A   1      38.693  34.255  38.786  1.00  0.00     0.198 A 
ATOM     68  F   UNL A   1      38.271  32.202  37.722  1.00  0.00    -0.203 F 
ATOM     69  F   UNL A   1      40.810  37.030  37.816  1.00  0.00    -0.200 F 
ATOM     70  C   UNL A   1      39.335  35.483  38.818  1.00  0.00     0.200 A 
ATOM     71  F   UNL A   1      37.880  33.898  39.790  1.00  0.00    -0.200 F 
ATOM     72  F   UNL A   1      39.164  36.303  39.864  1.00  0.00    -0.200 F 
ENDBRANCH  48  62
BRANCH  49  73
ATOM     73  C   UNL A   1      40.712  27.993  28.521  1.00  0.00     0.064 A 
ATOM     74  C   UNL A   1      41.477  28.436  27.433  1.00  0.00     0.173 A 
ATOM     75  C   UNL A   1      40.106  26.731  28.419  1.00  0.00     0.173 A 
ATOM     76  F   UNL A   1      42.062  29.642  27.474  1.00  0.00    -0.203 F 
ATOM     77  C   UNL A   1      41.606  27.665  26.280  1.00  0.00     0.198 A 
ATOM     78  C   UNL A   1      40.264  25.947  27.278  1.00  0.00     0.198 A 
ATOM     79  F   UNL A   1      39.368  26.255  29.433  1.00  0.00    -0.203 F 
ATOM     80  F   UNL A   1      42.297  28.139  25.235  1.00  0.00    -0.200 F 
ATOM     81  C   UNL A   1      41.004  26.418  26.205  1.00  0.00     0.200 A 
ATOM     82  F   UNL A   1      39.694  24.734  27.218  1.00  0.00    -0.200 F 
ATOM     83  F   UNL A   1      41.131  25.676  25.098  1.00  0.00    -0.200 F 
ENDBRANCH  49  73
BRANCH  61  84
ATOM     84  C   UNL A   1      44.029  28.325  34.644  1.00  0.00     0.064 A 
ATOM     85  C   UNL A   1      45.363  28.746  34.535  1.00  0.00     0.173 A 
ATOM     86  C   UNL A   1      43.771  27.145  35.360  1.00  0.00     0.173 A 
ATOM     87  F   UNL A   1      45.666  29.859  33.849  1.00  0.00    -0.203 F 
ATOM     88  C   UNL A   1      46.398  28.000  35.094  1.00  0.00     0.198 A 
ATOM     89  C   UNL A   1      44.804  26.423  35.951  1.00  0.00     0.198 A 
ATOM     90  F   UNL A   1      42.513  26.702  35.503  1.00  0.00    -0.203 F 
ATOM     91  F   UNL A   1      47.669  28.391  34.929  1.00  0.00    -0.200 F 
ATOM     92  C   UNL A   1      46.117  26.845  35.809  1.00  0.00     0.200 A 
ATOM     93  F   UNL A   1      44.528  25.317  36.656  1.00  0.00    -0.200 F 
ATOM     94  F   UNL A   1      47.113  26.134  36.354  1.00  0.00    -0.200 F 
ENDBRANCH  61  84
ENDBRANCH  35  36
ENDBRANCH  27  30
ENDBRANCH  25  26
ENDBRANCH  24  25
ENDBRANCH  23  24
ENDBRANCH   1  23
TORSDOF 15
ENDMDL
