MODEL 1
REMARK VINA RESULT:     -12.7      0.000      0.000
REMARK SMILES C[C@H]1CN(S(=O)(=O)N2CCO[C@H](CC(=O)NCCCCNC(=O)c3ccc(-c4c5nc(c(-c6c(F)c(F)c(F)c(F)c6F)c6ccc([nH]6)c(-c6c(F)c(F)c(F)c(F)c6F)c6nc(c(-c7c(F)c(F)c(F)c(F)c7F)c7ccc4[nH]7)C=C6)C=C5)cc3)C2)C[C@H](C)O1
REMARK SMILES IDX 18 1 17 2 16 3 14 4 15 5 13 7 12 8 8 9 9 10 87 11 10 12
REMARK SMILES IDX 11 13 5 14 6 15 7 16 4 17 1 18 2 19 3 20 91 21 89 22 88 23
REMARK SMILES IDX 90 24 19 25 20 26 21 27 22 28 23 30 24 31 25 32 86 33 26 34
REMARK SMILES IDX 85 35 27 36 28 37 29 38 79 39 30 40 84 41 78 42 80 43 31 44
REMARK SMILES IDX 83 45 77 46 76 47 32 49 64 50 44 51 63 52 45 53 48 54 62 55
REMARK SMILES IDX 81 56 46 57 47 58 61 60 82 61 49 62 33 63 34 64 42 65 35 66
REMARK SMILES IDX 36 67 40 68 43 69 37 70 38 71 41 72 39 73 65 74 66 75 74 76
REMARK SMILES IDX 67 77 68 78 72 79 75 80 69 81 70 82 73 83 71 84 50 85 51 86
REMARK SMILES IDX 59 87 52 88 53 89 57 90 60 91 54 92 55 93 58 94 56 95
REMARK H PARENT 16 6 21 29 80 48 48 59
REMARK Flexibility Score: inf
ROOT
ATOM      1  C   UNL A   1      32.009  30.491  26.534  1.00  0.00     0.023 C 
ENDROOT
BRANCH   1   2
ATOM      2  C   UNL A   1      31.469  29.886  25.226  1.00  0.00     0.116 C 
BRANCH   2   3
ATOM      3  N   UNL A   1      32.497  29.682  24.217  1.00  0.00    -0.356 N 
ATOM      4  C   UNL A   1      33.386  28.696  23.954  1.00  0.00     0.222 C 
ATOM      5  O   UNL A   1      34.118  28.867  22.974  1.00  0.00    -0.275 OA
ATOM      6  H   UNL A   1      32.559  30.432  23.583  1.00  0.00     0.163 HD
BRANCH   4   7
ATOM      7  C   UNL A   1      33.436  27.382  24.691  1.00  0.00     0.133 C 
BRANCH   7   8
ATOM      8  C   UNL A   1      32.584  26.207  24.255  1.00  0.00     0.142 C 
ATOM      9  N   UNL A   1      31.836  24.446  22.815  1.00  0.00    -0.184 NA
ATOM     10  C   UNL A   1      30.569  24.253  23.542  1.00  0.00     0.132 C 
ATOM     11  C   UNL A   1      32.154  25.921  22.847  1.00  0.00     0.136 C 
ATOM     12  C   UNL A   1      30.761  24.735  24.987  1.00  0.00     0.177 C 
ATOM     13  O   UNL A   1      31.461  26.000  25.146  1.00  0.00    -0.375 OA
BRANCH   9  14
ATOM     14  S   UNL A   1      32.959  23.181  22.863  1.00  0.00     0.282 S 
ATOM     15  O   UNL A   1      33.955  23.404  21.842  1.00  0.00    -0.195 OA
ATOM     16  O   UNL A   1      32.177  21.967  22.834  1.00  0.00    -0.195 OA
BRANCH  14  17
ATOM     17  N   UNL A   1      33.837  23.104  24.362  1.00  0.00    -0.184 NA
ATOM     18  C   UNL A   1      37.495  23.662  25.551  1.00  0.00     0.040 C 
ATOM     19  C   UNL A   1      36.029  23.254  25.728  1.00  0.00     0.130 C 
ATOM     20  C   UNL A   1      35.263  23.578  24.442  1.00  0.00     0.135 C 
ATOM     21  O   UNL A   1      35.952  21.870  26.047  1.00  0.00    -0.373 OA
ATOM     22  C   UNL A   1      34.584  21.436  26.136  1.00  0.00     0.130 C 
ATOM     23  C   UNL A   1      33.861  21.631  24.795  1.00  0.00     0.135 C 
ATOM     24  C   UNL A   1      33.843  22.103  27.292  1.00  0.00     0.040 C 
ENDBRANCH  14  17
ENDBRANCH   9  14
ENDBRANCH   7   8
ENDBRANCH   4   7
ENDBRANCH   2   3
ENDBRANCH   1   2
BRANCH   1  25
ATOM     25  C   UNL A   1      31.676  31.950  26.766  1.00  0.00     0.023 C 
BRANCH  25  26
ATOM     26  C   UNL A   1      32.829  32.658  27.430  1.00  0.00     0.116 C 
BRANCH  26  27
ATOM     27  N   UNL A   1      32.535  34.078  27.614  1.00  0.00    -0.352 N 
ATOM     28  C   UNL A   1      32.977  34.920  28.603  1.00  0.00     0.251 C 
ATOM     29  H   UNL A   1      31.942  34.483  26.941  1.00  0.00     0.163 HD
ATOM     30  O   UNL A   1      32.447  36.005  28.803  1.00  0.00    -0.269 OA
BRANCH  28  31
ATOM     31  C   UNL A   1      34.107  34.468  29.428  1.00  0.00     0.039 A 
ATOM     32  C   UNL A   1      33.865  33.868  30.662  1.00  0.00     0.014 A 
ATOM     33  C   UNL A   1      35.401  34.566  28.913  1.00  0.00     0.014 A 
ATOM     34  C   UNL A   1      34.933  33.304  31.355  1.00  0.00     0.010 A 
ATOM     35  C   UNL A   1      36.428  33.879  29.530  1.00  0.00     0.010 A 
ATOM     36  C   UNL A   1      36.212  33.271  30.773  1.00  0.00    -0.014 A 
BRANCH  36  37
ATOM     37  C   UNL A   1      37.364  32.650  31.462  1.00  0.00     0.031 A 
ATOM     38  C   UNL A   1      38.080  31.502  30.804  1.00  0.00     0.074 A 
ATOM     39  C   UNL A   1      37.711  33.069  32.693  1.00  0.00     0.049 A 
ATOM     40  N   UNL A   1      39.051  30.760  31.265  1.00  0.00    -0.248 NA
ATOM     41  C   UNL A   1      37.614  31.109  29.462  1.00  0.00     0.031 C 
ATOM     42  C   UNL A   1      37.045  34.132  33.448  1.00  0.00     0.029 A 
ATOM     43  N   UNL A   1      38.711  32.644  33.529  1.00  0.00    -0.354 N 
ATOM     44  C   UNL A   1      39.293  29.809  30.282  1.00  0.00     0.074 A 
ATOM     45  C   UNL A   1      38.319  30.013  29.236  1.00  0.00     0.031 C 
ATOM     46  C   UNL A   1      37.677  34.301  34.621  1.00  0.00     0.029 A 
ATOM     47  C   UNL A   1      38.760  33.328  34.719  1.00  0.00     0.049 A 
ATOM     48  H   UNL A   1      39.334  31.918  33.299  1.00  0.00     0.167 HD
ATOM     49  C   UNL A   1      40.270  28.875  30.238  1.00  0.00     0.037 A 
ATOM     50  C   UNL A   1      39.588  33.177  35.770  1.00  0.00     0.037 A 
ATOM     51  C   UNL A   1      41.256  28.705  31.270  1.00  0.00     0.049 A 
ATOM     52  C   UNL A   1      40.661  32.122  35.698  1.00  0.00     0.074 A 
ATOM     53  C   UNL A   1      42.325  27.830  31.305  1.00  0.00     0.029 A 
ATOM     54  N   UNL A   1      41.291  29.433  32.451  1.00  0.00    -0.354 N 
ATOM     55  N   UNL A   1      40.931  31.279  34.730  1.00  0.00    -0.248 NA
ATOM     56  C   UNL A   1      41.549  32.003  36.861  1.00  0.00     0.031 C 
ATOM     57  C   UNL A   1      42.974  27.988  32.532  1.00  0.00     0.029 A 
ATOM     58  C   UNL A   1      42.350  29.008  33.234  1.00  0.00     0.049 A 
ATOM     59  H   UNL A   1      40.656  30.144  32.696  1.00  0.00     0.167 HD
ATOM     60  C   UNL A   1      42.039  30.556  35.152  1.00  0.00     0.074 A 
ATOM     61  C   UNL A   1      42.400  31.073  36.456  1.00  0.00     0.031 C 
ATOM     62  C   UNL A   1      42.697  29.552  34.521  1.00  0.00     0.037 A 
BRANCH  49  63
ATOM     63  C   UNL A   1      40.326  27.980  29.034  1.00  0.00     0.064 A 
ATOM     64  C   UNL A   1      41.070  28.323  27.895  1.00  0.00     0.173 A 
ATOM     65  C   UNL A   1      39.657  26.748  29.032  1.00  0.00     0.173 A 
ATOM     66  F   UNL A   1      41.716  29.499  27.836  1.00  0.00    -0.203 F 
ATOM     67  C   UNL A   1      41.121  27.478  26.789  1.00  0.00     0.198 A 
ATOM     68  C   UNL A   1      39.738  25.889  27.939  1.00  0.00     0.198 A 
ATOM     69  F   UNL A   1      38.930  26.371  30.095  1.00  0.00    -0.203 F 
ATOM     70  F   UNL A   1      41.795  27.853  25.692  1.00  0.00    -0.200 F 
ATOM     71  C   UNL A   1      40.463  26.259  26.816  1.00  0.00     0.200 A 
ATOM     72  F   UNL A   1      39.113  24.704  27.972  1.00  0.00    -0.200 F 
ATOM     73  F   UNL A   1      40.524  25.440  25.757  1.00  0.00    -0.200 F 
ENDBRANCH  49  63
BRANCH  50  74
ATOM     74  C   UNL A   1      39.453  34.051  36.966  1.00  0.00     0.064 A 
ATOM     75  C   UNL A   1      40.069  35.309  37.014  1.00  0.00     0.173 A 
ATOM     76  C   UNL A   1      38.728  33.640  38.095  1.00  0.00     0.173 A 
ATOM     77  F   UNL A   1      40.787  35.743  35.966  1.00  0.00    -0.203 F 
ATOM     78  C   UNL A   1      39.999  36.105  38.155  1.00  0.00     0.198 A 
ATOM     79  C   UNL A   1      38.629  34.451  39.223  1.00  0.00     0.198 A 
ATOM     80  F   UNL A   1      38.109  32.450  38.100  1.00  0.00    -0.203 F 
ATOM     81  F   UNL A   1      40.652  37.274  38.195  1.00  0.00    -0.200 F 
ATOM     82  C   UNL A   1      39.275  35.677  39.258  1.00  0.00     0.200 A 
ATOM     83  F   UNL A   1      37.913  34.042  40.280  1.00  0.00    -0.200 F 
ATOM     84  F   UNL A   1      39.210  36.440  40.357  1.00  0.00    -0.200 F 
ENDBRANCH  50  74
BRANCH  62  85
ATOM     85  C   UNL A   1      43.904  28.983  35.210  1.00  0.00     0.064 A 
ATOM     86  C   UNL A   1      43.809  27.890  36.084  1.00  0.00     0.173 A 
ATOM     87  C   UNL A   1      45.178  29.512  34.952  1.00  0.00     0.173 A 
ATOM     88  F   UNL A   1      42.613  27.357  36.372  1.00  0.00    -0.203 F 
ATOM     89  C   UNL A   1      44.943  27.370  36.702  1.00  0.00     0.198 A 
ATOM     90  C   UNL A   1      46.313  28.964  35.542  1.00  0.00     0.198 A 
ATOM     91  F   UNL A   1      45.324  30.549  34.115  1.00  0.00    -0.203 F 
ATOM     92  F   UNL A   1      44.823  26.362  37.577  1.00  0.00    -0.200 F 
ATOM     93  C   UNL A   1      46.194  27.900  36.423  1.00  0.00     0.200 A 
ATOM     94  F   UNL A   1      47.523  29.466  35.255  1.00  0.00    -0.200 F 
ATOM     95  F   UNL A   1      47.286  27.391  37.009  1.00  0.00    -0.200 F 
ENDBRANCH  62  85
ENDBRANCH  36  37
ENDBRANCH  28  31
ENDBRANCH  26  27
ENDBRANCH  25  26
ENDBRANCH   1  25
TORSDOF 14
ENDMDL
MODEL 2
REMARK VINA RESULT:     -12.7      0.185      1.586
REMARK SMILES C[C@H]1CN(S(=O)(=O)N2CCO[C@H](CC(=O)NCCCCNC(=O)c3ccc(-c4c5nc(c(-c6c(F)c(F)c(F)c(F)c6F)c6ccc([nH]6)c(-c6c(F)c(F)c(F)c(F)c6F)c6nc(c(-c7c(F)c(F)c(F)c(F)c7F)c7ccc4[nH]7)C=C6)C=C5)cc3)C2)C[C@H](C)O1
REMARK SMILES IDX 18 1 17 2 16 3 14 4 15 5 13 7 12 8 8 9 9 10 87 11 10 12
REMARK SMILES IDX 11 13 5 14 6 15 7 16 4 17 1 18 2 19 3 20 91 21 89 22 88 23
REMARK SMILES IDX 90 24 19 25 20 26 21 27 22 28 23 30 24 31 25 32 86 33 26 34
REMARK SMILES IDX 85 35 27 36 28 37 29 38 79 39 30 40 84 41 78 42 80 43 31 44
REMARK SMILES IDX 83 45 77 46 76 47 32 49 64 50 44 51 63 52 45 53 48 54 62 55
REMARK SMILES IDX 81 56 46 57 47 58 61 60 82 61 49 62 33 63 34 64 42 65 35 66
REMARK SMILES IDX 36 67 40 68 43 69 37 70 38 71 41 72 39 73 65 74 66 75 74 76
REMARK SMILES IDX 67 77 68 78 72 79 75 80 69 81 70 82 73 83 71 84 50 85 51 86
REMARK SMILES IDX 59 87 52 88 53 89 57 90 60 91 54 92 55 93 58 94 56 95
REMARK H PARENT 16 6 21 29 80 48 48 59
REMARK Flexibility Score: inf
ROOT
ATOM      1  C   UNL A   1      31.950  30.521  26.576  1.00  0.00     0.023 C 
ENDROOT
BRANCH   1   2
ATOM      2  C   UNL A   1      31.448  29.898  25.262  1.00  0.00     0.116 C 
BRANCH   2   3
ATOM      3  N   UNL A   1      32.507  29.666  24.292  1.00  0.00    -0.356 N 
ATOM      4  C   UNL A   1      33.404  28.673  24.085  1.00  0.00     0.222 C 
ATOM      5  O   UNL A   1      34.167  28.816  23.124  1.00  0.00    -0.275 OA
ATOM      6  H   UNL A   1      32.590  30.397  23.639  1.00  0.00     0.163 HD
BRANCH   4   7
ATOM      7  C   UNL A   1      33.430  27.380  24.860  1.00  0.00     0.133 C 
BRANCH   7   8
ATOM      8  C   UNL A   1      32.625  26.179  24.406  1.00  0.00     0.142 C 
ATOM      9  N   UNL A   1      31.914  24.439  22.922  1.00  0.00    -0.184 NA
ATOM     10  C   UNL A   1      30.690  24.149  23.688  1.00  0.00     0.132 C 
ATOM     11  C   UNL A   1      32.154  25.928  23.005  1.00  0.00     0.136 C 
ATOM     12  C   UNL A   1      30.913  24.581  25.143  1.00  0.00     0.177 C 
ATOM     13  O   UNL A   1      31.551  25.875  25.330  1.00  0.00    -0.375 OA
BRANCH   9  14
ATOM     14  S   UNL A   1      33.103  23.237  22.874  1.00  0.00     0.282 S 
ATOM     15  O   UNL A   1      34.123  23.628  21.928  1.00  0.00    -0.195 OA
ATOM     16  O   UNL A   1      32.392  21.997  22.672  1.00  0.00    -0.195 OA
BRANCH  14  17
ATOM     17  N   UNL A   1      33.929  23.031  24.390  1.00  0.00    -0.184 NA
ATOM     18  C   UNL A   1      37.608  22.839  25.626  1.00  0.00     0.040 C 
ATOM     19  C   UNL A   1      36.087  22.761  25.791  1.00  0.00     0.130 C 
ATOM     20  C   UNL A   1      35.422  23.192  24.480  1.00  0.00     0.135 C 
ATOM     21  O   UNL A   1      35.712  21.438  26.156  1.00  0.00    -0.373 OA
ATOM     22  C   UNL A   1      34.282  21.310  26.235  1.00  0.00     0.130 C 
ATOM     23  C   UNL A   1      33.631  21.605  24.875  1.00  0.00     0.135 C 
ATOM     24  C   UNL A   1      33.689  22.164  27.353  1.00  0.00     0.040 C 
ENDBRANCH  14  17
ENDBRANCH   9  14
ENDBRANCH   7   8
ENDBRANCH   4   7
ENDBRANCH   2   3
ENDBRANCH   1   2
BRANCH   1  25
ATOM     25  C   UNL A   1      31.659  31.997  26.751  1.00  0.00     0.023 C 
BRANCH  25  26
ATOM     26  C   UNL A   1      32.790  32.678  27.480  1.00  0.00     0.116 C 
BRANCH  26  27
ATOM     27  N   UNL A   1      32.530  34.108  27.631  1.00  0.00    -0.352 N 
ATOM     28  C   UNL A   1      32.995  34.963  28.598  1.00  0.00     0.251 C 
ATOM     29  H   UNL A   1      31.943  34.511  26.951  1.00  0.00     0.163 HD
ATOM     30  O   UNL A   1      32.491  36.065  28.774  1.00  0.00    -0.269 OA
BRANCH  28  31
ATOM     31  C   UNL A   1      34.118  34.505  29.428  1.00  0.00     0.039 A 
ATOM     32  C   UNL A   1      33.868  33.931  30.673  1.00  0.00     0.014 A 
ATOM     33  C   UNL A   1      35.413  34.569  28.908  1.00  0.00     0.014 A 
ATOM     34  C   UNL A   1      34.928  33.360  31.374  1.00  0.00     0.010 A 
ATOM     35  C   UNL A   1      36.429  33.875  29.536  1.00  0.00     0.010 A 
ATOM     36  C   UNL A   1      36.205  33.293  30.789  1.00  0.00    -0.014 A 
BRANCH  36  37
ATOM     37  C   UNL A   1      37.347  32.664  31.487  1.00  0.00     0.031 A 
ATOM     38  C   UNL A   1      38.054  31.506  30.838  1.00  0.00     0.074 A 
ATOM     39  C   UNL A   1      37.691  33.084  32.719  1.00  0.00     0.049 A 
ATOM     40  N   UNL A   1      39.015  30.756  31.307  1.00  0.00    -0.248 NA
ATOM     41  C   UNL A   1      37.591  31.112  29.495  1.00  0.00     0.031 C 
ATOM     42  C   UNL A   1      37.032  34.156  33.466  1.00  0.00     0.029 A 
ATOM     43  N   UNL A   1      38.682  32.652  33.562  1.00  0.00    -0.354 N 
ATOM     44  C   UNL A   1      39.253  29.799  30.329  1.00  0.00     0.074 A 
ATOM     45  C   UNL A   1      38.287  30.008  29.277  1.00  0.00     0.031 C 
ATOM     46  C   UNL A   1      37.660  34.323  34.641  1.00  0.00     0.029 A 
ATOM     47  C   UNL A   1      38.732  33.341  34.749  1.00  0.00     0.049 A 
ATOM     48  H   UNL A   1      39.299  31.919  33.338  1.00  0.00     0.167 HD
ATOM     49  C   UNL A   1      40.221  28.855  30.293  1.00  0.00     0.037 A 
ATOM     50  C   UNL A   1      39.553  33.185  35.805  1.00  0.00     0.037 A 
ATOM     51  C   UNL A   1      41.200  28.679  31.331  1.00  0.00     0.049 A 
ATOM     52  C   UNL A   1      40.615  32.119  35.743  1.00  0.00     0.074 A 
ATOM     53  C   UNL A   1      42.260  27.794  31.375  1.00  0.00     0.029 A 
ATOM     54  N   UNL A   1      41.235  29.411  32.510  1.00  0.00    -0.354 N 
ATOM     55  N   UNL A   1      40.882  31.270  34.780  1.00  0.00    -0.248 NA
ATOM     56  C   UNL A   1      41.496  31.996  36.911  1.00  0.00     0.031 C 
ATOM     57  C   UNL A   1      42.904  27.950  32.606  1.00  0.00     0.029 A 
ATOM     58  C   UNL A   1      42.286  28.978  33.300  1.00  0.00     0.049 A 
ATOM     59  H   UNL A   1      40.606  30.129  32.748  1.00  0.00     0.167 HD
ATOM     60  C   UNL A   1      41.980  30.537  35.210  1.00  0.00     0.074 A 
ATOM     61  C   UNL A   1      42.340  31.055  36.514  1.00  0.00     0.031 C 
ATOM     62  C   UNL A   1      42.632  29.525  34.587  1.00  0.00     0.037 A 
BRANCH  49  63
ATOM     63  C   UNL A   1      40.274  27.955  29.093  1.00  0.00     0.064 A 
ATOM     64  C   UNL A   1      39.574  26.740  29.051  1.00  0.00     0.173 A 
ATOM     65  C   UNL A   1      41.005  28.328  27.955  1.00  0.00     0.173 A 
ATOM     66  F   UNL A   1      38.873  26.325  30.119  1.00  0.00    -0.203 F 
ATOM     67  C   UNL A   1      39.624  25.920  27.928  1.00  0.00     0.198 A 
ATOM     68  C   UNL A   1      41.024  27.523  26.820  1.00  0.00     0.198 A 
ATOM     69  F   UNL A   1      41.694  29.479  27.941  1.00  0.00    -0.203 F 
ATOM     70  F   UNL A   1      38.990  24.739  27.933  1.00  0.00    -0.200 F 
ATOM     71  C   UNL A   1      40.341  26.317  26.810  1.00  0.00     0.200 A 
ATOM     72  F   UNL A   1      41.707  27.914  25.735  1.00  0.00    -0.200 F 
ATOM     73  F   UNL A   1      40.378  25.534  25.723  1.00  0.00    -0.200 F 
ENDBRANCH  49  63
BRANCH  50  74
ATOM     74  C   UNL A   1      39.420  34.065  36.997  1.00  0.00     0.064 A 
ATOM     75  C   UNL A   1      40.024  35.329  37.032  1.00  0.00     0.173 A 
ATOM     76  C   UNL A   1      38.710  33.653  38.135  1.00  0.00     0.173 A 
ATOM     77  F   UNL A   1      40.728  35.763  35.974  1.00  0.00    -0.203 F 
ATOM     78  C   UNL A   1      39.956  36.131  38.169  1.00  0.00     0.198 A 
ATOM     79  C   UNL A   1      38.613  34.471  39.260  1.00  0.00     0.198 A 
ATOM     80  F   UNL A   1      38.103  32.457  38.154  1.00  0.00    -0.203 F 
ATOM     81  F   UNL A   1      40.598  37.308  38.195  1.00  0.00    -0.200 F 
ATOM     82  C   UNL A   1      39.247  35.703  39.281  1.00  0.00     0.200 A 
ATOM     83  F   UNL A   1      37.911  34.060  40.325  1.00  0.00    -0.200 F 
ATOM     84  F   UNL A   1      39.185  36.472  40.376  1.00  0.00    -0.200 F 
ENDBRANCH  50  74
BRANCH  62  85
ATOM     85  C   UNL A   1      43.830  28.946  35.284  1.00  0.00     0.064 A 
ATOM     86  C   UNL A   1      45.124  29.438  35.061  1.00  0.00     0.173 A 
ATOM     87  C   UNL A   1      43.669  27.915  36.223  1.00  0.00     0.173 A 
ATOM     88  F   UNL A   1      45.331  30.414  34.165  1.00  0.00    -0.203 F 
ATOM     89  C   UNL A   1      46.218  28.895  35.729  1.00  0.00     0.198 A 
ATOM     90  C   UNL A   1      44.761  27.402  36.917  1.00  0.00     0.198 A 
ATOM     91  F   UNL A   1      42.450  27.418  36.481  1.00  0.00    -0.203 F 
ATOM     92  F   UNL A   1      47.453  29.342  35.459  1.00  0.00    -0.200 F 
ATOM     93  C   UNL A   1      46.035  27.885  36.662  1.00  0.00     0.200 A 
ATOM     94  F   UNL A   1      44.578  26.440  37.832  1.00  0.00    -0.200 F 
ATOM     95  F   UNL A   1      47.089  27.372  37.312  1.00  0.00    -0.200 F 
ENDBRANCH  62  85
ENDBRANCH  36  37
ENDBRANCH  28  31
ENDBRANCH  26  27
ENDBRANCH  25  26
ENDBRANCH   1  25
TORSDOF 14
ENDMDL
MODEL 3
REMARK VINA RESULT:     -12.6      0.967      2.107
REMARK SMILES C[C@H]1CN(S(=O)(=O)N2CCO[C@H](CC(=O)NCCCCNC(=O)c3ccc(-c4c5nc(c(-c6c(F)c(F)c(F)c(F)c6F)c6ccc([nH]6)c(-c6c(F)c(F)c(F)c(F)c6F)c6nc(c(-c7c(F)c(F)c(F)c(F)c7F)c7ccc4[nH]7)C=C6)C=C5)cc3)C2)C[C@H](C)O1
REMARK SMILES IDX 18 1 17 2 16 3 14 4 15 5 13 7 12 8 8 9 9 10 87 11 10 12
REMARK SMILES IDX 11 13 5 14 6 15 7 16 4 17 1 18 2 19 3 20 91 21 89 22 88 23
REMARK SMILES IDX 90 24 19 25 20 26 21 27 22 28 23 30 24 31 25 32 86 33 26 34
REMARK SMILES IDX 85 35 27 36 28 37 29 38 79 39 30 40 84 41 78 42 80 43 31 44
REMARK SMILES IDX 83 45 77 46 76 47 32 49 64 50 44 51 63 52 45 53 48 54 62 55
REMARK SMILES IDX 81 56 46 57 47 58 61 60 82 61 49 62 33 63 34 64 42 65 35 66
REMARK SMILES IDX 36 67 40 68 43 69 37 70 38 71 41 72 39 73 65 74 66 75 74 76
REMARK SMILES IDX 67 77 68 78 72 79 75 80 69 81 70 82 73 83 71 84 50 85 51 86
REMARK SMILES IDX 59 87 52 88 53 89 57 90 60 91 54 92 55 93 58 94 56 95
REMARK H PARENT 16 6 21 29 80 48 48 59
REMARK Flexibility Score: inf
ROOT
ATOM      1  C   UNL A   1      31.813  30.600  26.765  1.00  0.00     0.023 C 
ENDROOT
BRANCH   1   2
ATOM      2  C   UNL A   1      31.993  30.056  25.337  1.00  0.00     0.116 C 
BRANCH   2   3
ATOM      3  N   UNL A   1      30.770  30.089  24.549  1.00  0.00    -0.356 N 
ATOM      4  C   UNL A   1      30.326  29.424  23.457  1.00  0.00     0.222 C 
ATOM      5  O   UNL A   1      29.193  29.716  23.061  1.00  0.00    -0.275 OA
ATOM      6  H   UNL A   1      30.118  30.744  24.888  1.00  0.00     0.163 HD
BRANCH   4   7
ATOM      7  C   UNL A   1      31.066  28.287  22.800  1.00  0.00     0.133 C 
BRANCH   7   8
ATOM      8  C   UNL A   1      31.234  26.954  23.500  1.00  0.00     0.142 C 
ATOM      9  N   UNL A   1      31.831  24.646  23.725  1.00  0.00    -0.184 NA
ATOM     10  C   UNL A   1      31.080  24.471  24.980  1.00  0.00     0.132 C 
ATOM     11  C   UNL A   1      31.050  25.609  22.864  1.00  0.00     0.136 C 
ATOM     12  C   UNL A   1      30.960  25.836  25.669  1.00  0.00     0.177 C 
ATOM     13  O   UNL A   1      30.606  26.953  24.805  1.00  0.00    -0.375 OA
BRANCH   9  14
ATOM     14  S   UNL A   1      33.516  24.518  23.804  1.00  0.00     0.282 S 
ATOM     15  O   UNL A   1      33.994  25.322  24.905  1.00  0.00    -0.195 OA
ATOM     16  O   UNL A   1      33.989  24.798  22.469  1.00  0.00    -0.195 OA
BRANCH  14  17
ATOM     17  N   UNL A   1      34.064  22.902  24.137  1.00  0.00    -0.184 NA
ATOM     18  C   UNL A   1      32.527  19.333  24.217  1.00  0.00     0.040 C 
ATOM     19  C   UNL A   1      33.640  20.366  24.425  1.00  0.00     0.130 C 
ATOM     20  C   UNL A   1      33.170  21.719  23.882  1.00  0.00     0.135 C 
ATOM     21  O   UNL A   1      33.971  20.443  25.805  1.00  0.00    -0.373 OA
ATOM     22  C   UNL A   1      34.953  21.466  26.045  1.00  0.00     0.130 C 
ATOM     23  C   UNL A   1      34.418  22.845  25.631  1.00  0.00     0.135 C 
ATOM     24  C   UNL A   1      36.291  21.146  25.381  1.00  0.00     0.040 C 
ENDBRANCH  14  17
ENDBRANCH   9  14
ENDBRANCH   7   8
ENDBRANCH   4   7
ENDBRANCH   2   3
ENDBRANCH   1   2
BRANCH   1  25
ATOM     25  C   UNL A   1      31.578  32.093  26.870  1.00  0.00     0.023 C 
BRANCH  25  26
ATOM     26  C   UNL A   1      32.795  32.782  27.434  1.00  0.00     0.116 C 
BRANCH  26  27
ATOM     27  N   UNL A   1      32.548  34.211  27.621  1.00  0.00    -0.352 N 
ATOM     28  C   UNL A   1      33.024  35.039  28.606  1.00  0.00     0.251 C 
ATOM     29  H   UNL A   1      31.962  34.635  26.952  1.00  0.00     0.163 HD
ATOM     30  O   UNL A   1      32.530  36.140  28.810  1.00  0.00    -0.269 OA
BRANCH  28  31
ATOM     31  C   UNL A   1      34.146  34.551  29.421  1.00  0.00     0.039 A 
ATOM     32  C   UNL A   1      33.894  33.938  30.647  1.00  0.00     0.014 A 
ATOM     33  C   UNL A   1      35.441  34.629  28.904  1.00  0.00     0.014 A 
ATOM     34  C   UNL A   1      34.952  33.342  31.329  1.00  0.00     0.010 A 
ATOM     35  C   UNL A   1      36.455  33.912  29.509  1.00  0.00     0.010 A 
ATOM     36  C   UNL A   1      36.228  33.290  30.743  1.00  0.00    -0.014 A 
BRANCH  36  37
ATOM     37  C   UNL A   1      37.369  32.636  31.420  1.00  0.00     0.031 A 
ATOM     38  C   UNL A   1      38.073  31.497  30.734  1.00  0.00     0.074 A 
ATOM     39  C   UNL A   1      37.714  33.015  32.665  1.00  0.00     0.049 A 
ATOM     40  N   UNL A   1      39.032  30.729  31.179  1.00  0.00    -0.248 NA
ATOM     41  C   UNL A   1      37.609  31.148  29.379  1.00  0.00     0.031 C 
ATOM     42  C   UNL A   1      37.058  34.065  33.446  1.00  0.00     0.029 A 
ATOM     43  N   UNL A   1      38.704  32.554  33.493  1.00  0.00    -0.354 N 
ATOM     44  C   UNL A   1      39.267  29.803  30.171  1.00  0.00     0.074 A 
ATOM     45  C   UNL A   1      38.301  30.049  29.126  1.00  0.00     0.031 C 
ATOM     46  C   UNL A   1      37.686  34.192  34.626  1.00  0.00     0.029 A 
ATOM     47  C   UNL A   1      38.756  33.204  34.703  1.00  0.00     0.049 A 
ATOM     48  H   UNL A   1      39.319  31.826  33.246  1.00  0.00     0.167 HD
ATOM     49  C   UNL A   1      40.232  28.859  30.105  1.00  0.00     0.037 A 
ATOM     50  C   UNL A   1      39.576  33.012  35.753  1.00  0.00     0.037 A 
ATOM     51  C   UNL A   1      41.210  28.647  31.137  1.00  0.00     0.049 A 
ATOM     52  C   UNL A   1      40.635  31.945  35.657  1.00  0.00     0.074 A 
ATOM     53  C   UNL A   1      42.268  27.757  31.152  1.00  0.00     0.029 A 
ATOM     54  N   UNL A   1      41.248  29.341  32.338  1.00  0.00    -0.354 N 
ATOM     55  N   UNL A   1      40.900  31.127  34.667  1.00  0.00    -0.248 NA
ATOM     56  C   UNL A   1      41.516  31.782  36.820  1.00  0.00     0.031 C 
ATOM     57  C   UNL A   1      42.912  27.872  32.387  1.00  0.00     0.029 A 
ATOM     58  C   UNL A   1      42.297  28.880  33.114  1.00  0.00     0.049 A 
ATOM     59  H   UNL A   1      40.621  30.053  32.600  1.00  0.00     0.167 HD
ATOM     60  C   UNL A   1      41.996  30.378  35.073  1.00  0.00     0.074 A 
ATOM     61  C   UNL A   1      42.357  30.853  36.393  1.00  0.00     0.031 C 
ATOM     62  C   UNL A   1      42.645  29.383  34.418  1.00  0.00     0.037 A 
BRANCH  49  63
ATOM     63  C   UNL A   1      40.283  27.997  28.877  1.00  0.00     0.064 A 
ATOM     64  C   UNL A   1      41.015  28.376  27.741  1.00  0.00     0.173 A 
ATOM     65  C   UNL A   1      39.622  26.761  28.847  1.00  0.00     0.173 A 
ATOM     66  F   UNL A   1      41.652  29.557  27.708  1.00  0.00    -0.203 F 
ATOM     67  C   UNL A   1      41.061  27.562  26.612  1.00  0.00     0.198 A 
ATOM     68  C   UNL A   1      39.699  25.933  27.730  1.00  0.00     0.198 A 
ATOM     69  F   UNL A   1      38.907  26.350  29.905  1.00  0.00    -0.203 F 
ATOM     70  F   UNL A   1      41.723  27.971  25.520  1.00  0.00    -0.200 F 
ATOM     71  C   UNL A   1      40.412  26.338  26.612  1.00  0.00     0.200 A 
ATOM     72  F   UNL A   1      39.082  24.743  27.736  1.00  0.00    -0.200 F 
ATOM     73  F   UNL A   1      40.468  25.548  25.530  1.00  0.00    -0.200 F 
ENDBRANCH  49  63
BRANCH  50  74
ATOM     74  C   UNL A   1      39.445  33.853  36.972  1.00  0.00     0.064 A 
ATOM     75  C   UNL A   1      38.717  33.405  38.083  1.00  0.00     0.173 A 
ATOM     76  C   UNL A   1      40.021  35.130  37.046  1.00  0.00     0.173 A 
ATOM     77  F   UNL A   1      38.133  32.197  38.058  1.00  0.00    -0.203 F 
ATOM     78  C   UNL A   1      38.538  34.215  39.204  1.00  0.00     0.198 A 
ATOM     79  C   UNL A   1      39.872  35.925  38.181  1.00  0.00     0.198 A 
ATOM     80  F   UNL A   1      40.738  35.605  36.016  1.00  0.00    -0.203 F 
ATOM     81  F   UNL A   1      37.783  33.784  40.224  1.00  0.00    -0.200 F 
ATOM     82  C   UNL A   1      39.119  35.472  39.253  1.00  0.00     0.200 A 
ATOM     83  F   UNL A   1      40.451  37.133  38.231  1.00  0.00    -0.200 F 
ATOM     84  F   UNL A   1      38.944  36.252  40.328  1.00  0.00    -0.200 F 
ENDBRANCH  50  74
BRANCH  62  85
ATOM     85  C   UNL A   1      43.840  28.779  35.097  1.00  0.00     0.064 A 
ATOM     86  C   UNL A   1      45.129  29.310  34.935  1.00  0.00     0.173 A 
ATOM     87  C   UNL A   1      43.683  27.681  35.956  1.00  0.00     0.173 A 
ATOM     88  F   UNL A   1      45.332  30.352  34.115  1.00  0.00    -0.203 F 
ATOM     89  C   UNL A   1      46.221  28.743  35.584  1.00  0.00     0.198 A 
ATOM     90  C   UNL A   1      44.772  27.140  36.633  1.00  0.00     0.198 A 
ATOM     91  F   UNL A   1      42.471  27.144  36.153  1.00  0.00    -0.203 F 
ATOM     92  F   UNL A   1      47.451  29.231  35.372  1.00  0.00    -0.200 F 
ATOM     93  C   UNL A   1      46.041  27.665  36.440  1.00  0.00     0.200 A 
ATOM     94  F   UNL A   1      44.592  26.113  37.474  1.00  0.00    -0.200 F 
ATOM     95  F   UNL A   1      47.092  27.127  37.073  1.00  0.00    -0.200 F 
ENDBRANCH  62  85
ENDBRANCH  36  37
ENDBRANCH  28  31
ENDBRANCH  26  27
ENDBRANCH  25  26
ENDBRANCH   1  25
TORSDOF 14
ENDMDL
