MODEL 1
REMARK VINA RESULT:     -12.5      0.000      0.000
REMARK SMILES COc1ccc2cc([C@H](C)C(=O)NCCCCNC(=O)c3ccc(-c4c5nc(c(-c6c(F)c(F)c(F)c(F)c6F)c6ccc([nH]6)c(-c6c(F)c(F)c(F)c(F)c6F)c6nc(c(-c7c(F)c(F)c(F)c(F)c7F)c7ccc4[nH]7)C=C6)C=C5)cc3)ccc2c1
REMARK SMILES IDX 15 1 14 2 13 3 11 4 12 5 9 7 10 8 8 9 3 10 4 11 87 12 5 13
REMARK SMILES IDX 86 14 6 15 85 16 7 17 84 18 2 19 1 20 16 21 17 22 18 23
REMARK SMILES IDX 19 24 20 26 21 27 22 28 83 29 23 30 82 31 24 32 25 33 26 34
REMARK SMILES IDX 76 35 27 36 81 37 75 38 77 39 28 40 80 41 74 42 73 43 29 45
REMARK SMILES IDX 61 46 41 47 60 48 42 49 45 50 59 51 78 52 43 53 44 54 58 56
REMARK SMILES IDX 79 57 46 58 30 59 31 60 39 61 32 62 33 63 37 64 40 65 34 66
REMARK SMILES IDX 35 67 38 68 36 69 62 70 63 71 71 72 64 73 65 74 69 75 72 76
REMARK SMILES IDX 66 77 67 78 70 79 68 80 47 81 48 82 56 83 49 84 50 85 54 86
REMARK SMILES IDX 57 87 51 88 52 89 55 90 53 91
REMARK H PARENT 13 6 18 25 77 44 45 55
REMARK Flexibility Score: inf
ROOT
ATOM      1  C   UNL A   1      31.568  27.971  27.033  1.00  0.00     0.023 C 
ENDROOT
BRANCH   1   2
ATOM      2  C   UNL A   1      32.189  26.676  26.527  1.00  0.00     0.116 C 
BRANCH   2   3
ATOM      3  N   UNL A   1      31.289  25.543  26.585  1.00  0.00    -0.356 N 
ATOM      4  C   UNL A   1      30.908  24.655  25.623  1.00  0.00     0.227 C 
ATOM      5  O   UNL A   1      30.298  23.654  26.019  1.00  0.00    -0.274 OA
ATOM      6  H   UNL A   1      30.883  25.386  27.468  1.00  0.00     0.163 HD
BRANCH   4   7
ATOM      7  C   UNL A   1      31.183  24.849  24.126  1.00  0.00     0.105 C 
ATOM      8  C   UNL A   1      30.720  23.690  23.241  1.00  0.00     0.023 C 
BRANCH   7   9
ATOM      9  C   UNL A   1      30.819  26.213  23.551  1.00  0.00    -0.035 A 
ATOM     10  C   UNL A   1      28.457  30.536  22.263  1.00  0.00     0.119 A 
ATOM     11  C   UNL A   1      27.483  29.732  22.848  1.00  0.00     0.047 A 
ATOM     12  C   UNL A   1      29.757  30.058  22.117  1.00  0.00     0.055 A 
ATOM     13  C   UNL A   1      27.822  28.461  23.328  1.00  0.00     0.012 A 
ATOM     14  C   UNL A   1      30.105  28.787  22.591  1.00  0.00    -0.015 A 
ATOM     15  C   UNL A   1      29.135  27.976  23.215  1.00  0.00    -0.018 A 
ATOM     16  C   UNL A   1      31.405  28.306  22.445  1.00  0.00     0.009 A 
ATOM     17  C   UNL A   1      29.508  26.703  23.697  1.00  0.00     0.013 A 
ATOM     18  C   UNL A   1      31.749  27.035  22.906  1.00  0.00     0.005 A 
BRANCH  10  19
ATOM     19  O   UNL A   1      28.210  31.776  21.743  1.00  0.00    -0.497 OA
ATOM     20  C   UNL A   1      27.820  31.742  20.373  1.00  0.00     0.278 C 
ENDBRANCH  10  19
ENDBRANCH   7   9
ENDBRANCH   4   7
ENDBRANCH   2   3
ENDBRANCH   1   2
BRANCH   1  21
ATOM     21  C   UNL A   1      31.567  29.125  26.028  1.00  0.00     0.023 C 
BRANCH  21  22
ATOM     22  C   UNL A   1      32.821  29.995  26.001  1.00  0.00     0.116 C 
BRANCH  22  23
ATOM     23  N   UNL A   1      32.607  31.348  26.497  1.00  0.00    -0.352 N 
ATOM     24  C   UNL A   1      33.383  32.096  27.350  1.00  0.00     0.251 C 
ATOM     25  H   UNL A   1      31.788  31.789  26.175  1.00  0.00     0.163 HD
ATOM     26  O   UNL A   1      33.004  33.201  27.726  1.00  0.00    -0.269 OA
BRANCH  24  27
ATOM     27  C   UNL A   1      34.657  31.543  27.854  1.00  0.00     0.039 A 
ATOM     28  C   UNL A   1      35.724  32.415  28.077  1.00  0.00     0.014 A 
ATOM     29  C   UNL A   1      34.779  30.183  28.149  1.00  0.00     0.014 A 
ATOM     30  C   UNL A   1      36.887  31.939  28.686  1.00  0.00     0.010 A 
ATOM     31  C   UNL A   1      35.909  29.726  28.821  1.00  0.00     0.010 A 
ATOM     32  C   UNL A   1      36.969  30.602  29.107  1.00  0.00    -0.014 A 
BRANCH  32  33
ATOM     33  C   UNL A   1      38.147  30.103  29.862  1.00  0.00     0.031 A 
ATOM     34  C   UNL A   1      38.410  30.593  31.258  1.00  0.00     0.074 A 
ATOM     35  C   UNL A   1      39.015  29.260  29.266  1.00  0.00     0.049 A 
ATOM     36  N   UNL A   1      39.427  30.344  32.044  1.00  0.00    -0.248 NA
ATOM     37  C   UNL A   1      37.411  31.504  31.836  1.00  0.00     0.031 C 
ATOM     38  C   UNL A   1      38.893  28.744  27.901  1.00  0.00     0.029 A 
ATOM     39  N   UNL A   1      40.177  28.698  29.730  1.00  0.00    -0.354 N 
ATOM     40  C   UNL A   1      39.192  31.073  33.203  1.00  0.00     0.074 A 
ATOM     41  C   UNL A   1      37.970  31.817  32.996  1.00  0.00     0.031 C 
ATOM     42  C   UNL A   1      39.925  27.923  27.649  1.00  0.00     0.029 A 
ATOM     43  C   UNL A   1      40.800  27.884  28.816  1.00  0.00     0.049 A 
ATOM     44  H   UNL A   1      40.532  28.862  30.634  1.00  0.00     0.167 HD
ATOM     45  C   UNL A   1      39.918  31.099  34.346  1.00  0.00     0.037 A 
ATOM     46  C   UNL A   1      41.950  27.189  28.908  1.00  0.00     0.037 A 
ATOM     47  C   UNL A   1      41.122  30.342  34.560  1.00  0.00     0.049 A 
ATOM     48  C   UNL A   1      42.744  27.250  30.185  1.00  0.00     0.074 A 
ATOM     49  C   UNL A   1      41.911  30.276  35.696  1.00  0.00     0.029 A 
ATOM     50  N   UNL A   1      41.712  29.514  33.616  1.00  0.00    -0.354 N 
ATOM     51  N   UNL A   1      42.486  27.902  31.291  1.00  0.00    -0.248 NA
ATOM     52  C   UNL A   1      43.992  26.472  30.225  1.00  0.00     0.031 C 
ATOM     53  C   UNL A   1      42.995  29.433  35.429  1.00  0.00     0.029 A 
ATOM     54  C   UNL A   1      42.858  28.941  34.140  1.00  0.00     0.049 A 
ATOM     55  H   UNL A   1      41.365  29.357  32.708  1.00  0.00     0.167 HD
ATOM     56  C   UNL A   1      43.514  27.589  32.169  1.00  0.00     0.074 A 
ATOM     57  C   UNL A   1      44.397  26.678  31.470  1.00  0.00     0.031 C 
ATOM     58  C   UNL A   1      43.712  28.018  33.439  1.00  0.00     0.037 A 
BRANCH  45  59
ATOM     59  C   UNL A   1      39.414  31.963  35.464  1.00  0.00     0.064 A 
ATOM     60  C   UNL A   1      39.754  33.322  35.546  1.00  0.00     0.173 A 
ATOM     61  C   UNL A   1      38.554  31.442  36.442  1.00  0.00     0.173 A 
ATOM     62  F   UNL A   1      40.585  33.865  34.643  1.00  0.00    -0.203 F 
ATOM     63  C   UNL A   1      39.274  34.121  36.580  1.00  0.00     0.198 A 
ATOM     64  C   UNL A   1      38.052  32.251  37.458  1.00  0.00     0.198 A 
ATOM     65  F   UNL A   1      38.193  30.150  36.407  1.00  0.00    -0.203 F 
ATOM     66  F   UNL A   1      39.649  35.405  36.663  1.00  0.00    -0.200 F 
ATOM     67  C   UNL A   1      38.418  33.587  37.531  1.00  0.00     0.200 A 
ATOM     68  F   UNL A   1      37.214  31.736  38.370  1.00  0.00    -0.200 F 
ATOM     69  F   UNL A   1      37.948  34.358  38.520  1.00  0.00    -0.200 F 
ENDBRANCH  45  59
BRANCH  46  70
ATOM     70  C   UNL A   1      42.413  26.349  27.772  1.00  0.00     0.064 A 
ATOM     71  C   UNL A   1      43.364  26.836  26.864  1.00  0.00     0.173 A 
ATOM     72  C   UNL A   1      41.898  25.064  27.551  1.00  0.00     0.173 A 
ATOM     73  F   UNL A   1      43.869  28.069  27.020  1.00  0.00    -0.203 F 
ATOM     74  C   UNL A   1      43.763  26.080  25.763  1.00  0.00     0.198 A 
ATOM     75  C   UNL A   1      42.318  24.297  26.466  1.00  0.00     0.198 A 
ATOM     76  F   UNL A   1      40.988  24.551  28.392  1.00  0.00    -0.203 F 
ATOM     77  F   UNL A   1      44.633  26.592  24.883  1.00  0.00    -0.200 F 
ATOM     78  C   UNL A   1      43.243  24.810  25.568  1.00  0.00     0.200 A 
ATOM     79  F   UNL A   1      41.822  23.065  26.286  1.00  0.00    -0.200 F 
ATOM     80  F   UNL A   1      43.623  24.084  24.508  1.00  0.00    -0.200 F 
ENDBRANCH  46  70
BRANCH  58  81
ATOM     81  C   UNL A   1      44.900  27.469  34.173  1.00  0.00     0.064 A 
ATOM     82  C   UNL A   1      46.133  28.137  34.183  1.00  0.00     0.173 A 
ATOM     83  C   UNL A   1      44.790  26.278  34.906  1.00  0.00     0.173 A 
ATOM     84  F   UNL A   1      46.292  29.271  33.483  1.00  0.00    -0.203 F 
ATOM     85  C   UNL A   1      47.221  27.618  34.880  1.00  0.00     0.198 A 
ATOM     86  C   UNL A   1      45.871  25.777  35.626  1.00  0.00     0.198 A 
ATOM     87  F   UNL A   1      43.629  25.605  34.933  1.00  0.00    -0.203 F 
ATOM     88  F   UNL A   1      48.402  28.248  34.838  1.00  0.00    -0.200 F 
ATOM     89  C   UNL A   1      47.086  26.444  35.606  1.00  0.00     0.200 A 
ATOM     90  F   UNL A   1      45.736  24.649  36.335  1.00  0.00    -0.200 F 
ATOM     91  F   UNL A   1      48.134  25.949  36.282  1.00  0.00    -0.200 F 
ENDBRANCH  58  81
ENDBRANCH  32  33
ENDBRANCH  24  27
ENDBRANCH  22  23
ENDBRANCH  21  22
ENDBRANCH   1  21
TORSDOF 13
ENDMDL
MODEL 2
REMARK VINA RESULT:     -12.5      0.436      7.490
REMARK SMILES COc1ccc2cc([C@H](C)C(=O)NCCCCNC(=O)c3ccc(-c4c5nc(c(-c6c(F)c(F)c(F)c(F)c6F)c6ccc([nH]6)c(-c6c(F)c(F)c(F)c(F)c6F)c6nc(c(-c7c(F)c(F)c(F)c(F)c7F)c7ccc4[nH]7)C=C6)C=C5)cc3)ccc2c1
REMARK SMILES IDX 15 1 14 2 13 3 11 4 12 5 9 7 10 8 8 9 3 10 4 11 87 12 5 13
REMARK SMILES IDX 86 14 6 15 85 16 7 17 84 18 2 19 1 20 16 21 17 22 18 23
REMARK SMILES IDX 19 24 20 26 21 27 22 28 83 29 23 30 82 31 24 32 25 33 26 34
REMARK SMILES IDX 76 35 27 36 81 37 75 38 77 39 28 40 80 41 74 42 73 43 29 45
REMARK SMILES IDX 61 46 41 47 60 48 42 49 45 50 59 51 78 52 43 53 44 54 58 56
REMARK SMILES IDX 79 57 46 58 30 59 31 60 39 61 32 62 33 63 37 64 40 65 34 66
REMARK SMILES IDX 35 67 38 68 36 69 62 70 63 71 71 72 64 73 65 74 69 75 72 76
REMARK SMILES IDX 66 77 67 78 70 79 68 80 47 81 48 82 56 83 49 84 50 85 54 86
REMARK SMILES IDX 57 87 51 88 52 89 55 90 53 91
REMARK H PARENT 13 6 18 25 77 44 45 55
REMARK Flexibility Score: inf
ROOT
ATOM      1  C   UNL A   1      31.528  27.843  27.018  1.00  0.00     0.023 C 
ENDROOT
BRANCH   1   2
ATOM      2  C   UNL A   1      32.210  26.516  26.719  1.00  0.00     0.116 C 
BRANCH   2   3
ATOM      3  N   UNL A   1      31.314  25.380  26.772  1.00  0.00    -0.356 N 
ATOM      4  C   UNL A   1      30.969  24.468  25.819  1.00  0.00     0.227 C 
ATOM      5  O   UNL A   1      30.350  23.474  26.217  1.00  0.00    -0.274 OA
ATOM      6  H   UNL A   1      30.878  25.242  27.644  1.00  0.00     0.163 HD
BRANCH   4   7
ATOM      7  C   UNL A   1      31.295  24.628  24.328  1.00  0.00     0.105 C 
ATOM      8  C   UNL A   1      30.950  23.409  23.470  1.00  0.00     0.023 C 
BRANCH   7   9
ATOM      9  C   UNL A   1      30.867  25.942  23.687  1.00  0.00    -0.035 A 
ATOM     10  C   UNL A   1      28.317  30.103  22.233  1.00  0.00     0.119 A 
ATOM     11  C   UNL A   1      27.391  29.305  22.899  1.00  0.00     0.047 A 
ATOM     12  C   UNL A   1      29.627  29.659  22.068  1.00  0.00     0.055 A 
ATOM     13  C   UNL A   1      27.789  28.077  23.441  1.00  0.00     0.012 A 
ATOM     14  C   UNL A   1      30.033  28.430  22.604  1.00  0.00    -0.015 A 
ATOM     15  C   UNL A   1      29.113  27.627  23.309  1.00  0.00    -0.018 A 
ATOM     16  C   UNL A   1      31.344  27.983  22.440  1.00  0.00     0.009 A 
ATOM     17  C   UNL A   1      29.545  26.399  23.851  1.00  0.00     0.013 A 
ATOM     18  C   UNL A   1      31.745  26.753  22.962  1.00  0.00     0.005 A 
BRANCH  10  19
ATOM     19  O   UNL A   1      28.011  31.301  21.650  1.00  0.00    -0.497 OA
ATOM     20  C   UNL A   1      28.621  32.413  22.300  1.00  0.00     0.278 C 
ENDBRANCH  10  19
ENDBRANCH   7   9
ENDBRANCH   4   7
ENDBRANCH   2   3
ENDBRANCH   1   2
BRANCH   1  21
ATOM     21  C   UNL A   1      31.674  28.908  25.928  1.00  0.00     0.023 C 
BRANCH  21  22
ATOM     22  C   UNL A   1      32.909  29.799  26.018  1.00  0.00     0.116 C 
BRANCH  22  23
ATOM     23  N   UNL A   1      32.623  31.157  26.460  1.00  0.00    -0.352 N 
ATOM     24  C   UNL A   1      33.346  31.971  27.299  1.00  0.00     0.251 C 
ATOM     25  H   UNL A   1      31.790  31.546  26.108  1.00  0.00     0.163 HD
ATOM     26  O   UNL A   1      32.908  33.070  27.628  1.00  0.00    -0.269 OA
BRANCH  24  27
ATOM     27  C   UNL A   1      34.634  31.498  27.845  1.00  0.00     0.039 A 
ATOM     28  C   UNL A   1      35.678  32.414  27.990  1.00  0.00     0.014 A 
ATOM     29  C   UNL A   1      34.793  30.173  28.258  1.00  0.00     0.014 A 
ATOM     30  C   UNL A   1      36.853  32.024  28.634  1.00  0.00     0.010 A 
ATOM     31  C   UNL A   1      35.935  29.805  28.964  1.00  0.00     0.010 A 
ATOM     32  C   UNL A   1      36.971  30.730  29.170  1.00  0.00    -0.014 A 
BRANCH  32  33
ATOM     33  C   UNL A   1      38.162  30.330  29.962  1.00  0.00     0.031 A 
ATOM     34  C   UNL A   1      39.150  29.351  29.394  1.00  0.00     0.074 A 
ATOM     35  C   UNL A   1      38.318  30.797  31.217  1.00  0.00     0.049 A 
ATOM     36  N   UNL A   1      40.201  28.813  29.960  1.00  0.00    -0.248 NA
ATOM     37  C   UNL A   1      38.910  28.896  28.016  1.00  0.00     0.031 C 
ATOM     38  C   UNL A   1      37.407  31.720  31.897  1.00  0.00     0.029 A 
ATOM     39  N   UNL A   1      39.295  30.551  32.148  1.00  0.00    -0.354 N 
ATOM     40  C   UNL A   1      40.740  27.953  29.012  1.00  0.00     0.074 A 
ATOM     41  C   UNL A   1      39.870  27.996  27.858  1.00  0.00     0.031 C 
ATOM     42  C   UNL A   1      37.881  31.981  33.126  1.00  0.00     0.029 A 
ATOM     43  C   UNL A   1      39.106  31.216  33.335  1.00  0.00     0.049 A 
ATOM     44  H   UNL A   1      40.059  29.953  31.982  1.00  0.00     0.167 HD
ATOM     45  C   UNL A   1      41.872  27.214  29.089  1.00  0.00     0.037 A 
ATOM     46  C   UNL A   1      39.836  31.204  34.467  1.00  0.00     0.037 A 
ATOM     47  C   UNL A   1      42.749  27.188  30.229  1.00  0.00     0.049 A 
ATOM     48  C   UNL A   1      41.081  30.359  34.529  1.00  0.00     0.074 A 
ATOM     49  C   UNL A   1      43.937  26.495  30.390  1.00  0.00     0.029 A 
ATOM     50  N   UNL A   1      42.533  27.889  31.406  1.00  0.00    -0.354 N 
ATOM     51  N   UNL A   1      41.607  29.591  33.608  1.00  0.00    -0.248 NA
ATOM     52  C   UNL A   1      41.835  30.386  35.791  1.00  0.00     0.031 C 
ATOM     53  C   UNL A   1      44.424  26.753  31.675  1.00  0.00     0.029 A 
ATOM     54  C   UNL A   1      43.560  27.639  32.300  1.00  0.00     0.049 A 
ATOM     55  H   UNL A   1      41.762  28.477  31.580  1.00  0.00     0.167 HD
ATOM     56  C   UNL A   1      42.768  29.070  34.163  1.00  0.00     0.074 A 
ATOM     57  C   UNL A   1      42.876  29.620  35.498  1.00  0.00     0.031 C 
ATOM     58  C   UNL A   1      43.664  28.213  33.617  1.00  0.00     0.037 A 
BRANCH  45  59
ATOM     59  C   UNL A   1      42.238  26.386  27.893  1.00  0.00     0.064 A 
ATOM     60  C   UNL A   1      41.675  25.117  27.685  1.00  0.00     0.173 A 
ATOM     61  C   UNL A   1      43.128  26.876  26.925  1.00  0.00     0.173 A 
ATOM     62  F   UNL A   1      40.830  24.598  28.587  1.00  0.00    -0.203 F 
ATOM     63  C   UNL A   1      42.011  24.358  26.567  1.00  0.00     0.198 A 
ATOM     64  C   UNL A   1      43.438  26.126  25.794  1.00  0.00     0.198 A 
ATOM     65  F   UNL A   1      43.689  28.085  27.074  1.00  0.00    -0.203 F 
ATOM     66  F   UNL A   1      41.496  23.130  26.413  1.00  0.00    -0.200 F 
ATOM     67  C   UNL A   1      42.886  24.866  25.619  1.00  0.00     0.200 A 
ATOM     68  F   UNL A   1      44.274  26.624  24.871  1.00  0.00    -0.200 F 
ATOM     69  F   UNL A   1      43.201  24.140  24.537  1.00  0.00    -0.200 F 
ENDBRANCH  45  59
BRANCH  46  70
ATOM     70  C   UNL A   1      39.432  32.038  35.630  1.00  0.00     0.064 A 
ATOM     71  C   UNL A   1      38.537  31.542  36.589  1.00  0.00     0.173 A 
ATOM     72  C   UNL A   1      39.903  33.349  35.792  1.00  0.00     0.173 A 
ATOM     73  F   UNL A   1      38.042  30.302  36.464  1.00  0.00    -0.203 F 
ATOM     74  C   UNL A   1      38.108  32.335  37.652  1.00  0.00     0.198 A 
ATOM     75  C   UNL A   1      39.495  34.131  36.871  1.00  0.00     0.198 A 
ATOM     76  F   UNL A   1      40.763  33.868  34.904  1.00  0.00    -0.203 F 
ATOM     77  F   UNL A   1      37.212  31.853  38.523  1.00  0.00    -0.200 F 
ATOM     78  C   UNL A   1      38.591  33.626  37.793  1.00  0.00     0.200 A 
ATOM     79  F   UNL A   1      39.972  35.375  37.012  1.00  0.00    -0.200 F 
ATOM     80  F   UNL A   1      38.175  34.390  38.813  1.00  0.00    -0.200 F 
ENDBRANCH  46  70
BRANCH  58  81
ATOM     81  C   UNL A   1      44.865  27.856  34.442  1.00  0.00     0.064 A 
ATOM     82  C   UNL A   1      46.042  28.619  34.398  1.00  0.00     0.173 A 
ATOM     83  C   UNL A   1      44.824  26.758  35.315  1.00  0.00     0.173 A 
ATOM     84  F   UNL A   1      46.135  29.668  33.567  1.00  0.00    -0.203 F 
ATOM     85  C   UNL A   1      47.142  28.280  35.180  1.00  0.00     0.198 A 
ATOM     86  C   UNL A   1      45.916  26.439  36.116  1.00  0.00     0.198 A 
ATOM     87  F   UNL A   1      43.719  26.001  35.397  1.00  0.00    -0.203 F 
ATOM     88  F   UNL A   1      48.272  28.994  35.088  1.00  0.00    -0.200 F 
ATOM     89  C   UNL A   1      47.076  27.195  36.043  1.00  0.00     0.200 A 
ATOM     90  F   UNL A   1      45.846  25.399  36.958  1.00  0.00    -0.200 F 
ATOM     91  F   UNL A   1      48.135  26.874  36.800  1.00  0.00    -0.200 F 
ENDBRANCH  58  81
ENDBRANCH  32  33
ENDBRANCH  24  27
ENDBRANCH  22  23
ENDBRANCH  21  22
ENDBRANCH   1  21
TORSDOF 13
ENDMDL
MODEL 3
REMARK VINA RESULT:     -12.4      3.054      5.164
REMARK SMILES COc1ccc2cc([C@H](C)C(=O)NCCCCNC(=O)c3ccc(-c4c5nc(c(-c6c(F)c(F)c(F)c(F)c6F)c6ccc([nH]6)c(-c6c(F)c(F)c(F)c(F)c6F)c6nc(c(-c7c(F)c(F)c(F)c(F)c7F)c7ccc4[nH]7)C=C6)C=C5)cc3)ccc2c1
REMARK SMILES IDX 15 1 14 2 13 3 11 4 12 5 9 7 10 8 8 9 3 10 4 11 87 12 5 13
REMARK SMILES IDX 86 14 6 15 85 16 7 17 84 18 2 19 1 20 16 21 17 22 18 23
REMARK SMILES IDX 19 24 20 26 21 27 22 28 83 29 23 30 82 31 24 32 25 33 26 34
REMARK SMILES IDX 76 35 27 36 81 37 75 38 77 39 28 40 80 41 74 42 73 43 29 45
REMARK SMILES IDX 61 46 41 47 60 48 42 49 45 50 59 51 78 52 43 53 44 54 58 56
REMARK SMILES IDX 79 57 46 58 30 59 31 60 39 61 32 62 33 63 37 64 40 65 34 66
REMARK SMILES IDX 35 67 38 68 36 69 62 70 63 71 71 72 64 73 65 74 69 75 72 76
REMARK SMILES IDX 66 77 67 78 70 79 68 80 47 81 48 82 56 83 49 84 50 85 54 86
REMARK SMILES IDX 57 87 51 88 52 89 55 90 53 91
REMARK H PARENT 13 6 18 25 77 44 45 55
REMARK Flexibility Score: inf
ROOT
ATOM      1  C   UNL A   1      33.400  29.382  24.816  1.00  0.00     0.023 C 
ENDROOT
BRANCH   1   2
ATOM      2  C   UNL A   1      31.894  29.607  24.803  1.00  0.00     0.116 C 
BRANCH   2   3
ATOM      3  N   UNL A   1      31.267  29.254  23.547  1.00  0.00    -0.356 N 
ATOM      4  C   UNL A   1      30.323  28.315  23.251  1.00  0.00     0.227 C 
ATOM      5  O   UNL A   1      29.815  28.392  22.126  1.00  0.00    -0.274 OA
ATOM      6  H   UNL A   1      31.575  29.780  22.773  1.00  0.00     0.163 HD
BRANCH   4   7
ATOM      7  C   UNL A   1      29.895  27.204  24.218  1.00  0.00     0.105 C 
ATOM      8  C   UNL A   1      28.648  26.431  23.782  1.00  0.00     0.023 C 
BRANCH   7   9
ATOM      9  C   UNL A   1      31.007  26.293  24.725  1.00  0.00    -0.035 A 
ATOM     10  C   UNL A   1      35.223  23.479  25.206  1.00  0.00     0.119 A 
ATOM     11  C   UNL A   1      35.154  23.830  23.861  1.00  0.00     0.047 A 
ATOM     12  C   UNL A   1      34.220  23.885  26.083  1.00  0.00     0.055 A 
ATOM     13  C   UNL A   1      34.099  24.627  23.401  1.00  0.00     0.012 A 
ATOM     14  C   UNL A   1      33.160  24.680  25.632  1.00  0.00    -0.015 A 
ATOM     15  C   UNL A   1      33.095  25.069  24.278  1.00  0.00    -0.018 A 
ATOM     16  C   UNL A   1      32.154  25.087  26.508  1.00  0.00     0.009 A 
ATOM     17  C   UNL A   1      32.025  25.880  23.845  1.00  0.00     0.013 A 
ATOM     18  C   UNL A   1      31.091  25.869  26.054  1.00  0.00     0.005 A 
BRANCH  10  19
ATOM     19  O   UNL A   1      36.200  22.683  25.737  1.00  0.00    -0.497 OA
ATOM     20  C   UNL A   1      37.430  23.370  25.950  1.00  0.00     0.278 C 
ENDBRANCH  10  19
ENDBRANCH   7   9
ENDBRANCH   4   7
ENDBRANCH   2   3
ENDBRANCH   1   2
BRANCH   1  21
ATOM     21  C   UNL A   1      33.893  28.351  25.835  1.00  0.00     0.023 C 
BRANCH  21  22
ATOM     22  C   UNL A   1      33.548  28.630  27.295  1.00  0.00     0.116 C 
BRANCH  22  23
ATOM     23  N   UNL A   1      33.580  30.042  27.647  1.00  0.00    -0.352 N 
ATOM     24  C   UNL A   1      34.608  30.786  28.175  1.00  0.00     0.251 C 
ATOM     25  H   UNL A   1      32.744  30.535  27.484  1.00  0.00     0.163 HD
ATOM     26  O   UNL A   1      34.430  31.960  28.486  1.00  0.00    -0.269 OA
BRANCH  24  27
ATOM     27  C   UNL A   1      35.921  30.151  28.415  1.00  0.00     0.039 A 
ATOM     28  C   UNL A   1      36.886  30.206  27.407  1.00  0.00     0.014 A 
ATOM     29  C   UNL A   1      36.212  29.551  29.642  1.00  0.00     0.014 A 
ATOM     30  C   UNL A   1      38.177  29.741  27.663  1.00  0.00     0.010 A 
ATOM     31  C   UNL A   1      37.517  29.154  29.920  1.00  0.00     0.010 A 
ATOM     32  C   UNL A   1      38.516  29.257  28.938  1.00  0.00    -0.014 A 
BRANCH  32  33
ATOM     33  C   UNL A   1      39.910  28.867  29.269  1.00  0.00     0.031 A 
ATOM     34  C   UNL A   1      40.775  29.786  30.083  1.00  0.00     0.074 A 
ATOM     35  C   UNL A   1      40.417  27.718  28.779  1.00  0.00     0.049 A 
ATOM     36  N   UNL A   1      42.040  29.666  30.403  1.00  0.00    -0.248 NA
ATOM     37  C   UNL A   1      40.143  31.016  30.585  1.00  0.00     0.031 C 
ATOM     38  C   UNL A   1      39.692  26.761  27.941  1.00  0.00     0.029 A 
ATOM     39  N   UNL A   1      41.666  27.165  28.908  1.00  0.00    -0.354 N 
ATOM     40  C   UNL A   1      42.353  30.806  31.132  1.00  0.00     0.074 A 
ATOM     41  C   UNL A   1      41.166  31.631  31.160  1.00  0.00     0.031 C 
ATOM     42  C   UNL A   1      40.501  25.728  27.653  1.00  0.00     0.029 A 
ATOM     43  C   UNL A   1      41.810  25.967  28.251  1.00  0.00     0.049 A 
ATOM     44  H   UNL A   1      42.392  27.587  29.423  1.00  0.00     0.167 HD
ATOM     45  C   UNL A   1      43.518  31.122  31.746  1.00  0.00     0.037 A 
ATOM     46  C   UNL A   1      42.880  25.157  28.140  1.00  0.00     0.037 A 
ATOM     47  C   UNL A   1      44.692  30.291  31.736  1.00  0.00     0.049 A 
ATOM     48  C   UNL A   1      44.168  25.544  28.817  1.00  0.00     0.074 A 
ATOM     49  C   UNL A   1      45.911  30.511  32.355  1.00  0.00     0.029 A 
ATOM     50  N   UNL A   1      44.793  29.076  31.074  1.00  0.00    -0.354 N 
ATOM     51  N   UNL A   1      44.436  26.598  29.546  1.00  0.00    -0.248 NA
ATOM     52  C   UNL A   1      45.301  24.621  28.658  1.00  0.00     0.031 C 
ATOM     53  C   UNL A   1      46.760  29.444  32.042  1.00  0.00     0.029 A 
ATOM     54  C   UNL A   1      46.055  28.539  31.262  1.00  0.00     0.049 A 
ATOM     55  H   UNL A   1      44.073  28.658  30.548  1.00  0.00     0.167 HD
ATOM     56  C   UNL A   1      45.752  26.451  29.961  1.00  0.00     0.074 A 
ATOM     57  C   UNL A   1      46.226  25.198  29.411  1.00  0.00     0.031 C 
ATOM     58  C   UNL A   1      46.503  27.280  30.726  1.00  0.00     0.037 A 
BRANCH  45  59
ATOM     59  C   UNL A   1      43.572  32.419  32.497  1.00  0.00     0.064 A 
ATOM     60  C   UNL A   1      43.264  32.483  33.865  1.00  0.00     0.173 A 
ATOM     61  C   UNL A   1      43.970  33.603  31.858  1.00  0.00     0.173 A 
ATOM     62  F   UNL A   1      42.865  31.382  34.518  1.00  0.00    -0.203 F 
ATOM     63  C   UNL A   1      43.327  33.689  34.559  1.00  0.00     0.198 A 
ATOM     64  C   UNL A   1      44.060  34.800  32.562  1.00  0.00     0.198 A 
ATOM     65  F   UNL A   1      44.280  33.595  30.553  1.00  0.00    -0.203 F 
ATOM     66  F   UNL A   1      42.985  33.733  35.854  1.00  0.00    -0.200 F 
ATOM     67  C   UNL A   1      43.732  34.844  33.909  1.00  0.00     0.200 A 
ATOM     68  F   UNL A   1      44.464  35.915  31.936  1.00  0.00    -0.200 F 
ATOM     69  F   UNL A   1      43.802  36.003  34.579  1.00  0.00    -0.200 F 
ENDBRANCH  45  59
BRANCH  46  70
ATOM     70  C   UNL A   1      42.781  23.883  27.380  1.00  0.00     0.064 A 
ATOM     71  C   UNL A   1      42.356  22.705  28.010  1.00  0.00     0.173 A 
ATOM     72  C   UNL A   1      43.135  23.807  26.025  1.00  0.00     0.173 A 
ATOM     73  F   UNL A   1      42.028  22.723  29.311  1.00  0.00    -0.203 F 
ATOM     74  C   UNL A   1      42.313  21.494  27.322  1.00  0.00     0.198 A 
ATOM     75  C   UNL A   1      43.065  22.601  25.330  1.00  0.00     0.198 A 
ATOM     76  F   UNL A   1      43.545  24.906  25.375  1.00  0.00    -0.203 F 
ATOM     77  F   UNL A   1      41.953  20.375  27.964  1.00  0.00    -0.200 F 
ATOM     78  C   UNL A   1      42.664  21.445  25.982  1.00  0.00     0.200 A 
ATOM     79  F   UNL A   1      43.393  22.558  24.032  1.00  0.00    -0.200 F 
ATOM     80  F   UNL A   1      42.626  20.279  25.321  1.00  0.00    -0.200 F 
ENDBRANCH  46  70
BRANCH  58  81
ATOM     81  C   UNL A   1      47.897  26.835  31.058  1.00  0.00     0.064 A 
ATOM     82  C   UNL A   1      48.159  25.978  32.137  1.00  0.00     0.173 A 
ATOM     83  C   UNL A   1      48.978  27.243  30.263  1.00  0.00     0.173 A 
ATOM     84  F   UNL A   1      47.160  25.575  32.937  1.00  0.00    -0.203 F 
ATOM     85  C   UNL A   1      49.458  25.566  32.422  1.00  0.00     0.198 A 
ATOM     86  C   UNL A   1      50.271  26.805  30.534  1.00  0.00     0.198 A 
ATOM     87  F   UNL A   1      48.778  28.057  29.215  1.00  0.00    -0.203 F 
ATOM     88  F   UNL A   1      49.693  24.785  33.486  1.00  0.00    -0.200 F 
ATOM     89  C   UNL A   1      50.511  25.974  31.617  1.00  0.00     0.200 A 
ATOM     90  F   UNL A   1      51.285  27.191  29.747  1.00  0.00    -0.200 F 
ATOM     91  F   UNL A   1      51.760  25.571  31.890  1.00  0.00    -0.200 F 
ENDBRANCH  58  81
ENDBRANCH  32  33
ENDBRANCH  24  27
ENDBRANCH  22  23
ENDBRANCH  21  22
ENDBRANCH   1  21
TORSDOF 13
ENDMDL
