MODEL 1
REMARK VINA RESULT:      -9.6      0.000      0.000
REMARK SMILES Cc1nc2ccc(OCc3ccccc3)cc2c(=O)n1-c1ccc(C(=O)NCCCCNC(=O)c2ccc(-c3c4nc(c(-c5c(F)c(F)c(F)c(F)c5F)c5ccc([nH]5)c(-c5c(F)c(F)c(F)c(F)c5F)c5nc(c(-c6c(F)c(F)c(F)c(F)c6F)c6ccc3[nH]6)C=C5)C=C4)cc2)cc1
REMARK SMILES IDX 28 1 27 2 25 3 26 4 24 6 21 7 22 8 99 9 23 10 98 11 20 12
REMARK SMILES IDX 1 13 2 14 3 15 4 16 18 17 5 18 17 19 19 20 6 21 16 22 7 23
REMARK SMILES IDX 8 24 9 25 10 26 11 27 15 28 12 29 14 30 13 31 29 32 30 33
REMARK SMILES IDX 31 34 32 35 33 36 34 38 35 39 36 40 97 41 37 42 96 43 38 44
REMARK SMILES IDX 39 45 40 46 90 47 41 48 95 49 89 50 91 51 42 52 94 53 88 54
REMARK SMILES IDX 87 55 43 57 75 58 55 59 74 60 56 61 59 62 73 63 92 64 57 65
REMARK SMILES IDX 58 66 72 68 93 69 60 70 44 71 45 72 53 73 46 74 47 75 51 76
REMARK SMILES IDX 54 77 48 78 49 79 52 80 50 81 76 82 77 83 85 84 78 85 79 86
REMARK SMILES IDX 83 87 86 88 80 89 81 90 84 91 82 92 61 93 62 94 70 95 63 96
REMARK SMILES IDX 64 97 68 98 71 99 65 100 66 101 69 102 67 103
REMARK H PARENT 27 5 32 37 91 56 59 67
REMARK Flexibility Score: inf
ROOT
ATOM      1  C   UNL A   1      42.668  23.644  25.444  1.00  0.00     0.116 C 
ENDROOT
BRANCH   1   2
ATOM      2  N   UNL A   1      41.530  22.790  25.747  1.00  0.00    -0.352 N 
ATOM      3  C   UNL A   1      40.484  22.984  26.623  1.00  0.00     0.251 C 
ATOM      4  O   UNL A   1      39.620  22.118  26.733  1.00  0.00    -0.269 OA
ATOM      5  H   UNL A   1      41.502  21.942  25.249  1.00  0.00     0.163 HD
BRANCH   3   6
ATOM      6  C   UNL A   1      40.432  24.184  27.493  1.00  0.00     0.039 A 
ATOM      7  C   UNL A   1      40.555  26.685  28.788  1.00  0.00     0.050 A 
ATOM      8  C   UNL A   1      41.643  25.806  28.835  1.00  0.00     0.027 A 
ATOM      9  C   UNL A   1      39.354  26.209  28.230  1.00  0.00     0.027 A 
ATOM     10  C   UNL A   1      41.592  24.571  28.173  1.00  0.00     0.016 A 
ATOM     11  C   UNL A   1      39.281  24.956  27.623  1.00  0.00     0.016 A 
BRANCH   7  12
ATOM     12  N   UNL A   1      40.628  28.054  29.224  1.00  0.00    -0.264 N 
ATOM     13  C   UNL A   1      41.358  28.906  26.936  1.00  0.00     0.088 C 
ATOM     14  C   UNL A   1      40.935  29.112  28.377  1.00  0.00     0.113 A 
ATOM     15  N   UNL A   1      40.851  30.361  28.725  1.00  0.00    -0.234 NA
ATOM     16  C   UNL A   1      40.388  30.685  29.995  1.00  0.00     0.078 A 
ATOM     17  C   UNL A   1      40.281  28.312  30.563  1.00  0.00     0.266 A 
ATOM     18  C   UNL A   1      40.188  32.027  30.322  1.00  0.00     0.033 A 
ATOM     19  C   UNL A   1      40.115  29.718  30.948  1.00  0.00     0.070 A 
ATOM     20  O   UNL A   1      40.125  27.461  31.439  1.00  0.00    -0.268 OA
ATOM     21  C   UNL A   1      39.764  32.393  31.604  1.00  0.00     0.049 A 
ATOM     22  C   UNL A   1      39.705  30.072  32.236  1.00  0.00     0.062 A 
ATOM     23  C   UNL A   1      39.568  31.415  32.578  1.00  0.00     0.120 A 
BRANCH  23  24
ATOM     24  O   UNL A   1      39.338  31.633  33.908  1.00  0.00    -0.489 OA
BRANCH  24  25
ATOM     25  C   UNL A   1      38.043  31.356  34.447  1.00  0.00     0.265 C 
BRANCH  25  26
ATOM     26  C   UNL A   1      36.901  32.258  34.008  1.00  0.00    -0.011 A 
ATOM     27  C   UNL A   1      36.613  33.391  34.787  1.00  0.00     0.007 A 
ATOM     28  C   UNL A   1      36.096  32.002  32.888  1.00  0.00     0.007 A 
ATOM     29  C   UNL A   1      35.523  34.209  34.483  1.00  0.00     0.000 A 
ATOM     30  C   UNL A   1      34.988  32.803  32.603  1.00  0.00     0.000 A 
ATOM     31  C   UNL A   1      34.699  33.903  33.404  1.00  0.00     0.000 A 
ENDBRANCH  25  26
ENDBRANCH  24  25
ENDBRANCH  23  24
ENDBRANCH   7  12
ENDBRANCH   3   6
ENDBRANCH   1   2
BRANCH   1  32
ATOM     32  C   UNL A   1      44.029  22.973  25.594  1.00  0.00     0.023 C 
BRANCH  32  33
ATOM     33  C   UNL A   1      44.652  23.003  26.983  1.00  0.00     0.023 C 
BRANCH  33  34
ATOM     34  C   UNL A   1      46.003  23.695  27.095  1.00  0.00     0.116 C 
BRANCH  34  35
ATOM     35  N   UNL A   1      46.555  24.131  25.820  1.00  0.00    -0.352 N 
ATOM     36  C   UNL A   1      46.619  25.392  25.264  1.00  0.00     0.251 C 
ATOM     37  H   UNL A   1      46.943  23.414  25.267  1.00  0.00     0.163 HD
ATOM     38  O   UNL A   1      47.065  25.546  24.134  1.00  0.00    -0.269 OA
BRANCH  36  39
ATOM     39  C   UNL A   1      46.087  26.552  26.012  1.00  0.00     0.039 A 
ATOM     40  C   UNL A   1      46.945  27.452  26.643  1.00  0.00     0.014 A 
ATOM     41  C   UNL A   1      44.703  26.699  26.139  1.00  0.00     0.014 A 
ATOM     42  C   UNL A   1      46.434  28.340  27.582  1.00  0.00     0.010 A 
ATOM     43  C   UNL A   1      44.184  27.665  27.006  1.00  0.00     0.010 A 
ATOM     44  C   UNL A   1      45.048  28.441  27.793  1.00  0.00    -0.014 A 
BRANCH  44  45
ATOM     45  C   UNL A   1      44.537  29.324  28.875  1.00  0.00     0.031 A 
ATOM     46  C   UNL A   1      44.264  28.774  30.251  1.00  0.00     0.074 A 
ATOM     47  C   UNL A   1      44.397  30.644  28.643  1.00  0.00     0.049 A 
ATOM     48  N   UNL A   1      43.834  29.396  31.321  1.00  0.00    -0.248 NA
ATOM     49  C   UNL A   1      44.501  27.336  30.458  1.00  0.00     0.031 C 
ATOM     50  C   UNL A   1      44.653  31.303  27.361  1.00  0.00     0.029 A 
ATOM     51  N   UNL A   1      44.040  31.670  29.481  1.00  0.00    -0.354 N 
ATOM     52  C   UNL A   1      43.726  28.429  32.312  1.00  0.00     0.074 A 
ATOM     53  C   UNL A   1      44.113  27.169  31.714  1.00  0.00     0.031 C 
ATOM     54  C   UNL A   1      44.509  32.627  27.514  1.00  0.00     0.029 A 
ATOM     55  C   UNL A   1      44.087  32.906  28.883  1.00  0.00     0.049 A 
ATOM     56  H   UNL A   1      43.776  31.534  30.419  1.00  0.00     0.167 HD
ATOM     57  C   UNL A   1      43.354  28.578  33.605  1.00  0.00     0.037 A 
ATOM     58  C   UNL A   1      43.811  34.126  29.377  1.00  0.00     0.037 A 
ATOM     59  C   UNL A   1      43.007  29.837  34.213  1.00  0.00     0.049 A 
ATOM     60  C   UNL A   1      43.364  34.259  30.805  1.00  0.00     0.074 A 
ATOM     61  C   UNL A   1      42.636  30.089  35.522  1.00  0.00     0.029 A 
ATOM     62  N   UNL A   1      42.998  31.056  33.552  1.00  0.00    -0.354 N 
ATOM     63  N   UNL A   1      43.249  33.331  31.723  1.00  0.00    -0.248 NA
ATOM     64  C   UNL A   1      42.992  35.606  31.260  1.00  0.00     0.031 C 
ATOM     65  C   UNL A   1      42.368  31.456  35.645  1.00  0.00     0.029 A 
ATOM     66  C   UNL A   1      42.611  32.061  34.424  1.00  0.00     0.049 A 
ATOM     67  H   UNL A   1      43.233  31.187  32.605  1.00  0.00     0.167 HD
ATOM     68  C   UNL A   1      42.795  33.978  32.862  1.00  0.00     0.074 A 
ATOM     69  C   UNL A   1      42.678  35.383  32.529  1.00  0.00     0.031 C 
ATOM     70  C   UNL A   1      42.492  33.453  34.074  1.00  0.00     0.037 A 
BRANCH  57  71
ATOM     71  C   UNL A   1      43.294  27.349  34.465  1.00  0.00     0.064 A 
ATOM     72  C   UNL A   1      44.436  26.839  35.098  1.00  0.00     0.173 A 
ATOM     73  C   UNL A   1      42.066  26.718  34.716  1.00  0.00     0.173 A 
ATOM     74  F   UNL A   1      45.635  27.400  34.881  1.00  0.00    -0.203 F 
ATOM     75  C   UNL A   1      44.354  25.733  35.941  1.00  0.00     0.198 A 
ATOM     76  C   UNL A   1      41.983  25.627  35.577  1.00  0.00     0.198 A 
ATOM     77  F   UNL A   1      40.942  27.171  34.140  1.00  0.00    -0.203 F 
ATOM     78  F   UNL A   1      45.462  25.244  36.513  1.00  0.00    -0.200 F 
ATOM     79  C   UNL A   1      43.126  25.134  36.187  1.00  0.00     0.200 A 
ATOM     80  F   UNL A   1      40.795  25.057  35.823  1.00  0.00    -0.200 F 
ATOM     81  F   UNL A   1      43.048  24.079  37.009  1.00  0.00    -0.200 F 
ENDBRANCH  57  71
BRANCH  58  82
ATOM     82  C   UNL A   1      43.955  35.317  28.503  1.00  0.00     0.064 A 
ATOM     83  C   UNL A   1      42.837  35.896  27.889  1.00  0.00     0.173 A 
ATOM     84  C   UNL A   1      45.204  35.920  28.294  1.00  0.00     0.173 A 
ATOM     85  F   UNL A   1      41.626  35.342  28.043  1.00  0.00    -0.203 F 
ATOM     86  C   UNL A   1      42.964  37.037  27.098  1.00  0.00     0.198 A 
ATOM     87  C   UNL A   1      45.325  37.074  27.525  1.00  0.00     0.198 A 
ATOM     88  F   UNL A   1      46.303  35.403  28.862  1.00  0.00    -0.203 F 
ATOM     89  F   UNL A   1      41.883  37.559  26.502  1.00  0.00    -0.200 F 
ATOM     90  C   UNL A   1      44.205  37.631  26.926  1.00  0.00     0.200 A 
ATOM     91  F   UNL A   1      46.524  37.653  27.374  1.00  0.00    -0.200 F 
ATOM     92  F   UNL A   1      44.323  38.736  26.179  1.00  0.00    -0.200 F 
ENDBRANCH  58  82
BRANCH  70  93
ATOM     93  C   UNL A   1      42.004  34.396  35.130  1.00  0.00     0.064 A 
ATOM     94  C   UNL A   1      40.653  34.759  35.212  1.00  0.00     0.173 A 
ATOM     95  C   UNL A   1      42.882  34.894  36.104  1.00  0.00     0.173 A 
ATOM     96  F   UNL A   1      39.779  34.319  34.294  1.00  0.00    -0.203 F 
ATOM     97  C   UNL A   1      40.198  35.599  36.225  1.00  0.00     0.198 A 
ATOM     98  C   UNL A   1      42.420  35.715  37.130  1.00  0.00     0.198 A 
ATOM     99  F   UNL A   1      44.183  34.570  36.071  1.00  0.00    -0.203 F 
ATOM    100  F   UNL A   1      38.908  35.959  36.266  1.00  0.00    -0.200 F 
ATOM    101  C   UNL A   1      41.081  36.070  37.186  1.00  0.00     0.200 A 
ATOM    102  F   UNL A   1      43.271  36.161  38.064  1.00  0.00    -0.200 F 
ATOM    103  F   UNL A   1      40.640  36.869  38.167  1.00  0.00    -0.200 F 
ENDBRANCH  70  93
ENDBRANCH  44  45
ENDBRANCH  36  39
ENDBRANCH  34  35
ENDBRANCH  33  34
ENDBRANCH  32  33
ENDBRANCH   1  32
TORSDOF 15
ENDMDL
MODEL 2
REMARK VINA RESULT:      -9.6      4.215      9.911
REMARK SMILES Cc1nc2ccc(OCc3ccccc3)cc2c(=O)n1-c1ccc(C(=O)NCCCCNC(=O)c2ccc(-c3c4nc(c(-c5c(F)c(F)c(F)c(F)c5F)c5ccc([nH]5)c(-c5c(F)c(F)c(F)c(F)c5F)c5nc(c(-c6c(F)c(F)c(F)c(F)c6F)c6ccc3[nH]6)C=C5)C=C4)cc2)cc1
REMARK SMILES IDX 28 1 27 2 25 3 26 4 24 6 21 7 22 8 99 9 23 10 98 11 20 12
REMARK SMILES IDX 1 13 2 14 3 15 4 16 18 17 5 18 17 19 19 20 6 21 16 22 7 23
REMARK SMILES IDX 8 24 9 25 10 26 11 27 15 28 12 29 14 30 13 31 29 32 30 33
REMARK SMILES IDX 31 34 32 35 33 36 34 38 35 39 36 40 97 41 37 42 96 43 38 44
REMARK SMILES IDX 39 45 40 46 90 47 41 48 95 49 89 50 91 51 42 52 94 53 88 54
REMARK SMILES IDX 87 55 43 57 75 58 55 59 74 60 56 61 59 62 73 63 92 64 57 65
REMARK SMILES IDX 58 66 72 68 93 69 60 70 44 71 45 72 53 73 46 74 47 75 51 76
REMARK SMILES IDX 54 77 48 78 49 79 52 80 50 81 76 82 77 83 85 84 78 85 79 86
REMARK SMILES IDX 83 87 86 88 80 89 81 90 84 91 82 92 61 93 62 94 70 95 63 96
REMARK SMILES IDX 64 97 68 98 71 99 65 100 66 101 69 102 67 103
REMARK H PARENT 27 5 32 37 91 56 59 67
REMARK Flexibility Score: inf
ROOT
ATOM      1  C   UNL A   1      48.568  27.686  32.119  1.00  0.00     0.116 C 
ENDROOT
BRANCH   1   2
ATOM      2  N   UNL A   1      49.181  28.483  31.068  1.00  0.00    -0.352 N 
ATOM      3  C   UNL A   1      49.072  28.380  29.698  1.00  0.00     0.251 C 
ATOM      4  O   UNL A   1      49.691  29.163  28.983  1.00  0.00    -0.269 OA
ATOM      5  H   UNL A   1      49.765  29.210  31.384  1.00  0.00     0.163 HD
BRANCH   3   6
ATOM      6  C   UNL A   1      48.285  27.287  29.077  1.00  0.00     0.039 A 
ATOM      7  C   UNL A   1      46.882  25.429  27.488  1.00  0.00     0.050 A 
ATOM      8  C   UNL A   1      46.266  26.614  27.907  1.00  0.00     0.027 A 
ATOM      9  C   UNL A   1      48.145  25.124  28.027  1.00  0.00     0.027 A 
ATOM     10  C   UNL A   1      46.970  27.549  28.680  1.00  0.00     0.016 A 
ATOM     11  C   UNL A   1      48.825  26.025  28.844  1.00  0.00     0.016 A 
BRANCH   7  12
ATOM     12  N   UNL A   1      46.315  24.553  26.497  1.00  0.00    -0.264 N 
ATOM     13  C   UNL A   1      47.596  25.637  24.580  1.00  0.00     0.088 C 
ATOM     14  C   UNL A   1      46.671  24.582  25.155  1.00  0.00     0.113 A 
ATOM     15  N   UNL A   1      46.282  23.698  24.287  1.00  0.00    -0.234 NA
ATOM     16  C   UNL A   1      45.500  22.627  24.708  1.00  0.00     0.078 A 
ATOM     17  C   UNL A   1      45.418  23.572  26.959  1.00  0.00     0.266 A 
ATOM     18  C   UNL A   1      45.184  21.619  23.797  1.00  0.00     0.033 A 
ATOM     19  C   UNL A   1      45.027  22.527  26.006  1.00  0.00     0.070 A 
ATOM     20  O   UNL A   1      44.922  23.527  28.085  1.00  0.00    -0.268 OA
ATOM     21  C   UNL A   1      44.365  20.549  24.173  1.00  0.00     0.049 A 
ATOM     22  C   UNL A   1      44.196  21.471  26.390  1.00  0.00     0.062 A 
ATOM     23  C   UNL A   1      43.831  20.500  25.460  1.00  0.00     0.120 A 
BRANCH  23  24
ATOM     24  O   UNL A   1      42.879  19.628  25.908  1.00  0.00    -0.489 OA
BRANCH  24  25
ATOM     25  C   UNL A   1      41.940  20.065  26.894  1.00  0.00     0.265 C 
BRANCH  25  26
ATOM     26  C   UNL A   1      40.555  20.461  26.406  1.00  0.00    -0.011 A 
ATOM     27  C   UNL A   1      39.811  19.515  25.682  1.00  0.00     0.007 A 
ATOM     28  C   UNL A   1      39.995  21.732  26.607  1.00  0.00     0.007 A 
ATOM     29  C   UNL A   1      38.571  19.848  25.134  1.00  0.00     0.000 A 
ATOM     30  C   UNL A   1      38.769  22.074  26.033  1.00  0.00     0.000 A 
ATOM     31  C   UNL A   1      38.059  21.134  25.292  1.00  0.00     0.000 A 
ENDBRANCH  25  26
ENDBRANCH  24  25
ENDBRANCH  23  24
ENDBRANCH   7  12
ENDBRANCH   3   6
ENDBRANCH   1   2
BRANCH   1  32
ATOM     32  C   UNL A   1      49.534  26.795  32.892  1.00  0.00     0.023 C 
BRANCH  32  33
ATOM     33  C   UNL A   1      49.246  25.300  32.869  1.00  0.00     0.023 C 
BRANCH  33  34
ATOM     34  C   UNL A   1      48.075  24.832  33.722  1.00  0.00     0.116 C 
BRANCH  34  35
ATOM     35  N   UNL A   1      48.300  24.949  35.156  1.00  0.00    -0.352 N 
ATOM     36  C   UNL A   1      47.616  25.680  36.105  1.00  0.00     0.251 C 
ATOM     37  H   UNL A   1      49.059  24.427  35.502  1.00  0.00     0.163 HD
ATOM     38  O   UNL A   1      48.007  25.704  37.265  1.00  0.00    -0.269 OA
BRANCH  36  39
ATOM     39  C   UNL A   1      46.442  26.488  35.705  1.00  0.00     0.039 A 
ATOM     40  C   UNL A   1      45.153  25.962  35.777  1.00  0.00     0.014 A 
ATOM     41  C   UNL A   1      46.647  27.769  35.186  1.00  0.00     0.014 A 
ATOM     42  C   UNL A   1      44.113  26.609  35.119  1.00  0.00     0.010 A 
ATOM     43  C   UNL A   1      45.578  28.467  34.616  1.00  0.00     0.010 A 
ATOM     44  C   UNL A   1      44.319  27.859  34.509  1.00  0.00    -0.014 A 
BRANCH  44  45
ATOM     45  C   UNL A   1      43.218  28.478  33.724  1.00  0.00     0.031 A 
ATOM     46  C   UNL A   1      42.998  28.103  32.281  1.00  0.00     0.074 A 
ATOM     47  C   UNL A   1      42.360  29.318  34.335  1.00  0.00     0.049 A 
ATOM     48  N   UNL A   1      42.080  28.526  31.447  1.00  0.00    -0.248 NA
ATOM     49  C   UNL A   1      43.930  27.129  31.691  1.00  0.00     0.031 C 
ATOM     50  C   UNL A   1      42.451  29.740  35.734  1.00  0.00     0.029 A 
ATOM     51  N   UNL A   1      41.228  29.940  33.871  1.00  0.00    -0.354 N 
ATOM     52  C   UNL A   1      42.337  27.893  30.238  1.00  0.00     0.074 A 
ATOM     53  C   UNL A   1      43.512  27.072  30.434  1.00  0.00     0.031 C 
ATOM     54  C   UNL A   1      41.384  30.496  36.033  1.00  0.00     0.029 A 
ATOM     55  C   UNL A   1      40.571  30.667  34.833  1.00  0.00     0.049 A 
ATOM     56  H   UNL A   1      40.917  29.870  32.940  1.00  0.00     0.167 HD
ATOM     57  C   UNL A   1      41.649  27.975  29.075  1.00  0.00     0.037 A 
ATOM     58  C   UNL A   1      39.445  31.400  34.756  1.00  0.00     0.037 A 
ATOM     59  C   UNL A   1      40.456  28.760  28.888  1.00  0.00     0.049 A 
ATOM     60  C   UNL A   1      38.722  31.505  33.444  1.00  0.00     0.074 A 
ATOM     61  C   UNL A   1      39.678  28.890  27.751  1.00  0.00     0.029 A 
ATOM     62  N   UNL A   1      39.863  29.541  29.869  1.00  0.00    -0.354 N 
ATOM     63  N   UNL A   1      38.990  30.915  32.306  1.00  0.00    -0.248 NA
ATOM     64  C   UNL A   1      37.550  32.391  33.403  1.00  0.00     0.031 C 
ATOM     65  C   UNL A   1      38.634  29.777  28.033  1.00  0.00     0.029 A 
ATOM     66  C   UNL A   1      38.739  30.168  29.357  1.00  0.00     0.049 A 
ATOM     67  H   UNL A   1      40.192  29.633  30.793  1.00  0.00     0.167 HD
ATOM     68  C   UNL A   1      38.023  31.354  31.414  1.00  0.00     0.074 A 
ATOM     69  C   UNL A   1      37.146  32.242  32.149  1.00  0.00     0.031 C 
ATOM     70  C   UNL A   1      37.882  31.055  30.100  1.00  0.00     0.037 A 
BRANCH  57  71
ATOM     71  C   UNL A   1      42.164  27.200  27.897  1.00  0.00     0.064 A 
ATOM     72  C   UNL A   1      41.770  25.875  27.660  1.00  0.00     0.173 A 
ATOM     73  C   UNL A   1      43.005  27.814  26.957  1.00  0.00     0.173 A 
ATOM     74  F   UNL A   1      40.977  25.241  28.536  1.00  0.00    -0.203 F 
ATOM     75  C   UNL A   1      42.210  25.189  26.531  1.00  0.00     0.198 A 
ATOM     76  C   UNL A   1      43.424  27.134  25.817  1.00  0.00     0.198 A 
ATOM     77  F   UNL A   1      43.405  29.083  27.133  1.00  0.00    -0.203 F 
ATOM     78  F   UNL A   1      41.845  23.915  26.338  1.00  0.00    -0.200 F 
ATOM     79  C   UNL A   1      43.029  25.822  25.605  1.00  0.00     0.200 A 
ATOM     80  F   UNL A   1      44.205  27.750  24.919  1.00  0.00    -0.200 F 
ATOM     81  F   UNL A   1      43.439  25.164  24.512  1.00  0.00    -0.200 F 
ENDBRANCH  57  71
BRANCH  58  82
ATOM     82  C   UNL A   1      38.939  32.090  35.970  1.00  0.00     0.064 A 
ATOM     83  C   UNL A   1      38.142  31.413  36.901  1.00  0.00     0.173 A 
ATOM     84  C   UNL A   1      39.272  33.426  36.239  1.00  0.00     0.173 A 
ATOM     85  F   UNL A   1      37.781  30.142  36.675  1.00  0.00    -0.203 F 
ATOM     86  C   UNL A   1      37.697  32.047  38.060  1.00  0.00     0.198 A 
ATOM     87  C   UNL A   1      38.849  34.050  37.410  1.00  0.00     0.198 A 
ATOM     88  F   UNL A   1      40.035  34.115  35.378  1.00  0.00    -0.203 F 
ATOM     89  F   UNL A   1      36.916  31.385  38.924  1.00  0.00    -0.200 F 
ATOM     90  C   UNL A   1      38.060  33.360  38.318  1.00  0.00     0.200 A 
ATOM     91  F   UNL A   1      39.214  35.314  37.663  1.00  0.00    -0.200 F 
ATOM     92  F   UNL A   1      37.645  33.963  39.440  1.00  0.00    -0.200 F 
ENDBRANCH  58  82
BRANCH  70  93
ATOM     93  C   UNL A   1      36.739  31.693  29.369  1.00  0.00     0.064 A 
ATOM     94  C   UNL A   1      35.614  30.948  28.991  1.00  0.00     0.173 A 
ATOM     95  C   UNL A   1      36.743  33.069  29.098  1.00  0.00     0.173 A 
ATOM     96  F   UNL A   1      35.571  29.627  29.216  1.00  0.00    -0.203 F 
ATOM     97  C   UNL A   1      34.536  31.557  28.354  1.00  0.00     0.198 A 
ATOM     98  C   UNL A   1      35.654  33.679  28.482  1.00  0.00     0.198 A 
ATOM     99  F   UNL A   1      37.796  33.824  29.447  1.00  0.00    -0.203 F 
ATOM    100  F   UNL A   1      33.482  30.822  27.972  1.00  0.00    -0.200 F 
ATOM    101  C   UNL A   1      34.554  32.923  28.107  1.00  0.00     0.200 A 
ATOM    102  F   UNL A   1      35.668  35.000  28.254  1.00  0.00    -0.200 F 
ATOM    103  F   UNL A   1      33.511  33.509  27.504  1.00  0.00    -0.200 F 
ENDBRANCH  70  93
ENDBRANCH  44  45
ENDBRANCH  36  39
ENDBRANCH  34  35
ENDBRANCH  33  34
ENDBRANCH  32  33
ENDBRANCH   1  32
TORSDOF 15
ENDMDL
MODEL 3
REMARK VINA RESULT:      -9.5      3.257     11.407
REMARK SMILES Cc1nc2ccc(OCc3ccccc3)cc2c(=O)n1-c1ccc(C(=O)NCCCCNC(=O)c2ccc(-c3c4nc(c(-c5c(F)c(F)c(F)c(F)c5F)c5ccc([nH]5)c(-c5c(F)c(F)c(F)c(F)c5F)c5nc(c(-c6c(F)c(F)c(F)c(F)c6F)c6ccc3[nH]6)C=C5)C=C4)cc2)cc1
REMARK SMILES IDX 28 1 27 2 25 3 26 4 24 6 21 7 22 8 99 9 23 10 98 11 20 12
REMARK SMILES IDX 1 13 2 14 3 15 4 16 18 17 5 18 17 19 19 20 6 21 16 22 7 23
REMARK SMILES IDX 8 24 9 25 10 26 11 27 15 28 12 29 14 30 13 31 29 32 30 33
REMARK SMILES IDX 31 34 32 35 33 36 34 38 35 39 36 40 97 41 37 42 96 43 38 44
REMARK SMILES IDX 39 45 40 46 90 47 41 48 95 49 89 50 91 51 42 52 94 53 88 54
REMARK SMILES IDX 87 55 43 57 75 58 55 59 74 60 56 61 59 62 73 63 92 64 57 65
REMARK SMILES IDX 58 66 72 68 93 69 60 70 44 71 45 72 53 73 46 74 47 75 51 76
REMARK SMILES IDX 54 77 48 78 49 79 52 80 50 81 76 82 77 83 85 84 78 85 79 86
REMARK SMILES IDX 83 87 86 88 80 89 81 90 84 91 82 92 61 93 62 94 70 95 63 96
REMARK SMILES IDX 64 97 68 98 71 99 65 100 66 101 69 102 67 103
REMARK H PARENT 27 5 32 37 91 56 59 67
REMARK Flexibility Score: inf
ROOT
ATOM      1  C   UNL A   1      35.489  31.997  31.181  1.00  0.00     0.116 C 
ENDROOT
BRANCH   1   2
ATOM      2  N   UNL A   1      34.817  31.913  29.893  1.00  0.00    -0.352 N 
ATOM      3  C   UNL A   1      35.243  31.363  28.704  1.00  0.00     0.251 C 
ATOM      4  O   UNL A   1      34.509  31.409  27.721  1.00  0.00    -0.269 OA
ATOM      5  H   UNL A   1      33.917  32.311  29.867  1.00  0.00     0.163 HD
BRANCH   3   6
ATOM      6  C   UNL A   1      36.606  30.792  28.575  1.00  0.00     0.039 A 
ATOM      7  C   UNL A   1      39.142  29.579  28.783  1.00  0.00     0.050 A 
ATOM      8  C   UNL A   1      38.950  30.899  29.203  1.00  0.00     0.027 A 
ATOM      9  C   UNL A   1      38.083  28.949  28.102  1.00  0.00     0.027 A 
ATOM     10  C   UNL A   1      37.684  31.497  29.120  1.00  0.00     0.016 A 
ATOM     11  C   UNL A   1      36.840  29.563  27.964  1.00  0.00     0.016 A 
BRANCH   7  12
ATOM     12  N   UNL A   1      40.334  28.826  29.068  1.00  0.00    -0.264 N 
ATOM     13  C   UNL A   1      39.409  27.886  31.248  1.00  0.00     0.088 C 
ATOM     14  C   UNL A   1      40.466  27.985  30.166  1.00  0.00     0.113 A 
ATOM     15  N   UNL A   1      41.475  27.188  30.346  1.00  0.00    -0.234 NA
ATOM     16  C   UNL A   1      42.471  27.119  29.378  1.00  0.00     0.078 A 
ATOM     17  C   UNL A   1      41.371  28.901  28.120  1.00  0.00     0.266 A 
ATOM     18  C   UNL A   1      43.491  26.177  29.518  1.00  0.00     0.033 A 
ATOM     19  C   UNL A   1      42.483  27.956  28.274  1.00  0.00     0.070 A 
ATOM     20  O   UNL A   1      41.434  29.704  27.188  1.00  0.00    -0.268 OA
ATOM     21  C   UNL A   1      44.532  26.108  28.587  1.00  0.00     0.049 A 
ATOM     22  C   UNL A   1      43.526  27.907  27.345  1.00  0.00     0.062 A 
ATOM     23  C   UNL A   1      44.575  27.008  27.523  1.00  0.00     0.120 A 
BRANCH  23  24
ATOM     24  O   UNL A   1      45.613  27.182  26.651  1.00  0.00    -0.489 OA
BRANCH  24  25
ATOM     25  C   UNL A   1      45.511  26.648  25.328  1.00  0.00     0.265 C 
BRANCH  25  26
ATOM     26  C   UNL A   1      45.277  25.151  25.201  1.00  0.00    -0.011 A 
ATOM     27  C   UNL A   1      43.962  24.698  25.005  1.00  0.00     0.007 A 
ATOM     28  C   UNL A   1      46.297  24.194  25.306  1.00  0.00     0.007 A 
ATOM     29  C   UNL A   1      43.673  23.333  24.967  1.00  0.00     0.000 A 
ATOM     30  C   UNL A   1      46.004  22.829  25.299  1.00  0.00     0.000 A 
ATOM     31  C   UNL A   1      44.691  22.399  25.135  1.00  0.00     0.000 A 
ENDBRANCH  25  26
ENDBRANCH  24  25
ENDBRANCH  23  24
ENDBRANCH   7  12
ENDBRANCH   3   6
ENDBRANCH   1   2
BRANCH   1  32
ATOM     32  C   UNL A   1      35.610  33.406  31.749  1.00  0.00     0.023 C 
BRANCH  32  33
ATOM     33  C   UNL A   1      36.935  34.120  31.520  1.00  0.00     0.023 C 
BRANCH  33  34
ATOM     34  C   UNL A   1      37.676  34.571  32.772  1.00  0.00     0.116 C 
BRANCH  34  35
ATOM     35  N   UNL A   1      37.066  34.125  34.017  1.00  0.00    -0.352 N 
ATOM     36  C   UNL A   1      37.366  33.040  34.814  1.00  0.00     0.251 C 
ATOM     37  H   UNL A   1      36.323  34.684  34.339  1.00  0.00     0.163 HD
ATOM     38  O   UNL A   1      36.683  32.790  35.799  1.00  0.00    -0.269 OA
BRANCH  36  39
ATOM     39  C   UNL A   1      38.479  32.139  34.440  1.00  0.00     0.039 A 
ATOM     40  C   UNL A   1      39.732  32.264  35.037  1.00  0.00     0.014 A 
ATOM     41  C   UNL A   1      38.277  31.199  33.425  1.00  0.00     0.014 A 
ATOM     42  C   UNL A   1      40.828  31.629  34.465  1.00  0.00     0.010 A 
ATOM     43  C   UNL A   1      39.365  30.482  32.918  1.00  0.00     0.010 A 
ATOM     44  C   UNL A   1      40.661  30.748  33.382  1.00  0.00    -0.014 A 
BRANCH  44  45
ATOM     45  C   UNL A   1      41.861  30.164  32.724  1.00  0.00     0.031 A 
ATOM     46  C   UNL A   1      42.508  30.857  31.552  1.00  0.00     0.074 A 
ATOM     47  C   UNL A   1      42.421  29.051  33.235  1.00  0.00     0.049 A 
ATOM     48  N   UNL A   1      43.567  30.506  30.866  1.00  0.00    -0.248 NA
ATOM     49  C   UNL A   1      41.886  32.105  31.084  1.00  0.00     0.031 C 
ATOM     50  C   UNL A   1      41.905  28.301  34.382  1.00  0.00     0.029 A 
ATOM     51  N   UNL A   1      43.561  28.375  32.881  1.00  0.00    -0.354 N 
ATOM     52  C   UNL A   1      43.722  31.470  29.878  1.00  0.00     0.074 A 
ATOM     53  C   UNL A   1      42.635  32.412  30.034  1.00  0.00     0.031 C 
ATOM     54  C   UNL A   1      42.759  27.312  34.678  1.00  0.00     0.029 A 
ATOM     55  C   UNL A   1      43.846  27.314  33.704  1.00  0.00     0.049 A 
ATOM     56  H   UNL A   1      44.122  28.628  32.112  1.00  0.00     0.167 HD
ATOM     57  C   UNL A   1      44.690  31.570  28.935  1.00  0.00     0.037 A 
ATOM     58  C   UNL A   1      44.862  26.432  33.673  1.00  0.00     0.037 A 
ATOM     59  C   UNL A   1      45.794  30.656  28.802  1.00  0.00     0.049 A 
ATOM     60  C   UNL A   1      45.902  26.544  32.594  1.00  0.00     0.074 A 
ATOM     61  C   UNL A   1      46.835  30.688  27.891  1.00  0.00     0.029 A 
ATOM     62  N   UNL A   1      46.007  29.550  29.613  1.00  0.00    -0.354 N 
ATOM     63  N   UNL A   1      46.023  27.450  31.656  1.00  0.00    -0.248 NA
ATOM     64  C   UNL A   1      46.935  25.500  32.561  1.00  0.00     0.031 C 
ATOM     65  C   UNL A   1      47.658  29.582  28.126  1.00  0.00     0.029 A 
ATOM     66  C   UNL A   1      47.152  28.883  29.210  1.00  0.00     0.049 A 
ATOM     67  H   UNL A   1      45.429  29.281  30.363  1.00  0.00     0.167 HD
ATOM     68  C   UNL A   1      47.142  27.090  30.922  1.00  0.00     0.074 A 
ATOM     69  C   UNL A   1      47.682  25.895  31.538  1.00  0.00     0.031 C 
ATOM     70  C   UNL A   1      47.670  27.691  29.829  1.00  0.00     0.037 A 
BRANCH  57  71
ATOM     71  C   UNL A   1      44.605  32.707  27.959  1.00  0.00     0.064 A 
ATOM     72  C   UNL A   1      45.027  34.000  28.299  1.00  0.00     0.173 A 
ATOM     73  C   UNL A   1      44.163  32.484  26.646  1.00  0.00     0.173 A 
ATOM     74  F   UNL A   1      45.448  34.267  29.545  1.00  0.00    -0.203 F 
ATOM     75  C   UNL A   1      44.998  35.032  27.364  1.00  0.00     0.198 A 
ATOM     76  C   UNL A   1      44.156  33.512  25.707  1.00  0.00     0.198 A 
ATOM     77  F   UNL A   1      43.754  31.262  26.269  1.00  0.00    -0.203 F 
ATOM     78  F   UNL A   1      45.379  36.266  27.718  1.00  0.00    -0.200 F 
ATOM     79  C   UNL A   1      44.572  34.784  26.066  1.00  0.00     0.200 A 
ATOM     80  F   UNL A   1      43.755  33.268  24.452  1.00  0.00    -0.200 F 
ATOM     81  F   UNL A   1      44.558  35.775  25.164  1.00  0.00    -0.200 F 
ENDBRANCH  57  71
BRANCH  58  82
ATOM     82  C   UNL A   1      44.937  25.368  34.706  1.00  0.00     0.064 A 
ATOM     83  C   UNL A   1      44.467  24.076  34.440  1.00  0.00     0.173 A 
ATOM     84  C   UNL A   1      45.512  25.612  35.961  1.00  0.00     0.173 A 
ATOM     85  F   UNL A   1      43.891  23.802  33.261  1.00  0.00    -0.203 F 
ATOM     86  C   UNL A   1      44.570  23.065  35.394  1.00  0.00     0.198 A 
ATOM     87  C   UNL A   1      45.639  24.595  36.904  1.00  0.00     0.198 A 
ATOM     88  F   UNL A   1      45.978  26.834  36.261  1.00  0.00    -0.203 F 
ATOM     89  F   UNL A   1      44.092  21.843  35.125  1.00  0.00    -0.200 F 
ATOM     90  C   UNL A   1      45.166  23.323  36.620  1.00  0.00     0.200 A 
ATOM     91  F   UNL A   1      46.227  24.845  38.081  1.00  0.00    -0.200 F 
ATOM     92  F   UNL A   1      45.280  22.347  37.530  1.00  0.00    -0.200 F 
ENDBRANCH  58  82
BRANCH  70  93
ATOM     93  C   UNL A   1      48.893  27.069  29.225  1.00  0.00     0.064 A 
ATOM     94  C   UNL A   1      48.792  26.019  28.302  1.00  0.00     0.173 A 
ATOM     95  C   UNL A   1      50.170  27.566  29.525  1.00  0.00     0.173 A 
ATOM     96  F   UNL A   1      47.593  25.502  27.995  1.00  0.00    -0.203 F 
ATOM     97  C   UNL A   1      49.930  25.478  27.710  1.00  0.00     0.198 A 
ATOM     98  C   UNL A   1      51.303  27.038  28.913  1.00  0.00     0.198 A 
ATOM     99  F   UNL A   1      50.315  28.574  30.397  1.00  0.00    -0.203 F 
ATOM    100  F   UNL A   1      49.815  24.453  26.854  1.00  0.00    -0.200 F 
ATOM    101  C   UNL A   1      51.183  25.993  28.010  1.00  0.00     0.200 A 
ATOM    102  F   UNL A   1      52.512  27.543  29.196  1.00  0.00    -0.200 F 
ATOM    103  F   UNL A   1      52.276  25.478  27.431  1.00  0.00    -0.200 F 
ENDBRANCH  70  93
ENDBRANCH  44  45
ENDBRANCH  36  39
ENDBRANCH  34  35
ENDBRANCH  33  34
ENDBRANCH  32  33
ENDBRANCH   1  32
TORSDOF 15
ENDMDL
