MODEL 1
REMARK VINA RESULT:     -11.1      0.000      0.000
REMARK SMILES CC(C)[C@@H](NC(N)=O)C(=O)N[C@H](C(=O)NCCCCNC(=O)c1ccc(-c2c3nc(c(-c4c(F)c(F)c(F)c(F)c4F)c4ccc([nH]4)c(-c4c(F)c(F)c(F)c(F)c4F)c4nc(c(-c5c(F)c(F)c(F)c(F)c5F)c5ccc2[nH]5)C=C4)C=C3)cc1)[C@@H](C)O
REMARK SMILES IDX 17 1 16 2 15 3 13 4 14 5 12 7 11 8 9 9 10 10 4 12 2 13 1 14
REMARK SMILES IDX 3 15 5 16 6 17 7 19 8 20 86 23 87 24 88 25 18 27 19 28 20 29
REMARK SMILES IDX 21 30 22 32 23 33 24 34 85 35 25 36 84 37 26 38 27 39 28 40
REMARK SMILES IDX 78 41 29 42 83 43 77 44 79 45 30 46 82 47 76 48 75 49 31 51
REMARK SMILES IDX 63 52 43 53 62 54 44 55 47 56 61 57 80 58 45 59 46 60 60 62
REMARK SMILES IDX 81 63 48 64 32 65 33 66 41 67 34 68 35 69 39 70 42 71 36 72
REMARK SMILES IDX 37 73 40 74 38 75 64 76 65 77 73 78 66 79 67 80 71 81 74 82
REMARK SMILES IDX 68 83 69 84 72 85 70 86 49 87 50 88 58 89 51 90 52 91 56 92
REMARK SMILES IDX 59 93 53 94 54 95 57 96 55 97
REMARK H PARENT 15 6 11 11 5 18 7 21 7 22 88 26 20 31 79 50 47 61
REMARK Flexibility Score: inf
ROOT
ATOM      1  C   UNL A   1      32.458  27.037  26.484  1.00  0.00     0.023 C 
ENDROOT
BRANCH   1   2
ATOM      2  C   UNL A   1      32.928  25.637  25.855  1.00  0.00     0.116 C 
BRANCH   2   3
ATOM      3  N   UNL A   1      33.137  25.312  24.433  1.00  0.00    -0.354 N 
ATOM      4  C   UNL A   1      34.059  24.525  23.764  1.00  0.00     0.245 C 
ATOM      5  O   UNL A   1      34.037  24.565  22.531  1.00  0.00    -0.273 OA
ATOM      6  H   UNL A   1      32.487  25.744  23.833  1.00  0.00     0.163 HD
BRANCH   4   7
ATOM      7  C   UNL A   1      34.867  23.476  24.542  1.00  0.00     0.200 C 
BRANCH   7   8
ATOM      8  N   UNL A   1      34.554  22.205  23.879  1.00  0.00    -0.340 N 
ATOM      9  C   UNL A   1      34.278  21.100  24.652  1.00  0.00     0.243 C 
ATOM     10  O   UNL A   1      35.201  20.607  25.300  1.00  0.00    -0.273 OA
ATOM     11  H   UNL A   1      34.542  22.144  22.897  1.00  0.00     0.164 HD
BRANCH   9  12
ATOM     12  C   UNL A   1      32.849  20.448  24.550  1.00  0.00     0.175 C 
BRANCH  12  13
ATOM     13  C   UNL A   1      32.518  18.895  24.562  1.00  0.00     0.015 C 
ATOM     14  C   UNL A   1      33.433  18.240  23.500  1.00  0.00     0.010 C 
ATOM     15  C   UNL A   1      32.701  17.913  25.752  1.00  0.00     0.010 C 
ENDBRANCH  12  13
BRANCH  12  16
ATOM     16  N   UNL A   1      32.172  21.042  25.720  1.00  0.00    -0.326 N 
ATOM     17  C   UNL A   1      31.444  22.193  25.651  1.00  0.00     0.312 C 
ATOM     18  H   UNL A   1      32.249  20.586  26.590  1.00  0.00     0.166 HD
ATOM     19  N   UNL A   1      30.999  22.582  26.870  1.00  0.00    -0.352 N 
ATOM     20  O   UNL A   1      31.253  22.852  24.659  1.00  0.00    -0.249 OA
ATOM     21  H   UNL A   1      31.173  22.020  27.661  1.00  0.00     0.161 HD
ATOM     22  H   UNL A   1      30.502  23.426  26.967  1.00  0.00     0.161 HD
ENDBRANCH  12  16
ENDBRANCH   9  12
ENDBRANCH   7   8
BRANCH   7  23
ATOM     23  C   UNL A   1      36.416  23.681  24.616  1.00  0.00     0.143 C 
ATOM     24  C   UNL A   1      37.116  23.715  25.973  1.00  0.00     0.041 C 
BRANCH  23  25
ATOM     25  O   UNL A   1      37.077  22.722  23.776  1.00  0.00    -0.391 OA
ATOM     26  H   UNL A   1      38.022  22.700  23.993  1.00  0.00     0.211 HD
ENDBRANCH  23  25
ENDBRANCH   7  23
ENDBRANCH   4   7
ENDBRANCH   2   3
ENDBRANCH   1   2
BRANCH   1  27
ATOM     27  C   UNL A   1      31.880  28.283  25.754  1.00  0.00     0.023 C 
BRANCH  27  28
ATOM     28  C   UNL A   1      32.814  29.475  25.387  1.00  0.00     0.116 C 
BRANCH  28  29
ATOM     29  N   UNL A   1      32.504  30.718  26.061  1.00  0.00    -0.352 N 
ATOM     30  C   UNL A   1      33.164  31.436  27.034  1.00  0.00     0.251 C 
ATOM     31  H   UNL A   1      31.659  31.130  25.767  1.00  0.00     0.163 HD
ATOM     32  O   UNL A   1      32.598  32.434  27.484  1.00  0.00    -0.269 OA
BRANCH  30  33
ATOM     33  C   UNL A   1      34.508  31.092  27.598  1.00  0.00     0.039 A 
ATOM     34  C   UNL A   1      34.657  29.810  28.156  1.00  0.00     0.014 A 
ATOM     35  C   UNL A   1      35.553  32.004  27.767  1.00  0.00     0.014 A 
ATOM     36  C   UNL A   1      35.819  29.441  28.856  1.00  0.00     0.010 A 
ATOM     37  C   UNL A   1      36.738  31.623  28.447  1.00  0.00     0.010 A 
ATOM     38  C   UNL A   1      36.885  30.339  29.009  1.00  0.00    -0.014 A 
BRANCH  38  39
ATOM     39  C   UNL A   1      38.121  29.924  29.756  1.00  0.00     0.031 A 
ATOM     40  C   UNL A   1      38.407  30.427  31.153  1.00  0.00     0.074 A 
ATOM     41  C   UNL A   1      39.001  29.069  29.192  1.00  0.00     0.049 A 
ATOM     42  N   UNL A   1      39.420  30.158  31.947  1.00  0.00    -0.248 NA
ATOM     43  C   UNL A   1      37.432  31.361  31.730  1.00  0.00     0.031 C 
ATOM     44  C   UNL A   1      38.876  28.501  27.851  1.00  0.00     0.029 A 
ATOM     45  N   UNL A   1      40.174  28.527  29.671  1.00  0.00    -0.354 N 
ATOM     46  C   UNL A   1      39.209  30.893  33.108  1.00  0.00     0.074 A 
ATOM     47  C   UNL A   1      37.991  31.651  32.898  1.00  0.00     0.031 C 
ATOM     48  C   UNL A   1      39.913  27.679  27.621  1.00  0.00     0.029 A 
ATOM     49  C   UNL A   1      40.800  27.684  28.782  1.00  0.00     0.049 A 
ATOM     50  H   UNL A   1      40.531  28.724  30.568  1.00  0.00     0.167 HD
ATOM     51  C   UNL A   1      39.944  30.927  34.249  1.00  0.00     0.037 A 
ATOM     52  C   UNL A   1      41.957  26.998  28.878  1.00  0.00     0.037 A 
ATOM     53  C   UNL A   1      41.150  30.166  34.476  1.00  0.00     0.049 A 
ATOM     54  C   UNL A   1      42.773  27.073  30.144  1.00  0.00     0.074 A 
ATOM     55  C   UNL A   1      41.931  30.106  35.620  1.00  0.00     0.029 A 
ATOM     56  N   UNL A   1      41.753  29.338  33.543  1.00  0.00    -0.354 N 
ATOM     57  N   UNL A   1      42.526  27.729  31.249  1.00  0.00    -0.248 NA
ATOM     58  C   UNL A   1      44.027  26.304  30.174  1.00  0.00     0.031 C 
ATOM     59  C   UNL A   1      43.034  29.285  35.361  1.00  0.00     0.029 A 
ATOM     60  C   UNL A   1      42.911  28.786  34.075  1.00  0.00     0.049 A 
ATOM     61  H   UNL A   1      41.412  29.167  32.636  1.00  0.00     0.167 HD
ATOM     62  C   UNL A   1      43.571  27.430  32.114  1.00  0.00     0.074 A 
ATOM     63  C   UNL A   1      44.450  26.519  31.412  1.00  0.00     0.031 C 
ATOM     64  C   UNL A   1      43.782  27.873  33.379  1.00  0.00     0.037 A 
BRANCH  51  65
ATOM     65  C   UNL A   1      39.471  31.827  35.359  1.00  0.00     0.064 A 
ATOM     66  C   UNL A   1      39.856  33.175  35.430  1.00  0.00     0.173 A 
ATOM     67  C   UNL A   1      38.577  31.353  36.334  1.00  0.00     0.173 A 
ATOM     68  F   UNL A   1      40.705  33.682  34.524  1.00  0.00    -0.203 F 
ATOM     69  C   UNL A   1      39.395  34.002  36.453  1.00  0.00     0.198 A 
ATOM     70  C   UNL A   1      38.093  32.191  37.336  1.00  0.00     0.198 A 
ATOM     71  F   UNL A   1      38.158  30.079  36.305  1.00  0.00    -0.203 F 
ATOM     72  F   UNL A   1      39.817  35.272  36.526  1.00  0.00    -0.200 F 
ATOM     73  C   UNL A   1      38.511  33.512  37.400  1.00  0.00     0.200 A 
ATOM     74  F   UNL A   1      37.221  31.721  38.238  1.00  0.00    -0.200 F 
ATOM     75  F   UNL A   1      38.062  34.311  38.378  1.00  0.00    -0.200 F 
ENDBRANCH  51  65
BRANCH  52  76
ATOM     76  C   UNL A   1      42.420  26.156  27.739  1.00  0.00     0.064 A 
ATOM     77  C   UNL A   1      43.363  26.637  26.819  1.00  0.00     0.173 A 
ATOM     78  C   UNL A   1      41.917  24.862  27.538  1.00  0.00     0.173 A 
ATOM     79  F   UNL A   1      43.851  27.879  26.949  1.00  0.00    -0.203 F 
ATOM     80  C   UNL A   1      43.769  25.864  25.732  1.00  0.00     0.198 A 
ATOM     81  C   UNL A   1      42.347  24.079  26.469  1.00  0.00     0.198 A 
ATOM     82  F   UNL A   1      41.011  24.354  28.386  1.00  0.00    -0.203 F 
ATOM     83  F   UNL A   1      44.633  26.368  24.840  1.00  0.00    -0.200 F 
ATOM     84  C   UNL A   1      43.267  24.583  25.562  1.00  0.00     0.200 A 
ATOM     85  F   UNL A   1      41.869  22.836  26.316  1.00  0.00    -0.200 F 
ATOM     86  F   UNL A   1      43.662  23.839  24.521  1.00  0.00    -0.200 F 
ENDBRANCH  52  76
BRANCH  64  87
ATOM     87  C   UNL A   1      44.990  27.353  34.106  1.00  0.00     0.064 A 
ATOM     88  C   UNL A   1      44.950  26.168  34.855  1.00  0.00     0.173 A 
ATOM     89  C   UNL A   1      46.217  28.032  34.022  1.00  0.00     0.173 A 
ATOM     90  F   UNL A   1      43.801  25.488  34.981  1.00  0.00    -0.203 F 
ATOM     91  C   UNL A   1      46.085  25.697  35.514  1.00  0.00     0.198 A 
ATOM     92  C   UNL A   1      47.355  27.542  34.655  1.00  0.00     0.198 A 
ATOM     93  F   UNL A   1      46.313  29.168  33.315  1.00  0.00    -0.203 F 
ATOM     94  F   UNL A   1      46.009  24.589  36.264  1.00  0.00    -0.200 F 
ATOM     95  C   UNL A   1      47.287  26.379  35.408  1.00  0.00     0.200 A 
ATOM     96  F   UNL A   1      48.519  28.196  34.541  1.00  0.00    -0.200 F 
ATOM     97  F   UNL A   1      48.377  25.920  36.036  1.00  0.00    -0.200 F 
ENDBRANCH  64  87
ENDBRANCH  38  39
ENDBRANCH  30  33
ENDBRANCH  28  29
ENDBRANCH  27  28
ENDBRANCH   1  27
TORSDOF 17
ENDMDL
MODEL 2
REMARK VINA RESULT:     -10.9      1.023      2.378
REMARK SMILES CC(C)[C@@H](NC(N)=O)C(=O)N[C@H](C(=O)NCCCCNC(=O)c1ccc(-c2c3nc(c(-c4c(F)c(F)c(F)c(F)c4F)c4ccc([nH]4)c(-c4c(F)c(F)c(F)c(F)c4F)c4nc(c(-c5c(F)c(F)c(F)c(F)c5F)c5ccc2[nH]5)C=C4)C=C3)cc1)[C@@H](C)O
REMARK SMILES IDX 17 1 16 2 15 3 13 4 14 5 12 7 11 8 9 9 10 10 4 12 2 13 1 14
REMARK SMILES IDX 3 15 5 16 6 17 7 19 8 20 86 23 87 24 88 25 18 27 19 28 20 29
REMARK SMILES IDX 21 30 22 32 23 33 24 34 85 35 25 36 84 37 26 38 27 39 28 40
REMARK SMILES IDX 78 41 29 42 83 43 77 44 79 45 30 46 82 47 76 48 75 49 31 51
REMARK SMILES IDX 63 52 43 53 62 54 44 55 47 56 61 57 80 58 45 59 46 60 60 62
REMARK SMILES IDX 81 63 48 64 32 65 33 66 41 67 34 68 35 69 39 70 42 71 36 72
REMARK SMILES IDX 37 73 40 74 38 75 64 76 65 77 73 78 66 79 67 80 71 81 74 82
REMARK SMILES IDX 68 83 69 84 72 85 70 86 49 87 50 88 58 89 51 90 52 91 56 92
REMARK SMILES IDX 59 93 53 94 54 95 57 96 55 97
REMARK H PARENT 15 6 11 11 5 18 7 21 7 22 88 26 20 31 79 50 47 61
REMARK Flexibility Score: inf
ROOT
ATOM      1  C   UNL A   1      32.795  27.282  26.481  1.00  0.00     0.023 C 
ENDROOT
BRANCH   1   2
ATOM      2  C   UNL A   1      33.723  26.394  25.517  1.00  0.00     0.116 C 
BRANCH   2   3
ATOM      3  N   UNL A   1      33.921  26.549  24.065  1.00  0.00    -0.354 N 
ATOM      4  C   UNL A   1      33.338  25.956  22.959  1.00  0.00     0.245 C 
ATOM      5  O   UNL A   1      33.830  26.221  21.858  1.00  0.00    -0.273 OA
ATOM      6  H   UNL A   1      34.613  27.209  23.833  1.00  0.00     0.163 HD
BRANCH   4   7
ATOM      7  C   UNL A   1      31.993  25.229  23.108  1.00  0.00     0.200 C 
BRANCH   7   8
ATOM      8  N   UNL A   1      32.267  24.136  24.048  1.00  0.00    -0.340 N 
ATOM      9  C   UNL A   1      32.562  22.887  23.551  1.00  0.00     0.243 C 
ATOM     10  O   UNL A   1      31.659  22.264  22.993  1.00  0.00    -0.273 OA
ATOM     11  H   UNL A   1      32.242  24.295  25.019  1.00  0.00     0.164 HD
BRANCH   9  12
ATOM     12  C   UNL A   1      33.978  22.272  23.851  1.00  0.00     0.175 C 
BRANCH  12  13
ATOM     13  C   UNL A   1      35.347  23.069  23.969  1.00  0.00     0.015 C 
ATOM     14  C   UNL A   1      35.598  23.294  25.479  1.00  0.00     0.010 C 
ATOM     15  C   UNL A   1      36.749  22.585  23.508  1.00  0.00     0.010 C 
ENDBRANCH  12  13
BRANCH  12  16
ATOM     16  N   UNL A   1      33.745  21.622  25.157  1.00  0.00    -0.326 N 
ATOM     17  C   UNL A   1      33.694  20.268  25.313  1.00  0.00     0.312 C 
ATOM     18  H   UNL A   1      33.620  22.191  25.950  1.00  0.00     0.166 HD
ATOM     19  N   UNL A   1      33.379  19.919  26.584  1.00  0.00    -0.352 N 
ATOM     20  O   UNL A   1      33.840  19.448  24.440  1.00  0.00    -0.249 OA
ATOM     21  H   UNL A   1      33.267  20.614  27.273  1.00  0.00     0.161 HD
ATOM     22  H   UNL A   1      33.261  18.970  26.819  1.00  0.00     0.161 HD
ENDBRANCH  12  16
ENDBRANCH   9  12
ENDBRANCH   7   8
BRANCH   7  23
ATOM     23  C   UNL A   1      30.776  26.078  23.605  1.00  0.00     0.143 C 
ATOM     24  C   UNL A   1      30.368  27.340  22.848  1.00  0.00     0.041 C 
BRANCH  23  25
ATOM     25  O   UNL A   1      29.623  25.235  23.760  1.00  0.00    -0.391 OA
ATOM     26  H   UNL A   1      29.433  25.118  24.703  1.00  0.00     0.211 HD
ENDBRANCH  23  25
ENDBRANCH   7  23
ENDBRANCH   4   7
ENDBRANCH   2   3
ENDBRANCH   1   2
BRANCH   1  27
ATOM     27  C   UNL A   1      32.019  28.587  26.148  1.00  0.00     0.023 C 
BRANCH  27  28
ATOM     28  C   UNL A   1      32.764  29.798  25.510  1.00  0.00     0.116 C 
BRANCH  28  29
ATOM     29  N   UNL A   1      32.500  31.073  26.141  1.00  0.00    -0.352 N 
ATOM     30  C   UNL A   1      33.191  31.802  27.084  1.00  0.00     0.251 C 
ATOM     31  H   UNL A   1      31.668  31.503  25.838  1.00  0.00     0.163 HD
ATOM     32  O   UNL A   1      32.662  32.834  27.502  1.00  0.00    -0.269 OA
BRANCH  30  33
ATOM     33  C   UNL A   1      34.526  31.433  27.653  1.00  0.00     0.039 A 
ATOM     34  C   UNL A   1      34.664  30.131  28.164  1.00  0.00     0.014 A 
ATOM     35  C   UNL A   1      35.572  32.336  27.868  1.00  0.00     0.014 A 
ATOM     36  C   UNL A   1      35.817  29.733  28.865  1.00  0.00     0.010 A 
ATOM     37  C   UNL A   1      36.746  31.926  28.549  1.00  0.00     0.010 A 
ATOM     38  C   UNL A   1      36.883  30.622  29.065  1.00  0.00    -0.014 A 
BRANCH  38  39
ATOM     39  C   UNL A   1      38.108  30.176  29.812  1.00  0.00     0.031 A 
ATOM     40  C   UNL A   1      38.392  30.649  31.219  1.00  0.00     0.074 A 
ATOM     41  C   UNL A   1      38.980  29.319  29.237  1.00  0.00     0.049 A 
ATOM     42  N   UNL A   1      39.396  30.351  32.014  1.00  0.00    -0.248 NA
ATOM     43  C   UNL A   1      37.427  31.586  31.808  1.00  0.00     0.031 C 
ATOM     44  C   UNL A   1      38.855  28.776  27.886  1.00  0.00     0.029 A 
ATOM     45  N   UNL A   1      40.142  28.751  29.714  1.00  0.00    -0.354 N 
ATOM     46  C   UNL A   1      39.188  31.069  33.188  1.00  0.00     0.074 A 
ATOM     47  C   UNL A   1      37.982  31.847  32.984  1.00  0.00     0.031 C 
ATOM     48  C   UNL A   1      39.882  27.944  27.648  1.00  0.00     0.029 A 
ATOM     49  C   UNL A   1      40.762  27.915  28.814  1.00  0.00     0.049 A 
ATOM     50  H   UNL A   1      40.495  28.927  30.616  1.00  0.00     0.167 HD
ATOM     51  C   UNL A   1      39.916  31.071  34.334  1.00  0.00     0.037 A 
ATOM     52  C   UNL A   1      41.908  27.211  28.905  1.00  0.00     0.037 A 
ATOM     53  C   UNL A   1      41.109  30.289  34.554  1.00  0.00     0.049 A 
ATOM     54  C   UNL A   1      42.717  27.252  30.176  1.00  0.00     0.074 A 
ATOM     55  C   UNL A   1      41.883  30.197  35.702  1.00  0.00     0.029 A 
ATOM     56  N   UNL A   1      41.707  29.469  33.610  1.00  0.00    -0.354 N 
ATOM     57  N   UNL A   1      42.472  27.891  31.292  1.00  0.00    -0.248 NA
ATOM     58  C   UNL A   1      43.959  26.464  30.201  1.00  0.00     0.031 C 
ATOM     59  C   UNL A   1      42.975  29.365  35.434  1.00  0.00     0.029 A 
ATOM     60  C   UNL A   1      42.853  28.891  34.139  1.00  0.00     0.049 A 
ATOM     61  H   UNL A   1      41.369  29.319  32.698  1.00  0.00     0.167 HD
ATOM     62  C   UNL A   1      43.507  27.562  32.158  1.00  0.00     0.074 A 
ATOM     63  C   UNL A   1      44.377  26.651  31.444  1.00  0.00     0.031 C 
ATOM     64  C   UNL A   1      43.716  27.978  33.432  1.00  0.00     0.037 A 
BRANCH  51  65
ATOM     65  C   UNL A   1      39.449  31.958  35.457  1.00  0.00     0.064 A 
ATOM     66  C   UNL A   1      39.854  33.297  35.556  1.00  0.00     0.173 A 
ATOM     67  C   UNL A   1      38.540  31.480  36.416  1.00  0.00     0.173 A 
ATOM     68  F   UNL A   1      40.718  33.808  34.665  1.00  0.00    -0.203 F 
ATOM     69  C   UNL A   1      39.399  34.112  36.591  1.00  0.00     0.198 A 
ATOM     70  C   UNL A   1      38.062  32.306  37.430  1.00  0.00     0.198 A 
ATOM     71  F   UNL A   1      38.101  30.213  36.360  1.00  0.00    -0.203 F 
ATOM     72  F   UNL A   1      39.839  35.374  36.690  1.00  0.00    -0.200 F 
ATOM     73  C   UNL A   1      38.500  33.619  37.523  1.00  0.00     0.200 A 
ATOM     74  F   UNL A   1      37.176  31.833  38.317  1.00  0.00    -0.200 F 
ATOM     75  F   UNL A   1      38.056  34.406  38.512  1.00  0.00    -0.200 F 
ENDBRANCH  51  65
BRANCH  52  76
ATOM     76  C   UNL A   1      42.366  26.383  27.754  1.00  0.00     0.064 A 
ATOM     77  C   UNL A   1      43.306  26.875  26.836  1.00  0.00     0.173 A 
ATOM     78  C   UNL A   1      41.861  25.092  27.538  1.00  0.00     0.173 A 
ATOM     79  F   UNL A   1      43.796  28.115  26.981  1.00  0.00    -0.203 F 
ATOM     80  C   UNL A   1      43.708  26.116  25.738  1.00  0.00     0.198 A 
ATOM     81  C   UNL A   1      42.287  24.322  26.458  1.00  0.00     0.198 A 
ATOM     82  F   UNL A   1      40.957  24.574  28.383  1.00  0.00    -0.203 F 
ATOM     83  F   UNL A   1      44.569  26.631  24.849  1.00  0.00    -0.200 F 
ATOM     84  C   UNL A   1      43.205  24.837  25.554  1.00  0.00     0.200 A 
ATOM     85  F   UNL A   1      41.807  23.083  26.290  1.00  0.00    -0.200 F 
ATOM     86  F   UNL A   1      43.595  24.106  24.502  1.00  0.00    -0.200 F 
ENDBRANCH  52  76
BRANCH  64  87
ATOM     87  C   UNL A   1      44.912  27.428  34.157  1.00  0.00     0.064 A 
ATOM     88  C   UNL A   1      46.147  28.093  34.158  1.00  0.00     0.173 A 
ATOM     89  C   UNL A   1      44.812  26.235  34.891  1.00  0.00     0.173 A 
ATOM     90  F   UNL A   1      46.303  29.229  33.460  1.00  0.00    -0.203 F 
ATOM     91  C   UNL A   1      47.242  27.572  34.844  1.00  0.00     0.198 A 
ATOM     92  C   UNL A   1      45.899  25.734  35.601  1.00  0.00     0.198 A 
ATOM     93  F   UNL A   1      43.653  25.560  34.929  1.00  0.00    -0.203 F 
ATOM     94  F   UNL A   1      48.425  28.201  34.790  1.00  0.00    -0.200 F 
ATOM     95  C   UNL A   1      47.116  26.398  35.571  1.00  0.00     0.200 A 
ATOM     96  F   UNL A   1      45.771  24.606  36.314  1.00  0.00    -0.200 F 
ATOM     97  F   UNL A   1      48.168  25.903  36.236  1.00  0.00    -0.200 F 
ENDBRANCH  64  87
ENDBRANCH  38  39
ENDBRANCH  30  33
ENDBRANCH  28  29
ENDBRANCH  27  28
ENDBRANCH   1  27
TORSDOF 17
ENDMDL
MODEL 3
REMARK VINA RESULT:     -10.9      1.120      2.411
REMARK SMILES CC(C)[C@@H](NC(N)=O)C(=O)N[C@H](C(=O)NCCCCNC(=O)c1ccc(-c2c3nc(c(-c4c(F)c(F)c(F)c(F)c4F)c4ccc([nH]4)c(-c4c(F)c(F)c(F)c(F)c4F)c4nc(c(-c5c(F)c(F)c(F)c(F)c5F)c5ccc2[nH]5)C=C4)C=C3)cc1)[C@@H](C)O
REMARK SMILES IDX 17 1 16 2 15 3 13 4 14 5 12 7 11 8 9 9 10 10 4 12 2 13 1 14
REMARK SMILES IDX 3 15 5 16 6 17 7 19 8 20 86 23 87 24 88 25 18 27 19 28 20 29
REMARK SMILES IDX 21 30 22 32 23 33 24 34 85 35 25 36 84 37 26 38 27 39 28 40
REMARK SMILES IDX 78 41 29 42 83 43 77 44 79 45 30 46 82 47 76 48 75 49 31 51
REMARK SMILES IDX 63 52 43 53 62 54 44 55 47 56 61 57 80 58 45 59 46 60 60 62
REMARK SMILES IDX 81 63 48 64 32 65 33 66 41 67 34 68 35 69 39 70 42 71 36 72
REMARK SMILES IDX 37 73 40 74 38 75 64 76 65 77 73 78 66 79 67 80 71 81 74 82
REMARK SMILES IDX 68 83 69 84 72 85 70 86 49 87 50 88 58 89 51 90 52 91 56 92
REMARK SMILES IDX 59 93 53 94 54 95 57 96 55 97
REMARK H PARENT 15 6 11 11 5 18 7 21 7 22 88 26 20 31 79 50 47 61
REMARK Flexibility Score: inf
ROOT
ATOM      1  C   UNL A   1      33.765  27.067  25.694  1.00  0.00     0.023 C 
ENDROOT
BRANCH   1   2
ATOM      2  C   UNL A   1      33.755  25.486  25.414  1.00  0.00     0.116 C 
BRANCH   2   3
ATOM      3  N   UNL A   1      33.698  24.395  26.404  1.00  0.00    -0.354 N 
ATOM      4  C   UNL A   1      32.747  23.437  26.707  1.00  0.00     0.245 C 
ATOM      5  O   UNL A   1      32.958  22.734  27.699  1.00  0.00    -0.273 OA
ATOM      6  H   UNL A   1      34.503  24.336  26.967  1.00  0.00     0.163 HD
BRANCH   4   7
ATOM      7  C   UNL A   1      31.638  23.120  25.692  1.00  0.00     0.200 C 
BRANCH   7   8
ATOM      8  N   UNL A   1      31.819  21.699  25.380  1.00  0.00    -0.340 N 
ATOM      9  C   UNL A   1      32.591  21.346  24.296  1.00  0.00     0.243 C 
ATOM     10  O   UNL A   1      32.154  21.601  23.174  1.00  0.00    -0.273 OA
ATOM     11  H   UNL A   1      31.396  21.007  25.938  1.00  0.00     0.164 HD
BRANCH   9  12
ATOM     12  C   UNL A   1      33.903  20.514  24.544  1.00  0.00     0.175 C 
BRANCH  12  13
ATOM     13  C   UNL A   1      35.310  21.087  25.009  1.00  0.00     0.015 C 
ATOM     14  C   UNL A   1      36.325  19.928  24.874  1.00  0.00     0.010 C 
ATOM     15  C   UNL A   1      36.103  22.251  24.353  1.00  0.00     0.010 C 
ENDBRANCH  12  13
BRANCH  12  16
ATOM     16  N   UNL A   1      33.457  19.569  25.589  1.00  0.00    -0.326 N 
ATOM     17  C   UNL A   1      33.033  18.304  25.311  1.00  0.00     0.312 C 
ATOM     18  H   UNL A   1      33.467  19.866  26.527  1.00  0.00     0.166 HD
ATOM     19  N   UNL A   1      32.592  17.665  26.421  1.00  0.00    -0.352 N 
ATOM     20  O   UNL A   1      32.976  17.799  24.216  1.00  0.00    -0.249 OA
ATOM     21  H   UNL A   1      32.652  18.106  27.300  1.00  0.00     0.161 HD
ATOM     22  H   UNL A   1      32.211  16.760  26.351  1.00  0.00     0.161 HD
ENDBRANCH  12  16
ENDBRANCH   9  12
ENDBRANCH   7   8
BRANCH   7  23
ATOM     23  C   UNL A   1      30.164  23.393  26.139  1.00  0.00     0.143 C 
ATOM     24  C   UNL A   1      29.527  22.532  27.228  1.00  0.00     0.041 C 
BRANCH  23  25
ATOM     25  O   UNL A   1      30.007  24.777  26.489  1.00  0.00    -0.391 OA
ATOM     26  H   UNL A   1      29.185  24.892  26.991  1.00  0.00     0.211 HD
ENDBRANCH  23  25
ENDBRANCH   7  23
ENDBRANCH   4   7
ENDBRANCH   2   3
ENDBRANCH   1   2
BRANCH   1  27
ATOM     27  C   UNL A   1      32.618  28.095  25.486  1.00  0.00     0.023 C 
BRANCH  27  28
ATOM     28  C   UNL A   1      32.937  29.522  24.945  1.00  0.00     0.116 C 
BRANCH  28  29
ATOM     29  N   UNL A   1      32.456  30.606  25.775  1.00  0.00    -0.352 N 
ATOM     30  C   UNL A   1      32.988  31.237  26.877  1.00  0.00     0.251 C 
ATOM     31  H   UNL A   1      31.581  30.962  25.497  1.00  0.00     0.163 HD
ATOM     32  O   UNL A   1      32.292  32.087  27.436  1.00  0.00    -0.269 OA
BRANCH  30  33
ATOM     33  C   UNL A   1      34.341  30.962  27.460  1.00  0.00     0.039 A 
ATOM     34  C   UNL A   1      34.548  29.689  28.019  1.00  0.00     0.014 A 
ATOM     35  C   UNL A   1      35.335  31.928  27.644  1.00  0.00     0.014 A 
ATOM     36  C   UNL A   1      35.718  29.381  28.735  1.00  0.00     0.010 A 
ATOM     37  C   UNL A   1      36.528  31.608  28.340  1.00  0.00     0.010 A 
ATOM     38  C   UNL A   1      36.734  30.333  28.904  1.00  0.00    -0.014 A 
BRANCH  38  39
ATOM     39  C   UNL A   1      37.979  29.981  29.668  1.00  0.00     0.031 A 
ATOM     40  C   UNL A   1      38.224  30.505  31.064  1.00  0.00     0.074 A 
ATOM     41  C   UNL A   1      38.905  29.166  29.119  1.00  0.00     0.049 A 
ATOM     42  N   UNL A   1      39.239  30.289  31.871  1.00  0.00    -0.248 NA
ATOM     43  C   UNL A   1      37.199  31.394  31.625  1.00  0.00     0.031 C 
ATOM     44  C   UNL A   1      38.823  28.584  27.781  1.00  0.00     0.029 A 
ATOM     45  N   UNL A   1      40.098  28.683  29.615  1.00  0.00    -0.354 N 
ATOM     46  C   UNL A   1      38.979  31.020  33.026  1.00  0.00     0.074 A 
ATOM     47  C   UNL A   1      37.730  31.718  32.797  1.00  0.00     0.031 C 
ATOM     48  C   UNL A   1      39.902  27.812  27.568  1.00  0.00     0.029 A 
ATOM     49  C   UNL A   1      40.774  27.866  28.738  1.00  0.00     0.049 A 
ATOM     50  H   UNL A   1      40.433  28.902  30.515  1.00  0.00     0.167 HD
ATOM     51  C   UNL A   1      39.698  31.095  34.175  1.00  0.00     0.037 A 
ATOM     52  C   UNL A   1      41.961  27.236  28.853  1.00  0.00     0.037 A 
ATOM     53  C   UNL A   1      40.936  30.394  34.421  1.00  0.00     0.049 A 
ATOM     54  C   UNL A   1      42.757  27.357  30.127  1.00  0.00     0.074 A 
ATOM     55  C   UNL A   1      41.706  30.379  35.574  1.00  0.00     0.029 A 
ATOM     56  N   UNL A   1      41.590  29.591  33.500  1.00  0.00    -0.354 N 
ATOM     57  N   UNL A   1      42.466  28.008  31.226  1.00  0.00    -0.248 NA
ATOM     58  C   UNL A   1      44.045  26.649  30.177  1.00  0.00     0.031 C 
ATOM     59  C   UNL A   1      42.850  29.609  35.333  1.00  0.00     0.029 A 
ATOM     60  C   UNL A   1      42.766  29.097  34.049  1.00  0.00     0.049 A 
ATOM     61  H   UNL A   1      41.268  29.398  32.590  1.00  0.00     0.167 HD
ATOM     62  C   UNL A   1      43.514  27.764  32.104  1.00  0.00     0.074 A 
ATOM     63  C   UNL A   1      44.443  26.891  31.418  1.00  0.00     0.031 C 
ATOM     64  C   UNL A   1      43.687  28.223  33.369  1.00  0.00     0.037 A 
BRANCH  51  65
ATOM     65  C   UNL A   1      39.170  31.979  35.274  1.00  0.00     0.064 A 
ATOM     66  C   UNL A   1      38.417  31.460  36.338  1.00  0.00     0.173 A 
ATOM     67  C   UNL A   1      39.469  33.351  35.295  1.00  0.00     0.173 A 
ATOM     68  F   UNL A   1      38.104  30.156  36.371  1.00  0.00    -0.203 F 
ATOM     69  C   UNL A   1      37.950  32.287  37.358  1.00  0.00     0.198 A 
ATOM     70  C   UNL A   1      39.029  34.168  36.334  1.00  0.00     0.198 A 
ATOM     71  F   UNL A   1      40.204  33.899  34.316  1.00  0.00    -0.203 F 
ATOM     72  F   UNL A   1      37.190  31.776  38.337  1.00  0.00    -0.200 F 
ATOM     73  C   UNL A   1      38.261  33.637  37.359  1.00  0.00     0.200 A 
ATOM     74  F   UNL A   1      39.349  35.470  36.343  1.00  0.00    -0.200 F 
ATOM     75  F   UNL A   1      37.819  34.429  38.346  1.00  0.00    -0.200 F 
ENDBRANCH  51  65
BRANCH  52  76
ATOM     76  C   UNL A   1      42.476  26.411  27.725  1.00  0.00     0.064 A 
ATOM     77  C   UNL A   1      43.424  26.922  26.826  1.00  0.00     0.173 A 
ATOM     78  C   UNL A   1      42.020  25.101  27.512  1.00  0.00     0.173 A 
ATOM     79  F   UNL A   1      43.869  28.180  26.968  1.00  0.00    -0.203 F 
ATOM     80  C   UNL A   1      43.880  26.164  25.749  1.00  0.00     0.198 A 
ATOM     81  C   UNL A   1      42.500  24.333  26.453  1.00  0.00     0.198 A 
ATOM     82  F   UNL A   1      41.111  24.563  28.339  1.00  0.00    -0.203 F 
ATOM     83  F   UNL A   1      44.747  26.697  24.877  1.00  0.00    -0.200 F 
ATOM     84  C   UNL A   1      43.424  24.868  25.567  1.00  0.00     0.200 A 
ATOM     85  F   UNL A   1      42.066  23.076  26.289  1.00  0.00    -0.200 F 
ATOM     86  F   UNL A   1      43.867  24.138  24.535  1.00  0.00    -0.200 F 
ENDBRANCH  52  76
BRANCH  64  87
ATOM     87  C   UNL A   1      44.911  27.765  34.113  1.00  0.00     0.064 A 
ATOM     88  C   UNL A   1      44.897  26.626  34.931  1.00  0.00     0.173 A 
ATOM     89  C   UNL A   1      46.125  28.458  33.977  1.00  0.00     0.173 A 
ATOM     90  F   UNL A   1      43.759  25.937  35.108  1.00  0.00    -0.203 F 
ATOM     91  C   UNL A   1      46.044  26.212  35.605  1.00  0.00     0.198 A 
ATOM     92  C   UNL A   1      47.277  28.023  34.627  1.00  0.00     0.198 A 
ATOM     93  F   UNL A   1      46.197  29.551  33.204  1.00  0.00    -0.203 F 
ATOM     94  F   UNL A   1      45.993  25.149  36.419  1.00  0.00    -0.200 F 
ATOM     95  C   UNL A   1      47.234  26.906  35.447  1.00  0.00     0.200 A 
ATOM     96  F   UNL A   1      48.430  28.688  34.463  1.00  0.00    -0.200 F 
ATOM     97  F   UNL A   1      48.338  26.501  36.090  1.00  0.00    -0.200 F 
ENDBRANCH  64  87
ENDBRANCH  38  39
ENDBRANCH  30  33
ENDBRANCH  28  29
ENDBRANCH  27  28
ENDBRANCH   1  27
TORSDOF 17
ENDMDL
