MODEL 1
REMARK VINA RESULT:     -11.8      0.000      0.000
REMARK SMILES Cc1occc1C(=O)NN1C(=O)/C(=C\c2ccc(O[C@H](C)C(=O)NCCCCNC(=O)c3ccc(-c4c5nc(c(-c6c(F)c(F)c(F)c(F)c6F)c6ccc([nH]6)c(-c6c(F)c(F)c(F)c(F)c6F)c6nc(c(-c7c(F)c(F)c(F)c(F)c7F)c7ccc4[nH]7)C=C6)C=C5)cc3)cc2)SC1=S
REMARK SMILES IDX 25 1 24 2 22 3 23 4 20 6 21 7 19 8 18 9 15 10 16 11 96 12
REMARK SMILES IDX 17 13 95 14 14 15 10 16 11 17 98 18 12 19 13 20 97 21 99 22
REMARK SMILES IDX 9 23 7 24 8 25 6 27 1 28 2 29 3 30 4 31 5 32 26 33 27 34
REMARK SMILES IDX 28 35 29 36 30 37 31 39 32 40 33 41 94 42 34 43 93 44 35 45
REMARK SMILES IDX 36 46 37 47 87 48 38 49 92 50 86 51 88 52 39 53 91 54 85 55
REMARK SMILES IDX 84 56 40 58 72 59 52 60 71 61 53 62 56 63 70 64 89 65 54 66
REMARK SMILES IDX 55 67 69 69 90 70 57 71 41 72 42 73 50 74 43 75 44 76 48 77
REMARK SMILES IDX 51 78 45 79 46 80 49 81 47 82 73 83 74 84 82 85 75 86 76 87
REMARK SMILES IDX 80 88 83 89 77 90 78 91 81 92 79 93 58 94 59 95 67 96 60 97
REMARK SMILES IDX 61 98 65 99 68 100 62 101 63 102 66 103 64 104
REMARK H PARENT 24 5 9 26 29 38 88 57 56 68
REMARK Flexibility Score: inf
ROOT
ATOM      1  C   UNL A   1      43.462  39.140  26.952  1.00  0.00     0.116 C 
ENDROOT
BRANCH   1   2
ATOM      2  N   UNL A   1      44.776  38.699  26.551  1.00  0.00    -0.353 N 
ATOM      3  C   UNL A   1      45.847  39.393  26.079  1.00  0.00     0.260 C 
ATOM      4  O   UNL A   1      46.897  38.746  25.965  1.00  0.00    -0.271 OA
ATOM      5  H   UNL A   1      44.924  37.729  26.634  1.00  0.00     0.163 HD
BRANCH   3   6
ATOM      6  C   UNL A   1      45.789  40.865  25.578  1.00  0.00     0.258 C 
ATOM      7  C   UNL A   1      46.105  41.808  26.737  1.00  0.00     0.064 C 
BRANCH   6   8
ATOM      8  O   UNL A   1      46.220  41.223  24.272  1.00  0.00    -0.481 OA
BRANCH   8   9
ATOM      9  C   UNL A   1      46.050  42.430  23.675  1.00  0.00     0.120 A 
ATOM     10  C   UNL A   1      46.030  44.987  22.493  1.00  0.00    -0.024 A 
ATOM     11  C   UNL A   1      44.851  44.402  22.960  1.00  0.00     0.012 A 
ATOM     12  C   UNL A   1      47.229  44.281  22.602  1.00  0.00     0.012 A 
ATOM     13  C   UNL A   1      44.859  43.128  23.530  1.00  0.00     0.047 A 
ATOM     14  C   UNL A   1      47.229  43.003  23.175  1.00  0.00     0.047 A 
BRANCH  10  15
ATOM     15  C   UNL A   1      45.905  46.284  21.825  1.00  0.00     0.029 C 
ATOM     16  N   UNL A   1      44.901  45.913  18.351  1.00  0.00    -0.198 N 
ATOM     17  C   UNL A   1      45.254  45.345  19.565  1.00  0.00     0.285 C 
ATOM     18  C   UNL A   1      44.583  47.254  18.325  1.00  0.00     0.168 C 
ATOM     19  O   UNL A   1      45.346  44.147  19.770  1.00  0.00    -0.266 OA
ATOM     20  C   UNL A   1      45.474  46.429  20.565  1.00  0.00     0.082 C 
ATOM     21  S   UNL A   1      45.035  47.959  19.881  1.00  0.00    -0.052 SA
ATOM     22  S   UNL A   1      43.878  48.123  17.092  1.00  0.00    -0.050 S 
BRANCH  16  23
ATOM     23  N   UNL A   1      44.674  45.036  17.301  1.00  0.00    -0.254 N 
ATOM     24  C   UNL A   1      43.475  44.472  16.936  1.00  0.00     0.273 C 
ATOM     25  O   UNL A   1      43.431  43.934  15.827  1.00  0.00    -0.267 OA
ATOM     26  H   UNL A   1      45.458  44.789  16.759  1.00  0.00     0.192 HD
BRANCH  24  27
ATOM     27  C   UNL A   1      42.332  44.371  17.838  1.00  0.00     0.082 A 
ATOM     28  C   UNL A   1      42.753  42.567  19.763  1.00  0.00     0.088 C 
ATOM     29  C   UNL A   1      42.058  43.587  18.952  1.00  0.00     0.113 A 
ATOM     30  O   UNL A   1      40.821  43.891  19.449  1.00  0.00    -0.469 OA
ATOM     31  C   UNL A   1      40.317  44.908  18.717  1.00  0.00     0.196 A 
ATOM     32  C   UNL A   1      41.205  45.258  17.738  1.00  0.00     0.056 A 
ENDBRANCH  24  27
ENDBRANCH  16  23
ENDBRANCH  10  15
ENDBRANCH   8   9
ENDBRANCH   6   8
ENDBRANCH   3   6
ENDBRANCH   1   2
BRANCH   1  33
ATOM     33  C   UNL A   1      43.108  38.741  28.381  1.00  0.00     0.023 C 
BRANCH  33  34
ATOM     34  C   UNL A   1      43.982  39.400  29.451  1.00  0.00     0.023 C 
BRANCH  34  35
ATOM     35  C   UNL A   1      44.879  38.448  30.240  1.00  0.00     0.116 C 
BRANCH  35  36
ATOM     36  N   UNL A   1      46.220  38.301  29.693  1.00  0.00    -0.352 N 
ATOM     37  C   UNL A   1      46.817  37.164  29.201  1.00  0.00     0.251 C 
ATOM     38  H   UNL A   1      46.768  39.120  29.672  1.00  0.00     0.163 HD
ATOM     39  O   UNL A   1      47.991  37.178  28.848  1.00  0.00    -0.269 OA
BRANCH  37  40
ATOM     40  C   UNL A   1      46.039  35.908  29.153  1.00  0.00     0.039 A 
ATOM     41  C   UNL A   1      45.269  35.634  28.021  1.00  0.00     0.014 A 
ATOM     42  C   UNL A   1      46.118  34.979  30.195  1.00  0.00     0.014 A 
ATOM     43  C   UNL A   1      44.649  34.389  27.894  1.00  0.00     0.010 A 
ATOM     44  C   UNL A   1      45.559  33.714  30.035  1.00  0.00     0.010 A 
ATOM     45  C   UNL A   1      44.829  33.402  28.878  1.00  0.00    -0.014 A 
BRANCH  45  46
ATOM     46  C   UNL A   1      44.292  32.031  28.692  1.00  0.00     0.031 A 
ATOM     47  C   UNL A   1      42.965  31.644  29.279  1.00  0.00     0.074 A 
ATOM     48  C   UNL A   1      45.038  31.112  28.050  1.00  0.00     0.049 A 
ATOM     49  N   UNL A   1      42.349  30.489  29.243  1.00  0.00    -0.248 NA
ATOM     50  C   UNL A   1      42.243  32.684  30.029  1.00  0.00     0.031 C 
ATOM     51  C   UNL A   1      46.374  31.343  27.498  1.00  0.00     0.029 A 
ATOM     52  N   UNL A   1      44.784  29.795  27.757  1.00  0.00    -0.354 N 
ATOM     53  C   UNL A   1      41.180  30.659  29.970  1.00  0.00     0.074 A 
ATOM     54  C   UNL A   1      41.196  32.013  30.483  1.00  0.00     0.031 C 
ATOM     55  C   UNL A   1      46.810  30.218  26.910  1.00  0.00     0.029 A 
ATOM     56  C   UNL A   1      45.798  29.177  27.068  1.00  0.00     0.049 A 
ATOM     57  H   UNL A   1      43.952  29.336  28.018  1.00  0.00     0.167 HD
ATOM     58  C   UNL A   1      40.172  29.777  30.169  1.00  0.00     0.037 A 
ATOM     59  C   UNL A   1      45.899  27.915  26.610  1.00  0.00     0.037 A 
ATOM     60  C   UNL A   1      40.147  28.440  29.637  1.00  0.00     0.049 A 
ATOM     61  C   UNL A   1      44.758  26.960  26.830  1.00  0.00     0.074 A 
ATOM     62  C   UNL A   1      39.138  27.496  29.721  1.00  0.00     0.029 A 
ATOM     63  N   UNL A   1      41.182  27.856  28.921  1.00  0.00    -0.354 N 
ATOM     64  N   UNL A   1      43.618  27.161  27.444  1.00  0.00    -0.248 NA
ATOM     65  C   UNL A   1      44.915  25.604  26.284  1.00  0.00     0.031 C 
ATOM     66  C   UNL A   1      39.580  26.326  29.093  1.00  0.00     0.029 A 
ATOM     67  C   UNL A   1      40.845  26.556  28.577  1.00  0.00     0.049 A 
ATOM     68  H   UNL A   1      42.031  28.300  28.693  1.00  0.00     0.167 HD
ATOM     69  C   UNL A   1      42.913  25.970  27.340  1.00  0.00     0.074 A 
ATOM     70  C   UNL A   1      43.747  25.056  26.586  1.00  0.00     0.031 C 
ATOM     71  C   UNL A   1      41.688  25.659  27.828  1.00  0.00     0.037 A 
BRANCH  58  72
ATOM     72  C   UNL A   1      39.003  30.235  30.991  1.00  0.00     0.064 A 
ATOM     73  C   UNL A   1      38.973  30.063  32.384  1.00  0.00     0.173 A 
ATOM     74  C   UNL A   1      37.916  30.885  30.388  1.00  0.00     0.173 A 
ATOM     75  F   UNL A   1      39.983  29.437  33.008  1.00  0.00    -0.203 F 
ATOM     76  C   UNL A   1      37.887  30.498  33.138  1.00  0.00     0.198 A 
ATOM     77  C   UNL A   1      36.845  31.345  31.149  1.00  0.00     0.198 A 
ATOM     78  F   UNL A   1      37.896  31.080  29.061  1.00  0.00    -0.203 F 
ATOM     79  F   UNL A   1      37.861  30.279  34.460  1.00  0.00    -0.200 F 
ATOM     80  C   UNL A   1      36.827  31.145  32.521  1.00  0.00     0.200 A 
ATOM     81  F   UNL A   1      35.825  31.981  30.554  1.00  0.00    -0.200 F 
ATOM     82  F   UNL A   1      35.785  31.569  33.248  1.00  0.00    -0.200 F 
ENDBRANCH  58  72
BRANCH  59  83
ATOM     83  C   UNL A   1      47.112  27.491  25.863  1.00  0.00     0.064 A 
ATOM     84  C   UNL A   1      48.200  26.912  26.531  1.00  0.00     0.173 A 
ATOM     85  C   UNL A   1      47.208  27.654  24.474  1.00  0.00     0.173 A 
ATOM     86  F   UNL A   1      48.161  26.754  27.861  1.00  0.00    -0.203 F 
ATOM     87  C   UNL A   1      49.347  26.530  25.840  1.00  0.00     0.198 A 
ATOM     88  C   UNL A   1      48.346  27.247  23.780  1.00  0.00     0.198 A 
ATOM     89  F   UNL A   1      46.191  28.197  23.788  1.00  0.00    -0.203 F 
ATOM     90  F   UNL A   1      50.390  26.019  26.509  1.00  0.00    -0.200 F 
ATOM     91  C   UNL A   1      49.418  26.693  24.464  1.00  0.00     0.200 A 
ATOM     92  F   UNL A   1      48.405  27.394  22.450  1.00  0.00    -0.200 F 
ATOM     93  F   UNL A   1      50.520  26.321  23.800  1.00  0.00    -0.200 F 
ENDBRANCH  59  83
BRANCH  71  94
ATOM     94  C   UNL A   1      41.166  24.282  27.541  1.00  0.00     0.064 A 
ATOM     95  C   UNL A   1      40.113  24.069  26.638  1.00  0.00     0.173 A 
ATOM     96  C   UNL A   1      41.742  23.160  28.155  1.00  0.00     0.173 A 
ATOM     97  F   UNL A   1      39.518  25.111  26.038  1.00  0.00    -0.203 F 
ATOM     98  C   UNL A   1      39.640  22.786  26.381  1.00  0.00     0.198 A 
ATOM     99  C   UNL A   1      41.286  21.876  27.874  1.00  0.00     0.198 A 
ATOM    100  F   UNL A   1      42.755  23.310  29.023  1.00  0.00    -0.203 F 
ATOM    101  F   UNL A   1      38.602  22.610  25.553  1.00  0.00    -0.200 F 
ATOM    102  C   UNL A   1      40.230  21.690  26.994  1.00  0.00     0.200 A 
ATOM    103  F   UNL A   1      41.864  20.817  28.458  1.00  0.00    -0.200 F 
ATOM    104  F   UNL A   1      39.775  20.455  26.742  1.00  0.00    -0.200 F 
ENDBRANCH  71  94
ENDBRANCH  45  46
ENDBRANCH  37  40
ENDBRANCH  35  36
ENDBRANCH  34  35
ENDBRANCH  33  34
ENDBRANCH   1  33
TORSDOF 16
ENDMDL
MODEL 2
REMARK VINA RESULT:     -11.6      7.590     14.142
REMARK SMILES Cc1occc1C(=O)NN1C(=O)/C(=C\c2ccc(O[C@H](C)C(=O)NCCCCNC(=O)c3ccc(-c4c5nc(c(-c6c(F)c(F)c(F)c(F)c6F)c6ccc([nH]6)c(-c6c(F)c(F)c(F)c(F)c6F)c6nc(c(-c7c(F)c(F)c(F)c(F)c7F)c7ccc4[nH]7)C=C6)C=C5)cc3)cc2)SC1=S
REMARK SMILES IDX 25 1 24 2 22 3 23 4 20 6 21 7 19 8 18 9 15 10 16 11 96 12
REMARK SMILES IDX 17 13 95 14 14 15 10 16 11 17 98 18 12 19 13 20 97 21 99 22
REMARK SMILES IDX 9 23 7 24 8 25 6 27 1 28 2 29 3 30 4 31 5 32 26 33 27 34
REMARK SMILES IDX 28 35 29 36 30 37 31 39 32 40 33 41 94 42 34 43 93 44 35 45
REMARK SMILES IDX 36 46 37 47 87 48 38 49 92 50 86 51 88 52 39 53 91 54 85 55
REMARK SMILES IDX 84 56 40 58 72 59 52 60 71 61 53 62 56 63 70 64 89 65 54 66
REMARK SMILES IDX 55 67 69 69 90 70 57 71 41 72 42 73 50 74 43 75 44 76 48 77
REMARK SMILES IDX 51 78 45 79 46 80 49 81 47 82 73 83 74 84 82 85 75 86 76 87
REMARK SMILES IDX 80 88 83 89 77 90 78 91 81 92 79 93 58 94 59 95 67 96 60 97
REMARK SMILES IDX 61 98 65 99 68 100 62 101 63 102 66 103 64 104
REMARK H PARENT 24 5 9 26 29 38 88 57 56 68
REMARK Flexibility Score: inf
ROOT
ATOM      1  C   UNL A   1      44.230  22.223  25.232  1.00  0.00     0.116 C 
ENDROOT
BRANCH   1   2
ATOM      2  N   UNL A   1      43.506  21.011  25.530  1.00  0.00    -0.353 N 
ATOM      3  C   UNL A   1      42.221  20.813  25.930  1.00  0.00     0.260 C 
ATOM      4  O   UNL A   1      41.844  19.633  25.958  1.00  0.00    -0.271 OA
ATOM      5  H   UNL A   1      44.032  20.186  25.424  1.00  0.00     0.163 HD
BRANCH   3   6
ATOM      6  C   UNL A   1      41.279  21.936  26.451  1.00  0.00     0.258 C 
ATOM      7  C   UNL A   1      39.825  21.496  26.287  1.00  0.00     0.064 C 
BRANCH   6   8
ATOM      8  O   UNL A   1      41.626  22.734  27.575  1.00  0.00    -0.481 OA
BRANCH   8   9
ATOM      9  C   UNL A   1      41.550  24.088  27.649  1.00  0.00     0.120 A 
ATOM     10  C   UNL A   1      41.569  26.870  28.097  1.00  0.00    -0.024 A 
ATOM     11  C   UNL A   1      40.623  26.284  27.253  1.00  0.00     0.012 A 
ATOM     12  C   UNL A   1      42.526  26.060  28.710  1.00  0.00     0.012 A 
ATOM     13  C   UNL A   1      40.625  24.908  27.019  1.00  0.00     0.047 A 
ATOM     14  C   UNL A   1      42.522  24.680  28.470  1.00  0.00     0.047 A 
BRANCH  10  15
ATOM     15  C   UNL A   1      41.546  28.329  28.203  1.00  0.00     0.029 C 
ATOM     16  N   UNL A   1      39.749  29.431  31.164  1.00  0.00    -0.198 N 
ATOM     17  C   UNL A   1      40.188  28.408  30.339  1.00  0.00     0.285 C 
ATOM     18  C   UNL A   1      40.307  30.682  31.008  1.00  0.00     0.168 C 
ATOM     19  O   UNL A   1      39.944  27.226  30.509  1.00  0.00    -0.266 OA
ATOM     20  C   UNL A   1      41.015  28.987  29.242  1.00  0.00     0.082 C 
ATOM     21  S   UNL A   1      41.256  30.681  29.517  1.00  0.00    -0.052 SA
ATOM     22  S   UNL A   1      40.175  32.003  32.012  1.00  0.00    -0.050 S 
BRANCH  16  23
ATOM     23  N   UNL A   1      38.948  29.061  32.235  1.00  0.00    -0.254 N 
ATOM     24  C   UNL A   1      37.587  29.222  32.346  1.00  0.00     0.273 C 
ATOM     25  O   UNL A   1      37.029  28.595  33.250  1.00  0.00    -0.267 OA
ATOM     26  H   UNL A   1      39.405  28.639  32.998  1.00  0.00     0.192 HD
BRANCH  24  27
ATOM     27  C   UNL A   1      36.827  30.178  31.549  1.00  0.00     0.082 A 
ATOM     28  C   UNL A   1      36.813  29.514  28.962  1.00  0.00     0.088 C 
ATOM     29  C   UNL A   1      36.546  30.286  30.192  1.00  0.00     0.113 A 
ATOM     30  O   UNL A   1      35.770  31.386  29.957  1.00  0.00    -0.469 OA
ATOM     31  C   UNL A   1      35.484  31.955  31.148  1.00  0.00     0.196 A 
ATOM     32  C   UNL A   1      36.081  31.248  32.155  1.00  0.00     0.056 A 
ENDBRANCH  24  27
ENDBRANCH  16  23
ENDBRANCH  10  15
ENDBRANCH   8   9
ENDBRANCH   6   8
ENDBRANCH   3   6
ENDBRANCH   1   2
BRANCH   1  33
ATOM     33  C   UNL A   1      45.233  22.602  26.317  1.00  0.00     0.023 C 
BRANCH  33  34
ATOM     34  C   UNL A   1      45.436  24.110  26.484  1.00  0.00     0.023 C 
BRANCH  34  35
ATOM     35  C   UNL A   1      46.885  24.587  26.408  1.00  0.00     0.116 C 
BRANCH  35  36
ATOM     36  N   UNL A   1      47.270  25.119  25.109  1.00  0.00    -0.352 N 
ATOM     37  C   UNL A   1      47.189  26.419  24.666  1.00  0.00     0.251 C 
ATOM     38  H   UNL A   1      47.634  24.467  24.467  1.00  0.00     0.163 HD
ATOM     39  O   UNL A   1      47.476  26.704  23.508  1.00  0.00    -0.269 OA
BRANCH  37  40
ATOM     40  C   UNL A   1      46.701  27.464  25.591  1.00  0.00     0.039 A 
ATOM     41  C   UNL A   1      45.326  27.677  25.704  1.00  0.00     0.014 A 
ATOM     42  C   UNL A   1      47.595  28.186  26.387  1.00  0.00     0.014 A 
ATOM     43  C   UNL A   1      44.842  28.552  26.679  1.00  0.00     0.010 A 
ATOM     44  C   UNL A   1      47.109  29.002  27.404  1.00  0.00     0.010 A 
ATOM     45  C   UNL A   1      45.727  29.184  27.568  1.00  0.00    -0.014 A 
BRANCH  45  46
ATOM     46  C   UNL A   1      45.220  30.007  28.695  1.00  0.00     0.031 A 
ATOM     47  C   UNL A   1      44.899  29.375  30.019  1.00  0.00     0.074 A 
ATOM     48  C   UNL A   1      44.984  31.319  28.500  1.00  0.00     0.049 A 
ATOM     49  N   UNL A   1      44.423  29.928  31.106  1.00  0.00    -0.248 NA
ATOM     50  C   UNL A   1      45.116  27.924  30.130  1.00  0.00     0.031 C 
ATOM     51  C   UNL A   1      45.186  32.036  27.240  1.00  0.00     0.029 A 
ATOM     52  N   UNL A   1      44.515  32.283  29.357  1.00  0.00    -0.354 N 
ATOM     53  C   UNL A   1      44.274  28.896  32.023  1.00  0.00     0.074 A 
ATOM     54  C   UNL A   1      44.657  27.674  31.348  1.00  0.00     0.031 C 
ATOM     55  C   UNL A   1      44.871  33.329  27.413  1.00  0.00     0.029 A 
ATOM     56  C   UNL A   1      44.418  33.528  28.786  1.00  0.00     0.049 A 
ATOM     57  H   UNL A   1      44.271  32.098  30.294  1.00  0.00     0.167 HD
ATOM     58  C   UNL A   1      43.879  28.965  33.316  1.00  0.00     0.037 A 
ATOM     59  C   UNL A   1      44.013  34.700  29.312  1.00  0.00     0.037 A 
ATOM     60  C   UNL A   1      43.522  30.184  33.992  1.00  0.00     0.049 A 
ATOM     61  C   UNL A   1      43.596  34.752  30.757  1.00  0.00     0.074 A 
ATOM     62  C   UNL A   1      43.180  30.367  35.320  1.00  0.00     0.029 A 
ATOM     63  N   UNL A   1      43.459  31.431  33.388  1.00  0.00    -0.354 N 
ATOM     64  N   UNL A   1      43.543  33.783  31.638  1.00  0.00    -0.248 NA
ATOM     65  C   UNL A   1      43.190  36.063  31.281  1.00  0.00     0.031 C 
ATOM     66  C   UNL A   1      42.868  31.718  35.511  1.00  0.00     0.029 A 
ATOM     67  C   UNL A   1      43.062  32.385  34.312  1.00  0.00     0.049 A 
ATOM     68  H   UNL A   1      43.665  31.612  32.442  1.00  0.00     0.167 HD
ATOM     69  C   UNL A   1      43.123  34.368  32.824  1.00  0.00     0.074 A 
ATOM     70  C   UNL A   1      42.952  35.781  32.555  1.00  0.00     0.031 C 
ATOM     71  C   UNL A   1      42.895  33.788  34.027  1.00  0.00     0.037 A 
BRANCH  58  72
ATOM     72  C   UNL A   1      43.823  27.681  34.091  1.00  0.00     0.064 A 
ATOM     73  C   UNL A   1      44.964  27.148  34.711  1.00  0.00     0.173 A 
ATOM     74  C   UNL A   1      42.610  26.992  34.247  1.00  0.00     0.173 A 
ATOM     75  F   UNL A   1      46.150  27.762  34.583  1.00  0.00    -0.203 F 
ATOM     76  C   UNL A   1      44.899  25.960  35.435  1.00  0.00     0.198 A 
ATOM     77  C   UNL A   1      42.544  25.820  34.995  1.00  0.00     0.198 A 
ATOM     78  F   UNL A   1      41.489  27.461  33.679  1.00  0.00    -0.203 F 
ATOM     79  F   UNL A   1      46.012  25.447  35.977  1.00  0.00    -0.200 F 
ATOM     80  C   UNL A   1      43.689  25.301  35.581  1.00  0.00     0.200 A 
ATOM     81  F   UNL A   1      41.371  25.189  35.147  1.00  0.00    -0.200 F 
ATOM     82  F   UNL A   1      43.626  24.161  36.282  1.00  0.00    -0.200 F 
ENDBRANCH  58  72
BRANCH  59  83
ATOM     83  C   UNL A   1      44.019  35.929  28.479  1.00  0.00     0.064 A 
ATOM     84  C   UNL A   1      45.203  36.652  28.276  1.00  0.00     0.173 A 
ATOM     85  C   UNL A   1      42.850  36.405  27.870  1.00  0.00     0.173 A 
ATOM     86  F   UNL A   1      46.342  36.246  28.854  1.00  0.00    -0.203 F 
ATOM     87  C   UNL A   1      45.213  37.817  27.511  1.00  0.00     0.198 A 
ATOM     88  C   UNL A   1      42.866  37.556  27.084  1.00  0.00     0.198 A 
ATOM     89  F   UNL A   1      41.693  35.746  28.028  1.00  0.00    -0.203 F 
ATOM     90  F   UNL A   1      46.350  38.512  27.369  1.00  0.00    -0.200 F 
ATOM     91  C   UNL A   1      44.045  38.265  26.911  1.00  0.00     0.200 A 
ATOM     92  F   UNL A   1      41.739  37.978  26.494  1.00  0.00    -0.200 F 
ATOM     93  F   UNL A   1      44.057  39.382  26.172  1.00  0.00    -0.200 F 
ENDBRANCH  59  83
BRANCH  71  94
ATOM     94  C   UNL A   1      42.457  34.684  35.148  1.00  0.00     0.064 A 
ATOM     95  C   UNL A   1      41.101  34.956  35.383  1.00  0.00     0.173 A 
ATOM     96  C   UNL A   1      43.402  35.254  36.013  1.00  0.00     0.173 A 
ATOM     97  F   UNL A   1      40.160  34.447  34.572  1.00  0.00    -0.203 F 
ATOM     98  C   UNL A   1      40.710  35.788  36.427  1.00  0.00     0.198 A 
ATOM     99  C   UNL A   1      43.005  36.063  37.075  1.00  0.00     0.198 A 
ATOM    100  F   UNL A   1      44.711  35.020  35.835  1.00  0.00    -0.203 F 
ATOM    101  F   UNL A   1      39.412  36.075  36.603  1.00  0.00    -0.200 F 
ATOM    102  C   UNL A   1      41.660  36.336  37.276  1.00  0.00     0.200 A 
ATOM    103  F   UNL A   1      43.924  36.582  37.900  1.00  0.00    -0.200 F 
ATOM    104  F   UNL A   1      41.281  37.135  38.283  1.00  0.00    -0.200 F 
ENDBRANCH  71  94
ENDBRANCH  45  46
ENDBRANCH  37  40
ENDBRANCH  35  36
ENDBRANCH  34  35
ENDBRANCH  33  34
ENDBRANCH   1  33
TORSDOF 16
ENDMDL
MODEL 3
REMARK VINA RESULT:     -11.6     10.483     14.902
REMARK SMILES Cc1occc1C(=O)NN1C(=O)/C(=C\c2ccc(O[C@H](C)C(=O)NCCCCNC(=O)c3ccc(-c4c5nc(c(-c6c(F)c(F)c(F)c(F)c6F)c6ccc([nH]6)c(-c6c(F)c(F)c(F)c(F)c6F)c6nc(c(-c7c(F)c(F)c(F)c(F)c7F)c7ccc4[nH]7)C=C6)C=C5)cc3)cc2)SC1=S
REMARK SMILES IDX 25 1 24 2 22 3 23 4 20 6 21 7 19 8 18 9 15 10 16 11 96 12
REMARK SMILES IDX 17 13 95 14 14 15 10 16 11 17 98 18 12 19 13 20 97 21 99 22
REMARK SMILES IDX 9 23 7 24 8 25 6 27 1 28 2 29 3 30 4 31 5 32 26 33 27 34
REMARK SMILES IDX 28 35 29 36 30 37 31 39 32 40 33 41 94 42 34 43 93 44 35 45
REMARK SMILES IDX 36 46 37 47 87 48 38 49 92 50 86 51 88 52 39 53 91 54 85 55
REMARK SMILES IDX 84 56 40 58 72 59 52 60 71 61 53 62 56 63 70 64 89 65 54 66
REMARK SMILES IDX 55 67 69 69 90 70 57 71 41 72 42 73 50 74 43 75 44 76 48 77
REMARK SMILES IDX 51 78 45 79 46 80 49 81 47 82 73 83 74 84 82 85 75 86 76 87
REMARK SMILES IDX 80 88 83 89 77 90 78 91 81 92 79 93 58 94 59 95 67 96 60 97
REMARK SMILES IDX 61 98 65 99 68 100 62 101 63 102 66 103 64 104
REMARK H PARENT 24 5 9 26 29 38 88 57 56 68
REMARK Flexibility Score: inf
ROOT
ATOM      1  C   UNL A   1      43.526  22.188  25.166  1.00  0.00     0.116 C 
ENDROOT
BRANCH   1   2
ATOM      2  N   UNL A   1      43.203  20.799  25.386  1.00  0.00    -0.353 N 
ATOM      3  C   UNL A   1      42.056  20.204  25.811  1.00  0.00     0.260 C 
ATOM      4  O   UNL A   1      42.040  18.967  25.753  1.00  0.00    -0.271 OA
ATOM      5  H   UNL A   1      43.939  20.174  25.194  1.00  0.00     0.163 HD
BRANCH   3   6
ATOM      6  C   UNL A   1      40.859  20.961  26.455  1.00  0.00     0.258 C 
ATOM      7  C   UNL A   1      41.192  21.294  27.908  1.00  0.00     0.064 C 
BRANCH   6   8
ATOM      8  O   UNL A   1      40.074  21.882  25.709  1.00  0.00    -0.481 OA
BRANCH   8   9
ATOM      9  C   UNL A   1      38.753  22.139  25.890  1.00  0.00     0.120 A 
ATOM     10  C   UNL A   1      35.954  22.434  26.025  1.00  0.00    -0.024 A 
ATOM     11  C   UNL A   1      36.806  23.444  26.479  1.00  0.00     0.012 A 
ATOM     12  C   UNL A   1      36.506  21.259  25.515  1.00  0.00     0.012 A 
ATOM     13  C   UNL A   1      38.193  23.290  26.427  1.00  0.00     0.047 A 
ATOM     14  C   UNL A   1      37.898  21.111  25.467  1.00  0.00     0.047 A 
BRANCH  10  15
ATOM     15  C   UNL A   1      34.518  22.650  26.210  1.00  0.00     0.029 C 
ATOM     16  N   UNL A   1      33.105  24.657  23.529  1.00  0.00    -0.198 N 
ATOM     17  C   UNL A   1      34.203  24.066  24.135  1.00  0.00     0.285 C 
ATOM     18  C   UNL A   1      31.847  24.261  23.929  1.00  0.00     0.168 C 
ATOM     19  O   UNL A   1      35.351  24.160  23.735  1.00  0.00    -0.266 OA
ATOM     20  C   UNL A   1      33.746  23.290  25.323  1.00  0.00     0.082 C 
ATOM     21  S   UNL A   1      32.014  23.279  25.388  1.00  0.00    -0.052 SA
ATOM     22  S   UNL A   1      30.384  24.592  23.206  1.00  0.00    -0.050 S 
BRANCH  16  23
ATOM     23  N   UNL A   1      33.361  25.433  22.409  1.00  0.00    -0.254 N 
ATOM     24  C   UNL A   1      33.317  26.805  22.322  1.00  0.00     0.273 C 
ATOM     25  O   UNL A   1      33.830  27.312  21.322  1.00  0.00    -0.267 OA
ATOM     26  H   UNL A   1      33.599  24.949  21.585  1.00  0.00     0.192 HD
BRANCH  24  27
ATOM     27  C   UNL A   1      32.590  27.642  23.270  1.00  0.00     0.082 A 
ATOM     28  C   UNL A   1      33.566  27.404  25.745  1.00  0.00     0.088 C 
ATOM     29  C   UNL A   1      32.695  27.852  24.640  1.00  0.00     0.113 A 
ATOM     30  O   UNL A   1      31.760  28.760  25.052  1.00  0.00    -0.469 OA
ATOM     31  C   UNL A   1      31.095  29.196  23.960  1.00  0.00     0.196 A 
ATOM     32  C   UNL A   1      31.576  28.568  22.844  1.00  0.00     0.056 A 
ENDBRANCH  24  27
ENDBRANCH  16  23
ENDBRANCH  10  15
ENDBRANCH   8   9
ENDBRANCH   6   8
ENDBRANCH   3   6
ENDBRANCH   1   2
BRANCH   1  33
ATOM     33  C   UNL A   1      45.027  22.457  25.147  1.00  0.00     0.023 C 
BRANCH  33  34
ATOM     34  C   UNL A   1      45.630  22.750  26.522  1.00  0.00     0.023 C 
BRANCH  34  35
ATOM     35  C   UNL A   1      45.786  24.231  26.866  1.00  0.00     0.116 C 
BRANCH  35  36
ATOM     36  N   UNL A   1      46.119  25.075  25.727  1.00  0.00    -0.352 N 
ATOM     37  C   UNL A   1      45.688  26.354  25.463  1.00  0.00     0.251 C 
ATOM     38  H   UNL A   1      46.730  24.680  25.063  1.00  0.00     0.163 HD
ATOM     39  O   UNL A   1      45.989  26.911  24.413  1.00  0.00    -0.269 OA
BRANCH  37  40
ATOM     40  C   UNL A   1      44.810  27.032  26.441  1.00  0.00     0.039 A 
ATOM     41  C   UNL A   1      43.910  26.266  27.185  1.00  0.00     0.014 A 
ATOM     42  C   UNL A   1      44.918  28.407  26.663  1.00  0.00     0.014 A 
ATOM     43  C   UNL A   1      43.182  26.865  28.214  1.00  0.00     0.010 A 
ATOM     44  C   UNL A   1      44.246  28.988  27.735  1.00  0.00     0.010 A 
ATOM     45  C   UNL A   1      43.380  28.220  28.528  1.00  0.00    -0.014 A 
BRANCH  45  46
ATOM     46  C   UNL A   1      42.718  28.837  29.706  1.00  0.00     0.031 A 
ATOM     47  C   UNL A   1      41.322  29.381  29.599  1.00  0.00     0.074 A 
ATOM     48  C   UNL A   1      43.406  28.966  30.857  1.00  0.00     0.049 A 
ATOM     49  N   UNL A   1      40.595  29.977  30.511  1.00  0.00    -0.248 NA
ATOM     50  C   UNL A   1      40.664  29.267  28.289  1.00  0.00     0.031 C 
ATOM     51  C   UNL A   1      44.792  28.544  31.065  1.00  0.00     0.029 A 
ATOM     52  N   UNL A   1      43.037  29.498  32.067  1.00  0.00    -0.354 N 
ATOM     53  C   UNL A   1      39.404  30.316  29.884  1.00  0.00     0.074 A 
ATOM     54  C   UNL A   1      39.526  29.909  28.500  1.00  0.00     0.031 C 
ATOM     55  C   UNL A   1      45.147  28.805  32.333  1.00  0.00     0.029 A 
ATOM     56  C   UNL A   1      44.025  29.439  33.019  1.00  0.00     0.049 A 
ATOM     57  H   UNL A   1      42.147  29.885  32.237  1.00  0.00     0.167 HD
ATOM     58  C   UNL A   1      38.300  30.888  30.420  1.00  0.00     0.037 A 
ATOM     59  C   UNL A   1      44.025  29.848  34.302  1.00  0.00     0.037 A 
ATOM     60  C   UNL A   1      38.172  31.268  31.802  1.00  0.00     0.049 A 
ATOM     61  C   UNL A   1      42.780  30.466  34.877  1.00  0.00     0.074 A 
ATOM     62  C   UNL A   1      37.069  31.787  32.457  1.00  0.00     0.029 A 
ATOM     63  N   UNL A   1      39.186  31.172  32.744  1.00  0.00    -0.354 N 
ATOM     64  N   UNL A   1      41.629  30.700  34.296  1.00  0.00    -0.248 NA
ATOM     65  C   UNL A   1      42.832  30.867  36.290  1.00  0.00     0.031 C 
ATOM     66  C   UNL A   1      37.428  32.045  33.784  1.00  0.00     0.029 A 
ATOM     67  C   UNL A   1      38.741  31.642  33.969  1.00  0.00     0.049 A 
ATOM     68  H   UNL A   1      40.089  30.821  32.567  1.00  0.00     0.167 HD
ATOM     69  C   UNL A   1      40.814  31.253  35.273  1.00  0.00     0.074 A 
ATOM     70  C   UNL A   1      41.596  31.302  36.492  1.00  0.00     0.031 C 
ATOM     71  C   UNL A   1      39.533  31.685  35.171  1.00  0.00     0.037 A 
BRANCH  58  72
ATOM     72  C   UNL A   1      37.134  31.129  29.507  1.00  0.00     0.064 A 
ATOM     73  C   UNL A   1      36.920  32.379  28.904  1.00  0.00     0.173 A 
ATOM     74  C   UNL A   1      36.238  30.093  29.202  1.00  0.00     0.173 A 
ATOM     75  F   UNL A   1      37.741  33.406  29.172  1.00  0.00    -0.203 F 
ATOM     76  C   UNL A   1      35.838  32.590  28.053  1.00  0.00     0.198 A 
ATOM     77  C   UNL A   1      35.175  30.299  28.328  1.00  0.00     0.198 A 
ATOM     78  F   UNL A   1      36.399  28.878  29.748  1.00  0.00    -0.203 F 
ATOM     79  F   UNL A   1      35.629  33.805  27.528  1.00  0.00    -0.200 F 
ATOM     80  C   UNL A   1      34.970  31.549  27.761  1.00  0.00     0.200 A 
ATOM     81  F   UNL A   1      34.342  29.290  28.036  1.00  0.00    -0.200 F 
ATOM     82  F   UNL A   1      33.934  31.750  26.937  1.00  0.00    -0.200 F 
ENDBRANCH  58  72
BRANCH  59  83
ATOM     83  C   UNL A   1      45.234  29.651  35.144  1.00  0.00     0.064 A 
ATOM     84  C   UNL A   1      45.392  28.487  35.910  1.00  0.00     0.173 A 
ATOM     85  C   UNL A   1      46.251  30.614  35.200  1.00  0.00     0.173 A 
ATOM     86  F   UNL A   1      44.437  27.547  35.903  1.00  0.00    -0.203 F 
ATOM     87  C   UNL A   1      46.513  28.304  36.716  1.00  0.00     0.198 A 
ATOM     88  C   UNL A   1      47.384  30.418  35.986  1.00  0.00     0.198 A 
ATOM     89  F   UNL A   1      46.149  31.742  34.480  1.00  0.00    -0.203 F 
ATOM     90  F   UNL A   1      46.619  27.202  37.471  1.00  0.00    -0.200 F 
ATOM     91  C   UNL A   1      47.511  29.267  36.750  1.00  0.00     0.200 A 
ATOM     92  F   UNL A   1      48.352  31.344  36.005  1.00  0.00    -0.200 F 
ATOM     93  F   UNL A   1      48.591  29.088  37.522  1.00  0.00    -0.200 F 
ENDBRANCH  59  83
BRANCH  71  94
ATOM     94  C   UNL A   1      38.892  32.227  36.415  1.00  0.00     0.064 A 
ATOM     95  C   UNL A   1      38.077  31.427  37.229  1.00  0.00     0.173 A 
ATOM     96  C   UNL A   1      39.118  33.553  36.812  1.00  0.00     0.173 A 
ATOM     97  F   UNL A   1      37.818  30.156  36.883  1.00  0.00    -0.203 F 
ATOM     98  C   UNL A   1      37.490  31.942  38.380  1.00  0.00     0.198 A 
ATOM     99  C   UNL A   1      38.552  34.058  37.980  1.00  0.00     0.198 A 
ATOM    100  F   UNL A   1      39.894  34.359  36.071  1.00  0.00    -0.203 F 
ATOM    101  F   UNL A   1      36.675  31.174  39.116  1.00  0.00    -0.200 F 
ATOM    102  C   UNL A   1      37.733  33.255  38.759  1.00  0.00     0.200 A 
ATOM    103  F   UNL A   1      38.797  35.322  38.350  1.00  0.00    -0.200 F 
ATOM    104  F   UNL A   1      37.169  33.748  39.870  1.00  0.00    -0.200 F 
ENDBRANCH  71  94
ENDBRANCH  45  46
ENDBRANCH  37  40
ENDBRANCH  35  36
ENDBRANCH  34  35
ENDBRANCH  33  34
ENDBRANCH   1  33
TORSDOF 16
ENDMDL
