MODEL 1
REMARK VINA RESULT:     -13.7      0.000      0.000
REMARK SMILES COc1ccc(-c2ccc(/C=C3\SC(=S)N([C@H](Cc4ccccc4)C(=O)NCCCCNC(=O)c4ccc(-c5c6nc(c(-c7c(F)c(F)c(F)c(F)c7F)c7ccc([nH]7)c(-c7c(F)c(F)c(F)c(F)c7F)c7nc(c(-c8c(F)c(F)c(F)c(F)c8F)c8ccc5[nH]8)C=C7)C=C6)cc4)C3=O)o2)cc1
REMARK SMILES IDX 28 1 27 2 25 3 26 4 17 6 16 7 11 8 12 9 13 10 98 11 14 12
REMARK SMILES IDX 99 13 15 14 10 15 7 16 8 17 100 18 9 19 6 20 3 21 4 22
REMARK SMILES IDX 102 23 5 24 101 25 2 26 1 27 18 28 19 29 20 30 24 31 21 32
REMARK SMILES IDX 23 33 22 34 29 35 30 36 31 37 32 38 33 39 34 41 35 42 36 43
REMARK SMILES IDX 97 44 37 45 96 46 38 47 39 48 40 49 90 50 41 51 95 52 89 53
REMARK SMILES IDX 91 54 42 55 94 56 88 57 87 58 43 60 75 61 55 62 74 63 56 64
REMARK SMILES IDX 59 65 73 66 92 67 57 68 58 69 72 71 93 72 60 73 44 74 45 75
REMARK SMILES IDX 53 76 46 77 47 78 51 79 54 80 48 81 49 82 52 83 50 84 76 85
REMARK SMILES IDX 77 86 85 87 78 88 79 89 83 90 86 91 80 92 81 93 84 94 82 95
REMARK SMILES IDX 61 96 62 97 70 98 63 99 64 100 68 101 71 102 65 103 66 104
REMARK SMILES IDX 69 105 67 106
REMARK H PARENT 27 5 32 40 91 59 59 70
REMARK Flexibility Score: inf
ROOT
ATOM      1  C   UNL A   1      36.063  21.836  25.134  1.00  0.00     0.116 C 
ENDROOT
BRANCH   1   2
ATOM      2  N   UNL A   1      35.396  21.810  26.406  1.00  0.00    -0.354 N 
ATOM      3  C   UNL A   1      34.058  21.706  26.629  1.00  0.00     0.243 C 
ATOM      4  O   UNL A   1      33.727  21.368  27.773  1.00  0.00    -0.273 OA
ATOM      5  H   UNL A   1      35.971  21.876  27.202  1.00  0.00     0.163 HD
BRANCH   3   6
ATOM      6  C   UNL A   1      32.963  21.932  25.542  1.00  0.00     0.185 C 
BRANCH   6   7
ATOM      7  N   UNL A   1      32.322  23.281  25.500  1.00  0.00    -0.280 N 
ATOM      8  C   UNL A   1      32.770  26.737  24.659  1.00  0.00     0.068 C 
ATOM      9  C   UNL A   1      32.213  25.611  25.116  1.00  0.00     0.084 C 
ATOM     10  S   UNL A   1      30.799  25.330  26.016  1.00  0.00    -0.054 SA
ATOM     11  C   UNL A   1      32.871  24.329  24.799  1.00  0.00     0.267 C 
ATOM     12  C   UNL A   1      31.112  23.588  26.107  1.00  0.00     0.149 C 
ATOM     13  O   UNL A   1      33.768  24.301  23.967  1.00  0.00    -0.268 OA
ATOM     14  S   UNL A   1      30.029  22.578  26.877  1.00  0.00    -0.052 S 
BRANCH   8  15
ATOM     15  C   UNL A   1      32.250  28.039  24.810  1.00  0.00     0.128 A 
ATOM     16  C   UNL A   1      32.082  30.056  25.717  1.00  0.00     0.134 A 
ATOM     17  C   UNL A   1      31.035  29.948  24.831  1.00  0.00     0.051 A 
ATOM     18  O   UNL A   1      32.800  28.905  25.718  1.00  0.00    -0.457 OA
ATOM     19  C   UNL A   1      31.155  28.667  24.234  1.00  0.00     0.051 A 
BRANCH  16  20
ATOM     20  C   UNL A   1      32.568  31.088  26.612  1.00  0.00     0.017 A 
ATOM     21  C   UNL A   1      33.578  33.114  28.280  1.00  0.00     0.118 A 
ATOM     22  C   UNL A   1      34.283  31.923  28.111  1.00  0.00     0.047 A 
ATOM     23  C   UNL A   1      32.360  33.287  27.624  1.00  0.00     0.047 A 
ATOM     24  C   UNL A   1      33.776  30.909  27.297  1.00  0.00     0.016 A 
ATOM     25  C   UNL A   1      31.860  32.281  26.788  1.00  0.00     0.016 A 
BRANCH  21  26
ATOM     26  O   UNL A   1      34.202  34.040  29.069  1.00  0.00    -0.497 OA
ATOM     27  C   UNL A   1      33.367  35.008  29.691  1.00  0.00     0.278 C 
ENDBRANCH  21  26
ENDBRANCH  16  20
ENDBRANCH   8  15
ENDBRANCH   6   7
BRANCH   6  28
ATOM     28  C   UNL A   1      32.118  20.691  25.093  1.00  0.00     0.071 C 
BRANCH  28  29
ATOM     29  C   UNL A   1      32.716  19.585  24.258  1.00  0.00    -0.045 A 
ATOM     30  C   UNL A   1      33.811  18.844  24.734  1.00  0.00     0.004 A 
ATOM     31  C   UNL A   1      32.171  19.240  23.015  1.00  0.00     0.004 A 
ATOM     32  C   UNL A   1      34.233  17.691  24.067  1.00  0.00     0.000 A 
ATOM     33  C   UNL A   1      32.582  18.078  22.358  1.00  0.00     0.000 A 
ATOM     34  C   UNL A   1      33.589  17.285  22.901  1.00  0.00     0.000 A 
ENDBRANCH  28  29
ENDBRANCH   6  28
ENDBRANCH   3   6
ENDBRANCH   1   2
BRANCH   1  35
ATOM     35  C   UNL A   1      37.576  21.915  25.183  1.00  0.00     0.023 C 
BRANCH  35  36
ATOM     36  C   UNL A   1      38.271  20.580  25.342  1.00  0.00     0.023 C 
BRANCH  36  37
ATOM     37  C   UNL A   1      39.587  20.638  26.110  1.00  0.00     0.116 C 
BRANCH  37  38
ATOM     38  N   UNL A   1      40.381  19.411  26.057  1.00  0.00    -0.352 N 
ATOM     39  C   UNL A   1      41.745  19.245  26.175  1.00  0.00     0.251 C 
ATOM     40  H   UNL A   1      39.867  18.583  25.916  1.00  0.00     0.163 HD
ATOM     41  O   UNL A   1      42.271  18.150  26.016  1.00  0.00    -0.269 OA
BRANCH  39  42
ATOM     42  C   UNL A   1      42.576  20.436  26.443  1.00  0.00     0.039 A 
ATOM     43  C   UNL A   1      43.149  21.129  25.376  1.00  0.00     0.014 A 
ATOM     44  C   UNL A   1      42.656  20.940  27.740  1.00  0.00     0.014 A 
ATOM     45  C   UNL A   1      43.689  22.397  25.599  1.00  0.00     0.010 A 
ATOM     46  C   UNL A   1      43.045  22.256  27.927  1.00  0.00     0.010 A 
ATOM     47  C   UNL A   1      43.572  23.002  26.861  1.00  0.00    -0.014 A 
BRANCH  47  48
ATOM     48  C   UNL A   1      43.993  24.407  27.103  1.00  0.00     0.031 A 
ATOM     49  C   UNL A   1      42.982  25.418  27.574  1.00  0.00     0.074 A 
ATOM     50  C   UNL A   1      45.249  24.798  26.804  1.00  0.00     0.049 A 
ATOM     51  N   UNL A   1      43.116  26.708  27.746  1.00  0.00    -0.248 NA
ATOM     52  C   UNL A   1      41.622  24.919  27.837  1.00  0.00     0.031 C 
ATOM     53  C   UNL A   1      46.301  23.938  26.258  1.00  0.00     0.029 A 
ATOM     54  N   UNL A   1      45.852  26.028  26.906  1.00  0.00    -0.354 N 
ATOM     55  C   UNL A   1      41.855  27.170  28.100  1.00  0.00     0.074 A 
ATOM     56  C   UNL A   1      40.955  26.043  28.039  1.00  0.00     0.031 C 
ATOM     57  C   UNL A   1      47.425  24.655  26.106  1.00  0.00     0.029 A 
ATOM     58  C   UNL A   1      47.166  26.035  26.501  1.00  0.00     0.049 A 
ATOM     59  H   UNL A   1      45.388  26.829  27.239  1.00  0.00     0.167 HD
ATOM     60  C   UNL A   1      41.485  28.417  28.477  1.00  0.00     0.037 A 
ATOM     61  C   UNL A   1      48.057  27.044  26.447  1.00  0.00     0.037 A 
ATOM     62  C   UNL A   1      42.397  29.524  28.580  1.00  0.00     0.049 A 
ATOM     63  C   UNL A   1      47.637  28.415  26.904  1.00  0.00     0.074 A 
ATOM     64  C   UNL A   1      42.151  30.803  29.045  1.00  0.00     0.029 A 
ATOM     65  N   UNL A   1      43.732  29.481  28.205  1.00  0.00    -0.354 N 
ATOM     66  N   UNL A   1      46.466  28.820  27.332  1.00  0.00    -0.248 NA
ATOM     67  C   UNL A   1      48.663  29.466  26.879  1.00  0.00     0.031 C 
ATOM     68  C   UNL A   1      43.322  31.553  28.891  1.00  0.00     0.029 A 
ATOM     69  C   UNL A   1      44.316  30.723  28.396  1.00  0.00     0.049 A 
ATOM     70  H   UNL A   1      44.196  28.687  27.855  1.00  0.00     0.167 HD
ATOM     71  C   UNL A   1      46.617  30.163  27.650  1.00  0.00     0.074 A 
ATOM     72  C   UNL A   1      48.001  30.499  27.381  1.00  0.00     0.031 C 
ATOM     73  C   UNL A   1      45.696  31.039  28.122  1.00  0.00     0.037 A 
BRANCH  60  74
ATOM     74  C   UNL A   1      40.035  28.641  28.804  1.00  0.00     0.064 A 
ATOM     75  C   UNL A   1      39.115  29.083  27.840  1.00  0.00     0.173 A 
ATOM     76  C   UNL A   1      39.558  28.411  30.103  1.00  0.00     0.173 A 
ATOM     77  F   UNL A   1      39.517  29.331  26.584  1.00  0.00    -0.203 F 
ATOM     78  C   UNL A   1      37.786  29.330  28.175  1.00  0.00     0.198 A 
ATOM     79  C   UNL A   1      38.220  28.620  30.424  1.00  0.00     0.198 A 
ATOM     80  F   UNL A   1      40.391  27.984  31.065  1.00  0.00    -0.203 F 
ATOM     81  F   UNL A   1      36.945  29.822  27.254  1.00  0.00    -0.200 F 
ATOM     82  C   UNL A   1      37.339  29.092  29.465  1.00  0.00     0.200 A 
ATOM     83  F   UNL A   1      37.785  28.374  31.669  1.00  0.00    -0.200 F 
ATOM     84  F   UNL A   1      36.059  29.328  29.785  1.00  0.00    -0.200 F 
ENDBRANCH  60  74
BRANCH  61  85
ATOM     85  C   UNL A   1      49.442  26.781  25.969  1.00  0.00     0.064 A 
ATOM     86  C   UNL A   1      49.788  26.956  24.621  1.00  0.00     0.173 A 
ATOM     87  C   UNL A   1      50.452  26.370  26.852  1.00  0.00     0.173 A 
ATOM     88  F   UNL A   1      48.855  27.329  23.734  1.00  0.00    -0.203 F 
ATOM     89  C   UNL A   1      51.086  26.715  24.173  1.00  0.00     0.198 A 
ATOM     90  C   UNL A   1      51.756  26.159  26.408  1.00  0.00     0.198 A 
ATOM     91  F   UNL A   1      50.177  26.195  28.153  1.00  0.00    -0.203 F 
ATOM     92  F   UNL A   1      51.378  26.852  22.873  1.00  0.00    -0.200 F 
ATOM     93  C   UNL A   1      52.071  26.325  25.068  1.00  0.00     0.200 A 
ATOM     94  F   UNL A   1      52.709  25.799  27.280  1.00  0.00    -0.200 F 
ATOM     95  F   UNL A   1      53.321  26.106  24.638  1.00  0.00    -0.200 F 
ENDBRANCH  61  85
BRANCH  73  96
ATOM     96  C   UNL A   1      46.157  32.439  28.409  1.00  0.00     0.064 A 
ATOM     97  C   UNL A   1      46.077  33.456  27.445  1.00  0.00     0.173 A 
ATOM     98  C   UNL A   1      46.637  32.779  29.683  1.00  0.00     0.173 A 
ATOM     99  F   UNL A   1      45.637  33.180  26.208  1.00  0.00    -0.203 F 
ATOM    100  C   UNL A   1      46.487  34.754  27.739  1.00  0.00     0.198 A 
ATOM    101  C   UNL A   1      47.011  34.085  29.983  1.00  0.00     0.198 A 
ATOM    102  F   UNL A   1      46.725  31.847  30.643  1.00  0.00    -0.203 F 
ATOM    103  F   UNL A   1      46.449  35.697  26.788  1.00  0.00    -0.200 F 
ATOM    104  C   UNL A   1      46.944  35.070  29.010  1.00  0.00     0.200 A 
ATOM    105  F   UNL A   1      47.436  34.391  31.218  1.00  0.00    -0.200 F 
ATOM    106  F   UNL A   1      47.326  36.321  29.294  1.00  0.00    -0.200 F 
ENDBRANCH  73  96
ENDBRANCH  47  48
ENDBRANCH  39  42
ENDBRANCH  37  38
ENDBRANCH  36  37
ENDBRANCH  35  36
ENDBRANCH   1  35
TORSDOF 17
ENDMDL
MODEL 2
REMARK VINA RESULT:     -13.6      1.415      7.215
REMARK SMILES COc1ccc(-c2ccc(/C=C3\SC(=S)N([C@H](Cc4ccccc4)C(=O)NCCCCNC(=O)c4ccc(-c5c6nc(c(-c7c(F)c(F)c(F)c(F)c7F)c7ccc([nH]7)c(-c7c(F)c(F)c(F)c(F)c7F)c7nc(c(-c8c(F)c(F)c(F)c(F)c8F)c8ccc5[nH]8)C=C7)C=C6)cc4)C3=O)o2)cc1
REMARK SMILES IDX 28 1 27 2 25 3 26 4 17 6 16 7 11 8 12 9 13 10 98 11 14 12
REMARK SMILES IDX 99 13 15 14 10 15 7 16 8 17 100 18 9 19 6 20 3 21 4 22
REMARK SMILES IDX 102 23 5 24 101 25 2 26 1 27 18 28 19 29 20 30 24 31 21 32
REMARK SMILES IDX 23 33 22 34 29 35 30 36 31 37 32 38 33 39 34 41 35 42 36 43
REMARK SMILES IDX 97 44 37 45 96 46 38 47 39 48 40 49 90 50 41 51 95 52 89 53
REMARK SMILES IDX 91 54 42 55 94 56 88 57 87 58 43 60 75 61 55 62 74 63 56 64
REMARK SMILES IDX 59 65 73 66 92 67 57 68 58 69 72 71 93 72 60 73 44 74 45 75
REMARK SMILES IDX 53 76 46 77 47 78 51 79 54 80 48 81 49 82 52 83 50 84 76 85
REMARK SMILES IDX 77 86 85 87 78 88 79 89 83 90 86 91 80 92 81 93 84 94 82 95
REMARK SMILES IDX 61 96 62 97 70 98 63 99 64 100 68 101 71 102 65 103 66 104
REMARK SMILES IDX 69 105 67 106
REMARK H PARENT 27 5 32 40 91 59 59 70
REMARK Flexibility Score: inf
ROOT
ATOM      1  C   UNL A   1      36.205  21.567  25.014  1.00  0.00     0.116 C 
ENDROOT
BRANCH   1   2
ATOM      2  N   UNL A   1      35.607  21.682  26.314  1.00  0.00    -0.354 N 
ATOM      3  C   UNL A   1      34.279  21.657  26.612  1.00  0.00     0.243 C 
ATOM      4  O   UNL A   1      33.996  21.435  27.797  1.00  0.00    -0.273 OA
ATOM      5  H   UNL A   1      36.225  21.792  27.073  1.00  0.00     0.163 HD
BRANCH   3   6
ATOM      6  C   UNL A   1      33.137  21.834  25.565  1.00  0.00     0.185 C 
BRANCH   6   7
ATOM      7  N   UNL A   1      32.462  23.166  25.521  1.00  0.00    -0.280 N 
ATOM      8  C   UNL A   1      32.881  26.667  24.869  1.00  0.00     0.068 C 
ATOM      9  C   UNL A   1      32.319  25.508  25.225  1.00  0.00     0.084 C 
ATOM     10  S   UNL A   1      30.839  25.151  25.981  1.00  0.00    -0.054 SA
ATOM     11  C   UNL A   1      33.041  24.259  24.917  1.00  0.00     0.267 C 
ATOM     12  C   UNL A   1      31.195  23.415  26.028  1.00  0.00     0.149 C 
ATOM     13  O   UNL A   1      34.009  24.290  24.169  1.00  0.00    -0.268 OA
ATOM     14  S   UNL A   1      30.077  22.345  26.653  1.00  0.00    -0.052 S 
BRANCH   8  15
ATOM     15  C   UNL A   1      32.311  27.947  25.025  1.00  0.00     0.128 A 
ATOM     16  C   UNL A   1      31.045  29.678  24.461  1.00  0.00     0.134 A 
ATOM     17  C   UNL A   1      31.768  30.077  25.561  1.00  0.00     0.051 A 
ATOM     18  O   UNL A   1      31.383  28.407  24.128  1.00  0.00    -0.457 OA
ATOM     19  C   UNL A   1      32.561  28.963  25.936  1.00  0.00     0.051 A 
BRANCH  16  20
ATOM     20  C   UNL A   1      30.040  30.291  23.615  1.00  0.00     0.017 A 
ATOM     21  C   UNL A   1      28.150  31.558  21.961  1.00  0.00     0.118 A 
ATOM     22  C   UNL A   1      28.352  32.000  23.268  1.00  0.00     0.047 A 
ATOM     23  C   UNL A   1      28.885  30.472  21.484  1.00  0.00     0.047 A 
ATOM     24  C   UNL A   1      29.277  31.363  24.096  1.00  0.00     0.016 A 
ATOM     25  C   UNL A   1      29.831  29.846  22.306  1.00  0.00     0.016 A 
BRANCH  21  26
ATOM     26  O   UNL A   1      27.249  32.292  21.242  1.00  0.00    -0.497 OA
ATOM     27  C   UNL A   1      27.718  32.854  20.023  1.00  0.00     0.278 C 
ENDBRANCH  21  26
ENDBRANCH  16  20
ENDBRANCH   8  15
ENDBRANCH   6   7
BRANCH   6  28
ATOM     28  C   UNL A   1      32.306  20.565  25.175  1.00  0.00     0.071 C 
BRANCH  28  29
ATOM     29  C   UNL A   1      32.901  19.450  24.349  1.00  0.00    -0.045 A 
ATOM     30  C   UNL A   1      34.049  18.771  24.789  1.00  0.00     0.004 A 
ATOM     31  C   UNL A   1      32.302  19.035  23.153  1.00  0.00     0.004 A 
ATOM     32  C   UNL A   1      34.480  17.609  24.143  1.00  0.00     0.000 A 
ATOM     33  C   UNL A   1      32.722  17.865  22.517  1.00  0.00     0.000 A 
ATOM     34  C   UNL A   1      33.790  17.133  23.032  1.00  0.00     0.000 A 
ENDBRANCH  28  29
ENDBRANCH   6  28
ENDBRANCH   3   6
ENDBRANCH   1   2
BRANCH   1  35
ATOM     35  C   UNL A   1      37.719  21.614  24.977  1.00  0.00     0.023 C 
BRANCH  35  36
ATOM     36  C   UNL A   1      38.397  20.279  25.198  1.00  0.00     0.023 C 
BRANCH  36  37
ATOM     37  C   UNL A   1      39.607  20.327  26.125  1.00  0.00     0.116 C 
BRANCH  37  38
ATOM     38  N   UNL A   1      40.507  19.180  26.017  1.00  0.00    -0.352 N 
ATOM     39  C   UNL A   1      41.883  19.136  26.096  1.00  0.00     0.251 C 
ATOM     40  H   UNL A   1      40.066  18.312  25.866  1.00  0.00     0.163 HD
ATOM     41  O   UNL A   1      42.501  18.097  25.892  1.00  0.00    -0.269 OA
BRANCH  39  42
ATOM     42  C   UNL A   1      42.610  20.390  26.377  1.00  0.00     0.039 A 
ATOM     43  C   UNL A   1      43.137  21.130  25.318  1.00  0.00     0.014 A 
ATOM     44  C   UNL A   1      42.632  20.895  27.676  1.00  0.00     0.014 A 
ATOM     45  C   UNL A   1      43.568  22.438  25.550  1.00  0.00     0.010 A 
ATOM     46  C   UNL A   1      42.909  22.238  27.869  1.00  0.00     0.010 A 
ATOM     47  C   UNL A   1      43.387  23.028  26.812  1.00  0.00    -0.014 A 
BRANCH  47  48
ATOM     48  C   UNL A   1      43.688  24.462  27.062  1.00  0.00     0.031 A 
ATOM     49  C   UNL A   1      45.086  24.978  26.848  1.00  0.00     0.074 A 
ATOM     50  C   UNL A   1      42.741  25.273  27.575  1.00  0.00     0.049 A 
ATOM     51  N   UNL A   1      45.582  26.161  27.103  1.00  0.00    -0.248 NA
ATOM     52  C   UNL A   1      46.072  24.018  26.325  1.00  0.00     0.031 C 
ATOM     53  C   UNL A   1      41.372  24.876  27.911  1.00  0.00     0.029 A 
ATOM     54  N   UNL A   1      42.790  26.602  27.917  1.00  0.00    -0.354 N 
ATOM     55  C   UNL A   1      46.935  26.072  26.806  1.00  0.00     0.074 A 
ATOM     56  C   UNL A   1      47.200  24.703  26.431  1.00  0.00     0.031 C 
ATOM     57  C   UNL A   1      40.703  25.943  28.377  1.00  0.00     0.029 A 
ATOM     58  C   UNL A   1      41.604  27.089  28.416  1.00  0.00     0.049 A 
ATOM     59  H   UNL A   1      43.597  27.155  27.816  1.00  0.00     0.167 HD
ATOM     60  C   UNL A   1      47.870  27.051  26.810  1.00  0.00     0.037 A 
ATOM     61  C   UNL A   1      41.284  28.320  28.861  1.00  0.00     0.037 A 
ATOM     62  C   UNL A   1      47.590  28.422  27.139  1.00  0.00     0.049 A 
ATOM     63  C   UNL A   1      42.328  29.403  28.825  1.00  0.00     0.074 A 
ATOM     64  C   UNL A   1      48.437  29.513  27.082  1.00  0.00     0.029 A 
ATOM     65  N   UNL A   1      46.365  28.887  27.595  1.00  0.00    -0.354 N 
ATOM     66  N   UNL A   1      43.581  29.331  28.447  1.00  0.00    -0.248 NA
ATOM     67  C   UNL A   1      41.911  30.741  29.268  1.00  0.00     0.031 C 
ATOM     68  C   UNL A   1      47.743  30.628  27.564  1.00  0.00     0.029 A 
ATOM     69  C   UNL A   1      46.443  30.245  27.856  1.00  0.00     0.049 A 
ATOM     70  H   UNL A   1      45.560  28.334  27.716  1.00  0.00     0.167 HD
ATOM     71  C   UNL A   1      44.097  30.613  28.582  1.00  0.00     0.074 A 
ATOM     72  C   UNL A   1      43.013  31.447  29.061  1.00  0.00     0.031 C 
ATOM     73  C   UNL A   1      45.353  31.060  28.333  1.00  0.00     0.037 A 
BRANCH  60  74
ATOM     74  C   UNL A   1      49.278  26.668  26.447  1.00  0.00     0.064 A 
ATOM     75  C   UNL A   1      50.181  26.164  27.397  1.00  0.00     0.173 A 
ATOM     76  C   UNL A   1      49.732  26.806  25.126  1.00  0.00     0.173 A 
ATOM     77  F   UNL A   1      49.805  26.021  28.677  1.00  0.00    -0.203 F 
ATOM     78  C   UNL A   1      51.494  25.859  27.050  1.00  0.00     0.198 A 
ATOM     79  C   UNL A   1      51.034  26.462  24.775  1.00  0.00     0.198 A 
ATOM     80  F   UNL A   1      48.912  27.278  24.175  1.00  0.00    -0.203 F 
ATOM     81  F   UNL A   1      52.357  25.450  27.991  1.00  0.00    -0.200 F 
ATOM     82  C   UNL A   1      51.918  26.003  25.738  1.00  0.00     0.200 A 
ATOM     83  F   UNL A   1      51.438  26.587  23.502  1.00  0.00    -0.200 F 
ATOM     84  F   UNL A   1      53.182  25.707  25.405  1.00  0.00    -0.200 F 
ENDBRANCH  60  74
BRANCH  61  85
ATOM     85  C   UNL A   1      39.905  28.593  29.349  1.00  0.00     0.064 A 
ATOM     86  C   UNL A   1      38.909  29.063  28.480  1.00  0.00     0.173 A 
ATOM     87  C   UNL A   1      39.549  28.373  30.688  1.00  0.00     0.173 A 
ATOM     88  F   UNL A   1      39.205  29.308  27.195  1.00  0.00    -0.203 F 
ATOM     89  C   UNL A   1      37.616  29.315  28.935  1.00  0.00     0.198 A 
ATOM     90  C   UNL A   1      38.247  28.596  31.134  1.00  0.00     0.198 A 
ATOM     91  F   UNL A   1      40.460  27.918  31.560  1.00  0.00    -0.203 F 
ATOM     92  F   UNL A   1      36.696  29.800  28.090  1.00  0.00    -0.200 F 
ATOM     93  C   UNL A   1      37.284  29.074  30.259  1.00  0.00     0.200 A 
ATOM     94  F   UNL A   1      37.925  28.345  32.411  1.00  0.00    -0.200 F 
ATOM     95  F   UNL A   1      36.036  29.304  30.691  1.00  0.00    -0.200 F 
ENDBRANCH  61  85
BRANCH  73  96
ATOM     96  C   UNL A   1      45.620  32.523  28.542  1.00  0.00     0.064 A 
ATOM     97  C   UNL A   1      45.404  33.467  27.527  1.00  0.00     0.173 A 
ATOM     98  C   UNL A   1      46.049  32.991  29.794  1.00  0.00     0.173 A 
ATOM     99  F   UNL A   1      45.006  33.069  26.309  1.00  0.00    -0.203 F 
ATOM    100  C   UNL A   1      45.634  34.822  27.750  1.00  0.00     0.198 A 
ATOM    101  C   UNL A   1      46.244  34.350  30.022  1.00  0.00     0.198 A 
ATOM    102  F   UNL A   1      46.263  32.132  30.801  1.00  0.00    -0.203 F 
ATOM    103  F   UNL A   1      45.470  35.699  26.750  1.00  0.00    -0.200 F 
ATOM    104  C   UNL A   1      46.045  35.263  28.999  1.00  0.00     0.200 A 
ATOM    105  F   UNL A   1      46.623  34.776  31.236  1.00  0.00    -0.200 F 
ATOM    106  F   UNL A   1      46.254  36.569  29.214  1.00  0.00    -0.200 F 
ENDBRANCH  73  96
ENDBRANCH  47  48
ENDBRANCH  39  42
ENDBRANCH  37  38
ENDBRANCH  36  37
ENDBRANCH  35  36
ENDBRANCH   1  35
TORSDOF 17
ENDMDL
MODEL 3
REMARK VINA RESULT:     -13.6      0.857      6.952
REMARK SMILES COc1ccc(-c2ccc(/C=C3\SC(=S)N([C@H](Cc4ccccc4)C(=O)NCCCCNC(=O)c4ccc(-c5c6nc(c(-c7c(F)c(F)c(F)c(F)c7F)c7ccc([nH]7)c(-c7c(F)c(F)c(F)c(F)c7F)c7nc(c(-c8c(F)c(F)c(F)c(F)c8F)c8ccc5[nH]8)C=C7)C=C6)cc4)C3=O)o2)cc1
REMARK SMILES IDX 28 1 27 2 25 3 26 4 17 6 16 7 11 8 12 9 13 10 98 11 14 12
REMARK SMILES IDX 99 13 15 14 10 15 7 16 8 17 100 18 9 19 6 20 3 21 4 22
REMARK SMILES IDX 102 23 5 24 101 25 2 26 1 27 18 28 19 29 20 30 24 31 21 32
REMARK SMILES IDX 23 33 22 34 29 35 30 36 31 37 32 38 33 39 34 41 35 42 36 43
REMARK SMILES IDX 97 44 37 45 96 46 38 47 39 48 40 49 90 50 41 51 95 52 89 53
REMARK SMILES IDX 91 54 42 55 94 56 88 57 87 58 43 60 75 61 55 62 74 63 56 64
REMARK SMILES IDX 59 65 73 66 92 67 57 68 58 69 72 71 93 72 60 73 44 74 45 75
REMARK SMILES IDX 53 76 46 77 47 78 51 79 54 80 48 81 49 82 52 83 50 84 76 85
REMARK SMILES IDX 77 86 85 87 78 88 79 89 83 90 86 91 80 92 81 93 84 94 82 95
REMARK SMILES IDX 61 96 62 97 70 98 63 99 64 100 68 101 71 102 65 103 66 104
REMARK SMILES IDX 69 105 67 106
REMARK H PARENT 27 5 32 40 91 59 59 70
REMARK Flexibility Score: inf
ROOT
ATOM      1  C   UNL A   1      36.149  22.039  24.933  1.00  0.00     0.116 C 
ENDROOT
BRANCH   1   2
ATOM      2  N   UNL A   1      35.500  21.923  26.208  1.00  0.00    -0.354 N 
ATOM      3  C   UNL A   1      34.173  21.722  26.438  1.00  0.00     0.243 C 
ATOM      4  O   UNL A   1      33.877  21.322  27.572  1.00  0.00    -0.273 OA
ATOM      5  H   UNL A   1      36.077  21.997  27.002  1.00  0.00     0.163 HD
BRANCH   3   6
ATOM      6  C   UNL A   1      33.054  21.916  25.369  1.00  0.00     0.185 C 
BRANCH   6   7
ATOM      7  N   UNL A   1      32.371  23.245  25.340  1.00  0.00    -0.280 N 
ATOM      8  C   UNL A   1      32.664  26.693  24.403  1.00  0.00     0.068 C 
ATOM      9  C   UNL A   1      32.169  25.562  24.915  1.00  0.00     0.084 C 
ATOM     10  S   UNL A   1      30.821  25.260  25.906  1.00  0.00    -0.054 SA
ATOM     11  C   UNL A   1      32.845  24.293  24.585  1.00  0.00     0.267 C 
ATOM     12  C   UNL A   1      31.192  23.530  26.013  1.00  0.00     0.149 C 
ATOM     13  O   UNL A   1      33.691  24.272  23.701  1.00  0.00    -0.268 OA
ATOM     14  S   UNL A   1      30.189  22.506  26.867  1.00  0.00    -0.052 S 
BRANCH   8  15
ATOM     15  C   UNL A   1      32.114  27.983  24.559  1.00  0.00     0.128 A 
ATOM     16  C   UNL A   1      31.889  29.984  25.486  1.00  0.00     0.134 A 
ATOM     17  C   UNL A   1      30.861  29.866  24.579  1.00  0.00     0.051 A 
ATOM     18  O   UNL A   1      32.630  28.848  25.488  1.00  0.00    -0.457 OA
ATOM     19  C   UNL A   1      31.018  28.595  23.970  1.00  0.00     0.051 A 
BRANCH  16  20
ATOM     20  C   UNL A   1      32.336  31.015  26.402  1.00  0.00     0.017 A 
ATOM     21  C   UNL A   1      33.278  33.036  28.117  1.00  0.00     0.118 A 
ATOM     22  C   UNL A   1      33.967  31.829  28.005  1.00  0.00     0.047 A 
ATOM     23  C   UNL A   1      32.109  33.228  27.380  1.00  0.00     0.047 A 
ATOM     24  C   UNL A   1      33.492  30.818  27.168  1.00  0.00     0.016 A 
ATOM     25  C   UNL A   1      31.645  32.224  26.521  1.00  0.00     0.016 A 
BRANCH  21  26
ATOM     26  O   UNL A   1      33.868  33.957  28.937  1.00  0.00    -0.497 OA
ATOM     27  C   UNL A   1      34.394  35.119  28.309  1.00  0.00     0.278 C 
ENDBRANCH  21  26
ENDBRANCH  16  20
ENDBRANCH   8  15
ENDBRANCH   6   7
BRANCH   6  28
ATOM     28  C   UNL A   1      32.241  20.650  24.932  1.00  0.00     0.071 C 
BRANCH  28  29
ATOM     29  C   UNL A   1      32.898  19.493  24.218  1.00  0.00    -0.045 A 
ATOM     30  C   UNL A   1      34.102  18.951  24.696  1.00  0.00     0.004 A 
ATOM     31  C   UNL A   1      32.304  18.904  23.095  1.00  0.00     0.004 A 
ATOM     32  C   UNL A   1      34.602  17.757  24.171  1.00  0.00     0.000 A 
ATOM     33  C   UNL A   1      32.795  17.702  22.581  1.00  0.00     0.000 A 
ATOM     34  C   UNL A   1      33.924  17.111  23.141  1.00  0.00     0.000 A 
ENDBRANCH  28  29
ENDBRANCH   6  28
ENDBRANCH   3   6
ENDBRANCH   1   2
BRANCH   1  35
ATOM     35  C   UNL A   1      37.663  21.967  24.955  1.00  0.00     0.023 C 
BRANCH  35  36
ATOM     36  C   UNL A   1      38.225  20.593  25.249  1.00  0.00     0.023 C 
BRANCH  36  37
ATOM     37  C   UNL A   1      39.431  20.586  26.182  1.00  0.00     0.116 C 
BRANCH  37  38
ATOM     38  N   UNL A   1      40.320  19.436  26.024  1.00  0.00    -0.352 N 
ATOM     39  C   UNL A   1      41.697  19.379  26.088  1.00  0.00     0.251 C 
ATOM     40  H   UNL A   1      39.871  18.578  25.847  1.00  0.00     0.163 HD
ATOM     41  O   UNL A   1      42.304  18.344  25.842  1.00  0.00    -0.269 OA
BRANCH  39  42
ATOM     42  C   UNL A   1      42.437  20.616  26.405  1.00  0.00     0.039 A 
ATOM     43  C   UNL A   1      42.852  21.454  25.369  1.00  0.00     0.014 A 
ATOM     44  C   UNL A   1      42.580  21.009  27.735  1.00  0.00     0.014 A 
ATOM     45  C   UNL A   1      43.292  22.744  25.671  1.00  0.00     0.010 A 
ATOM     46  C   UNL A   1      42.863  22.336  28.017  1.00  0.00     0.010 A 
ATOM     47  C   UNL A   1      43.229  23.221  26.991  1.00  0.00    -0.014 A 
BRANCH  47  48
ATOM     48  C   UNL A   1      43.541  24.633  27.334  1.00  0.00     0.031 A 
ATOM     49  C   UNL A   1      44.972  25.099  27.345  1.00  0.00     0.074 A 
ATOM     50  C   UNL A   1      42.558  25.465  27.733  1.00  0.00     0.049 A 
ATOM     51  N   UNL A   1      45.467  26.253  27.713  1.00  0.00    -0.248 NA
ATOM     52  C   UNL A   1      45.990  24.117  26.937  1.00  0.00     0.031 C 
ATOM     53  C   UNL A   1      41.141  25.113  27.852  1.00  0.00     0.029 A 
ATOM     54  N   UNL A   1      42.602  26.780  28.127  1.00  0.00    -0.354 N 
ATOM     55  C   UNL A   1      46.845  26.118  27.613  1.00  0.00     0.074 A 
ATOM     56  C   UNL A   1      47.113  24.752  27.231  1.00  0.00     0.031 C 
ATOM     57  C   UNL A   1      40.449  26.191  28.253  1.00  0.00     0.029 A 
ATOM     58  C   UNL A   1      41.375  27.299  28.465  1.00  0.00     0.049 A 
ATOM     59  H   UNL A   1      43.435  27.303  28.164  1.00  0.00     0.167 HD
ATOM     60  C   UNL A   1      47.803  27.059  27.789  1.00  0.00     0.037 A 
ATOM     61  C   UNL A   1      41.036  28.527  28.904  1.00  0.00     0.037 A 
ATOM     62  C   UNL A   1      47.526  28.429  28.124  1.00  0.00     0.049 A 
ATOM     63  C   UNL A   1      42.111  29.568  29.059  1.00  0.00     0.074 A 
ATOM     64  C   UNL A   1      48.410  29.486  28.230  1.00  0.00     0.029 A 
ATOM     65  N   UNL A   1      46.264  28.929  28.413  1.00  0.00    -0.354 N 
ATOM     66  N   UNL A   1      43.403  29.458  28.866  1.00  0.00    -0.248 NA
ATOM     67  C   UNL A   1      41.681  30.907  29.485  1.00  0.00     0.031 C 
ATOM     68  C   UNL A   1      47.693  30.612  28.646  1.00  0.00     0.029 A 
ATOM     69  C   UNL A   1      46.351  30.274  28.732  1.00  0.00     0.049 A 
ATOM     70  H   UNL A   1      45.431  28.405  28.395  1.00  0.00     0.167 HD
ATOM     71  C   UNL A   1      43.938  30.713  29.121  1.00  0.00     0.074 A 
ATOM     72  C   UNL A   1      42.826  31.574  29.467  1.00  0.00     0.031 C 
ATOM     73  C   UNL A   1      45.232  31.117  29.074  1.00  0.00     0.037 A 
BRANCH  60  74
ATOM     74  C   UNL A   1      49.234  26.630  27.621  1.00  0.00     0.064 A 
ATOM     75  C   UNL A   1      49.826  26.489  26.355  1.00  0.00     0.173 A 
ATOM     76  C   UNL A   1      50.028  26.356  28.745  1.00  0.00     0.173 A 
ATOM     77  F   UNL A   1      49.110  26.727  25.245  1.00  0.00    -0.203 F 
ATOM     78  C   UNL A   1      51.138  26.046  26.220  1.00  0.00     0.198 A 
ATOM     79  C   UNL A   1      51.353  25.952  28.607  1.00  0.00     0.198 A 
ATOM     80  F   UNL A   1      49.519  26.478  29.980  1.00  0.00    -0.203 F 
ATOM     81  F   UNL A   1      51.655  25.849  24.998  1.00  0.00    -0.200 F 
ATOM     82  C   UNL A   1      51.903  25.784  27.345  1.00  0.00     0.200 A 
ATOM     83  F   UNL A   1      52.097  25.714  29.697  1.00  0.00    -0.200 F 
ATOM     84  F   UNL A   1      53.167  25.359  27.214  1.00  0.00    -0.200 F 
ENDBRANCH  60  74
BRANCH  61  85
ATOM     85  C   UNL A   1      39.611  28.840  29.195  1.00  0.00     0.064 A 
ATOM     86  C   UNL A   1      39.089  28.701  30.489  1.00  0.00     0.173 A 
ATOM     87  C   UNL A   1      38.747  29.304  28.191  1.00  0.00     0.173 A 
ATOM     88  F   UNL A   1      39.869  28.242  31.479  1.00  0.00    -0.203 F 
ATOM     89  C   UNL A   1      37.755  28.998  30.765  1.00  0.00     0.198 A 
ATOM     90  C   UNL A   1      37.421  29.630  28.476  1.00  0.00     0.198 A 
ATOM     91  F   UNL A   1      39.196  29.462  26.938  1.00  0.00    -0.203 F 
ATOM     92  F   UNL A   1      37.274  28.818  32.002  1.00  0.00    -0.200 F 
ATOM     93  C   UNL A   1      36.925  29.470  29.760  1.00  0.00     0.200 A 
ATOM     94  F   UNL A   1      36.627  30.104  27.505  1.00  0.00    -0.200 F 
ATOM     95  F   UNL A   1      35.646  29.769  30.029  1.00  0.00    -0.200 F 
ENDBRANCH  61  85
BRANCH  73  96
ATOM     96  C   UNL A   1      45.517  32.560  29.373  1.00  0.00     0.064 A 
ATOM     97  C   UNL A   1      45.890  32.990  30.656  1.00  0.00     0.173 A 
ATOM     98  C   UNL A   1      45.465  33.518  28.350  1.00  0.00     0.173 A 
ATOM     99  F   UNL A   1      45.943  32.115  31.672  1.00  0.00    -0.203 F 
ATOM    100  C   UNL A   1      46.175  34.329  30.907  1.00  0.00     0.198 A 
ATOM    101  C   UNL A   1      45.785  34.850  28.597  1.00  0.00     0.198 A 
ATOM    102  F   UNL A   1      45.122  33.159  27.104  1.00  0.00    -0.203 F 
ATOM    103  F   UNL A   1      46.480  34.725  32.150  1.00  0.00    -0.200 F 
ATOM    104  C   UNL A   1      46.131  35.256  29.876  1.00  0.00     0.200 A 
ATOM    105  F   UNL A   1      45.760  35.740  27.594  1.00  0.00    -0.200 F 
ATOM    106  F   UNL A   1      46.417  36.542  30.117  1.00  0.00    -0.200 F 
ENDBRANCH  73  96
ENDBRANCH  47  48
ENDBRANCH  39  42
ENDBRANCH  37  38
ENDBRANCH  36  37
ENDBRANCH  35  36
ENDBRANCH   1  35
TORSDOF 17
ENDMDL
