MODEL 1
REMARK VINA RESULT:     -13.6      0.000      0.000
REMARK SMILES O=C(C[C@H]1C(=O)N[NH+]=C2c3ccc(F)cc3N=CN21)NCCCCNC(=O)c1ccc(-c2c3nc(c(-c4c(F)c(F)c(F)c(F)c4F)c4ccc([nH]4)c(-c4c(F)c(F)c(F)c(F)c4F)c4nc(c(-c5c(F)c(F)c(F)c(F)c5F)c5ccc2[nH]5)C=C4)C=C3)cc1
REMARK SMILES IDX 23 1 22 2 21 3 20 4 1 5 2 6 3 8 4 9 5 10 19 11 6 12 7 13
REMARK SMILES IDX 9 14 18 15 8 16 10 18 17 19 11 21 16 22 12 23 15 24 13 25
REMARK SMILES IDX 14 26 24 27 25 28 26 29 27 31 28 32 29 33 90 34 30 35 89 36
REMARK SMILES IDX 31 37 32 38 33 39 83 40 34 41 88 42 82 43 84 44 35 45 87 46
REMARK SMILES IDX 81 47 80 48 36 50 68 51 48 52 67 53 49 54 52 55 66 56 85 57
REMARK SMILES IDX 50 58 51 59 65 61 86 62 53 63 37 64 38 65 46 66 39 67 40 68
REMARK SMILES IDX 44 69 47 70 41 71 42 72 45 73 43 74 69 75 70 76 78 77 71 78
REMARK SMILES IDX 72 79 76 80 79 81 73 82 74 83 77 84 75 85 54 86 55 87 63 88
REMARK SMILES IDX 56 89 57 90 61 91 64 92 58 93 59 94 62 95 60 96
REMARK H PARENT 20 7 7 17 8 20 25 30 84 49 52 60
REMARK Flexibility Score: inf
ROOT
ATOM      1  C   UNL A   1      31.523  31.948  26.791  1.00  0.00     0.023 C 
ENDROOT
BRANCH   1   2
ATOM      2  C   UNL A   1      31.889  30.544  26.301  1.00  0.00     0.023 C 
BRANCH   2   3
ATOM      3  C   UNL A   1      32.741  29.720  27.270  1.00  0.00     0.116 C 
BRANCH   3   4
ATOM      4  N   UNL A   1      32.444  28.304  27.160  1.00  0.00    -0.356 N 
ATOM      5  O   UNL A   1      34.422  27.706  26.160  1.00  0.00    -0.275 OA
ATOM      6  C   UNL A   1      33.277  27.432  26.493  1.00  0.00     0.224 C 
ATOM      7  H   UNL A   1      31.622  27.956  27.575  1.00  0.00     0.163 HD
BRANCH   6   8
ATOM      8  C   UNL A   1      32.591  26.156  26.085  1.00  0.00     0.160 C 
BRANCH   8   9
ATOM      9  C   UNL A   1      32.143  26.027  24.633  1.00  0.00     0.284 C 
ATOM     10  C   UNL A   1      31.232  24.802  24.669  1.00  0.00     0.300 C 
ATOM     11  N   UNL A   1      31.435  27.183  24.074  1.00  0.00    -0.203 N 
ATOM     12  O   UNL A   1      31.676  23.654  24.683  1.00  0.00    -0.267 OA
ATOM     13  N   UNL A   1      29.898  25.060  24.874  1.00  0.00    -0.193 N 
ATOM     14  C   UNL A   1      30.048  27.181  24.087  1.00  0.00     0.309 C 
ATOM     15  C   UNL A   1      32.143  28.174  23.429  1.00  0.00     0.317 C 
ATOM     16  N   UNL A   1      29.289  26.230  24.548  1.00  0.00    -0.169 N 
ATOM     17  H   UNL A   1      29.349  24.352  25.283  1.00  0.00     0.216 HD
ATOM     18  C   UNL A   1      29.390  28.316  23.372  1.00  0.00     0.092 A 
ATOM     19  N   UNL A   1      31.639  29.132  22.718  1.00  0.00    -0.216 NA
ATOM     20  H   UNL A   1      28.317  26.352  24.655  1.00  0.00     0.340 HD
ATOM     21  C   UNL A   1      27.996  28.392  23.260  1.00  0.00     0.022 A 
ATOM     22  C   UNL A   1      30.230  29.172  22.633  1.00  0.00     0.085 A 
ATOM     23  C   UNL A   1      27.431  29.292  22.359  1.00  0.00     0.040 A 
ATOM     24  C   UNL A   1      29.645  30.067  21.734  1.00  0.00     0.068 A 
ATOM     25  C   UNL A   1      28.260  30.104  21.592  1.00  0.00     0.125 A 
ATOM     26  F   UNL A   1      27.714  30.919  20.679  1.00  0.00    -0.207 F 
ENDBRANCH   8   9
ENDBRANCH   6   8
ENDBRANCH   3   4
ENDBRANCH   2   3
ENDBRANCH   1   2
BRANCH   1  27
ATOM     27  C   UNL A   1      32.690  32.769  27.324  1.00  0.00     0.116 C 
BRANCH  27  28
ATOM     28  N   UNL A   1      32.336  34.149  27.610  1.00  0.00    -0.352 N 
ATOM     29  C   UNL A   1      32.909  35.026  28.507  1.00  0.00     0.251 C 
ATOM     30  H   UNL A   1      31.581  34.509  27.090  1.00  0.00     0.163 HD
ATOM     31  O   UNL A   1      32.408  36.121  28.711  1.00  0.00    -0.269 OA
BRANCH  29  32
ATOM     32  C   UNL A   1      34.113  34.609  29.266  1.00  0.00     0.039 A 
ATOM     33  C   UNL A   1      35.387  34.716  28.705  1.00  0.00     0.014 A 
ATOM     34  C   UNL A   1      33.953  34.059  30.541  1.00  0.00     0.014 A 
ATOM     35  C   UNL A   1      36.466  34.100  29.330  1.00  0.00     0.010 A 
ATOM     36  C   UNL A   1      35.058  33.519  31.209  1.00  0.00     0.010 A 
ATOM     37  C   UNL A   1      36.313  33.479  30.580  1.00  0.00    -0.014 A 
BRANCH  37  38
ATOM     38  C   UNL A   1      37.468  32.768  31.191  1.00  0.00     0.031 A 
ATOM     39  C   UNL A   1      37.928  33.104  32.586  1.00  0.00     0.074 A 
ATOM     40  C   UNL A   1      38.062  31.765  30.516  1.00  0.00     0.049 A 
ATOM     41  N   UNL A   1      38.895  32.568  33.290  1.00  0.00    -0.248 NA
ATOM     42  C   UNL A   1      37.213  34.184  33.285  1.00  0.00     0.031 C 
ATOM     43  C   UNL A   1      37.700  31.331  29.166  1.00  0.00     0.029 A 
ATOM     44  N   UNL A   1      39.073  30.911  30.880  1.00  0.00    -0.354 N 
ATOM     45  C   UNL A   1      38.912  33.250  34.499  1.00  0.00     0.074 A 
ATOM     46  C   UNL A   1      37.883  34.263  34.427  1.00  0.00     0.031 C 
ATOM     47  C   UNL A   1      38.436  30.259  28.837  1.00  0.00     0.029 A 
ATOM     48  C   UNL A   1      39.365  29.968  29.926  1.00  0.00     0.049 A 
ATOM     49  H   UNL A   1      39.545  30.969  31.742  1.00  0.00     0.167 HD
ATOM     50  C   UNL A   1      39.703  33.040  35.580  1.00  0.00     0.037 A 
ATOM     51  C   UNL A   1      40.285  28.984  29.919  1.00  0.00     0.037 A 
ATOM     52  C   UNL A   1      40.711  32.016  35.664  1.00  0.00     0.049 A 
ATOM     53  C   UNL A   1      41.183  28.807  31.110  1.00  0.00     0.074 A 
ATOM     54  C   UNL A   1      41.545  31.714  36.727  1.00  0.00     0.029 A 
ATOM     55  N   UNL A   1      41.020  31.124  34.648  1.00  0.00    -0.354 N 
ATOM     56  N   UNL A   1      41.183  29.456  32.248  1.00  0.00    -0.248 NA
ATOM     57  C   UNL A   1      42.216  27.766  31.011  1.00  0.00     0.031 C 
ATOM     58  C   UNL A   1      42.388  30.668  36.340  1.00  0.00     0.029 A 
ATOM     59  C   UNL A   1      42.048  30.286  35.052  1.00  0.00     0.049 A 
ATOM     60  H   UNL A   1      40.576  31.090  33.770  1.00  0.00     0.167 HD
ATOM     61  C   UNL A   1      42.205  28.899  33.004  1.00  0.00     0.074 A 
ATOM     62  C   UNL A   1      42.790  27.843  32.204  1.00  0.00     0.031 C 
ATOM     63  C   UNL A   1      42.623  29.239  34.247  1.00  0.00     0.037 A 
BRANCH  50  64
ATOM     64  C   UNL A   1      39.518  33.934  36.771  1.00  0.00     0.064 A 
ATOM     65  C   UNL A   1      38.740  33.541  37.870  1.00  0.00     0.173 A 
ATOM     66  C   UNL A   1      40.189  35.165  36.848  1.00  0.00     0.173 A 
ATOM     67  F   UNL A   1      38.070  32.380  37.841  1.00  0.00    -0.203 F 
ATOM     68  C   UNL A   1      38.630  34.353  38.997  1.00  0.00     0.198 A 
ATOM     69  C   UNL A   1      40.098  35.960  37.987  1.00  0.00     0.198 A 
ATOM     70  F   UNL A   1      40.951  35.584  35.828  1.00  0.00    -0.203 F 
ATOM     71  F   UNL A   1      37.856  33.970  40.023  1.00  0.00    -0.200 F 
ATOM     72  C   UNL A   1      39.317  35.556  39.059  1.00  0.00     0.200 A 
ATOM     73  F   UNL A   1      40.773  37.117  38.051  1.00  0.00    -0.200 F 
ATOM     74  F   UNL A   1      39.223  36.327  40.151  1.00  0.00    -0.200 F 
ENDBRANCH  50  64
BRANCH  51  75
ATOM     75  C   UNL A   1      40.390  28.089  28.738  1.00  0.00     0.064 A 
ATOM     76  C   UNL A   1      39.710  26.864  28.702  1.00  0.00     0.173 A 
ATOM     77  C   UNL A   1      41.147  28.450  27.614  1.00  0.00     0.173 A 
ATOM     78  F   UNL A   1      38.990  26.465  29.762  1.00  0.00    -0.203 F 
ATOM     79  C   UNL A   1      39.786  26.033  27.586  1.00  0.00     0.198 A 
ATOM     80  C   UNL A   1      41.199  27.632  26.488  1.00  0.00     0.198 A 
ATOM     81  F   UNL A   1      41.815  29.613  27.601  1.00  0.00    -0.203 F 
ATOM     82  F   UNL A   1      39.151  24.854  27.587  1.00  0.00    -0.200 F 
ATOM     83  C   UNL A   1      40.523  26.422  26.477  1.00  0.00     0.200 A 
ATOM     84  F   UNL A   1      41.899  28.020  25.413  1.00  0.00    -0.200 F 
ATOM     85  F   UNL A   1      40.582  25.630  25.398  1.00  0.00    -0.200 F 
ENDBRANCH  51  75
BRANCH  63  86
ATOM     86  C   UNL A   1      43.764  28.460  34.831  1.00  0.00     0.064 A 
ATOM     87  C   UNL A   1      45.088  28.905  34.714  1.00  0.00     0.173 A 
ATOM     88  C   UNL A   1      43.524  27.294  35.575  1.00  0.00     0.173 A 
ATOM     89  F   UNL A   1      45.369  30.006  34.001  1.00  0.00    -0.203 F 
ATOM     90  C   UNL A   1      46.133  28.203  35.307  1.00  0.00     0.198 A 
ATOM     91  C   UNL A   1      44.569  26.610  36.190  1.00  0.00     0.198 A 
ATOM     92  F   UNL A   1      42.273  26.832  35.723  1.00  0.00    -0.203 F 
ATOM     93  F   UNL A   1      47.396  28.628  35.154  1.00  0.00    -0.200 F 
ATOM     94  C   UNL A   1      45.872  27.062  36.053  1.00  0.00     0.200 A 
ATOM     95  F   UNL A   1      44.313  25.516  36.921  1.00  0.00    -0.200 F 
ATOM     96  F   UNL A   1      46.878  26.397  36.636  1.00  0.00    -0.200 F 
ENDBRANCH  63  86
ENDBRANCH  37  38
ENDBRANCH  29  32
ENDBRANCH  27  28
ENDBRANCH   1  27
TORSDOF 12
ENDMDL
MODEL 2
REMARK VINA RESULT:     -13.6      0.146      1.590
REMARK SMILES O=C(C[C@H]1C(=O)N[NH+]=C2c3ccc(F)cc3N=CN21)NCCCCNC(=O)c1ccc(-c2c3nc(c(-c4c(F)c(F)c(F)c(F)c4F)c4ccc([nH]4)c(-c4c(F)c(F)c(F)c(F)c4F)c4nc(c(-c5c(F)c(F)c(F)c(F)c5F)c5ccc2[nH]5)C=C4)C=C3)cc1
REMARK SMILES IDX 23 1 22 2 21 3 20 4 1 5 2 6 3 8 4 9 5 10 19 11 6 12 7 13
REMARK SMILES IDX 9 14 18 15 8 16 10 18 17 19 11 21 16 22 12 23 15 24 13 25
REMARK SMILES IDX 14 26 24 27 25 28 26 29 27 31 28 32 29 33 90 34 30 35 89 36
REMARK SMILES IDX 31 37 32 38 33 39 83 40 34 41 88 42 82 43 84 44 35 45 87 46
REMARK SMILES IDX 81 47 80 48 36 50 68 51 48 52 67 53 49 54 52 55 66 56 85 57
REMARK SMILES IDX 50 58 51 59 65 61 86 62 53 63 37 64 38 65 46 66 39 67 40 68
REMARK SMILES IDX 44 69 47 70 41 71 42 72 45 73 43 74 69 75 70 76 78 77 71 78
REMARK SMILES IDX 72 79 76 80 79 81 73 82 74 83 77 84 75 85 54 86 55 87 63 88
REMARK SMILES IDX 56 89 57 90 61 91 64 92 58 93 59 94 62 95 60 96
REMARK H PARENT 20 7 7 17 8 20 25 30 84 49 52 60
REMARK Flexibility Score: inf
ROOT
ATOM      1  C   UNL A   1      31.469  31.993  26.792  1.00  0.00     0.023 C 
ENDROOT
BRANCH   1   2
ATOM      2  C   UNL A   1      31.822  30.587  26.300  1.00  0.00     0.023 C 
BRANCH   2   3
ATOM      3  C   UNL A   1      32.701  29.768  27.251  1.00  0.00     0.116 C 
BRANCH   3   4
ATOM      4  N   UNL A   1      32.411  28.351  27.148  1.00  0.00    -0.356 N 
ATOM      5  O   UNL A   1      34.405  27.752  26.183  1.00  0.00    -0.275 OA
ATOM      6  C   UNL A   1      33.257  27.476  26.501  1.00  0.00     0.224 C 
ATOM      7  H   UNL A   1      31.585  28.003  27.554  1.00  0.00     0.163 HD
BRANCH   6   8
ATOM      8  C   UNL A   1      32.581  26.195  26.094  1.00  0.00     0.160 C 
BRANCH   8   9
ATOM      9  C   UNL A   1      32.132  26.062  24.643  1.00  0.00     0.284 C 
ATOM     10  C   UNL A   1      31.232  24.829  24.680  1.00  0.00     0.300 C 
ATOM     11  N   UNL A   1      31.413  27.211  24.085  1.00  0.00    -0.203 N 
ATOM     12  O   UNL A   1      31.686  23.685  24.693  1.00  0.00    -0.267 OA
ATOM     13  N   UNL A   1      29.896  25.075  24.887  1.00  0.00    -0.193 N 
ATOM     14  C   UNL A   1      30.026  27.197  24.101  1.00  0.00     0.309 C 
ATOM     15  C   UNL A   1      32.111  28.209  23.439  1.00  0.00     0.317 C 
ATOM     16  N   UNL A   1      29.276  26.240  24.562  1.00  0.00    -0.169 N 
ATOM     17  H   UNL A   1      29.353  24.362  25.297  1.00  0.00     0.216 HD
ATOM     18  C   UNL A   1      29.356  28.326  23.386  1.00  0.00     0.092 A 
ATOM     19  N   UNL A   1      31.597  29.163  22.729  1.00  0.00    -0.216 NA
ATOM     20  H   UNL A   1      28.303  26.353  24.671  1.00  0.00     0.340 HD
ATOM     21  C   UNL A   1      27.962  28.390  23.277  1.00  0.00     0.022 A 
ATOM     22  C   UNL A   1      30.188  29.190  22.646  1.00  0.00     0.085 A 
ATOM     23  C   UNL A   1      27.387  29.286  22.377  1.00  0.00     0.040 A 
ATOM     24  C   UNL A   1      29.594  30.080  21.749  1.00  0.00     0.068 A 
ATOM     25  C   UNL A   1      28.208  30.105  21.608  1.00  0.00     0.125 A 
ATOM     26  F   UNL A   1      27.653  30.915  20.697  1.00  0.00    -0.207 F 
ENDBRANCH   8   9
ENDBRANCH   6   8
ENDBRANCH   3   4
ENDBRANCH   2   3
ENDBRANCH   1   2
BRANCH   1  27
ATOM     27  C   UNL A   1      32.643  32.805  27.321  1.00  0.00     0.116 C 
BRANCH  27  28
ATOM     28  N   UNL A   1      32.295  34.183  27.626  1.00  0.00    -0.352 N 
ATOM     29  C   UNL A   1      32.877  35.047  28.530  1.00  0.00     0.251 C 
ATOM     30  H   UNL A   1      31.539  34.552  27.116  1.00  0.00     0.163 HD
ATOM     31  O   UNL A   1      32.380  36.140  28.751  1.00  0.00    -0.269 OA
BRANCH  29  32
ATOM     32  C   UNL A   1      34.084  34.617  29.277  1.00  0.00     0.039 A 
ATOM     33  C   UNL A   1      35.350  34.687  28.694  1.00  0.00     0.014 A 
ATOM     34  C   UNL A   1      33.934  34.091  30.563  1.00  0.00     0.014 A 
ATOM     35  C   UNL A   1      36.426  34.058  29.311  1.00  0.00     0.010 A 
ATOM     36  C   UNL A   1      35.038  33.539  31.222  1.00  0.00     0.010 A 
ATOM     37  C   UNL A   1      36.281  33.461  30.574  1.00  0.00    -0.014 A 
BRANCH  37  38
ATOM     38  C   UNL A   1      37.431  32.736  31.178  1.00  0.00     0.031 A 
ATOM     39  C   UNL A   1      37.889  33.050  32.578  1.00  0.00     0.074 A 
ATOM     40  C   UNL A   1      38.021  31.739  30.490  1.00  0.00     0.049 A 
ATOM     41  N   UNL A   1      38.851  32.499  33.277  1.00  0.00    -0.248 NA
ATOM     42  C   UNL A   1      37.177  34.124  33.290  1.00  0.00     0.031 C 
ATOM     43  C   UNL A   1      37.661  31.326  29.134  1.00  0.00     0.029 A 
ATOM     44  N   UNL A   1      39.027  30.874  30.845  1.00  0.00    -0.354 N 
ATOM     45  C   UNL A   1      38.869  33.164  34.496  1.00  0.00     0.074 A 
ATOM     46  C   UNL A   1      37.845  34.184  34.435  1.00  0.00     0.031 C 
ATOM     47  C   UNL A   1      38.392  30.254  28.792  1.00  0.00     0.029 A 
ATOM     48  C   UNL A   1      39.316  29.943  29.878  1.00  0.00     0.049 A 
ATOM     49  H   UNL A   1      39.496  30.918  31.709  1.00  0.00     0.167 HD
ATOM     50  C   UNL A   1      39.655  32.935  35.575  1.00  0.00     0.037 A 
ATOM     51  C   UNL A   1      40.230  28.955  29.860  1.00  0.00     0.037 A 
ATOM     52  C   UNL A   1      40.657  31.904  35.648  1.00  0.00     0.049 A 
ATOM     53  C   UNL A   1      41.125  28.756  31.051  1.00  0.00     0.074 A 
ATOM     54  C   UNL A   1      41.488  31.583  36.709  1.00  0.00     0.029 A 
ATOM     55  N   UNL A   1      40.965  31.025  34.621  1.00  0.00    -0.354 N 
ATOM     56  N   UNL A   1      41.125  29.390  32.198  1.00  0.00    -0.248 NA
ATOM     57  C   UNL A   1      42.153  27.712  30.940  1.00  0.00     0.031 C 
ATOM     58  C   UNL A   1      42.326  30.539  36.309  1.00  0.00     0.029 A 
ATOM     59  C   UNL A   1      41.987  30.176  35.015  1.00  0.00     0.049 A 
ATOM     60  H   UNL A   1      40.522  31.006  33.741  1.00  0.00     0.167 HD
ATOM     61  C   UNL A   1      42.142  28.817  32.949  1.00  0.00     0.074 A 
ATOM     62  C   UNL A   1      42.724  27.769  32.135  1.00  0.00     0.031 C 
ATOM     63  C   UNL A   1      42.558  29.138  34.198  1.00  0.00     0.037 A 
BRANCH  50  64
ATOM     64  C   UNL A   1      39.472  33.813  36.779  1.00  0.00     0.064 A 
ATOM     65  C   UNL A   1      38.677  33.415  37.863  1.00  0.00     0.173 A 
ATOM     66  C   UNL A   1      40.161  35.032  36.882  1.00  0.00     0.173 A 
ATOM     67  F   UNL A   1      37.989  32.266  37.810  1.00  0.00    -0.203 F 
ATOM     68  C   UNL A   1      38.568  34.211  39.001  1.00  0.00     0.198 A 
ATOM     69  C   UNL A   1      40.070  35.811  38.032  1.00  0.00     0.198 A 
ATOM     70  F   UNL A   1      40.940  35.455  35.876  1.00  0.00    -0.203 F 
ATOM     71  F   UNL A   1      37.778  33.825  40.014  1.00  0.00    -0.200 F 
ATOM     72  C   UNL A   1      39.272  35.403  39.089  1.00  0.00     0.200 A 
ATOM     73  F   UNL A   1      40.762  36.956  38.120  1.00  0.00    -0.200 F 
ATOM     74  F   UNL A   1      39.179  36.158  40.192  1.00  0.00    -0.200 F 
ENDBRANCH  50  64
BRANCH  51  75
ATOM     75  C   UNL A   1      40.334  28.076  28.668  1.00  0.00     0.064 A 
ATOM     76  C   UNL A   1      41.121  28.446  27.568  1.00  0.00     0.173 A 
ATOM     77  C   UNL A   1      39.675  26.839  28.613  1.00  0.00     0.173 A 
ATOM     78  F   UNL A   1      41.753  29.629  27.565  1.00  0.00    -0.203 F 
ATOM     79  C   UNL A   1      41.241  27.612  26.458  1.00  0.00     0.198 A 
ATOM     80  C   UNL A   1      39.819  25.994  27.516  1.00  0.00     0.198 A 
ATOM     81  F   UNL A   1      38.912  26.440  29.641  1.00  0.00    -0.203 F 
ATOM     82  F   UNL A   1      41.975  28.002  25.407  1.00  0.00    -0.200 F 
ATOM     83  C   UNL A   1      40.598  26.384  26.437  1.00  0.00     0.200 A 
ATOM     84  F   UNL A   1      39.209  24.801  27.507  1.00  0.00    -0.200 F 
ATOM     85  F   UNL A   1      40.727  25.576  25.376  1.00  0.00    -0.200 F 
ENDBRANCH  51  75
BRANCH  63  86
ATOM     86  C   UNL A   1      43.694  28.344  34.774  1.00  0.00     0.064 A 
ATOM     87  C   UNL A   1      43.472  27.137  35.450  1.00  0.00     0.173 A 
ATOM     88  C   UNL A   1      45.021  28.760  34.586  1.00  0.00     0.173 A 
ATOM     89  F   UNL A   1      42.220  26.704  35.666  1.00  0.00    -0.203 F 
ATOM     90  C   UNL A   1      44.536  26.380  35.932  1.00  0.00     0.198 A 
ATOM     91  C   UNL A   1      46.084  27.988  35.046  1.00  0.00     0.198 A 
ATOM     92  F   UNL A   1      45.286  29.904  33.939  1.00  0.00    -0.203 F 
ATOM     93  F   UNL A   1      44.300  25.245  36.605  1.00  0.00    -0.200 F 
ATOM     94  C   UNL A   1      45.842  26.801  35.721  1.00  0.00     0.200 A 
ATOM     95  F   UNL A   1      47.344  28.389  34.830  1.00  0.00    -0.200 F 
ATOM     96  F   UNL A   1      46.865  26.064  36.171  1.00  0.00    -0.200 F 
ENDBRANCH  63  86
ENDBRANCH  37  38
ENDBRANCH  29  32
ENDBRANCH  27  28
ENDBRANCH   1  27
TORSDOF 12
ENDMDL
MODEL 3
REMARK VINA RESULT:     -13.5      0.177      7.435
REMARK SMILES O=C(C[C@H]1C(=O)N[NH+]=C2c3ccc(F)cc3N=CN21)NCCCCNC(=O)c1ccc(-c2c3nc(c(-c4c(F)c(F)c(F)c(F)c4F)c4ccc([nH]4)c(-c4c(F)c(F)c(F)c(F)c4F)c4nc(c(-c5c(F)c(F)c(F)c(F)c5F)c5ccc2[nH]5)C=C4)C=C3)cc1
REMARK SMILES IDX 23 1 22 2 21 3 20 4 1 5 2 6 3 8 4 9 5 10 19 11 6 12 7 13
REMARK SMILES IDX 9 14 18 15 8 16 10 18 17 19 11 21 16 22 12 23 15 24 13 25
REMARK SMILES IDX 14 26 24 27 25 28 26 29 27 31 28 32 29 33 90 34 30 35 89 36
REMARK SMILES IDX 31 37 32 38 33 39 83 40 34 41 88 42 82 43 84 44 35 45 87 46
REMARK SMILES IDX 81 47 80 48 36 50 68 51 48 52 67 53 49 54 52 55 66 56 85 57
REMARK SMILES IDX 50 58 51 59 65 61 86 62 53 63 37 64 38 65 46 66 39 67 40 68
REMARK SMILES IDX 44 69 47 70 41 71 42 72 45 73 43 74 69 75 70 76 78 77 71 78
REMARK SMILES IDX 72 79 76 80 79 81 73 82 74 83 77 84 75 85 54 86 55 87 63 88
REMARK SMILES IDX 56 89 57 90 61 91 64 92 58 93 59 94 62 95 60 96
REMARK H PARENT 20 7 7 17 8 20 25 30 84 49 52 60
REMARK Flexibility Score: inf
ROOT
ATOM      1  C   UNL A   1      31.521  31.988  26.832  1.00  0.00     0.023 C 
ENDROOT
BRANCH   1   2
ATOM      2  C   UNL A   1      31.853  30.585  26.316  1.00  0.00     0.023 C 
BRANCH   2   3
ATOM      3  C   UNL A   1      32.684  29.722  27.271  1.00  0.00     0.116 C 
BRANCH   3   4
ATOM      4  N   UNL A   1      32.335  28.320  27.154  1.00  0.00    -0.356 N 
ATOM      5  O   UNL A   1      34.313  27.642  26.206  1.00  0.00    -0.275 OA
ATOM      6  C   UNL A   1      33.150  27.414  26.509  1.00  0.00     0.224 C 
ATOM      7  H   UNL A   1      31.490  28.005  27.548  1.00  0.00     0.163 HD
BRANCH   6   8
ATOM      8  C   UNL A   1      32.423  26.166  26.085  1.00  0.00     0.160 C 
BRANCH   8   9
ATOM      9  C   UNL A   1      32.008  26.052  24.622  1.00  0.00     0.284 C 
ATOM     10  C   UNL A   1      31.083  24.837  24.628  1.00  0.00     0.300 C 
ATOM     11  N   UNL A   1      31.325  27.219  24.056  1.00  0.00    -0.203 N 
ATOM     12  O   UNL A   1      31.514  23.684  24.644  1.00  0.00    -0.267 OA
ATOM     13  N   UNL A   1      29.748  25.108  24.804  1.00  0.00    -0.193 N 
ATOM     14  C   UNL A   1      29.938  27.233  24.038  1.00  0.00     0.309 C 
ATOM     15  C   UNL A   1      32.058  28.208  23.435  1.00  0.00     0.317 C 
ATOM     16  N   UNL A   1      29.158  26.287  24.473  1.00  0.00    -0.169 N 
ATOM     17  H   UNL A   1      29.181  24.403  25.195  1.00  0.00     0.216 HD
ATOM     18  C   UNL A   1      29.309  28.380  23.316  1.00  0.00     0.092 A 
ATOM     19  N   UNL A   1      31.582  29.176  22.719  1.00  0.00    -0.216 NA
ATOM     20  H   UNL A   1      28.186  26.419  24.559  1.00  0.00     0.340 HD
ATOM     21  C   UNL A   1      27.919  28.473  23.173  1.00  0.00     0.022 A 
ATOM     22  C   UNL A   1      30.175  29.233  22.603  1.00  0.00     0.085 A 
ATOM     23  C   UNL A   1      27.385  29.386  22.266  1.00  0.00     0.040 A 
ATOM     24  C   UNL A   1      29.621  30.140  21.698  1.00  0.00     0.068 A 
ATOM     25  C   UNL A   1      28.240  30.194  21.524  1.00  0.00     0.125 A 
ATOM     26  F   UNL A   1      27.724  31.022  20.606  1.00  0.00    -0.207 F 
ENDBRANCH   8   9
ENDBRANCH   6   8
ENDBRANCH   3   4
ENDBRANCH   2   3
ENDBRANCH   1   2
BRANCH   1  27
ATOM     27  C   UNL A   1      32.712  32.784  27.347  1.00  0.00     0.116 C 
BRANCH  27  28
ATOM     28  N   UNL A   1      32.396  34.176  27.621  1.00  0.00    -0.352 N 
ATOM     29  C   UNL A   1      32.963  35.032  28.542  1.00  0.00     0.251 C 
ATOM     30  H   UNL A   1      31.677  34.562  27.072  1.00  0.00     0.163 HD
ATOM     31  O   UNL A   1      32.492  36.143  28.728  1.00  0.00    -0.269 OA
BRANCH  29  32
ATOM     32  C   UNL A   1      34.119  34.572  29.350  1.00  0.00     0.039 A 
ATOM     33  C   UNL A   1      35.409  34.573  28.818  1.00  0.00     0.014 A 
ATOM     34  C   UNL A   1      33.894  34.088  30.641  1.00  0.00     0.014 A 
ATOM     35  C   UNL A   1      36.432  33.918  29.496  1.00  0.00     0.010 A 
ATOM     36  C   UNL A   1      34.946  33.509  31.360  1.00  0.00     0.010 A 
ATOM     37  C   UNL A   1      36.210  33.362  30.766  1.00  0.00    -0.014 A 
BRANCH  37  38
ATOM     38  C   UNL A   1      37.302  32.605  31.436  1.00  0.00     0.031 A 
ATOM     39  C   UNL A   1      38.024  31.497  30.716  1.00  0.00     0.074 A 
ATOM     40  C   UNL A   1      37.695  32.964  32.674  1.00  0.00     0.049 A 
ATOM     41  N   UNL A   1      39.021  30.753  31.130  1.00  0.00    -0.248 NA
ATOM     42  C   UNL A   1      37.573  31.180  29.351  1.00  0.00     0.031 C 
ATOM     43  C   UNL A   1      37.087  34.030  33.472  1.00  0.00     0.029 A 
ATOM     44  N   UNL A   1      38.712  32.494  33.467  1.00  0.00    -0.354 N 
ATOM     45  C   UNL A   1      39.302  29.876  30.090  1.00  0.00     0.074 A 
ATOM     46  C   UNL A   1      38.353  30.155  29.035  1.00  0.00     0.031 C 
ATOM     47  C   UNL A   1      37.777  34.171  34.614  1.00  0.00     0.029 A 
ATOM     48  C   UNL A   1      38.835  33.166  34.657  1.00  0.00     0.049 A 
ATOM     49  H   UNL A   1      39.297  31.746  33.206  1.00  0.00     0.167 HD
ATOM     50  C   UNL A   1      40.274  28.935  30.015  1.00  0.00     0.037 A 
ATOM     51  C   UNL A   1      39.695  32.988  35.679  1.00  0.00     0.037 A 
ATOM     52  C   UNL A   1      41.236  28.674  31.053  1.00  0.00     0.049 A 
ATOM     53  C   UNL A   1      40.731  31.903  35.589  1.00  0.00     0.074 A 
ATOM     54  C   UNL A   1      42.272  27.755  31.056  1.00  0.00     0.029 A 
ATOM     55  N   UNL A   1      41.284  29.332  32.273  1.00  0.00    -0.354 N 
ATOM     56  N   UNL A   1      40.987  31.086  34.597  1.00  0.00    -0.248 NA
ATOM     57  C   UNL A   1      41.588  31.708  36.767  1.00  0.00     0.031 C 
ATOM     58  C   UNL A   1      42.919  27.828  32.293  1.00  0.00     0.029 A 
ATOM     59  C   UNL A   1      42.318  28.825  33.044  1.00  0.00     0.049 A 
ATOM     60  H   UNL A   1      40.674  30.054  32.550  1.00  0.00     0.167 HD
ATOM     61  C   UNL A   1      42.040  30.289  35.024  1.00  0.00     0.074 A 
ATOM     62  C   UNL A   1      42.389  30.734  36.357  1.00  0.00     0.031 C 
ATOM     63  C   UNL A   1      42.656  29.275  34.369  1.00  0.00     0.037 A 
BRANCH  50  64
ATOM     64  C   UNL A   1      40.358  28.108  28.765  1.00  0.00     0.064 A 
ATOM     65  C   UNL A   1      41.126  28.517  27.665  1.00  0.00     0.173 A 
ATOM     66  C   UNL A   1      39.724  26.857  28.696  1.00  0.00     0.173 A 
ATOM     67  F   UNL A   1      41.741  29.708  27.676  1.00  0.00    -0.203 F 
ATOM     68  C   UNL A   1      41.247  27.708  26.537  1.00  0.00     0.198 A 
ATOM     69  C   UNL A   1      39.870  26.041  27.577  1.00  0.00     0.198 A 
ATOM     70  F   UNL A   1      38.984  26.417  29.723  1.00  0.00    -0.203 F 
ATOM     71  F   UNL A   1      41.962  28.132  25.484  1.00  0.00    -0.200 F 
ATOM     72  C   UNL A   1      40.627  26.468  26.498  1.00  0.00     0.200 A 
ATOM     73  F   UNL A   1      39.282  24.837  27.547  1.00  0.00    -0.200 F 
ATOM     74  F   UNL A   1      40.760  25.685  25.418  1.00  0.00    -0.200 F 
ENDBRANCH  50  64
BRANCH  51  75
ATOM     75  C   UNL A   1      39.608  33.870  36.870  1.00  0.00     0.064 A 
ATOM     76  C   UNL A   1      40.271  35.104  36.901  1.00  0.00     0.173 A 
ATOM     77  C   UNL A   1      38.842  33.512  37.989  1.00  0.00     0.173 A 
ATOM     78  F   UNL A   1      41.034  35.481  35.863  1.00  0.00    -0.203 F 
ATOM     79  C   UNL A   1      40.172  35.946  38.006  1.00  0.00     0.198 A 
ATOM     80  C   UNL A   1      38.720  34.366  39.082  1.00  0.00     0.198 A 
ATOM     81  F   UNL A   1      38.188  32.341  38.007  1.00  0.00    -0.203 F 
ATOM     82  F   UNL A   1      40.839  37.108  38.023  1.00  0.00    -0.200 F 
ATOM     83  C   UNL A   1      39.389  35.580  39.091  1.00  0.00     0.200 A 
ATOM     84  F   UNL A   1      37.949  34.016  40.121  1.00  0.00    -0.200 F 
ATOM     85  F   UNL A   1      39.281  36.398  40.148  1.00  0.00    -0.200 F 
ENDBRANCH  51  75
BRANCH  63  86
ATOM     86  C   UNL A   1      43.779  28.576  35.076  1.00  0.00     0.064 A 
ATOM     87  C   UNL A   1      43.548  27.454  35.884  1.00  0.00     0.173 A 
ATOM     88  C   UNL A   1      45.107  28.989  34.887  1.00  0.00     0.173 A 
ATOM     89  F   UNL A   1      42.295  27.029  36.106  1.00  0.00    -0.203 F 
ATOM     90  C   UNL A   1      44.604  26.779  36.491  1.00  0.00     0.198 A 
ATOM     91  C   UNL A   1      46.163  28.297  35.473  1.00  0.00     0.198 A 
ATOM     92  F   UNL A   1      45.381  30.053  34.117  1.00  0.00    -0.203 F 
ATOM     93  F   UNL A   1      44.358  25.729  37.287  1.00  0.00    -0.200 F 
ATOM     94  C   UNL A   1      45.911  27.195  36.277  1.00  0.00     0.200 A 
ATOM     95  F   UNL A   1      47.424  28.691  35.254  1.00  0.00    -0.200 F 
ATOM     96  F   UNL A   1      46.927  26.535  36.848  1.00  0.00    -0.200 F 
ENDBRANCH  63  86
ENDBRANCH  37  38
ENDBRANCH  29  32
ENDBRANCH  27  28
ENDBRANCH   1  27
TORSDOF 12
ENDMDL
