MODEL 1
REMARK VINA RESULT:     -13.8      0.000      0.000
REMARK SMILES O=C(NCCCCNC(=O)[C@@H](Cc1ccccc1)N1C(=O)/C(=C/c2ccncc2)SC1=S)c1ccc(-c2c3nc(c(-c4c(F)c(F)c(F)c(F)c4F)c4ccc([nH]4)c(-c4c(F)c(F)c(F)c(F)c4F)c4nc(c(-c5c(F)c(F)c(F)c(F)c5F)c5ccc2[nH]5)C=C4)C=C3)cc1
REMARK SMILES IDX 5 1 4 2 3 3 1 4 2 5 33 7 34 8 95 9 35 10 94 11 36 12 37 13
REMARK SMILES IDX 38 14 88 15 39 16 93 17 87 18 89 19 40 20 92 21 86 22 85 23
REMARK SMILES IDX 41 25 73 26 53 27 72 28 54 29 57 30 71 31 90 32 55 33 56 34
REMARK SMILES IDX 70 36 91 37 58 38 42 39 43 40 51 41 44 42 45 43 49 44 52 45
REMARK SMILES IDX 46 46 47 47 50 48 48 49 74 50 75 51 83 52 76 53 77 54 81 55
REMARK SMILES IDX 84 56 78 57 79 58 82 59 80 60 59 61 60 62 68 63 61 64 62 65
REMARK SMILES IDX 66 66 69 67 63 68 64 69 67 70 65 71 6 72 7 73 8 74 9 75
REMARK SMILES IDX 10 77 11 78 12 79 13 80 14 81 18 82 15 83 17 84 16 85 19 86
REMARK SMILES IDX 20 87 31 88 21 89 22 90 30 91 32 92 23 93 24 94 25 95 29 96
REMARK SMILES IDX 26 97 28 98 27 99
REMARK H PARENT 3 6 89 24 57 35 8 76
REMARK Flexibility Score: inf
ROOT
ATOM      1  C   UNL A   1      31.729  29.480  26.123  1.00  0.00     0.023 C 
ENDROOT
BRANCH   1   2
ATOM      2  C   UNL A   1      32.909  30.439  26.126  1.00  0.00     0.116 C 
BRANCH   2   3
ATOM      3  N   UNL A   1      32.640  31.734  26.745  1.00  0.00    -0.352 N 
ATOM      4  O   UNL A   1      33.095  33.535  28.049  1.00  0.00    -0.269 OA
ATOM      5  C   UNL A   1      33.467  32.478  27.564  1.00  0.00     0.251 C 
ATOM      6  H   UNL A   1      31.757  32.126  26.556  1.00  0.00     0.163 HD
BRANCH   5   7
ATOM      7  C   UNL A   1      34.797  31.924  27.895  1.00  0.00     0.039 A 
ATOM      8  C   UNL A   1      34.920  30.578  28.238  1.00  0.00     0.014 A 
ATOM      9  C   UNL A   1      35.886  32.789  28.014  1.00  0.00     0.014 A 
ATOM     10  C   UNL A   1      36.052  30.156  28.918  1.00  0.00     0.010 A 
ATOM     11  C   UNL A   1      37.072  32.327  28.592  1.00  0.00     0.010 A 
ATOM     12  C   UNL A   1      37.141  31.026  29.111  1.00  0.00    -0.014 A 
BRANCH  12  13
ATOM     13  C   UNL A   1      38.325  30.534  29.865  1.00  0.00     0.031 A 
ATOM     14  C   UNL A   1      38.540  30.892  31.312  1.00  0.00     0.074 A 
ATOM     15  C   UNL A   1      39.173  29.688  29.248  1.00  0.00     0.049 A 
ATOM     16  N   UNL A   1      39.503  30.520  32.119  1.00  0.00    -0.248 NA
ATOM     17  C   UNL A   1      37.555  31.790  31.937  1.00  0.00     0.031 C 
ATOM     18  C   UNL A   1      39.066  29.266  27.849  1.00  0.00     0.029 A 
ATOM     19  N   UNL A   1      40.260  28.999  29.721  1.00  0.00    -0.354 N 
ATOM     20  C   UNL A   1      39.265  31.167  33.325  1.00  0.00     0.074 A 
ATOM     21  C   UNL A   1      38.070  31.962  33.147  1.00  0.00     0.031 C 
ATOM     22  C   UNL A   1      39.991  28.330  27.601  1.00  0.00     0.029 A 
ATOM     23  C   UNL A   1      40.807  28.146  28.796  1.00  0.00     0.049 A 
ATOM     24  H   UNL A   1      40.612  29.107  30.634  1.00  0.00     0.167 HD
ATOM     25  C   UNL A   1      39.981  31.100  34.475  1.00  0.00     0.037 A 
ATOM     26  C   UNL A   1      41.859  27.313  28.891  1.00  0.00     0.037 A 
ATOM     27  C   UNL A   1      41.144  30.270  34.662  1.00  0.00     0.049 A 
ATOM     28  C   UNL A   1      42.623  27.250  30.179  1.00  0.00     0.074 A 
ATOM     29  C   UNL A   1      41.917  30.108  35.800  1.00  0.00     0.029 A 
ATOM     30  N   UNL A   1      41.696  29.452  33.687  1.00  0.00    -0.354 N 
ATOM     31  N   UNL A   1      42.392  27.876  31.307  1.00  0.00    -0.248 NA
ATOM     32  C   UNL A   1      43.804  26.378  30.202  1.00  0.00     0.031 C 
ATOM     33  C   UNL A   1      42.957  29.219  35.502  1.00  0.00     0.029 A 
ATOM     34  C   UNL A   1      42.809  28.797  34.191  1.00  0.00     0.049 A 
ATOM     35  H   UNL A   1      41.349  29.352  32.771  1.00  0.00     0.167 HD
ATOM     36  C   UNL A   1      43.396  27.475  32.175  1.00  0.00     0.074 A 
ATOM     37  C   UNL A   1      44.222  26.530  31.451  1.00  0.00     0.031 C 
ATOM     38  C   UNL A   1      43.621  27.865  33.453  1.00  0.00     0.037 A 
BRANCH  25  39
ATOM     39  C   UNL A   1      39.545  31.963  35.623  1.00  0.00     0.064 A 
ATOM     40  C   UNL A   1      40.050  33.258  35.811  1.00  0.00     0.173 A 
ATOM     41  C   UNL A   1      38.564  31.506  36.518  1.00  0.00     0.173 A 
ATOM     42  F   UNL A   1      40.997  33.739  34.991  1.00  0.00    -0.203 F 
ATOM     43  C   UNL A   1      39.604  34.055  36.863  1.00  0.00     0.198 A 
ATOM     44  C   UNL A   1      38.104  32.315  37.554  1.00  0.00     0.198 A 
ATOM     45  F   UNL A   1      38.043  30.278  36.379  1.00  0.00    -0.203 F 
ATOM     46  F   UNL A   1      40.126  35.277  37.045  1.00  0.00    -0.200 F 
ATOM     47  C   UNL A   1      38.627  33.586  37.729  1.00  0.00     0.200 A 
ATOM     48  F   UNL A   1      37.151  31.863  38.383  1.00  0.00    -0.200 F 
ATOM     49  F   UNL A   1      38.193  34.358  38.735  1.00  0.00    -0.200 F 
ENDBRANCH  25  39
BRANCH  26  50
ATOM     50  C   UNL A   1      42.239  26.479  27.724  1.00  0.00     0.064 A 
ATOM     51  C   UNL A   1      43.224  26.907  26.825  1.00  0.00     0.173 A 
ATOM     52  C   UNL A   1      41.655  25.222  27.508  1.00  0.00     0.173 A 
ATOM     53  F   UNL A   1      43.797  28.110  26.981  1.00  0.00    -0.203 F 
ATOM     54  C   UNL A   1      43.611  26.108  25.752  1.00  0.00     0.198 A 
ATOM     55  C   UNL A   1      42.063  24.413  26.451  1.00  0.00     0.198 A 
ATOM     56  F   UNL A   1      40.712  24.767  28.346  1.00  0.00    -0.203 F 
ATOM     57  F   UNL A   1      44.536  26.551  24.890  1.00  0.00    -0.200 F 
ATOM     58  C   UNL A   1      43.037  24.858  25.571  1.00  0.00     0.200 A 
ATOM     59  F   UNL A   1      41.520  23.197  26.294  1.00  0.00    -0.200 F 
ATOM     60  F   UNL A   1      43.423  24.083  24.549  1.00  0.00    -0.200 F 
ENDBRANCH  26  50
BRANCH  38  61
ATOM     61  C   UNL A   1      44.802  27.257  34.144  1.00  0.00     0.064 A 
ATOM     62  C   UNL A   1      44.691  26.048  34.847  1.00  0.00     0.173 A 
ATOM     63  C   UNL A   1      46.056  27.882  34.096  1.00  0.00     0.173 A 
ATOM     64  F   UNL A   1      43.506  25.425  34.936  1.00  0.00    -0.203 F 
ATOM     65  C   UNL A   1      45.791  25.501  35.501  1.00  0.00     0.198 A 
ATOM     66  C   UNL A   1      47.159  27.319  34.732  1.00  0.00     0.198 A 
ATOM     67  F   UNL A   1      46.210  29.038  33.433  1.00  0.00    -0.203 F 
ATOM     68  F   UNL A   1      45.654  24.370  36.207  1.00  0.00    -0.200 F 
ATOM     69  C   UNL A   1      47.024  26.134  35.439  1.00  0.00     0.200 A 
ATOM     70  F   UNL A   1      48.351  27.928  34.666  1.00  0.00    -0.200 F 
ATOM     71  F   UNL A   1      48.081  25.607  36.072  1.00  0.00    -0.200 F 
ENDBRANCH  38  61
ENDBRANCH  12  13
ENDBRANCH   5   7
ENDBRANCH   2   3
ENDBRANCH   1   2
BRANCH   1  72
ATOM     72  C   UNL A   1      31.725  28.510  27.292  1.00  0.00     0.023 C 
BRANCH  72  73
ATOM     73  C   UNL A   1      32.398  27.165  27.017  1.00  0.00     0.116 C 
BRANCH  73  74
ATOM     74  N   UNL A   1      31.421  26.103  27.073  1.00  0.00    -0.354 N 
ATOM     75  C   UNL A   1      30.823  25.384  26.092  1.00  0.00     0.243 C 
ATOM     76  H   UNL A   1      31.140  25.858  27.984  1.00  0.00     0.163 HD
ATOM     77  O   UNL A   1      29.894  24.648  26.450  1.00  0.00    -0.273 OA
BRANCH  75  78
ATOM     78  C   UNL A   1      31.153  25.505  24.584  1.00  0.00     0.185 C 
BRANCH  78  79
ATOM     79  C   UNL A   1      30.636  24.196  23.878  1.00  0.00     0.071 C 
BRANCH  79  80
ATOM     80  C   UNL A   1      31.350  22.850  23.933  1.00  0.00    -0.045 A 
ATOM     81  C   UNL A   1      31.605  22.115  25.099  1.00  0.00     0.004 A 
ATOM     82  C   UNL A   1      31.707  22.249  22.708  1.00  0.00     0.004 A 
ATOM     83  C   UNL A   1      32.235  20.864  25.057  1.00  0.00     0.000 A 
ATOM     84  C   UNL A   1      32.340  21.001  22.662  1.00  0.00     0.000 A 
ATOM     85  C   UNL A   1      32.611  20.311  23.839  1.00  0.00     0.000 A 
ENDBRANCH  79  80
ENDBRANCH  78  79
BRANCH  78  86
ATOM     86  N   UNL A   1      30.942  26.780  23.852  1.00  0.00    -0.280 N 
ATOM     87  C   UNL A   1      29.627  27.199  23.689  1.00  0.00     0.266 C 
ATOM     88  C   UNL A   1      31.802  27.375  22.946  1.00  0.00     0.149 C 
ATOM     89  O   UNL A   1      28.618  26.581  23.998  1.00  0.00    -0.268 OA
ATOM     90  C   UNL A   1      29.568  28.515  23.011  1.00  0.00     0.081 C 
ATOM     91  S   UNL A   1      31.096  28.884  22.350  1.00  0.00    -0.054 SA
ATOM     92  S   UNL A   1      33.295  26.892  22.387  1.00  0.00    -0.052 S 
ATOM     93  C   UNL A   1      28.448  29.249  23.022  1.00  0.00     0.029 C 
BRANCH  93  94
ATOM     94  C   UNL A   1      28.284  30.583  22.441  1.00  0.00    -0.021 A 
ATOM     95  C   UNL A   1      28.421  31.734  23.216  1.00  0.00     0.028 A 
ATOM     96  C   UNL A   1      28.023  30.709  21.077  1.00  0.00     0.028 A 
ATOM     97  C   UNL A   1      28.273  32.962  22.595  1.00  0.00     0.111 A 
ATOM     98  C   UNL A   1      27.891  31.983  20.550  1.00  0.00     0.111 A 
ATOM     99  N   UNL A   1      28.008  33.112  21.279  1.00  0.00    -0.265 NA
ENDBRANCH  93  94
ENDBRANCH  78  86
ENDBRANCH  75  78
ENDBRANCH  73  74
ENDBRANCH  72  73
ENDBRANCH   1  72
TORSDOF 15
ENDMDL
MODEL 2
REMARK VINA RESULT:     -13.5      2.301      5.076
REMARK SMILES O=C(NCCCCNC(=O)[C@@H](Cc1ccccc1)N1C(=O)/C(=C/c2ccncc2)SC1=S)c1ccc(-c2c3nc(c(-c4c(F)c(F)c(F)c(F)c4F)c4ccc([nH]4)c(-c4c(F)c(F)c(F)c(F)c4F)c4nc(c(-c5c(F)c(F)c(F)c(F)c5F)c5ccc2[nH]5)C=C4)C=C3)cc1
REMARK SMILES IDX 5 1 4 2 3 3 1 4 2 5 33 7 34 8 95 9 35 10 94 11 36 12 37 13
REMARK SMILES IDX 38 14 88 15 39 16 93 17 87 18 89 19 40 20 92 21 86 22 85 23
REMARK SMILES IDX 41 25 73 26 53 27 72 28 54 29 57 30 71 31 90 32 55 33 56 34
REMARK SMILES IDX 70 36 91 37 58 38 42 39 43 40 51 41 44 42 45 43 49 44 52 45
REMARK SMILES IDX 46 46 47 47 50 48 48 49 74 50 75 51 83 52 76 53 77 54 81 55
REMARK SMILES IDX 84 56 78 57 79 58 82 59 80 60 59 61 60 62 68 63 61 64 62 65
REMARK SMILES IDX 66 66 69 67 63 68 64 69 67 70 65 71 6 72 7 73 8 74 9 75
REMARK SMILES IDX 10 77 11 78 12 79 13 80 14 81 18 82 15 83 17 84 16 85 19 86
REMARK SMILES IDX 20 87 31 88 21 89 22 90 30 91 32 92 23 93 24 94 25 95 29 96
REMARK SMILES IDX 26 97 28 98 27 99
REMARK H PARENT 3 6 89 24 57 35 8 76
REMARK Flexibility Score: inf
ROOT
ATOM      1  C   UNL A   1      32.154  31.349  26.714  1.00  0.00     0.023 C 
ENDROOT
BRANCH   1   2
ATOM      2  C   UNL A   1      33.038  32.279  27.530  1.00  0.00     0.116 C 
BRANCH   2   3
ATOM      3  N   UNL A   1      32.523  33.637  27.675  1.00  0.00    -0.352 N 
ATOM      4  O   UNL A   1      32.449  35.739  28.529  1.00  0.00    -0.269 OA
ATOM      5  C   UNL A   1      33.007  34.655  28.475  1.00  0.00     0.251 C 
ATOM      6  H   UNL A   1      31.729  33.856  27.135  1.00  0.00     0.163 HD
BRANCH   5   7
ATOM      7  C   UNL A   1      34.186  34.371  29.321  1.00  0.00     0.039 A 
ATOM      8  C   UNL A   1      35.467  34.574  28.812  1.00  0.00     0.014 A 
ATOM      9  C   UNL A   1      34.003  33.753  30.560  1.00  0.00     0.014 A 
ATOM     10  C   UNL A   1      36.544  33.953  29.427  1.00  0.00     0.010 A 
ATOM     11  C   UNL A   1      35.108  33.232  31.238  1.00  0.00     0.010 A 
ATOM     12  C   UNL A   1      36.378  33.266  30.644  1.00  0.00    -0.014 A 
BRANCH  12  13
ATOM     13  C   UNL A   1      37.558  32.597  31.255  1.00  0.00     0.031 A 
ATOM     14  C   UNL A   1      37.995  32.906  32.663  1.00  0.00     0.074 A 
ATOM     15  C   UNL A   1      38.190  31.640  30.549  1.00  0.00     0.049 A 
ATOM     16  N   UNL A   1      38.982  32.387  33.352  1.00  0.00    -0.248 NA
ATOM     17  C   UNL A   1      37.236  33.934  33.393  1.00  0.00     0.031 C 
ATOM     18  C   UNL A   1      37.856  31.251  29.177  1.00  0.00     0.029 A 
ATOM     19  N   UNL A   1      39.211  30.793  30.894  1.00  0.00    -0.354 N 
ATOM     20  C   UNL A   1      38.989  33.051  34.572  1.00  0.00     0.074 A 
ATOM     21  C   UNL A   1      37.912  34.017  34.531  1.00  0.00     0.031 C 
ATOM     22  C   UNL A   1      38.595  30.191  28.828  1.00  0.00     0.029 A 
ATOM     23  C   UNL A   1      39.511  29.876  29.918  1.00  0.00     0.049 A 
ATOM     24  H   UNL A   1      39.682  30.839  31.757  1.00  0.00     0.167 HD
ATOM     25  C   UNL A   1      39.819  32.868  35.628  1.00  0.00     0.037 A 
ATOM     26  C   UNL A   1      40.431  28.895  29.894  1.00  0.00     0.037 A 
ATOM     27  C   UNL A   1      40.859  31.873  35.682  1.00  0.00     0.049 A 
ATOM     28  C   UNL A   1      41.326  28.708  31.081  1.00  0.00     0.074 A 
ATOM     29  C   UNL A   1      41.731  31.588  36.721  1.00  0.00     0.029 A 
ATOM     30  N   UNL A   1      41.163  30.991  34.655  1.00  0.00    -0.354 N 
ATOM     31  N   UNL A   1      41.327  29.350  32.224  1.00  0.00    -0.248 NA
ATOM     32  C   UNL A   1      42.359  27.670  30.970  1.00  0.00     0.031 C 
ATOM     33  C   UNL A   1      42.583  30.557  36.308  1.00  0.00     0.029 A 
ATOM     34  C   UNL A   1      42.218  30.173  35.029  1.00  0.00     0.049 A 
ATOM     35  H   UNL A   1      40.698  30.952  33.788  1.00  0.00     0.167 HD
ATOM     36  C   UNL A   1      42.357  28.798  32.968  1.00  0.00     0.074 A 
ATOM     37  C   UNL A   1      42.940  27.747  32.159  1.00  0.00     0.031 C 
ATOM     38  C   UNL A   1      42.789  29.138  34.207  1.00  0.00     0.037 A 
BRANCH  25  39
ATOM     39  C   UNL A   1      39.656  33.776  36.813  1.00  0.00     0.064 A 
ATOM     40  C   UNL A   1      40.238  35.052  36.855  1.00  0.00     0.173 A 
ATOM     41  C   UNL A   1      38.860  33.383  37.900  1.00  0.00     0.173 A 
ATOM     42  F   UNL A   1      41.017  35.472  35.846  1.00  0.00    -0.203 F 
ATOM     43  C   UNL A   1      40.044  35.892  37.949  1.00  0.00     0.198 A 
ATOM     44  C   UNL A   1      38.649  34.235  38.982  1.00  0.00     0.198 A 
ATOM     45  F   UNL A   1      38.276  32.175  37.908  1.00  0.00    -0.203 F 
ATOM     46  F   UNL A   1      40.638  37.093  37.983  1.00  0.00    -0.200 F 
ATOM     47  C   UNL A   1      39.245  35.487  39.008  1.00  0.00     0.200 A 
ATOM     48  F   UNL A   1      37.867  33.844  39.999  1.00  0.00    -0.200 F 
ATOM     49  F   UNL A   1      39.052  36.300  40.056  1.00  0.00    -0.200 F 
ENDBRANCH  25  39
BRANCH  26  50
ATOM     50  C   UNL A   1      40.540  28.025  28.697  1.00  0.00     0.064 A 
ATOM     51  C   UNL A   1      39.843  26.813  28.623  1.00  0.00     0.173 A 
ATOM     52  C   UNL A   1      41.310  28.408  27.588  1.00  0.00     0.173 A 
ATOM     53  F   UNL A   1      39.109  26.397  29.666  1.00  0.00    -0.203 F 
ATOM     54  C   UNL A   1      39.913  26.014  27.484  1.00  0.00     0.198 A 
ATOM     55  C   UNL A   1      41.355  27.622  26.440  1.00  0.00     0.198 A 
ATOM     56  F   UNL A   1      41.990  29.563  27.610  1.00  0.00    -0.203 F 
ATOM     57  F   UNL A   1      39.257  24.846  27.448  1.00  0.00    -0.200 F 
ATOM     58  C   UNL A   1      40.660  26.424  26.390  1.00  0.00     0.200 A 
ATOM     59  F   UNL A   1      42.063  28.033  25.378  1.00  0.00    -0.200 F 
ATOM     60  F   UNL A   1      40.712  25.664  25.288  1.00  0.00    -0.200 F 
ENDBRANCH  26  50
BRANCH  38  61
ATOM     61  C   UNL A   1      43.940  28.355  34.757  1.00  0.00     0.064 A 
ATOM     62  C   UNL A   1      43.737  27.164  35.471  1.00  0.00     0.173 A 
ATOM     63  C   UNL A   1      45.258  28.792  34.562  1.00  0.00     0.173 A 
ATOM     64  F   UNL A   1      42.492  26.718  35.699  1.00  0.00    -0.203 F 
ATOM     65  C   UNL A   1      44.814  26.454  35.993  1.00  0.00     0.198 A 
ATOM     66  C   UNL A   1      46.333  28.065  35.065  1.00  0.00     0.198 A 
ATOM     67  F   UNL A   1      45.502  29.923  33.883  1.00  0.00    -0.203 F 
ATOM     68  F   UNL A   1      44.595  25.345  36.713  1.00  0.00    -0.200 F 
ATOM     69  C   UNL A   1      46.110  26.902  35.786  1.00  0.00     0.200 A 
ATOM     70  F   UNL A   1      47.586  28.496  34.860  1.00  0.00    -0.200 F 
ATOM     71  F   UNL A   1      47.144  26.218  36.293  1.00  0.00    -0.200 F 
ENDBRANCH  38  61
ENDBRANCH  12  13
ENDBRANCH   5   7
ENDBRANCH   2   3
ENDBRANCH   1   2
BRANCH   1  72
ATOM     72  C   UNL A   1      32.347  29.877  27.039  1.00  0.00     0.023 C 
BRANCH  72  73
ATOM     73  C   UNL A   1      33.575  29.230  26.398  1.00  0.00     0.116 C 
BRANCH  73  74
ATOM     74  N   UNL A   1      33.615  29.537  24.988  1.00  0.00    -0.354 N 
ATOM     75  C   UNL A   1      33.037  28.931  23.922  1.00  0.00     0.243 C 
ATOM     76  H   UNL A   1      34.158  30.326  24.760  1.00  0.00     0.163 HD
ATOM     77  O   UNL A   1      33.399  29.334  22.808  1.00  0.00    -0.273 OA
BRANCH  75  78
ATOM     78  C   UNL A   1      32.063  27.731  24.012  1.00  0.00     0.185 C 
BRANCH  78  79
ATOM     79  C   UNL A   1      31.118  27.791  22.754  1.00  0.00     0.071 C 
BRANCH  79  80
ATOM     80  C   UNL A   1      29.934  28.742  22.614  1.00  0.00    -0.045 A 
ATOM     81  C   UNL A   1      29.965  29.983  21.961  1.00  0.00     0.004 A 
ATOM     82  C   UNL A   1      28.684  28.307  23.100  1.00  0.00     0.004 A 
ATOM     83  C   UNL A   1      28.818  30.780  21.843  1.00  0.00     0.000 A 
ATOM     84  C   UNL A   1      27.537  29.102  22.988  1.00  0.00     0.000 A 
ATOM     85  C   UNL A   1      27.606  30.344  22.365  1.00  0.00     0.000 A 
ENDBRANCH  79  80
ENDBRANCH  78  79
BRANCH  78  86
ATOM     86  N   UNL A   1      32.540  26.385  24.418  1.00  0.00    -0.280 N 
ATOM     87  C   UNL A   1      33.433  25.751  23.562  1.00  0.00     0.266 C 
ATOM     88  C   UNL A   1      31.909  25.498  25.273  1.00  0.00     0.149 C 
ATOM     89  O   UNL A   1      33.794  26.141  22.460  1.00  0.00    -0.268 OA
ATOM     90  C   UNL A   1      33.881  24.455  24.123  1.00  0.00     0.081 C 
ATOM     91  S   UNL A   1      32.880  24.028  25.436  1.00  0.00    -0.054 SA
ATOM     92  S   UNL A   1      30.469  25.625  26.100  1.00  0.00    -0.052 S 
ATOM     93  C   UNL A   1      34.955  23.824  23.634  1.00  0.00     0.029 C 
BRANCH  93  94
ATOM     94  C   UNL A   1      35.528  22.574  24.140  1.00  0.00    -0.021 A 
ATOM     95  C   UNL A   1      34.717  21.505  24.517  1.00  0.00     0.028 A 
ATOM     96  C   UNL A   1      36.914  22.435  24.209  1.00  0.00     0.028 A 
ATOM     97  C   UNL A   1      35.329  20.347  24.966  1.00  0.00     0.111 A 
ATOM     98  C   UNL A   1      37.430  21.236  24.672  1.00  0.00     0.111 A 
ATOM     99  N   UNL A   1      36.668  20.189  25.054  1.00  0.00    -0.265 NA
ENDBRANCH  93  94
ENDBRANCH  78  86
ENDBRANCH  75  78
ENDBRANCH  73  74
ENDBRANCH  72  73
ENDBRANCH   1  72
TORSDOF 15
ENDMDL
MODEL 3
REMARK VINA RESULT:     -13.3      4.074      9.134
REMARK SMILES O=C(NCCCCNC(=O)[C@@H](Cc1ccccc1)N1C(=O)/C(=C/c2ccncc2)SC1=S)c1ccc(-c2c3nc(c(-c4c(F)c(F)c(F)c(F)c4F)c4ccc([nH]4)c(-c4c(F)c(F)c(F)c(F)c4F)c4nc(c(-c5c(F)c(F)c(F)c(F)c5F)c5ccc2[nH]5)C=C4)C=C3)cc1
REMARK SMILES IDX 5 1 4 2 3 3 1 4 2 5 33 7 34 8 95 9 35 10 94 11 36 12 37 13
REMARK SMILES IDX 38 14 88 15 39 16 93 17 87 18 89 19 40 20 92 21 86 22 85 23
REMARK SMILES IDX 41 25 73 26 53 27 72 28 54 29 57 30 71 31 90 32 55 33 56 34
REMARK SMILES IDX 70 36 91 37 58 38 42 39 43 40 51 41 44 42 45 43 49 44 52 45
REMARK SMILES IDX 46 46 47 47 50 48 48 49 74 50 75 51 83 52 76 53 77 54 81 55
REMARK SMILES IDX 84 56 78 57 79 58 82 59 80 60 59 61 60 62 68 63 61 64 62 65
REMARK SMILES IDX 66 66 69 67 63 68 64 69 67 70 65 71 6 72 7 73 8 74 9 75
REMARK SMILES IDX 10 77 11 78 12 79 13 80 14 81 18 82 15 83 17 84 16 85 19 86
REMARK SMILES IDX 20 87 31 88 21 89 22 90 30 91 32 92 23 93 24 94 25 95 29 96
REMARK SMILES IDX 26 97 28 98 27 99
REMARK H PARENT 3 6 89 24 57 35 8 76
REMARK Flexibility Score: inf
ROOT
ATOM      1  C   UNL A   1      35.469  21.965  24.431  1.00  0.00     0.023 C 
ENDROOT
BRANCH   1   2
ATOM      2  C   UNL A   1      36.803  22.344  25.055  1.00  0.00     0.116 C 
BRANCH   2   3
ATOM      3  N   UNL A   1      37.750  21.240  25.181  1.00  0.00    -0.352 N 
ATOM      4  O   UNL A   1      39.664  20.227  25.863  1.00  0.00    -0.269 OA
ATOM      5  C   UNL A   1      38.945  21.214  25.875  1.00  0.00     0.251 C 
ATOM      6  H   UNL A   1      37.507  20.409  24.713  1.00  0.00     0.163 HD
BRANCH   5   7
ATOM      7  C   UNL A   1      39.365  22.445  26.580  1.00  0.00     0.039 A 
ATOM      8  C   UNL A   1      38.860  23.679  26.176  1.00  0.00     0.014 A 
ATOM      9  C   UNL A   1      40.381  22.370  27.534  1.00  0.00     0.014 A 
ATOM     10  C   UNL A   1      39.529  24.836  26.547  1.00  0.00     0.010 A 
ATOM     11  C   UNL A   1      40.975  23.547  28.000  1.00  0.00     0.010 A 
ATOM     12  C   UNL A   1      40.600  24.785  27.458  1.00  0.00    -0.014 A 
BRANCH  12  13
ATOM     13  C   UNL A   1      41.300  26.049  27.810  1.00  0.00     0.031 A 
ATOM     14  C   UNL A   1      42.681  26.354  27.291  1.00  0.00     0.074 A 
ATOM     15  C   UNL A   1      40.641  26.965  28.547  1.00  0.00     0.049 A 
ATOM     16  N   UNL A   1      43.414  27.424  27.479  1.00  0.00    -0.248 NA
ATOM     17  C   UNL A   1      43.329  25.327  26.459  1.00  0.00     0.031 C 
ATOM     18  C   UNL A   1      39.298  26.784  29.104  1.00  0.00     0.029 A 
ATOM     19  N   UNL A   1      40.985  28.239  28.917  1.00  0.00    -0.354 N 
ATOM     20  C   UNL A   1      44.619  27.182  26.830  1.00  0.00     0.074 A 
ATOM     21  C   UNL A   1      44.524  25.862  26.246  1.00  0.00     0.031 C 
ATOM     22  C   UNL A   1      38.899  27.930  29.669  1.00  0.00     0.029 A 
ATOM     23  C   UNL A   1      39.986  28.900  29.588  1.00  0.00     0.049 A 
ATOM     24  H   UNL A   1      41.862  28.640  28.721  1.00  0.00     0.167 HD
ATOM     25  C   UNL A   1      45.702  27.991  26.731  1.00  0.00     0.037 A 
ATOM     26  C   UNL A   1      39.949  30.145  30.094  1.00  0.00     0.037 A 
ATOM     27  C   UNL A   1      45.774  29.324  27.275  1.00  0.00     0.049 A 
ATOM     28  C   UNL A   1      41.157  31.022  29.959  1.00  0.00     0.074 A 
ATOM     29  C   UNL A   1      46.816  30.234  27.198  1.00  0.00     0.029 A 
ATOM     30  N   UNL A   1      44.757  29.943  27.987  1.00  0.00    -0.354 N 
ATOM     31  N   UNL A   1      42.292  30.775  29.351  1.00  0.00    -0.248 NA
ATOM     32  C   UNL A   1      41.085  32.343  30.594  1.00  0.00     0.031 C 
ATOM     33  C   UNL A   1      46.442  31.390  27.894  1.00  0.00     0.029 A 
ATOM     34  C   UNL A   1      45.153  31.215  28.371  1.00  0.00     0.049 A 
ATOM     35  H   UNL A   1      43.883  29.537  28.192  1.00  0.00     0.167 HD
ATOM     36  C   UNL A   1      43.071  31.908  29.529  1.00  0.00     0.074 A 
ATOM     37  C   UNL A   1      42.267  32.854  30.276  1.00  0.00     0.031 C 
ATOM     38  C   UNL A   1      44.342  32.139  29.120  1.00  0.00     0.037 A 
BRANCH  25  39
ATOM     39  C   UNL A   1      46.915  27.456  26.028  1.00  0.00     0.064 A 
ATOM     40  C   UNL A   1      47.093  27.596  24.643  1.00  0.00     0.173 A 
ATOM     41  C   UNL A   1      47.942  26.839  26.760  1.00  0.00     0.173 A 
ATOM     42  F   UNL A   1      46.136  28.167  23.895  1.00  0.00    -0.203 F 
ATOM     43  C   UNL A   1      48.243  27.122  24.017  1.00  0.00     0.198 A 
ATOM     44  C   UNL A   1      49.102  26.389  26.134  1.00  0.00     0.198 A 
ATOM     45  F   UNL A   1      47.826  26.685  28.088  1.00  0.00    -0.203 F 
ATOM     46  F   UNL A   1      48.375  27.236  22.687  1.00  0.00    -0.200 F 
ATOM     47  C   UNL A   1      49.249  26.526  24.763  1.00  0.00     0.200 A 
ATOM     48  F   UNL A   1      50.077  25.822  26.859  1.00  0.00    -0.200 F 
ATOM     49  F   UNL A   1      50.360  26.080  24.159  1.00  0.00    -0.200 F 
ENDBRANCH  25  39
BRANCH  26  50
ATOM     50  C   UNL A   1      38.719  30.621  30.774  1.00  0.00     0.064 A 
ATOM     51  C   UNL A   1      38.612  30.591  32.170  1.00  0.00     0.173 A 
ATOM     52  C   UNL A   1      37.645  31.153  30.045  1.00  0.00     0.173 A 
ATOM     53  F   UNL A   1      39.607  30.075  32.908  1.00  0.00    -0.203 F 
ATOM     54  C   UNL A   1      37.475  31.075  32.813  1.00  0.00     0.198 A 
ATOM     55  C   UNL A   1      36.521  31.662  30.691  1.00  0.00     0.198 A 
ATOM     56  F   UNL A   1      37.704  31.208  28.707  1.00  0.00    -0.203 F 
ATOM     57  F   UNL A   1      37.385  31.011  34.148  1.00  0.00    -0.200 F 
ATOM     58  C   UNL A   1      36.435  31.619  32.073  1.00  0.00     0.200 A 
ATOM     59  F   UNL A   1      35.529  32.205  29.972  1.00  0.00    -0.200 F 
ATOM     60  F   UNL A   1      35.349  32.100  32.693  1.00  0.00    -0.200 F 
ENDBRANCH  26  50
BRANCH  38  61
ATOM     61  C   UNL A   1      44.929  33.472  29.468  1.00  0.00     0.064 A 
ATOM     62  C   UNL A   1      45.650  33.662  30.656  1.00  0.00     0.173 A 
ATOM     63  C   UNL A   1      44.777  34.565  28.603  1.00  0.00     0.173 A 
ATOM     64  F   UNL A   1      45.804  32.650  31.522  1.00  0.00    -0.203 F 
ATOM     65  C   UNL A   1      46.176  34.910  30.977  1.00  0.00     0.198 A 
ATOM     66  C   UNL A   1      45.325  35.805  28.918  1.00  0.00     0.198 A 
ATOM     67  F   UNL A   1      44.097  34.429  27.454  1.00  0.00    -0.203 F 
ATOM     68  F   UNL A   1      46.820  35.084  32.140  1.00  0.00    -0.200 F 
ATOM     69  C   UNL A   1      46.017  35.978  30.107  1.00  0.00     0.200 A 
ATOM     70  F   UNL A   1      45.176  36.835  28.073  1.00  0.00    -0.200 F 
ATOM     71  F   UNL A   1      46.521  37.179  30.421  1.00  0.00    -0.200 F 
ENDBRANCH  38  61
ENDBRANCH  12  13
ENDBRANCH   5   7
ENDBRANCH   2   3
ENDBRANCH   1   2
BRANCH   1  72
ATOM     72  C   UNL A   1      34.865  23.058  23.566  1.00  0.00     0.023 C 
BRANCH  72  73
ATOM     73  C   UNL A   1      33.730  23.846  24.219  1.00  0.00     0.116 C 
BRANCH  73  74
ATOM     74  N   UNL A   1      32.483  23.566  23.547  1.00  0.00    -0.354 N 
ATOM     75  C   UNL A   1      31.278  24.185  23.600  1.00  0.00     0.243 C 
ATOM     76  H   UNL A   1      32.513  22.789  22.944  1.00  0.00     0.163 HD
ATOM     77  O   UNL A   1      30.345  23.604  23.030  1.00  0.00    -0.273 OA
BRANCH  75  78
ATOM     78  C   UNL A   1      30.987  25.481  24.396  1.00  0.00     0.185 C 
BRANCH  78  79
ATOM     79  C   UNL A   1      31.937  25.490  25.652  1.00  0.00     0.071 C 
BRANCH  79  80
ATOM     80  C   UNL A   1      32.539  26.749  26.266  1.00  0.00    -0.045 A 
ATOM     81  C   UNL A   1      33.852  27.200  26.064  1.00  0.00     0.004 A 
ATOM     82  C   UNL A   1      31.690  27.576  27.028  1.00  0.00     0.004 A 
ATOM     83  C   UNL A   1      34.315  28.392  26.637  1.00  0.00     0.000 A 
ATOM     84  C   UNL A   1      32.150  28.766  27.606  1.00  0.00     0.000 A 
ATOM     85  C   UNL A   1      33.467  29.170  27.416  1.00  0.00     0.000 A 
ENDBRANCH  79  80
ENDBRANCH  78  79
BRANCH  78  86
ATOM     86  N   UNL A   1      30.794  26.780  23.703  1.00  0.00    -0.280 N 
ATOM     87  C   UNL A   1      29.484  27.212  23.534  1.00  0.00     0.266 C 
ATOM     88  C   UNL A   1      31.671  27.399  22.830  1.00  0.00     0.149 C 
ATOM     89  O   UNL A   1      28.466  26.590  23.807  1.00  0.00    -0.268 OA
ATOM     90  C   UNL A   1      29.442  28.549  22.898  1.00  0.00     0.081 C 
ATOM     91  S   UNL A   1      30.982  28.930  22.272  1.00  0.00    -0.054 SA
ATOM     92  S   UNL A   1      33.170  26.926  22.278  1.00  0.00    -0.052 S 
ATOM     93  C   UNL A   1      28.326  29.288  22.915  1.00  0.00     0.029 C 
BRANCH  93  94
ATOM     94  C   UNL A   1      28.177  30.642  22.376  1.00  0.00    -0.021 A 
ATOM     95  C   UNL A   1      28.290  31.766  23.193  1.00  0.00     0.028 A 
ATOM     96  C   UNL A   1      27.958  30.814  21.009  1.00  0.00     0.028 A 
ATOM     97  C   UNL A   1      28.159  33.014  22.610  1.00  0.00     0.111 A 
ATOM     98  C   UNL A   1      27.840  32.105  20.521  1.00  0.00     0.111 A 
ATOM     99  N   UNL A   1      27.934  33.209  21.292  1.00  0.00    -0.265 NA
ENDBRANCH  93  94
ENDBRANCH  78  86
ENDBRANCH  75  78
ENDBRANCH  73  74
ENDBRANCH  72  73
ENDBRANCH   1  72
TORSDOF 15
ENDMDL
