MODEL 1
REMARK VINA RESULT:     -12.4      0.000      0.000
REMARK SMILES O=C(C[N@@H+](C1CCCC1)[C@@H]1CCOC2(CCC2)C1)NCCCCNC(=O)c1ccc(-c2c3nc(c(-c4c(F)c(F)c(F)c(F)c4F)c4ccc([nH]4)c(-c4c(F)c(F)c(F)c(F)c4F)c4nc(c(-c5c(F)c(F)c(F)c(F)c5F)c5ccc2[nH]5)C=C4)C=C3)cc1
REMARK SMILES IDX 21 1 20 2 19 3 1 4 2 5 3 7 4 8 5 10 6 11 9 12 7 13 8 14
REMARK SMILES IDX 10 15 11 16 18 17 12 18 14 19 13 20 15 21 17 22 16 23 22 24
REMARK SMILES IDX 23 25 24 26 25 27 26 29 27 30 28 31 89 32 29 33 88 34 30 35
REMARK SMILES IDX 31 36 32 37 82 38 33 39 87 40 81 41 83 42 34 43 86 44 80 45
REMARK SMILES IDX 79 46 35 48 67 49 47 50 66 51 48 52 51 53 65 54 84 55 49 56
REMARK SMILES IDX 50 57 64 59 85 60 52 61 36 62 37 63 45 64 38 65 39 66 43 67
REMARK SMILES IDX 46 68 40 69 41 70 44 71 42 72 68 73 69 74 77 75 70 76 71 77
REMARK SMILES IDX 75 78 78 79 72 80 73 81 76 82 74 83 53 84 54 85 62 86 55 87
REMARK SMILES IDX 56 88 60 89 63 90 57 91 58 92 61 93 59 94
REMARK H PARENT 19 6 4 9 24 28 83 47 51 58
REMARK Flexibility Score: inf
ROOT
ATOM      1  C   UNL A   1      32.087  30.649  26.226  1.00  0.00     0.023 C 
ENDROOT
BRANCH   1   2
ATOM      2  C   UNL A   1      32.895  29.701  27.113  1.00  0.00     0.116 C 
BRANCH   2   3
ATOM      3  N   UNL A   1      32.927  28.288  26.755  1.00  0.00    -0.351 N 
ATOM      4  O   UNL A   1      31.025  27.764  27.871  1.00  0.00    -0.269 OA
ATOM      5  C   UNL A   1      31.828  27.500  26.969  1.00  0.00     0.275 C 
ATOM      6  H   UNL A   1      33.740  27.898  26.358  1.00  0.00     0.163 HD
BRANCH   5   7
ATOM      7  C   UNL A   1      31.636  26.211  26.169  1.00  0.00     0.363 C 
BRANCH   7   8
ATOM      8  N   UNL A   1      31.487  26.182  24.673  1.00  0.00    -0.322 N 
ATOM      9  H   UNL A   1      31.009  25.316  24.424  1.00  0.00     0.349 HD
BRANCH   8  10
ATOM     10  C   UNL A   1      30.728  27.439  24.345  1.00  0.00     0.184 C 
ATOM     11  C   UNL A   1      31.291  28.532  23.418  1.00  0.00     0.065 C 
ATOM     12  C   UNL A   1      29.402  27.119  23.635  1.00  0.00     0.065 C 
ATOM     13  C   UNL A   1      30.079  29.426  23.183  1.00  0.00     0.006 C 
ATOM     14  C   UNL A   1      28.905  28.457  23.074  1.00  0.00     0.006 C 
ENDBRANCH   8  10
BRANCH   8  15
ATOM     15  C   UNL A   1      32.717  26.032  23.838  1.00  0.00     0.189 C 
ATOM     16  C   UNL A   1      32.467  25.225  22.552  1.00  0.00     0.093 C 
ATOM     17  C   UNL A   1      34.084  25.704  24.473  1.00  0.00     0.100 C 
ATOM     18  C   UNL A   1      33.104  23.852  22.557  1.00  0.00     0.167 C 
ATOM     19  C   UNL A   1      34.329  24.206  24.642  1.00  0.00     0.074 C 
ATOM     20  O   UNL A   1      33.368  23.438  23.886  1.00  0.00    -0.375 OA
ATOM     21  C   UNL A   1      35.790  23.664  24.458  1.00  0.00     0.036 C 
ATOM     22  C   UNL A   1      34.518  23.792  26.140  1.00  0.00     0.036 C 
ATOM     23  C   UNL A   1      35.504  22.725  25.651  1.00  0.00     0.006 C 
ENDBRANCH   8  15
ENDBRANCH   7   8
ENDBRANCH   5   7
ENDBRANCH   2   3
ENDBRANCH   1   2
BRANCH   1  24
ATOM     24  C   UNL A   1      31.656  31.949  26.882  1.00  0.00     0.023 C 
BRANCH  24  25
ATOM     25  C   UNL A   1      32.801  32.834  27.346  1.00  0.00     0.116 C 
BRANCH  25  26
ATOM     26  N   UNL A   1      32.398  34.193  27.680  1.00  0.00    -0.352 N 
ATOM     27  C   UNL A   1      32.963  35.029  28.622  1.00  0.00     0.251 C 
ATOM     28  H   UNL A   1      31.635  34.558  27.176  1.00  0.00     0.163 HD
ATOM     29  O   UNL A   1      32.501  36.127  28.865  1.00  0.00    -0.269 OA
BRANCH  27  30
ATOM     30  C   UNL A   1      34.134  34.524  29.370  1.00  0.00     0.039 A 
ATOM     31  C   UNL A   1      33.923  33.836  30.565  1.00  0.00     0.014 A 
ATOM     32  C   UNL A   1      35.413  34.629  28.817  1.00  0.00     0.014 A 
ATOM     33  C   UNL A   1      34.994  33.182  31.173  1.00  0.00     0.010 A 
ATOM     34  C   UNL A   1      36.460  33.913  29.383  1.00  0.00     0.010 A 
ATOM     35  C   UNL A   1      36.260  33.181  30.565  1.00  0.00    -0.014 A 
BRANCH  35  36
ATOM     36  C   UNL A   1      37.395  32.428  31.151  1.00  0.00     0.031 A 
ATOM     37  C   UNL A   1      37.903  32.792  32.517  1.00  0.00     0.074 A 
ATOM     38  C   UNL A   1      38.008  31.469  30.431  1.00  0.00     0.049 A 
ATOM     39  N   UNL A   1      38.923  32.308  33.178  1.00  0.00    -0.248 NA
ATOM     40  C   UNL A   1      37.187  33.868  33.221  1.00  0.00     0.031 C 
ATOM     41  C   UNL A   1      37.644  31.067  29.071  1.00  0.00     0.029 A 
ATOM     42  N   UNL A   1      39.077  30.665  30.740  1.00  0.00    -0.354 N 
ATOM     43  C   UNL A   1      38.977  33.027  34.363  1.00  0.00     0.074 A 
ATOM     44  C   UNL A   1      37.928  34.021  34.307  1.00  0.00     0.031 C 
ATOM     45  C   UNL A   1      38.462  30.079  28.671  1.00  0.00     0.029 A 
ATOM     46  C   UNL A   1      39.426  29.800  29.732  1.00  0.00     0.049 A 
ATOM     47  H   UNL A   1      39.549  30.705  31.603  1.00  0.00     0.167 HD
ATOM     48  C   UNL A   1      39.808  32.855  35.417  1.00  0.00     0.037 A 
ATOM     49  C   UNL A   1      40.415  28.887  29.672  1.00  0.00     0.037 A 
ATOM     50  C   UNL A   1      40.832  31.846  35.483  1.00  0.00     0.049 A 
ATOM     51  C   UNL A   1      41.318  28.707  30.864  1.00  0.00     0.074 A 
ATOM     52  C   UNL A   1      41.689  31.553  36.527  1.00  0.00     0.029 A 
ATOM     53  N   UNL A   1      41.132  30.964  34.455  1.00  0.00    -0.354 N 
ATOM     54  N   UNL A   1      41.316  29.345  32.008  1.00  0.00    -0.248 NA
ATOM     55  C   UNL A   1      42.355  27.671  30.756  1.00  0.00     0.031 C 
ATOM     56  C   UNL A   1      42.536  30.516  36.118  1.00  0.00     0.029 A 
ATOM     57  C   UNL A   1      42.174  30.134  34.837  1.00  0.00     0.049 A 
ATOM     58  H   UNL A   1      40.674  30.932  33.585  1.00  0.00     0.167 HD
ATOM     59  C   UNL A   1      42.328  28.774  32.766  1.00  0.00     0.074 A 
ATOM     60  C   UNL A   1      42.915  27.726  31.958  1.00  0.00     0.031 C 
ATOM     61  C   UNL A   1      42.737  29.090  34.020  1.00  0.00     0.037 A 
BRANCH  48  62
ATOM     62  C   UNL A   1      39.634  33.773  36.592  1.00  0.00     0.064 A 
ATOM     63  C   UNL A   1      40.258  35.029  36.641  1.00  0.00     0.173 A 
ATOM     64  C   UNL A   1      38.816  33.404  37.670  1.00  0.00     0.173 A 
ATOM     65  F   UNL A   1      41.062  35.422  35.641  1.00  0.00    -0.203 F 
ATOM     66  C   UNL A   1      40.094  35.869  37.739  1.00  0.00     0.198 A 
ATOM     67  C   UNL A   1      38.630  34.260  38.753  1.00  0.00     0.198 A 
ATOM     68  F   UNL A   1      38.194  32.216  37.673  1.00  0.00    -0.203 F 
ATOM     69  F   UNL A   1      40.742  37.041  37.786  1.00  0.00    -0.200 F 
ATOM     70  C   UNL A   1      39.275  35.487  38.790  1.00  0.00     0.200 A 
ATOM     71  F   UNL A   1      37.830  33.895  39.764  1.00  0.00    -0.200 F 
ATOM     72  F   UNL A   1      39.114  36.299  39.844  1.00  0.00    -0.200 F 
ENDBRANCH  48  62
BRANCH  49  73
ATOM     73  C   UNL A   1      40.585  28.053  28.454  1.00  0.00     0.064 A 
ATOM     74  C   UNL A   1      41.359  28.505  27.376  1.00  0.00     0.173 A 
ATOM     75  C   UNL A   1      39.975  26.796  28.337  1.00  0.00     0.173 A 
ATOM     76  F   UNL A   1      41.945  29.711  27.431  1.00  0.00    -0.203 F 
ATOM     77  C   UNL A   1      41.499  27.741  26.220  1.00  0.00     0.198 A 
ATOM     78  C   UNL A   1      40.137  26.021  27.191  1.00  0.00     0.198 A 
ATOM     79  F   UNL A   1      39.227  26.318  29.342  1.00  0.00    -0.203 F 
ATOM     80  F   UNL A   1      42.206  28.218  25.186  1.00  0.00    -0.200 F 
ATOM     81  C   UNL A   1      40.892  26.498  26.130  1.00  0.00     0.200 A 
ATOM     82  F   UNL A   1      39.559  24.815  27.112  1.00  0.00    -0.200 F 
ATOM     83  F   UNL A   1      41.028  25.763  25.018  1.00  0.00    -0.200 F 
ENDBRANCH  49  73
BRANCH  61  84
ATOM     84  C   UNL A   1      43.849  28.272  34.607  1.00  0.00     0.064 A 
ATOM     85  C   UNL A   1      45.189  28.676  34.511  1.00  0.00     0.173 A 
ATOM     86  C   UNL A   1      43.566  27.094  35.313  1.00  0.00     0.173 A 
ATOM     87  F   UNL A   1      45.511  29.788  33.832  1.00  0.00    -0.203 F 
ATOM     88  C   UNL A   1      46.206  27.918  35.082  1.00  0.00     0.198 A 
ATOM     89  C   UNL A   1      44.583  26.353  35.907  1.00  0.00     0.198 A 
ATOM     90  F   UNL A   1      42.299  26.668  35.439  1.00  0.00    -0.203 F 
ATOM     91  F   UNL A   1      47.483  28.299  34.941  1.00  0.00    -0.200 F 
ATOM     92  C   UNL A   1      45.902  26.762  35.786  1.00  0.00     0.200 A 
ATOM     93  F   UNL A   1      44.287  25.243  36.598  1.00  0.00    -0.200 F 
ATOM     94  F   UNL A   1      46.883  26.038  36.342  1.00  0.00    -0.200 F 
ENDBRANCH  61  84
ENDBRANCH  35  36
ENDBRANCH  27  30
ENDBRANCH  25  26
ENDBRANCH  24  25
ENDBRANCH   1  24
TORSDOF 14
ENDMDL
MODEL 2
REMARK VINA RESULT:     -12.3      1.042      2.894
REMARK SMILES O=C(C[N@@H+](C1CCCC1)[C@@H]1CCOC2(CCC2)C1)NCCCCNC(=O)c1ccc(-c2c3nc(c(-c4c(F)c(F)c(F)c(F)c4F)c4ccc([nH]4)c(-c4c(F)c(F)c(F)c(F)c4F)c4nc(c(-c5c(F)c(F)c(F)c(F)c5F)c5ccc2[nH]5)C=C4)C=C3)cc1
REMARK SMILES IDX 21 1 20 2 19 3 1 4 2 5 3 7 4 8 5 10 6 11 9 12 7 13 8 14
REMARK SMILES IDX 10 15 11 16 18 17 12 18 14 19 13 20 15 21 17 22 16 23 22 24
REMARK SMILES IDX 23 25 24 26 25 27 26 29 27 30 28 31 89 32 29 33 88 34 30 35
REMARK SMILES IDX 31 36 32 37 82 38 33 39 87 40 81 41 83 42 34 43 86 44 80 45
REMARK SMILES IDX 79 46 35 48 67 49 47 50 66 51 48 52 51 53 65 54 84 55 49 56
REMARK SMILES IDX 50 57 64 59 85 60 52 61 36 62 37 63 45 64 38 65 39 66 43 67
REMARK SMILES IDX 46 68 40 69 41 70 44 71 42 72 68 73 69 74 77 75 70 76 71 77
REMARK SMILES IDX 75 78 78 79 72 80 73 81 76 82 74 83 53 84 54 85 62 86 55 87
REMARK SMILES IDX 56 88 60 89 63 90 57 91 58 92 61 93 59 94
REMARK H PARENT 19 6 4 9 24 28 83 47 51 58
REMARK Flexibility Score: inf
ROOT
ATOM      1  C   UNL A   1      32.004  30.902  26.999  1.00  0.00     0.023 C 
ENDROOT
BRANCH   1   2
ATOM      2  C   UNL A   1      33.450  30.444  26.802  1.00  0.00     0.116 C 
BRANCH   2   3
ATOM      3  N   UNL A   1      33.789  29.761  25.559  1.00  0.00    -0.351 N 
ATOM      4  O   UNL A   1      34.186  27.759  26.543  1.00  0.00    -0.269 OA
ATOM      5  C   UNL A   1      33.881  28.396  25.529  1.00  0.00     0.275 C 
ATOM      6  H   UNL A   1      33.954  30.283  24.740  1.00  0.00     0.163 HD
BRANCH   5   7
ATOM      7  C   UNL A   1      33.721  27.642  24.208  1.00  0.00     0.363 C 
BRANCH   7   8
ATOM      8  N   UNL A   1      32.386  27.277  23.622  1.00  0.00    -0.322 N 
ATOM      9  H   UNL A   1      32.245  27.845  22.786  1.00  0.00     0.349 HD
BRANCH   8  10
ATOM     10  C   UNL A   1      32.476  25.796  23.371  1.00  0.00     0.184 C 
ATOM     11  C   UNL A   1      32.450  25.189  21.957  1.00  0.00     0.065 C 
ATOM     12  C   UNL A   1      33.799  25.221  23.903  1.00  0.00     0.065 C 
ATOM     13  C   UNL A   1      32.842  23.738  22.209  1.00  0.00     0.006 C 
ATOM     14  C   UNL A   1      33.905  23.814  23.301  1.00  0.00     0.006 C 
ENDBRANCH   8  10
BRANCH   8  15
ATOM     15  C   UNL A   1      31.150  27.645  24.378  1.00  0.00     0.189 C 
ATOM     16  C   UNL A   1      30.150  26.480  24.484  1.00  0.00     0.093 C 
ATOM     17  C   UNL A   1      30.444  28.998  24.152  1.00  0.00     0.100 C 
ATOM     18  C   UNL A   1      28.899  26.669  23.652  1.00  0.00     0.167 C 
ATOM     19  C   UNL A   1      29.427  28.968  23.013  1.00  0.00     0.074 C 
ATOM     20  O   UNL A   1      29.135  27.610  22.620  1.00  0.00    -0.375 OA
ATOM     21  C   UNL A   1      28.126  29.833  23.152  1.00  0.00     0.036 C 
ATOM     22  C   UNL A   1      29.790  29.958  21.857  1.00  0.00     0.036 C 
ATOM     23  C   UNL A   1      28.285  30.165  21.652  1.00  0.00     0.006 C 
ENDBRANCH   8  15
ENDBRANCH   7   8
ENDBRANCH   5   7
ENDBRANCH   2   3
ENDBRANCH   1   2
BRANCH   1  24
ATOM     24  C   UNL A   1      31.776  32.401  26.908  1.00  0.00     0.023 C 
BRANCH  24  25
ATOM     25  C   UNL A   1      32.886  33.248  27.506  1.00  0.00     0.116 C 
BRANCH  25  26
ATOM     26  N   UNL A   1      32.458  34.580  27.911  1.00  0.00    -0.352 N 
ATOM     27  C   UNL A   1      32.995  35.367  28.910  1.00  0.00     0.251 C 
ATOM     28  H   UNL A   1      31.699  34.963  27.415  1.00  0.00     0.163 HD
ATOM     29  O   UNL A   1      32.513  36.443  29.208  1.00  0.00    -0.269 OA
BRANCH  27  30
ATOM     30  C   UNL A   1      34.160  34.835  29.648  1.00  0.00     0.039 A 
ATOM     31  C   UNL A   1      33.948  34.209  30.877  1.00  0.00     0.014 A 
ATOM     32  C   UNL A   1      35.427  34.851  29.058  1.00  0.00     0.014 A 
ATOM     33  C   UNL A   1      35.002  33.528  31.485  1.00  0.00     0.010 A 
ATOM     34  C   UNL A   1      36.452  34.107  29.627  1.00  0.00     0.010 A 
ATOM     35  C   UNL A   1      36.249  33.437  30.844  1.00  0.00    -0.014 A 
BRANCH  35  36
ATOM     36  C   UNL A   1      37.361  32.651  31.433  1.00  0.00     0.031 A 
ATOM     37  C   UNL A   1      37.884  33.008  32.795  1.00  0.00     0.074 A 
ATOM     38  C   UNL A   1      37.941  31.669  30.718  1.00  0.00     0.049 A 
ATOM     39  N   UNL A   1      38.890  32.496  33.457  1.00  0.00    -0.248 NA
ATOM     40  C   UNL A   1      37.204  34.111  33.493  1.00  0.00     0.031 C 
ATOM     41  C   UNL A   1      37.562  31.269  29.362  1.00  0.00     0.029 A 
ATOM     42  N   UNL A   1      38.985  30.833  31.029  1.00  0.00    -0.354 N 
ATOM     43  C   UNL A   1      38.969  33.221  34.637  1.00  0.00     0.074 A 
ATOM     44  C   UNL A   1      37.953  34.248  34.577  1.00  0.00     0.031 C 
ATOM     45  C   UNL A   1      38.347  30.254  28.966  1.00  0.00     0.029 A 
ATOM     46  C   UNL A   1      39.304  29.951  30.026  1.00  0.00     0.049 A 
ATOM     47  H   UNL A   1      39.461  30.864  31.891  1.00  0.00     0.167 HD
ATOM     48  C   UNL A   1      39.798  33.031  35.690  1.00  0.00     0.037 A 
ATOM     49  C   UNL A   1      40.263  29.007  29.971  1.00  0.00     0.037 A 
ATOM     50  C   UNL A   1      40.789  31.990  35.760  1.00  0.00     0.049 A 
ATOM     51  C   UNL A   1      41.163  28.806  31.161  1.00  0.00     0.074 A 
ATOM     52  C   UNL A   1      41.640  31.677  36.804  1.00  0.00     0.029 A 
ATOM     53  N   UNL A   1      41.059  31.092  34.737  1.00  0.00    -0.354 N 
ATOM     54  N   UNL A   1      41.185  29.451  32.301  1.00  0.00    -0.248 NA
ATOM     55  C   UNL A   1      42.167  27.737  31.058  1.00  0.00     0.031 C 
ATOM     56  C   UNL A   1      42.452  30.610  36.400  1.00  0.00     0.029 A 
ATOM     57  C   UNL A   1      42.075  30.232  35.122  1.00  0.00     0.049 A 
ATOM     58  H   UNL A   1      40.598  31.068  33.869  1.00  0.00     0.167 HD
ATOM     59  C   UNL A   1      42.180  28.854  33.060  1.00  0.00     0.074 A 
ATOM     60  C   UNL A   1      42.731  27.782  32.258  1.00  0.00     0.031 C 
ATOM     61  C   UNL A   1      42.602  29.165  34.311  1.00  0.00     0.037 A 
BRANCH  48  62
ATOM     62  C   UNL A   1      39.656  33.961  36.859  1.00  0.00     0.064 A 
ATOM     63  C   UNL A   1      40.304  35.206  36.889  1.00  0.00     0.173 A 
ATOM     64  C   UNL A   1      38.846  33.616  37.951  1.00  0.00     0.173 A 
ATOM     65  F   UNL A   1      41.102  35.575  35.876  1.00  0.00    -0.203 F 
ATOM     66  C   UNL A   1      40.170  36.057  37.982  1.00  0.00     0.198 A 
ATOM     67  C   UNL A   1      38.690  34.484  39.029  1.00  0.00     0.198 A 
ATOM     68  F   UNL A   1      38.202  32.440  37.972  1.00  0.00    -0.203 F 
ATOM     69  F   UNL A   1      40.839  37.218  38.010  1.00  0.00    -0.200 F 
ATOM     70  C   UNL A   1      39.358  35.700  39.046  1.00  0.00     0.200 A 
ATOM     71  F   UNL A   1      37.897  34.143  40.053  1.00  0.00    -0.200 F 
ATOM     72  F   UNL A   1      39.226  36.524  40.096  1.00  0.00    -0.200 F 
ENDBRANCH  48  62
BRANCH  49  73
ATOM     73  C   UNL A   1      40.403  28.160  28.758  1.00  0.00     0.064 A 
ATOM     74  C   UNL A   1      41.192  28.578  27.677  1.00  0.00     0.173 A 
ATOM     75  C   UNL A   1      39.751  26.924  28.650  1.00  0.00     0.173 A 
ATOM     76  F   UNL A   1      41.819  29.763  27.723  1.00  0.00    -0.203 F 
ATOM     77  C   UNL A   1      41.304  27.802  26.525  1.00  0.00     0.198 A 
ATOM     78  C   UNL A   1      39.885  26.136  27.508  1.00  0.00     0.198 A 
ATOM     79  F   UNL A   1      38.988  26.478  29.658  1.00  0.00    -0.203 F 
ATOM     80  F   UNL A   1      42.026  28.248  25.487  1.00  0.00    -0.200 F 
ATOM     81  C   UNL A   1      40.655  26.580  26.444  1.00  0.00     0.200 A 
ATOM     82  F   UNL A   1      39.266  24.950  27.437  1.00  0.00    -0.200 F 
ATOM     83  F   UNL A   1      40.764  25.834  25.336  1.00  0.00    -0.200 F 
ENDBRANCH  49  73
BRANCH  61  84
ATOM     84  C   UNL A   1      43.689  28.316  34.901  1.00  0.00     0.064 A 
ATOM     85  C   UNL A   1      43.401  27.136  35.603  1.00  0.00     0.173 A 
ATOM     86  C   UNL A   1      45.036  28.663  34.720  1.00  0.00     0.173 A 
ATOM     87  F   UNL A   1      42.128  26.770  35.814  1.00  0.00    -0.203 F 
ATOM     88  C   UNL A   1      44.424  26.347  36.122  1.00  0.00     0.198 A 
ATOM     89  C   UNL A   1      46.056  27.856  35.217  1.00  0.00     0.198 A 
ATOM     90  F   UNL A   1      45.364  29.778  34.049  1.00  0.00    -0.203 F 
ATOM     91  F   UNL A   1      44.126  25.247  36.827  1.00  0.00    -0.200 F 
ATOM     92  C   UNL A   1      45.749  26.703  35.922  1.00  0.00     0.200 A 
ATOM     93  F   UNL A   1      47.337  28.195  35.011  1.00  0.00    -0.200 F 
ATOM     94  F   UNL A   1      46.731  25.937  36.416  1.00  0.00    -0.200 F 
ENDBRANCH  61  84
ENDBRANCH  35  36
ENDBRANCH  27  30
ENDBRANCH  25  26
ENDBRANCH  24  25
ENDBRANCH   1  24
TORSDOF 14
ENDMDL
MODEL 3
REMARK VINA RESULT:     -12.2      0.574      7.419
REMARK SMILES O=C(C[N@@H+](C1CCCC1)[C@@H]1CCOC2(CCC2)C1)NCCCCNC(=O)c1ccc(-c2c3nc(c(-c4c(F)c(F)c(F)c(F)c4F)c4ccc([nH]4)c(-c4c(F)c(F)c(F)c(F)c4F)c4nc(c(-c5c(F)c(F)c(F)c(F)c5F)c5ccc2[nH]5)C=C4)C=C3)cc1
REMARK SMILES IDX 21 1 20 2 19 3 1 4 2 5 3 7 4 8 5 10 6 11 9 12 7 13 8 14
REMARK SMILES IDX 10 15 11 16 18 17 12 18 14 19 13 20 15 21 17 22 16 23 22 24
REMARK SMILES IDX 23 25 24 26 25 27 26 29 27 30 28 31 89 32 29 33 88 34 30 35
REMARK SMILES IDX 31 36 32 37 82 38 33 39 87 40 81 41 83 42 34 43 86 44 80 45
REMARK SMILES IDX 79 46 35 48 67 49 47 50 66 51 48 52 51 53 65 54 84 55 49 56
REMARK SMILES IDX 50 57 64 59 85 60 52 61 36 62 37 63 45 64 38 65 39 66 43 67
REMARK SMILES IDX 46 68 40 69 41 70 44 71 42 72 68 73 69 74 77 75 70 76 71 77
REMARK SMILES IDX 75 78 78 79 72 80 73 81 76 82 74 83 53 84 54 85 62 86 55 87
REMARK SMILES IDX 56 88 60 89 63 90 57 91 58 92 61 93 59 94
REMARK H PARENT 19 6 4 9 24 28 83 47 51 58
REMARK Flexibility Score: inf
ROOT
ATOM      1  C   UNL A   1      32.366  30.552  26.211  1.00  0.00     0.023 C 
ENDROOT
BRANCH   1   2
ATOM      2  C   UNL A   1      33.197  29.565  27.032  1.00  0.00     0.116 C 
BRANCH   2   3
ATOM      3  N   UNL A   1      33.094  28.146  26.709  1.00  0.00    -0.351 N 
ATOM      4  O   UNL A   1      31.171  27.826  27.863  1.00  0.00    -0.269 OA
ATOM      5  C   UNL A   1      31.931  27.469  26.958  1.00  0.00     0.275 C 
ATOM      6  H   UNL A   1      33.862  27.675  26.311  1.00  0.00     0.163 HD
BRANCH   5   7
ATOM      7  C   UNL A   1      31.610  26.184  26.193  1.00  0.00     0.363 C 
BRANCH   7   8
ATOM      8  N   UNL A   1      31.443  26.132  24.699  1.00  0.00    -0.322 N 
ATOM      9  H   UNL A   1      30.966  25.260  24.468  1.00  0.00     0.349 HD
BRANCH   8  10
ATOM     10  C   UNL A   1      30.675  27.381  24.361  1.00  0.00     0.184 C 
ATOM     11  C   UNL A   1      31.234  28.476  23.436  1.00  0.00     0.065 C 
ATOM     12  C   UNL A   1      29.357  27.046  23.642  1.00  0.00     0.065 C 
ATOM     13  C   UNL A   1      30.016  29.358  23.189  1.00  0.00     0.006 C 
ATOM     14  C   UNL A   1      28.852  28.378  23.074  1.00  0.00     0.006 C 
ENDBRANCH   8  10
BRANCH   8  15
ATOM     15  C   UNL A   1      32.664  25.975  23.851  1.00  0.00     0.189 C 
ATOM     16  C   UNL A   1      32.408  25.125  22.594  1.00  0.00     0.093 C 
ATOM     17  C   UNL A   1      34.044  25.687  24.476  1.00  0.00     0.100 C 
ATOM     18  C   UNL A   1      33.067  23.762  22.632  1.00  0.00     0.167 C 
ATOM     19  C   UNL A   1      34.315  24.198  24.688  1.00  0.00     0.074 C 
ATOM     20  O   UNL A   1      33.354  23.394  23.969  1.00  0.00    -0.375 OA
ATOM     21  C   UNL A   1      35.780  23.673  24.500  1.00  0.00     0.036 C 
ATOM     22  C   UNL A   1      34.530  23.834  26.195  1.00  0.00     0.036 C 
ATOM     23  C   UNL A   1      35.525  22.767  25.725  1.00  0.00     0.006 C 
ENDBRANCH   8  15
ENDBRANCH   7   8
ENDBRANCH   5   7
ENDBRANCH   2   3
ENDBRANCH   1   2
BRANCH   1  24
ATOM     24  C   UNL A   1      31.845  31.758  26.971  1.00  0.00     0.023 C 
BRANCH  24  25
ATOM     25  C   UNL A   1      32.924  32.699  27.481  1.00  0.00     0.116 C 
BRANCH  25  26
ATOM     26  N   UNL A   1      32.463  34.065  27.691  1.00  0.00    -0.352 N 
ATOM     27  C   UNL A   1      32.974  34.998  28.571  1.00  0.00     0.251 C 
ATOM     28  H   UNL A   1      31.699  34.357  27.142  1.00  0.00     0.163 HD
ATOM     29  O   UNL A   1      32.465  36.094  28.711  1.00  0.00    -0.269 OA
BRANCH  27  30
ATOM     30  C   UNL A   1      34.143  34.602  29.384  1.00  0.00     0.039 A 
ATOM     31  C   UNL A   1      33.930  34.099  30.668  1.00  0.00     0.014 A 
ATOM     32  C   UNL A   1      35.422  34.619  28.821  1.00  0.00     0.014 A 
ATOM     33  C   UNL A   1      35.000  33.536  31.364  1.00  0.00     0.010 A 
ATOM     34  C   UNL A   1      36.466  33.989  29.484  1.00  0.00     0.010 A 
ATOM     35  C   UNL A   1      36.265  33.440  30.761  1.00  0.00    -0.014 A 
BRANCH  35  36
ATOM     36  C   UNL A   1      37.397  32.775  31.451  1.00  0.00     0.031 A 
ATOM     37  C   UNL A   1      38.092  31.618  30.793  1.00  0.00     0.074 A 
ATOM     38  C   UNL A   1      37.750  33.164  32.691  1.00  0.00     0.049 A 
ATOM     39  N   UNL A   1      39.052  30.857  31.253  1.00  0.00    -0.248 NA
ATOM     40  C   UNL A   1      37.623  31.245  29.448  1.00  0.00     0.031 C 
ATOM     41  C   UNL A   1      37.111  34.235  33.457  1.00  0.00     0.029 A 
ATOM     42  N   UNL A   1      38.729  32.695  33.530  1.00  0.00    -0.354 N 
ATOM     43  C   UNL A   1      39.290  29.913  30.264  1.00  0.00     0.074 A 
ATOM     44  C   UNL A   1      38.335  30.156  29.205  1.00  0.00     0.031 C 
ATOM     45  C   UNL A   1      37.728  34.354  34.645  1.00  0.00     0.029 A 
ATOM     46  C   UNL A   1      38.783  33.349  34.737  1.00  0.00     0.049 A 
ATOM     47  H   UNL A   1      39.336  31.957  33.290  1.00  0.00     0.167 HD
ATOM     48  C   UNL A   1      40.238  28.948  30.229  1.00  0.00     0.037 A 
ATOM     49  C   UNL A   1      39.592  33.156  35.796  1.00  0.00     0.037 A 
ATOM     50  C   UNL A   1      41.205  28.728  31.271  1.00  0.00     0.049 A 
ATOM     51  C   UNL A   1      40.648  32.085  35.726  1.00  0.00     0.074 A 
ATOM     52  C   UNL A   1      42.243  27.814  31.306  1.00  0.00     0.029 A 
ATOM     53  N   UNL A   1      41.250  29.435  32.463  1.00  0.00    -0.354 N 
ATOM     54  N   UNL A   1      40.910  31.243  34.756  1.00  0.00    -0.248 NA
ATOM     55  C   UNL A   1      41.526  31.944  36.896  1.00  0.00     0.031 C 
ATOM     56  C   UNL A   1      42.895  27.943  32.538  1.00  0.00     0.029 A 
ATOM     57  C   UNL A   1      42.292  28.967  33.249  1.00  0.00     0.049 A 
ATOM     58  H   UNL A   1      40.636  30.161  32.714  1.00  0.00     0.167 HD
ATOM     59  C   UNL A   1      41.995  30.493  35.184  1.00  0.00     0.074 A 
ATOM     60  C   UNL A   1      42.354  30.988  36.497  1.00  0.00     0.031 C 
ATOM     61  C   UNL A   1      42.638  29.482  34.549  1.00  0.00     0.037 A 
BRANCH  48  62
ATOM     62  C   UNL A   1      40.282  28.067  29.015  1.00  0.00     0.064 A 
ATOM     63  C   UNL A   1      39.565  26.862  28.956  1.00  0.00     0.173 A 
ATOM     64  C   UNL A   1      41.031  28.440  27.889  1.00  0.00     0.173 A 
ATOM     65  F   UNL A   1      38.846  26.453  30.013  1.00  0.00    -0.203 F 
ATOM     66  C   UNL A   1      39.619  26.049  27.828  1.00  0.00     0.198 A 
ATOM     67  C   UNL A   1      41.058  27.640  26.750  1.00  0.00     0.198 A 
ATOM     68  F   UNL A   1      41.733  29.583  27.891  1.00  0.00    -0.203 F 
ATOM     69  F   UNL A   1      38.967  24.878  27.815  1.00  0.00    -0.200 F 
ATOM     70  C   UNL A   1      40.359  26.442  26.723  1.00  0.00     0.200 A 
ATOM     71  F   UNL A   1      41.765  28.025  25.679  1.00  0.00    -0.200 F 
ATOM     72  F   UNL A   1      40.406  25.660  25.635  1.00  0.00    -0.200 F 
ENDBRANCH  48  62
BRANCH  49  73
ATOM     73  C   UNL A   1      39.456  34.014  37.001  1.00  0.00     0.064 A 
ATOM     74  C   UNL A   1      40.071  35.273  37.060  1.00  0.00     0.173 A 
ATOM     75  C   UNL A   1      38.719  33.596  38.118  1.00  0.00     0.173 A 
ATOM     76  F   UNL A   1      40.806  35.709  36.026  1.00  0.00    -0.203 F 
ATOM     77  C   UNL A   1      39.972  36.070  38.199  1.00  0.00     0.198 A 
ATOM     78  C   UNL A   1      38.598  34.406  39.246  1.00  0.00     0.198 A 
ATOM     79  F   UNL A   1      38.109  32.402  38.110  1.00  0.00    -0.203 F 
ATOM     80  F   UNL A   1      40.609  37.248  38.246  1.00  0.00    -0.200 F 
ATOM     81  C   UNL A   1      39.231  35.638  39.288  1.00  0.00     0.200 A 
ATOM     82  F   UNL A   1      37.872  33.990  40.292  1.00  0.00    -0.200 F 
ATOM     83  F   UNL A   1      39.135  36.406  40.382  1.00  0.00    -0.200 F 
ENDBRANCH  49  73
BRANCH  61  84
ATOM     84  C   UNL A   1      43.814  28.867  35.248  1.00  0.00     0.064 A 
ATOM     85  C   UNL A   1      43.668  27.765  36.103  1.00  0.00     0.173 A 
ATOM     86  C   UNL A   1      45.108  29.360  35.024  1.00  0.00     0.173 A 
ATOM     87  F   UNL A   1      42.448  27.267  36.360  1.00  0.00    -0.203 F 
ATOM     88  C   UNL A   1      44.773  27.192  36.725  1.00  0.00     0.198 A 
ATOM     89  C   UNL A   1      46.215  28.766  35.626  1.00  0.00     0.198 A 
ATOM     90  F   UNL A   1      45.302  30.408  34.210  1.00  0.00    -0.203 F 
ATOM     91  F   UNL A   1      44.606  26.166  37.571  1.00  0.00    -0.200 F 
ATOM     92  C   UNL A   1      46.045  27.687  36.480  1.00  0.00     0.200 A 
ATOM     93  F   UNL A   1      47.444  29.237  35.378  1.00  0.00    -0.200 F 
ATOM     94  F   UNL A   1      47.108  27.128  37.073  1.00  0.00    -0.200 F 
ENDBRANCH  61  84
ENDBRANCH  35  36
ENDBRANCH  27  30
ENDBRANCH  25  26
ENDBRANCH  24  25
ENDBRANCH   1  24
TORSDOF 14
ENDMDL
