MODEL 1
REMARK VINA RESULT:     -13.1      0.000      0.000
REMARK SMILES O=C(NCCCCNC(=O)[C@@]12CN(CC3CC3)C(=O)[C@@H]1CN(c1nc3ccccc3o1)C2)c1ccc(-c2c3nc(c(-c4c(F)c(F)c(F)c(F)c4F)c4ccc([nH]4)c(-c4c(F)c(F)c(F)c(F)c4F)c4nc(c(-c5c(F)c(F)c(F)c(F)c5F)c5ccc2[nH]5)C=C4)C=C3)cc1
REMARK SMILES IDX 5 1 4 2 3 3 1 4 2 5 33 7 34 8 95 9 35 10 94 11 36 12 37 13
REMARK SMILES IDX 38 14 88 15 39 16 93 17 87 18 89 19 40 20 92 21 86 22 85 23
REMARK SMILES IDX 41 25 73 26 53 27 72 28 54 29 57 30 71 31 90 32 55 33 56 34
REMARK SMILES IDX 70 36 91 37 58 38 42 39 43 40 51 41 44 42 45 43 49 44 52 45
REMARK SMILES IDX 46 46 47 47 50 48 48 49 74 50 75 51 83 52 76 53 77 54 81 55
REMARK SMILES IDX 84 56 78 57 79 58 82 59 80 60 59 61 60 62 68 63 61 64 62 65
REMARK SMILES IDX 66 66 69 67 63 68 64 69 67 70 65 71 6 72 7 73 8 74 9 75
REMARK SMILES IDX 10 77 11 78 12 79 20 80 32 81 13 82 18 83 21 84 22 85 19 86
REMARK SMILES IDX 14 87 15 88 16 89 17 90 23 91 24 92 31 93 25 94 30 95 26 96
REMARK SMILES IDX 29 97 27 98 28 99
REMARK H PARENT 3 6 89 24 57 35 8 76
REMARK Flexibility Score: inf
ROOT
ATOM      1  C   UNL A   1      31.337  32.226  26.563  1.00  0.00     0.023 C 
ENDROOT
BRANCH   1   2
ATOM      2  C   UNL A   1      32.584  32.866  27.156  1.00  0.00     0.116 C 
BRANCH   2   3
ATOM      3  N   UNL A   1      32.339  34.218  27.628  1.00  0.00    -0.352 N 
ATOM      4  O   UNL A   1      32.511  35.990  29.010  1.00  0.00    -0.269 OA
ATOM      5  C   UNL A   1      32.963  34.916  28.630  1.00  0.00     0.251 C 
ATOM      6  H   UNL A   1      31.622  34.704  27.161  1.00  0.00     0.163 HD
BRANCH   5   7
ATOM      7  C   UNL A   1      34.170  34.354  29.265  1.00  0.00     0.039 A 
ATOM      8  C   UNL A   1      35.440  34.627  28.749  1.00  0.00     0.014 A 
ATOM      9  C   UNL A   1      34.021  33.548  30.395  1.00  0.00     0.014 A 
ATOM     10  C   UNL A   1      36.554  33.996  29.289  1.00  0.00     0.010 A 
ATOM     11  C   UNL A   1      35.149  32.977  30.984  1.00  0.00     0.010 A 
ATOM     12  C   UNL A   1      36.420  33.179  30.421  1.00  0.00    -0.014 A 
BRANCH  12  13
ATOM     13  C   UNL A   1      37.616  32.577  31.054  1.00  0.00     0.031 A 
ATOM     14  C   UNL A   1      38.347  31.450  30.389  1.00  0.00     0.074 A 
ATOM     15  C   UNL A   1      38.007  33.026  32.261  1.00  0.00     0.049 A 
ATOM     16  N   UNL A   1      39.333  30.720  30.845  1.00  0.00    -0.248 NA
ATOM     17  C   UNL A   1      37.902  31.085  29.037  1.00  0.00     0.031 C 
ATOM     18  C   UNL A   1      37.371  34.120  32.996  1.00  0.00     0.029 A 
ATOM     19  N   UNL A   1      39.017  32.609  33.088  1.00  0.00    -0.354 N 
ATOM     20  C   UNL A   1      39.610  29.793  29.848  1.00  0.00     0.074 A 
ATOM     21  C   UNL A   1      38.668  30.036  28.776  1.00  0.00     0.031 C 
ATOM     22  C   UNL A   1      38.007  34.291  34.163  1.00  0.00     0.029 A 
ATOM     23  C   UNL A   1      39.046  33.274  34.288  1.00  0.00     0.049 A 
ATOM     24  H   UNL A   1      39.658  31.902  32.846  1.00  0.00     0.167 HD
ATOM     25  C   UNL A   1      40.564  28.831  29.837  1.00  0.00     0.037 A 
ATOM     26  C   UNL A   1      39.794  33.062  35.386  1.00  0.00     0.037 A 
ATOM     27  C   UNL A   1      41.489  28.604  30.918  1.00  0.00     0.049 A 
ATOM     28  C   UNL A   1      40.808  31.955  35.373  1.00  0.00     0.074 A 
ATOM     29  C   UNL A   1      42.518  27.680  30.995  1.00  0.00     0.029 A 
ATOM     30  N   UNL A   1      41.486  29.298  32.121  1.00  0.00    -0.354 N 
ATOM     31  N   UNL A   1      41.086  31.102  34.417  1.00  0.00    -0.248 NA
ATOM     32  C   UNL A   1      41.614  31.781  36.588  1.00  0.00     0.031 C 
ATOM     33  C   UNL A   1      43.089  27.769  32.268  1.00  0.00     0.029 A 
ATOM     34  C   UNL A   1      42.473  28.801  32.958  1.00  0.00     0.049 A 
ATOM     35  H   UNL A   1      40.873  30.034  32.346  1.00  0.00     0.167 HD
ATOM     36  C   UNL A   1      42.120  30.312  34.899  1.00  0.00     0.074 A 
ATOM     37  C   UNL A   1      42.418  30.788  36.235  1.00  0.00     0.031 C 
ATOM     38  C   UNL A   1      42.768  29.294  34.283  1.00  0.00     0.037 A 
BRANCH  25  39
ATOM     39  C   UNL A   1      40.623  27.925  28.638  1.00  0.00     0.064 A 
ATOM     40  C   UNL A   1      41.400  28.230  27.510  1.00  0.00     0.173 A 
ATOM     41  C   UNL A   1      39.892  26.727  28.620  1.00  0.00     0.173 A 
ATOM     42  F   UNL A   1      42.113  29.366  27.468  1.00  0.00    -0.203 F 
ATOM     43  C   UNL A   1      41.404  27.397  26.393  1.00  0.00     0.198 A 
ATOM     44  C   UNL A   1      39.928  25.877  27.517  1.00  0.00     0.198 A 
ATOM     45  F   UNL A   1      39.138  26.377  29.674  1.00  0.00    -0.203 F 
ATOM     46  F   UNL A   1      42.099  27.747  25.301  1.00  0.00    -0.200 F 
ATOM     47  C   UNL A   1      40.673  26.219  26.400  1.00  0.00     0.200 A 
ATOM     48  F   UNL A   1      39.234  24.731  27.534  1.00  0.00    -0.200 F 
ATOM     49  F   UNL A   1      40.676  25.420  25.324  1.00  0.00    -0.200 F 
ENDBRANCH  25  39
BRANCH  26  50
ATOM     50  C   UNL A   1      39.585  33.919  36.579  1.00  0.00     0.064 A 
ATOM     51  C   UNL A   1      38.771  33.496  37.638  1.00  0.00     0.173 A 
ATOM     52  C   UNL A   1      40.243  35.152  36.713  1.00  0.00     0.173 A 
ATOM     53  F   UNL A   1      38.112  32.332  37.551  1.00  0.00    -0.203 F 
ATOM     54  C   UNL A   1      38.617  34.277  38.782  1.00  0.00     0.198 A 
ATOM     55  C   UNL A   1      40.113  35.917  37.868  1.00  0.00     0.198 A 
ATOM     56  F   UNL A   1      41.044  35.595  35.732  1.00  0.00    -0.203 F 
ATOM     57  F   UNL A   1      37.811  33.862  39.767  1.00  0.00    -0.200 F 
ATOM     58  C   UNL A   1      39.295  35.481  38.900  1.00  0.00     0.200 A 
ATOM     59  F   UNL A   1      40.788  37.068  37.988  1.00  0.00    -0.200 F 
ATOM     60  F   UNL A   1      39.163  36.220  40.009  1.00  0.00    -0.200 F 
ENDBRANCH  26  50
BRANCH  38  61
ATOM     61  C   UNL A   1      43.911  28.654  35.016  1.00  0.00     0.064 A 
ATOM     62  C   UNL A   1      43.729  27.547  35.857  1.00  0.00     0.173 A 
ATOM     63  C   UNL A   1      45.221  29.115  34.809  1.00  0.00     0.173 A 
ATOM     64  F   UNL A   1      42.496  27.080  36.102  1.00  0.00    -0.203 F 
ATOM     65  C   UNL A   1      44.817  26.933  36.473  1.00  0.00     0.198 A 
ATOM     66  C   UNL A   1      46.307  28.478  35.400  1.00  0.00     0.198 A 
ATOM     67  F   UNL A   1      45.448  30.168  34.010  1.00  0.00    -0.203 F 
ATOM     68  F   UNL A   1      44.619  25.898  37.302  1.00  0.00    -0.200 F 
ATOM     69  C   UNL A   1      46.105  27.390  36.234  1.00  0.00     0.200 A 
ATOM     70  F   UNL A   1      47.551  28.911  35.153  1.00  0.00    -0.200 F 
ATOM     71  F   UNL A   1      47.152  26.783  36.810  1.00  0.00    -0.200 F 
ENDBRANCH  38  61
ENDBRANCH  12  13
ENDBRANCH   5   7
ENDBRANCH   2   3
ENDBRANCH   1   2
BRANCH   1  72
ATOM     72  C   UNL A   1      31.536  30.842  25.928  1.00  0.00     0.023 C 
BRANCH  72  73
ATOM     73  C   UNL A   1      32.831  30.104  26.287  1.00  0.00     0.116 C 
BRANCH  73  74
ATOM     74  N   UNL A   1      32.578  28.869  26.980  1.00  0.00    -0.355 N 
ATOM     75  C   UNL A   1      32.113  27.661  26.631  1.00  0.00     0.230 C 
ATOM     76  H   UNL A   1      32.799  28.923  27.938  1.00  0.00     0.163 HD
ATOM     77  O   UNL A   1      31.755  27.011  27.628  1.00  0.00    -0.274 OA
BRANCH  75  78
ATOM     78  C   UNL A   1      31.760  27.144  25.234  1.00  0.00     0.097 C 
ATOM     79  C   UNL A   1      30.329  27.668  25.072  1.00  0.00     0.139 C 
ATOM     80  C   UNL A   1      32.345  27.453  23.836  1.00  0.00     0.117 C 
ATOM     81  C   UNL A   1      32.007  25.607  25.311  1.00  0.00     0.141 C 
ATOM     82  N   UNL A   1      30.008  27.568  23.682  1.00  0.00    -0.341 N 
ATOM     83  C   UNL A   1      31.126  27.306  22.924  1.00  0.00     0.228 C 
ATOM     84  C   UNL A   1      33.351  26.369  23.458  1.00  0.00     0.136 C 
ATOM     85  N   UNL A   1      33.218  25.414  24.524  1.00  0.00    -0.324 N 
ATOM     86  O   UNL A   1      31.148  27.064  21.724  1.00  0.00    -0.274 OA
BRANCH  82  87
ATOM     87  C   UNL A   1      28.661  27.805  23.190  1.00  0.00     0.123 C 
BRANCH  87  88
ATOM     88  C   UNL A   1      28.463  29.153  22.544  1.00  0.00     0.008 C 
ATOM     89  C   UNL A   1      27.601  30.286  23.064  1.00  0.00     0.006 C 
ATOM     90  C   UNL A   1      29.091  30.354  23.215  1.00  0.00     0.006 C 
ENDBRANCH  87  88
ENDBRANCH  82  87
BRANCH  85  91
ATOM     91  C   UNL A   1      34.060  24.373  24.656  1.00  0.00     0.298 A 
ATOM     92  N   UNL A   1      33.808  23.081  24.563  1.00  0.00    -0.193 NA
ATOM     93  O   UNL A   1      35.365  24.677  24.924  1.00  0.00    -0.423 OA
ATOM     94  C   UNL A   1      35.033  22.489  24.767  1.00  0.00     0.111 A 
ATOM     95  C   UNL A   1      35.979  23.468  25.015  1.00  0.00     0.156 A 
ATOM     96  C   UNL A   1      35.442  21.147  24.766  1.00  0.00     0.032 A 
ATOM     97  C   UNL A   1      37.317  23.232  25.302  1.00  0.00     0.049 A 
ATOM     98  C   UNL A   1      36.793  20.864  25.042  1.00  0.00     0.003 A 
ATOM     99  C   UNL A   1      37.708  21.889  25.315  1.00  0.00     0.004 A 
ENDBRANCH  85  91
ENDBRANCH  75  78
ENDBRANCH  73  74
ENDBRANCH  72  73
ENDBRANCH   1  72
TORSDOF 14
ENDMDL
MODEL 2
REMARK VINA RESULT:     -13.0      0.117      1.545
REMARK SMILES O=C(NCCCCNC(=O)[C@@]12CN(CC3CC3)C(=O)[C@@H]1CN(c1nc3ccccc3o1)C2)c1ccc(-c2c3nc(c(-c4c(F)c(F)c(F)c(F)c4F)c4ccc([nH]4)c(-c4c(F)c(F)c(F)c(F)c4F)c4nc(c(-c5c(F)c(F)c(F)c(F)c5F)c5ccc2[nH]5)C=C4)C=C3)cc1
REMARK SMILES IDX 5 1 4 2 3 3 1 4 2 5 33 7 34 8 95 9 35 10 94 11 36 12 37 13
REMARK SMILES IDX 38 14 88 15 39 16 93 17 87 18 89 19 40 20 92 21 86 22 85 23
REMARK SMILES IDX 41 25 73 26 53 27 72 28 54 29 57 30 71 31 90 32 55 33 56 34
REMARK SMILES IDX 70 36 91 37 58 38 42 39 43 40 51 41 44 42 45 43 49 44 52 45
REMARK SMILES IDX 46 46 47 47 50 48 48 49 74 50 75 51 83 52 76 53 77 54 81 55
REMARK SMILES IDX 84 56 78 57 79 58 82 59 80 60 59 61 60 62 68 63 61 64 62 65
REMARK SMILES IDX 66 66 69 67 63 68 64 69 67 70 65 71 6 72 7 73 8 74 9 75
REMARK SMILES IDX 10 77 11 78 12 79 20 80 32 81 13 82 18 83 21 84 22 85 19 86
REMARK SMILES IDX 14 87 15 88 16 89 17 90 23 91 24 92 31 93 25 94 30 95 26 96
REMARK SMILES IDX 29 97 27 98 28 99
REMARK H PARENT 3 6 89 24 57 35 8 76
REMARK Flexibility Score: inf
ROOT
ATOM      1  C   UNL A   1      31.356  32.412  26.409  1.00  0.00     0.023 C 
ENDROOT
BRANCH   1   2
ATOM      2  C   UNL A   1      32.518  32.929  27.245  1.00  0.00     0.116 C 
BRANCH   2   3
ATOM      3  N   UNL A   1      32.319  34.300  27.681  1.00  0.00    -0.352 N 
ATOM      4  O   UNL A   1      32.565  36.106  29.007  1.00  0.00    -0.269 OA
ATOM      5  C   UNL A   1      32.980  35.010  28.650  1.00  0.00     0.251 C 
ATOM      6  H   UNL A   1      31.605  34.791  27.214  1.00  0.00     0.163 HD
BRANCH   5   7
ATOM      7  C   UNL A   1      34.185  34.434  29.278  1.00  0.00     0.039 A 
ATOM      8  C   UNL A   1      35.449  34.642  28.719  1.00  0.00     0.014 A 
ATOM      9  C   UNL A   1      34.040  33.681  30.445  1.00  0.00     0.014 A 
ATOM     10  C   UNL A   1      36.556  33.997  29.257  1.00  0.00     0.010 A 
ATOM     11  C   UNL A   1      35.163  33.098  31.029  1.00  0.00     0.010 A 
ATOM     12  C   UNL A   1      36.425  33.232  30.426  1.00  0.00    -0.014 A 
BRANCH  12  13
ATOM     13  C   UNL A   1      37.617  32.617  31.054  1.00  0.00     0.031 A 
ATOM     14  C   UNL A   1      38.335  31.484  30.384  1.00  0.00     0.074 A 
ATOM     15  C   UNL A   1      38.017  33.061  32.260  1.00  0.00     0.049 A 
ATOM     16  N   UNL A   1      39.315  30.743  30.835  1.00  0.00    -0.248 NA
ATOM     17  C   UNL A   1      37.881  31.127  29.033  1.00  0.00     0.031 C 
ATOM     18  C   UNL A   1      37.395  34.160  33.000  1.00  0.00     0.029 A 
ATOM     19  N   UNL A   1      39.026  32.632  33.083  1.00  0.00    -0.354 N 
ATOM     20  C   UNL A   1      39.578  29.816  29.835  1.00  0.00     0.074 A 
ATOM     21  C   UNL A   1      38.636  30.070  28.767  1.00  0.00     0.031 C 
ATOM     22  C   UNL A   1      38.036  34.322  34.164  1.00  0.00     0.029 A 
ATOM     23  C   UNL A   1      39.066  33.294  34.284  1.00  0.00     0.049 A 
ATOM     24  H   UNL A   1      39.659  31.919  32.837  1.00  0.00     0.167 HD
ATOM     25  C   UNL A   1      40.523  28.844  29.819  1.00  0.00     0.037 A 
ATOM     26  C   UNL A   1      39.815  33.073  35.378  1.00  0.00     0.037 A 
ATOM     27  C   UNL A   1      41.450  28.605  30.897  1.00  0.00     0.049 A 
ATOM     28  C   UNL A   1      40.818  31.956  35.361  1.00  0.00     0.074 A 
ATOM     29  C   UNL A   1      42.469  27.672  30.969  1.00  0.00     0.029 A 
ATOM     30  N   UNL A   1      41.458  29.297  32.101  1.00  0.00    -0.354 N 
ATOM     31  N   UNL A   1      41.084  31.102  34.402  1.00  0.00    -0.248 NA
ATOM     32  C   UNL A   1      41.626  31.771  36.572  1.00  0.00     0.031 C 
ATOM     33  C   UNL A   1      43.046  27.753  32.240  1.00  0.00     0.029 A 
ATOM     34  C   UNL A   1      42.442  28.789  32.934  1.00  0.00     0.049 A 
ATOM     35  H   UNL A   1      40.853  30.040  32.330  1.00  0.00     0.167 HD
ATOM     36  C   UNL A   1      42.111  30.300  34.879  1.00  0.00     0.074 A 
ATOM     37  C   UNL A   1      42.419  30.771  36.214  1.00  0.00     0.031 C 
ATOM     38  C   UNL A   1      42.746  29.277  34.259  1.00  0.00     0.037 A 
BRANCH  25  39
ATOM     39  C   UNL A   1      40.568  27.940  28.619  1.00  0.00     0.064 A 
ATOM     40  C   UNL A   1      39.874  26.720  28.577  1.00  0.00     0.173 A 
ATOM     41  C   UNL A   1      41.316  28.302  27.488  1.00  0.00     0.173 A 
ATOM     42  F   UNL A   1      39.150  26.318  29.633  1.00  0.00    -0.203 F 
ATOM     43  C   UNL A   1      39.966  25.879  27.470  1.00  0.00     0.198 A 
ATOM     44  C   UNL A   1      41.375  27.477  26.368  1.00  0.00     0.198 A 
ATOM     45  F   UNL A   1      41.993  29.461  27.465  1.00  0.00    -0.203 F 
ATOM     46  F   UNL A   1      39.351  24.688  27.484  1.00  0.00    -0.200 F 
ATOM     47  C   UNL A   1      40.712  26.260  26.365  1.00  0.00     0.200 A 
ATOM     48  F   UNL A   1      42.082  27.855  25.294  1.00  0.00    -0.200 F 
ATOM     49  F   UNL A   1      40.802  25.448  25.303  1.00  0.00    -0.200 F 
ENDBRANCH  25  39
BRANCH  26  50
ATOM     50  C   UNL A   1      39.619  33.930  36.574  1.00  0.00     0.064 A 
ATOM     51  C   UNL A   1      38.791  33.520  37.627  1.00  0.00     0.173 A 
ATOM     52  C   UNL A   1      40.302  35.148  36.715  1.00  0.00     0.173 A 
ATOM     53  F   UNL A   1      38.108  32.371  37.533  1.00  0.00    -0.203 F 
ATOM     54  C   UNL A   1      38.648  34.300  38.774  1.00  0.00     0.198 A 
ATOM     55  C   UNL A   1      40.183  35.911  37.873  1.00  0.00     0.198 A 
ATOM     56  F   UNL A   1      41.117  35.577  35.740  1.00  0.00    -0.203 F 
ATOM     57  F   UNL A   1      37.829  33.899  39.754  1.00  0.00    -0.200 F 
ATOM     58  C   UNL A   1      39.352  35.489  38.900  1.00  0.00     0.200 A 
ATOM     59  F   UNL A   1      40.883  37.047  38.000  1.00  0.00    -0.200 F 
ATOM     60  F   UNL A   1      39.230  36.227  40.011  1.00  0.00    -0.200 F 
ENDBRANCH  26  50
BRANCH  38  61
ATOM     61  C   UNL A   1      43.885  28.624  34.986  1.00  0.00     0.064 A 
ATOM     62  C   UNL A   1      45.201  29.097  34.887  1.00  0.00     0.173 A 
ATOM     63  C   UNL A   1      43.636  27.551  35.858  1.00  0.00     0.173 A 
ATOM     64  F   UNL A   1      45.495  30.107  34.055  1.00  0.00    -0.203 F 
ATOM     65  C   UNL A   1      46.228  28.512  35.626  1.00  0.00     0.198 A 
ATOM     66  C   UNL A   1      44.658  26.991  36.618  1.00  0.00     0.198 A 
ATOM     67  F   UNL A   1      42.393  27.064  35.992  1.00  0.00    -0.203 F 
ATOM     68  F   UNL A   1      47.485  28.956  35.490  1.00  0.00    -0.200 F 
ATOM     69  C   UNL A   1      45.954  27.469  36.499  1.00  0.00     0.200 A 
ATOM     70  F   UNL A   1      44.387  25.996  37.474  1.00  0.00    -0.200 F 
ATOM     71  F   UNL A   1      46.939  26.924  37.224  1.00  0.00    -0.200 F 
ENDBRANCH  38  61
ENDBRANCH  12  13
ENDBRANCH   5   7
ENDBRANCH   2   3
ENDBRANCH   1   2
BRANCH   1  72
ATOM     72  C   UNL A   1      31.370  30.907  26.104  1.00  0.00     0.023 C 
BRANCH  72  73
ATOM     73  C   UNL A   1      32.686  30.168  26.370  1.00  0.00     0.116 C 
BRANCH  73  74
ATOM     74  N   UNL A   1      32.477  28.908  27.032  1.00  0.00    -0.355 N 
ATOM     75  C   UNL A   1      32.057  27.693  26.653  1.00  0.00     0.230 C 
ATOM     76  H   UNL A   1      32.695  28.947  27.992  1.00  0.00     0.163 HD
ATOM     77  O   UNL A   1      31.722  27.006  27.633  1.00  0.00    -0.274 OA
BRANCH  75  78
ATOM     78  C   UNL A   1      31.726  27.197  25.243  1.00  0.00     0.097 C 
ATOM     79  C   UNL A   1      30.298  27.726  25.066  1.00  0.00     0.139 C 
ATOM     80  C   UNL A   1      32.333  27.526  23.860  1.00  0.00     0.117 C 
ATOM     81  C   UNL A   1      31.968  25.659  25.301  1.00  0.00     0.141 C 
ATOM     82  N   UNL A   1      29.999  27.648  23.670  1.00  0.00    -0.341 N 
ATOM     83  C   UNL A   1      31.130  27.394  22.926  1.00  0.00     0.228 C 
ATOM     84  C   UNL A   1      33.343  26.445  23.481  1.00  0.00     0.136 C 
ATOM     85  N   UNL A   1      33.192  25.475  24.531  1.00  0.00    -0.324 N 
ATOM     86  O   UNL A   1      31.170  27.170  21.723  1.00  0.00    -0.274 OA
BRANCH  82  87
ATOM     87  C   UNL A   1      28.661  27.895  23.160  1.00  0.00     0.123 C 
BRANCH  87  88
ATOM     88  C   UNL A   1      28.465  29.269  22.569  1.00  0.00     0.008 C 
ATOM     89  C   UNL A   1      27.600  30.379  23.132  1.00  0.00     0.006 C 
ATOM     90  C   UNL A   1      29.089  30.441  23.291  1.00  0.00     0.006 C 
ENDBRANCH  87  88
ENDBRANCH  82  87
BRANCH  85  91
ATOM     91  C   UNL A   1      34.029  24.430  24.660  1.00  0.00     0.298 A 
ATOM     92  N   UNL A   1      33.769  23.139  24.581  1.00  0.00    -0.193 NA
ATOM     93  O   UNL A   1      35.339  24.728  24.911  1.00  0.00    -0.423 OA
ATOM     94  C   UNL A   1      34.994  22.542  24.774  1.00  0.00     0.111 A 
ATOM     95  C   UNL A   1      35.948  23.517  25.004  1.00  0.00     0.156 A 
ATOM     96  C   UNL A   1      35.395  21.197  24.779  1.00  0.00     0.032 A 
ATOM     97  C   UNL A   1      37.287  23.276  25.277  1.00  0.00     0.049 A 
ATOM     98  C   UNL A   1      36.747  20.909  25.042  1.00  0.00     0.003 A 
ATOM     99  C   UNL A   1      37.671  21.931  25.295  1.00  0.00     0.004 A 
ENDBRANCH  85  91
ENDBRANCH  75  78
ENDBRANCH  73  74
ENDBRANCH  72  73
ENDBRANCH   1  72
TORSDOF 14
ENDMDL
MODEL 3
REMARK VINA RESULT:     -13.0      0.987      4.223
REMARK SMILES O=C(NCCCCNC(=O)[C@@]12CN(CC3CC3)C(=O)[C@@H]1CN(c1nc3ccccc3o1)C2)c1ccc(-c2c3nc(c(-c4c(F)c(F)c(F)c(F)c4F)c4ccc([nH]4)c(-c4c(F)c(F)c(F)c(F)c4F)c4nc(c(-c5c(F)c(F)c(F)c(F)c5F)c5ccc2[nH]5)C=C4)C=C3)cc1
REMARK SMILES IDX 5 1 4 2 3 3 1 4 2 5 33 7 34 8 95 9 35 10 94 11 36 12 37 13
REMARK SMILES IDX 38 14 88 15 39 16 93 17 87 18 89 19 40 20 92 21 86 22 85 23
REMARK SMILES IDX 41 25 73 26 53 27 72 28 54 29 57 30 71 31 90 32 55 33 56 34
REMARK SMILES IDX 70 36 91 37 58 38 42 39 43 40 51 41 44 42 45 43 49 44 52 45
REMARK SMILES IDX 46 46 47 47 50 48 48 49 74 50 75 51 83 52 76 53 77 54 81 55
REMARK SMILES IDX 84 56 78 57 79 58 82 59 80 60 59 61 60 62 68 63 61 64 62 65
REMARK SMILES IDX 66 66 69 67 63 68 64 69 67 70 65 71 6 72 7 73 8 74 9 75
REMARK SMILES IDX 10 77 11 78 12 79 20 80 32 81 13 82 18 83 21 84 22 85 19 86
REMARK SMILES IDX 14 87 15 88 16 89 17 90 23 91 24 92 31 93 25 94 30 95 26 96
REMARK SMILES IDX 29 97 27 98 28 99
REMARK H PARENT 3 6 89 24 57 35 8 76
REMARK Flexibility Score: inf
ROOT
ATOM      1  C   UNL A   1      31.372  32.244  26.878  1.00  0.00     0.023 C 
ENDROOT
BRANCH   1   2
ATOM      2  C   UNL A   1      32.664  32.958  27.248  1.00  0.00     0.116 C 
BRANCH   2   3
ATOM      3  N   UNL A   1      32.429  34.304  27.742  1.00  0.00    -0.352 N 
ATOM      4  O   UNL A   1      32.617  36.051  29.152  1.00  0.00    -0.269 OA
ATOM      5  C   UNL A   1      33.061  34.982  28.753  1.00  0.00     0.251 C 
ATOM      6  H   UNL A   1      31.712  34.801  27.286  1.00  0.00     0.163 HD
BRANCH   5   7
ATOM      7  C   UNL A   1      34.267  34.402  29.373  1.00  0.00     0.039 A 
ATOM      8  C   UNL A   1      35.534  34.647  28.834  1.00  0.00     0.014 A 
ATOM      9  C   UNL A   1      34.122  33.609  30.513  1.00  0.00     0.014 A 
ATOM     10  C   UNL A   1      36.645  34.000  29.361  1.00  0.00     0.010 A 
ATOM     11  C   UNL A   1      35.249  33.022  31.088  1.00  0.00     0.010 A 
ATOM     12  C   UNL A   1      36.514  33.195  30.503  1.00  0.00    -0.014 A 
BRANCH  12  13
ATOM     13  C   UNL A   1      37.709  32.575  31.122  1.00  0.00     0.031 A 
ATOM     14  C   UNL A   1      38.430  31.455  30.436  1.00  0.00     0.074 A 
ATOM     15  C   UNL A   1      38.108  33.005  32.334  1.00  0.00     0.049 A 
ATOM     16  N   UNL A   1      39.413  30.711  30.877  1.00  0.00    -0.248 NA
ATOM     17  C   UNL A   1      37.976  31.113  29.081  1.00  0.00     0.031 C 
ATOM     18  C   UNL A   1      37.482  34.091  33.088  1.00  0.00     0.029 A 
ATOM     19  N   UNL A   1      39.119  32.568  33.150  1.00  0.00    -0.354 N 
ATOM     20  C   UNL A   1      39.680  29.798  29.865  1.00  0.00     0.074 A 
ATOM     21  C   UNL A   1      38.735  30.063  28.800  1.00  0.00     0.031 C 
ATOM     22  C   UNL A   1      38.124  34.241  34.254  1.00  0.00     0.029 A 
ATOM     23  C   UNL A   1      39.157  33.215  34.360  1.00  0.00     0.049 A 
ATOM     24  H   UNL A   1      39.754  31.862  32.894  1.00  0.00     0.167 HD
ATOM     25  C   UNL A   1      40.628  28.830  29.835  1.00  0.00     0.037 A 
ATOM     26  C   UNL A   1      39.908  32.982  35.451  1.00  0.00     0.037 A 
ATOM     27  C   UNL A   1      41.556  28.581  30.909  1.00  0.00     0.049 A 
ATOM     28  C   UNL A   1      40.915  31.869  35.417  1.00  0.00     0.074 A 
ATOM     29  C   UNL A   1      42.579  27.650  30.968  1.00  0.00     0.029 A 
ATOM     30  N   UNL A   1      41.562  29.257  32.123  1.00  0.00    -0.354 N 
ATOM     31  N   UNL A   1      41.183  31.029  34.447  1.00  0.00    -0.248 NA
ATOM     32  C   UNL A   1      41.725  31.672  36.626  1.00  0.00     0.031 C 
ATOM     33  C   UNL A   1      43.156  27.716  32.240  1.00  0.00     0.029 A 
ATOM     34  C   UNL A   1      42.550  28.741  32.948  1.00  0.00     0.049 A 
ATOM     35  H   UNL A   1      40.955  29.994  32.361  1.00  0.00     0.167 HD
ATOM     36  C   UNL A   1      42.214  30.225  34.913  1.00  0.00     0.074 A 
ATOM     37  C   UNL A   1      42.521  30.679  36.254  1.00  0.00     0.031 C 
ATOM     38  C   UNL A   1      42.853  29.212  34.278  1.00  0.00     0.037 A 
BRANCH  25  39
ATOM     39  C   UNL A   1      40.676  27.942  28.623  1.00  0.00     0.064 A 
ATOM     40  C   UNL A   1      41.450  28.260  27.495  1.00  0.00     0.173 A 
ATOM     41  C   UNL A   1      39.938  26.749  28.590  1.00  0.00     0.173 A 
ATOM     42  F   UNL A   1      42.169  29.393  27.467  1.00  0.00    -0.203 F 
ATOM     43  C   UNL A   1      41.444  27.444  26.367  1.00  0.00     0.198 A 
ATOM     44  C   UNL A   1      39.965  25.915  27.475  1.00  0.00     0.198 A 
ATOM     45  F   UNL A   1      39.188  26.387  29.642  1.00  0.00    -0.203 F 
ATOM     46  F   UNL A   1      42.135  27.806  25.277  1.00  0.00    -0.200 F 
ATOM     47  C   UNL A   1      40.706  26.269  26.359  1.00  0.00     0.200 A 
ATOM     48  F   UNL A   1      39.264  24.773  27.477  1.00  0.00    -0.200 F 
ATOM     49  F   UNL A   1      40.699  25.487  25.271  1.00  0.00    -0.200 F 
ENDBRANCH  25  39
BRANCH  26  50
ATOM     50  C   UNL A   1      39.710  33.822  36.658  1.00  0.00     0.064 A 
ATOM     51  C   UNL A   1      40.312  35.083  36.766  1.00  0.00     0.173 A 
ATOM     52  C   UNL A   1      38.867  33.409  37.702  1.00  0.00     0.173 A 
ATOM     53  F   UNL A   1      41.134  35.516  35.800  1.00  0.00    -0.203 F 
ATOM     54  C   UNL A   1      40.084  35.895  37.875  1.00  0.00     0.198 A 
ATOM     55  C   UNL A   1      38.617  34.233  38.795  1.00  0.00     0.198 A 
ATOM     56  F   UNL A   1      38.258  32.215  37.639  1.00  0.00    -0.203 F 
ATOM     57  F   UNL A   1      40.693  37.084  37.966  1.00  0.00    -0.200 F 
ATOM     58  C   UNL A   1      39.230  35.474  38.883  1.00  0.00     0.200 A 
ATOM     59  F   UNL A   1      37.772  33.832  39.755  1.00  0.00    -0.200 F 
ATOM     60  F   UNL A   1      38.995  36.264  39.939  1.00  0.00    -0.200 F 
ENDBRANCH  26  50
BRANCH  38  61
ATOM     61  C   UNL A   1      43.995  28.554  34.997  1.00  0.00     0.064 A 
ATOM     62  C   UNL A   1      43.816  27.413  35.792  1.00  0.00     0.173 A 
ATOM     63  C   UNL A   1      45.302  29.035  34.822  1.00  0.00     0.173 A 
ATOM     64  F   UNL A   1      42.585  26.926  36.006  1.00  0.00    -0.203 F 
ATOM     65  C   UNL A   1      44.904  26.784  36.394  1.00  0.00     0.198 A 
ATOM     66  C   UNL A   1      46.389  28.385  35.397  1.00  0.00     0.198 A 
ATOM     67  F   UNL A   1      45.527  30.121  34.067  1.00  0.00    -0.203 F 
ATOM     68  F   UNL A   1      44.708  25.716  37.179  1.00  0.00    -0.200 F 
ATOM     69  C   UNL A   1      46.189  27.263  36.186  1.00  0.00     0.200 A 
ATOM     70  F   UNL A   1      47.632  28.839  35.180  1.00  0.00    -0.200 F 
ATOM     71  F   UNL A   1      47.236  26.643  36.748  1.00  0.00    -0.200 F 
ENDBRANCH  38  61
ENDBRANCH  12  13
ENDBRANCH   5   7
ENDBRANCH   2   3
ENDBRANCH   1   2
BRANCH   1  72
ATOM     72  C   UNL A   1      31.495  31.154  25.803  1.00  0.00     0.023 C 
BRANCH  72  73
ATOM     73  C   UNL A   1      32.530  30.053  26.062  1.00  0.00     0.116 C 
BRANCH  73  74
ATOM     74  N   UNL A   1      32.045  29.058  26.982  1.00  0.00    -0.355 N 
ATOM     75  C   UNL A   1      31.568  27.810  26.867  1.00  0.00     0.230 C 
ATOM     76  H   UNL A   1      32.069  29.366  27.917  1.00  0.00     0.163 HD
ATOM     77  O   UNL A   1      30.964  27.463  27.897  1.00  0.00    -0.274 OA
BRANCH  75  78
ATOM     78  C   UNL A   1      31.469  26.939  25.613  1.00  0.00     0.097 C 
ATOM     79  C   UNL A   1      32.615  25.948  25.843  1.00  0.00     0.139 C 
ATOM     80  C   UNL A   1      30.362  25.991  25.095  1.00  0.00     0.117 C 
ATOM     81  C   UNL A   1      31.557  27.947  24.428  1.00  0.00     0.141 C 
ATOM     82  N   UNL A   1      32.412  24.864  24.933  1.00  0.00    -0.341 N 
ATOM     83  C   UNL A   1      31.161  24.915  24.360  1.00  0.00     0.228 C 
ATOM     84  C   UNL A   1      29.507  26.727  24.066  1.00  0.00     0.136 C 
ATOM     85  N   UNL A   1      30.198  27.977  23.900  1.00  0.00    -0.324 N 
ATOM     86  O   UNL A   1      30.742  24.186  23.469  1.00  0.00    -0.274 OA
BRANCH  82  87
ATOM     87  C   UNL A   1      33.412  23.827  24.745  1.00  0.00     0.123 C 
BRANCH  87  88
ATOM     88  C   UNL A   1      34.810  24.346  24.515  1.00  0.00     0.008 C 
ATOM     89  C   UNL A   1      36.057  23.952  25.281  1.00  0.00     0.006 C 
ATOM     90  C   UNL A   1      35.821  23.400  23.907  1.00  0.00     0.006 C 
ENDBRANCH  87  88
ENDBRANCH  82  87
BRANCH  85  91
ATOM     91  C   UNL A   1      29.673  28.992  23.191  1.00  0.00     0.298 A 
ATOM     92  N   UNL A   1      29.262  29.008  21.937  1.00  0.00    -0.193 NA
ATOM     93  O   UNL A   1      29.539  30.185  23.845  1.00  0.00    -0.423 OA
ATOM     94  C   UNL A   1      28.809  30.293  21.753  1.00  0.00     0.111 A 
ATOM     95  C   UNL A   1      29.005  31.019  22.914  1.00  0.00     0.156 A 
ATOM     96  C   UNL A   1      28.225  30.937  20.651  1.00  0.00     0.032 A 
ATOM     97  C   UNL A   1      28.701  32.364  23.078  1.00  0.00     0.049 A 
ATOM     98  C   UNL A   1      27.891  32.298  20.778  1.00  0.00     0.003 A 
ATOM     99  C   UNL A   1      28.135  32.997  21.966  1.00  0.00     0.004 A 
ENDBRANCH  85  91
ENDBRANCH  75  78
ENDBRANCH  73  74
ENDBRANCH  72  73
ENDBRANCH   1  72
TORSDOF 14
ENDMDL
