MODEL 1
REMARK VINA RESULT:     -11.2      0.000      0.000
REMARK SMILES O=C(COc1cccc(NC(=O)c2ccc3c(c2)C(=O)N(c2ccccc2-c2ccccc2)C3=O)c1)NCCCCNC(=O)c1ccc(-c2c3nc(c(-c4c(F)c(F)c(F)c(F)c4F)c4ccc([nH]4)c(-c4c(F)c(F)c(F)c(F)c4F)c4nc(c(-c5c(F)c(F)c(F)c(F)c5F)c5ccc2[nH]5)C=C4)C=C3)cc1
REMARK SMILES IDX 1 1 2 2 37 3 3 5 4 6 5 7 6 8 36 9 7 10 9 11 8 12 10 13 11 14
REMARK SMILES IDX 12 16 13 17 14 18 18 19 15 20 17 21 16 22 19 23 34 24 20 25
REMARK SMILES IDX 21 26 35 27 22 28 23 29 27 30 24 31 26 32 25 33 28 34 29 35
REMARK SMILES IDX 33 36 30 37 32 38 31 39 38 40 39 41 40 42 41 43 42 44 43 45
REMARK SMILES IDX 44 47 45 48 46 49 107 50 47 51 106 52 48 53 49 54 50 55
REMARK SMILES IDX 100 56 51 57 105 58 99 59 101 60 52 61 104 62 98 63 97 64
REMARK SMILES IDX 53 66 85 67 65 68 84 69 66 70 69 71 83 72 102 73 67 74 68 75
REMARK SMILES IDX 82 77 103 78 70 79 54 80 55 81 63 82 56 83 57 84 61 85 64 86
REMARK SMILES IDX 58 87 59 88 62 89 60 90 86 91 87 92 95 93 88 94 89 95 93 96
REMARK SMILES IDX 96 97 90 98 91 99 94 100 92 101 71 102 72 103 80 104 73 105
REMARK SMILES IDX 74 106 78 107 81 108 75 109 76 110 79 111 77 112
REMARK H PARENT 37 4 10 15 42 46 101 65 69 76
REMARK Flexibility Score: inf
ROOT
ATOM      1  O   UNL A   1      32.467  34.803  32.684  1.00  0.00    -0.271 OA
ATOM      2  C   UNL A   1      33.581  35.306  32.574  1.00  0.00     0.257 C 
ATOM      3  N   UNL A   1      34.011  35.972  31.443  1.00  0.00    -0.353 N 
ATOM      4  H   UNL A   1      34.844  36.495  31.484  1.00  0.00     0.163 HD
ENDROOT
BRANCH   2   5
ATOM      5  C   UNL A   1      34.633  35.202  33.682  1.00  0.00     0.329 C 
BRANCH   5   6
ATOM      6  O   UNL A   1      35.971  35.495  33.302  1.00  0.00    -0.484 OA
BRANCH   6   7
ATOM      7  C   UNL A   1      36.720  34.454  32.820  1.00  0.00     0.122 A 
ATOM      8  C   UNL A   1      37.557  34.781  31.757  1.00  0.00     0.046 A 
ATOM      9  C   UNL A   1      36.572  33.111  33.204  1.00  0.00     0.072 A 
ATOM     10  C   UNL A   1      38.225  33.774  31.074  1.00  0.00     0.006 A 
ATOM     11  C   UNL A   1      37.210  32.079  32.500  1.00  0.00     0.045 A 
ATOM     12  C   UNL A   1      38.030  32.437  31.432  1.00  0.00     0.026 A 
BRANCH  11  13
ATOM     13  N   UNL A   1      36.870  30.746  32.852  1.00  0.00    -0.322 N 
ATOM     14  C   UNL A   1      37.628  29.644  33.211  1.00  0.00     0.255 C 
ATOM     15  H   UNL A   1      35.901  30.570  32.838  1.00  0.00     0.170 HD
ATOM     16  O   UNL A   1      37.157  28.511  33.208  1.00  0.00    -0.269 OA
BRANCH  14  17
ATOM     17  C   UNL A   1      38.976  29.851  33.758  1.00  0.00     0.041 A 
ATOM     18  C   UNL A   1      39.159  30.466  35.017  1.00  0.00     0.015 A 
ATOM     19  C   UNL A   1      40.005  29.166  33.115  1.00  0.00     0.028 A 
ATOM     20  C   UNL A   1      40.328  30.202  35.752  1.00  0.00     0.015 A 
ATOM     21  C   UNL A   1      41.124  28.924  33.874  1.00  0.00     0.054 A 
ATOM     22  C   UNL A   1      41.258  29.351  35.172  1.00  0.00     0.053 A 
ATOM     23  C   UNL A   1      42.131  27.922  33.622  1.00  0.00     0.266 C 
ATOM     24  C   UNL A   1      42.323  28.533  35.766  1.00  0.00     0.266 C 
ATOM     25  O   UNL A   1      42.355  27.580  32.475  1.00  0.00    -0.268 OA
ATOM     26  N   UNL A   1      42.627  27.541  34.850  1.00  0.00    -0.242 N 
ATOM     27  O   UNL A   1      42.791  28.841  36.845  1.00  0.00    -0.268 OA
BRANCH  26  28
ATOM     28  C   UNL A   1      43.282  26.273  35.070  1.00  0.00     0.060 A 
ATOM     29  C   UNL A   1      42.482  25.101  35.071  1.00  0.00     0.027 A 
ATOM     30  C   UNL A   1      44.646  26.100  35.426  1.00  0.00     0.006 A 
ATOM     31  C   UNL A   1      42.969  23.831  35.394  1.00  0.00     0.002 A 
ATOM     32  C   UNL A   1      45.126  24.791  35.713  1.00  0.00     0.011 A 
ATOM     33  C   UNL A   1      44.301  23.672  35.706  1.00  0.00     0.001 A 
BRANCH  30  34
ATOM     34  C   UNL A   1      45.630  27.165  35.671  1.00  0.00    -0.016 A 
ATOM     35  C   UNL A   1      46.125  27.404  36.963  1.00  0.00     0.009 A 
ATOM     36  C   UNL A   1      46.004  28.041  34.639  1.00  0.00     0.009 A 
ATOM     37  C   UNL A   1      47.013  28.455  37.203  1.00  0.00     0.001 A 
ATOM     38  C   UNL A   1      46.888  29.095  34.879  1.00  0.00     0.001 A 
ATOM     39  C   UNL A   1      47.398  29.296  36.161  1.00  0.00     0.000 A 
ENDBRANCH  30  34
ENDBRANCH  26  28
ENDBRANCH  14  17
ENDBRANCH  11  13
ENDBRANCH   6   7
ENDBRANCH   5   6
ENDBRANCH   2   5
BRANCH   3  40
ATOM     40  C   UNL A   1      33.273  35.925  30.200  1.00  0.00     0.116 C 
BRANCH  40  41
ATOM     41  C   UNL A   1      33.803  34.880  29.229  1.00  0.00     0.023 C 
BRANCH  41  42
ATOM     42  C   UNL A   1      34.529  33.703  29.886  1.00  0.00     0.023 C 
BRANCH  42  43
ATOM     43  C   UNL A   1      35.290  32.779  28.939  1.00  0.00     0.116 C 
BRANCH  43  44
ATOM     44  N   UNL A   1      34.461  31.728  28.371  1.00  0.00    -0.352 N 
ATOM     45  C   UNL A   1      34.799  30.448  27.996  1.00  0.00     0.251 C 
ATOM     46  H   UNL A   1      33.516  31.967  28.236  1.00  0.00     0.163 HD
ATOM     47  O   UNL A   1      33.977  29.742  27.420  1.00  0.00    -0.269 OA
BRANCH  45  48
ATOM     48  C   UNL A   1      36.160  29.926  28.249  1.00  0.00     0.039 A 
ATOM     49  C   UNL A   1      37.106  29.995  27.221  1.00  0.00     0.014 A 
ATOM     50  C   UNL A   1      36.509  29.366  29.480  1.00  0.00     0.014 A 
ATOM     51  C   UNL A   1      38.418  29.574  27.452  1.00  0.00     0.010 A 
ATOM     52  C   UNL A   1      37.833  29.009  29.731  1.00  0.00     0.010 A 
ATOM     53  C   UNL A   1      38.804  29.115  28.722  1.00  0.00    -0.014 A 
BRANCH  53  54
ATOM     54  C   UNL A   1      40.215  28.759  29.018  1.00  0.00     0.031 A 
ATOM     55  C   UNL A   1      41.118  29.737  29.715  1.00  0.00     0.074 A 
ATOM     56  C   UNL A   1      40.707  27.577  28.594  1.00  0.00     0.049 A 
ATOM     57  N   UNL A   1      42.396  29.640  29.983  1.00  0.00    -0.248 NA
ATOM     58  C   UNL A   1      40.508  31.004  30.146  1.00  0.00     0.031 C 
ATOM     59  C   UNL A   1      39.949  26.559  27.866  1.00  0.00     0.029 A 
ATOM     60  N   UNL A   1      41.966  27.039  28.702  1.00  0.00    -0.354 N 
ATOM     61  C   UNL A   1      42.745  30.834  30.599  1.00  0.00     0.074 A 
ATOM     62  C   UNL A   1      41.556  31.661  30.621  1.00  0.00     0.031 C 
ATOM     63  C   UNL A   1      40.751  25.515  27.605  1.00  0.00     0.029 A 
ATOM     64  C   UNL A   1      42.089  25.804  28.114  1.00  0.00     0.049 A 
ATOM     65  H   UNL A   1      42.709  27.496  29.157  1.00  0.00     0.167 HD
ATOM     66  C   UNL A   1      43.941  31.200  31.121  1.00  0.00     0.037 A 
ATOM     67  C   UNL A   1      43.161  24.998  27.989  1.00  0.00     0.037 A 
ATOM     68  C   UNL A   1      45.116  30.369  31.120  1.00  0.00     0.049 A 
ATOM     69  C   UNL A   1      44.479  25.428  28.575  1.00  0.00     0.074 A 
ATOM     70  C   UNL A   1      46.359  30.629  31.672  1.00  0.00     0.029 A 
ATOM     71  N   UNL A   1      45.195  29.112  30.537  1.00  0.00    -0.354 N 
ATOM     72  N   UNL A   1      44.781  26.535  29.208  1.00  0.00    -0.248 NA
ATOM     73  C   UNL A   1      45.603  24.493  28.432  1.00  0.00     0.031 C 
ATOM     74  C   UNL A   1      47.201  29.550  31.387  1.00  0.00     0.029 A 
ATOM     75  C   UNL A   1      46.470  28.594  30.700  1.00  0.00     0.049 A 
ATOM     76  H   UNL A   1      44.455  28.656  30.076  1.00  0.00     0.167 HD
ATOM     77  C   UNL A   1      46.117  26.419  29.564  1.00  0.00     0.074 A 
ATOM     78  C   UNL A   1      46.567  25.128  29.087  1.00  0.00     0.031 C 
ATOM     79  C   UNL A   1      46.903  27.305  30.225  1.00  0.00     0.037 A 
BRANCH  66  80
ATOM     80  C   UNL A   1      44.037  32.563  31.743  1.00  0.00     0.064 A 
ATOM     81  C   UNL A   1      43.688  32.784  33.084  1.00  0.00     0.173 A 
ATOM     82  C   UNL A   1      44.516  33.654  31.001  1.00  0.00     0.173 A 
ATOM     83  F   UNL A   1      43.214  31.777  33.833  1.00  0.00    -0.203 F 
ATOM     84  C   UNL A   1      43.785  34.053  33.649  1.00  0.00     0.198 A 
ATOM     85  C   UNL A   1      44.640  34.915  31.579  1.00  0.00     0.198 A 
ATOM     86  F   UNL A   1      44.869  33.496  29.716  1.00  0.00    -0.203 F 
ATOM     87  F   UNL A   1      43.397  34.251  34.918  1.00  0.00    -0.200 F 
ATOM     88  C   UNL A   1      44.267  35.115  32.900  1.00  0.00     0.200 A 
ATOM     89  F   UNL A   1      45.117  35.938  30.857  1.00  0.00    -0.200 F 
ATOM     90  F   UNL A   1      44.364  36.334  33.447  1.00  0.00    -0.200 F 
ENDBRANCH  66  80
BRANCH  67  91
ATOM     91  C   UNL A   1      43.027  23.691  27.297  1.00  0.00     0.064 A 
ATOM     92  C   UNL A   1      43.429  23.539  25.964  1.00  0.00     0.173 A 
ATOM     93  C   UNL A   1      42.496  22.570  27.952  1.00  0.00     0.173 A 
ATOM     94  F   UNL A   1      43.921  24.588  25.289  1.00  0.00    -0.203 F 
ATOM     95  C   UNL A   1      43.288  22.319  25.304  1.00  0.00     0.198 A 
ATOM     96  C   UNL A   1      42.382  21.344  27.301  1.00  0.00     0.198 A 
ATOM     97  F   UNL A   1      42.100  22.664  29.230  1.00  0.00    -0.203 F 
ATOM     98  F   UNL A   1      43.640  22.213  24.015  1.00  0.00    -0.200 F 
ATOM     99  C   UNL A   1      42.771  21.222  25.975  1.00  0.00     0.200 A 
ATOM    100  F   UNL A   1      41.893  20.282  27.956  1.00  0.00    -0.200 F 
ATOM    101  F   UNL A   1      42.640  20.048  25.343  1.00  0.00    -0.200 F 
ENDBRANCH  67  91
BRANCH  79 102
ATOM    102  C   UNL A   1      48.320  26.895  30.501  1.00  0.00     0.064 A 
ATOM    103  C   UNL A   1      49.365  27.224  29.625  1.00  0.00     0.173 A 
ATOM    104  C   UNL A   1      48.641  26.199  31.676  1.00  0.00     0.173 A 
ATOM    105  F   UNL A   1      49.107  27.876  28.481  1.00  0.00    -0.203 F 
ATOM    106  C   UNL A   1      50.677  26.851  29.905  1.00  0.00     0.198 A 
ATOM    107  C   UNL A   1      49.958  25.852  31.966  1.00  0.00     0.198 A 
ATOM    108  F   UNL A   1      47.679  25.866  32.549  1.00  0.00    -0.203 F 
ATOM    109  F   UNL A   1      51.653  27.135  29.033  1.00  0.00    -0.200 F 
ATOM    110  C   UNL A   1      50.973  26.172  31.078  1.00  0.00     0.200 A 
ATOM    111  F   UNL A   1      50.244  25.207  33.106  1.00  0.00    -0.200 F 
ATOM    112  F   UNL A   1      52.238  25.818  31.348  1.00  0.00    -0.200 F 
ENDBRANCH  79 102
ENDBRANCH  53  54
ENDBRANCH  45  48
ENDBRANCH  43  44
ENDBRANCH  42  43
ENDBRANCH  41  42
ENDBRANCH  40  41
ENDBRANCH   3  40
TORSDOF 17
ENDMDL
MODEL 2
REMARK VINA RESULT:     -10.7      0.861      2.090
REMARK SMILES O=C(COc1cccc(NC(=O)c2ccc3c(c2)C(=O)N(c2ccccc2-c2ccccc2)C3=O)c1)NCCCCNC(=O)c1ccc(-c2c3nc(c(-c4c(F)c(F)c(F)c(F)c4F)c4ccc([nH]4)c(-c4c(F)c(F)c(F)c(F)c4F)c4nc(c(-c5c(F)c(F)c(F)c(F)c5F)c5ccc2[nH]5)C=C4)C=C3)cc1
REMARK SMILES IDX 1 1 2 2 37 3 3 5 4 6 5 7 6 8 36 9 7 10 9 11 8 12 10 13 11 14
REMARK SMILES IDX 12 16 13 17 14 18 18 19 15 20 17 21 16 22 19 23 34 24 20 25
REMARK SMILES IDX 21 26 35 27 22 28 23 29 27 30 24 31 26 32 25 33 28 34 29 35
REMARK SMILES IDX 33 36 30 37 32 38 31 39 38 40 39 41 40 42 41 43 42 44 43 45
REMARK SMILES IDX 44 47 45 48 46 49 107 50 47 51 106 52 48 53 49 54 50 55
REMARK SMILES IDX 100 56 51 57 105 58 99 59 101 60 52 61 104 62 98 63 97 64
REMARK SMILES IDX 53 66 85 67 65 68 84 69 66 70 69 71 83 72 102 73 67 74 68 75
REMARK SMILES IDX 82 77 103 78 70 79 54 80 55 81 63 82 56 83 57 84 61 85 64 86
REMARK SMILES IDX 58 87 59 88 62 89 60 90 86 91 87 92 95 93 88 94 89 95 93 96
REMARK SMILES IDX 96 97 90 98 91 99 94 100 92 101 71 102 72 103 80 104 73 105
REMARK SMILES IDX 74 106 78 107 81 108 75 109 76 110 79 111 77 112
REMARK H PARENT 37 4 10 15 42 46 101 65 69 76
REMARK Flexibility Score: inf
ROOT
ATOM      1  O   UNL A   1      33.278  33.756  32.871  1.00  0.00    -0.271 OA
ATOM      2  C   UNL A   1      34.068  34.690  32.769  1.00  0.00     0.257 C 
ATOM      3  N   UNL A   1      34.101  35.548  31.688  1.00  0.00    -0.353 N 
ATOM      4  H   UNL A   1      34.639  36.371  31.748  1.00  0.00     0.163 HD
ENDROOT
BRANCH   2   5
ATOM      5  C   UNL A   1      35.140  34.967  33.827  1.00  0.00     0.329 C 
BRANCH   5   6
ATOM      6  O   UNL A   1      36.449  35.229  33.337  1.00  0.00    -0.484 OA
BRANCH   6   7
ATOM      7  C   UNL A   1      37.404  34.279  33.586  1.00  0.00     0.122 A 
ATOM      8  C   UNL A   1      38.707  34.764  33.644  1.00  0.00     0.046 A 
ATOM      9  C   UNL A   1      37.173  32.894  33.615  1.00  0.00     0.072 A 
ATOM     10  C   UNL A   1      39.769  33.873  33.711  1.00  0.00     0.006 A 
ATOM     11  C   UNL A   1      38.237  31.980  33.643  1.00  0.00     0.045 A 
ATOM     12  C   UNL A   1      39.531  32.496  33.686  1.00  0.00     0.026 A 
BRANCH  11  13
ATOM     13  N   UNL A   1      37.915  30.604  33.498  1.00  0.00    -0.322 N 
ATOM     14  C   UNL A   1      38.687  29.454  33.471  1.00  0.00     0.255 C 
ATOM     15  H   UNL A   1      36.950  30.433  33.397  1.00  0.00     0.170 HD
ATOM     16  O   UNL A   1      38.239  28.389  33.060  1.00  0.00    -0.269 OA
BRANCH  14  17
ATOM     17  C   UNL A   1      40.019  29.472  34.092  1.00  0.00     0.041 A 
ATOM     18  C   UNL A   1      40.181  29.851  35.444  1.00  0.00     0.015 A 
ATOM     19  C   UNL A   1      41.032  28.837  33.376  1.00  0.00     0.028 A 
ATOM     20  C   UNL A   1      41.297  29.386  36.162  1.00  0.00     0.015 A 
ATOM     21  C   UNL A   1      42.098  28.392  34.121  1.00  0.00     0.054 A 
ATOM     22  C   UNL A   1      42.198  28.583  35.477  1.00  0.00     0.053 A 
ATOM     23  C   UNL A   1      43.051  27.381  33.735  1.00  0.00     0.266 C 
ATOM     24  C   UNL A   1      43.182  27.604  35.958  1.00  0.00     0.266 C 
ATOM     25  O   UNL A   1      43.305  27.223  32.556  1.00  0.00    -0.268 OA
ATOM     26  N   UNL A   1      43.465  26.764  34.896  1.00  0.00    -0.242 N 
ATOM     27  O   UNL A   1      43.617  27.693  37.090  1.00  0.00    -0.268 OA
BRANCH  26  28
ATOM     28  C   UNL A   1      44.029  25.435  34.917  1.00  0.00     0.060 A 
ATOM     29  C   UNL A   1      43.142  24.332  34.817  1.00  0.00     0.027 A 
ATOM     30  C   UNL A   1      45.391  25.121  35.170  1.00  0.00     0.006 A 
ATOM     31  C   UNL A   1      43.543  23.000  34.951  1.00  0.00     0.002 A 
ATOM     32  C   UNL A   1      45.781  23.755  35.262  1.00  0.00     0.011 A 
ATOM     33  C   UNL A   1      44.872  22.708  35.163  1.00  0.00     0.001 A 
BRANCH  30  34
ATOM     34  C   UNL A   1      46.466  26.073  35.489  1.00  0.00    -0.016 A 
ATOM     35  C   UNL A   1      46.587  27.283  34.788  1.00  0.00     0.009 A 
ATOM     36  C   UNL A   1      47.463  25.735  36.418  1.00  0.00     0.009 A 
ATOM     37  C   UNL A   1      47.644  28.156  35.051  1.00  0.00     0.001 A 
ATOM     38  C   UNL A   1      48.524  26.606  36.678  1.00  0.00     0.001 A 
ATOM     39  C   UNL A   1      48.609  27.820  35.999  1.00  0.00     0.000 A 
ENDBRANCH  30  34
ENDBRANCH  26  28
ENDBRANCH  14  17
ENDBRANCH  11  13
ENDBRANCH   6   7
ENDBRANCH   5   6
ENDBRANCH   2   5
BRANCH   3  40
ATOM     40  C   UNL A   1      33.368  35.276  30.472  1.00  0.00     0.116 C 
BRANCH  40  41
ATOM     41  C   UNL A   1      34.241  34.705  29.363  1.00  0.00     0.023 C 
BRANCH  41  42
ATOM     42  C   UNL A   1      34.352  33.179  29.355  1.00  0.00     0.023 C 
BRANCH  42  43
ATOM     43  C   UNL A   1      34.654  32.541  28.001  1.00  0.00     0.116 C 
BRANCH  43  44
ATOM     44  N   UNL A   1      34.006  31.252  27.814  1.00  0.00    -0.352 N 
ATOM     45  C   UNL A   1      34.545  29.987  27.840  1.00  0.00     0.251 C 
ATOM     46  H   UNL A   1      33.038  31.291  27.644  1.00  0.00     0.163 HD
ATOM     47  O   UNL A   1      33.851  29.021  27.538  1.00  0.00    -0.269 OA
BRANCH  45  48
ATOM     48  C   UNL A   1      35.967  29.783  28.195  1.00  0.00     0.039 A 
ATOM     49  C   UNL A   1      36.279  29.345  29.486  1.00  0.00     0.014 A 
ATOM     50  C   UNL A   1      36.991  30.025  27.275  1.00  0.00     0.014 A 
ATOM     51  C   UNL A   1      37.607  29.077  29.830  1.00  0.00     0.010 A 
ATOM     52  C   UNL A   1      38.306  29.693  27.596  1.00  0.00     0.010 A 
ATOM     53  C   UNL A   1      38.628  29.210  28.875  1.00  0.00    -0.014 A 
BRANCH  53  54
ATOM     54  C   UNL A   1      40.031  28.834  29.188  1.00  0.00     0.031 A 
ATOM     55  C   UNL A   1      40.926  29.785  29.931  1.00  0.00     0.074 A 
ATOM     56  C   UNL A   1      40.521  27.660  28.741  1.00  0.00     0.049 A 
ATOM     57  N   UNL A   1      42.198  29.669  30.221  1.00  0.00    -0.248 NA
ATOM     58  C   UNL A   1      40.318  31.043  30.386  1.00  0.00     0.031 C 
ATOM     59  C   UNL A   1      39.770  26.669  27.969  1.00  0.00     0.029 A 
ATOM     60  N   UNL A   1      41.774  27.110  28.858  1.00  0.00    -0.354 N 
ATOM     61  C   UNL A   1      42.544  30.843  30.878  1.00  0.00     0.074 A 
ATOM     62  C   UNL A   1      41.361  31.678  30.900  1.00  0.00     0.031 C 
ATOM     63  C   UNL A   1      40.570  25.627  27.694  1.00  0.00     0.029 A 
ATOM     64  C   UNL A   1      41.899  25.890  28.238  1.00  0.00     0.049 A 
ATOM     65  H   UNL A   1      42.512  27.548  29.340  1.00  0.00     0.167 HD
ATOM     66  C   UNL A   1      43.732  31.184  31.433  1.00  0.00     0.037 A 
ATOM     67  C   UNL A   1      42.967  25.080  28.111  1.00  0.00     0.037 A 
ATOM     68  C   UNL A   1      44.901  30.344  31.432  1.00  0.00     0.049 A 
ATOM     69  C   UNL A   1      44.277  25.483  28.734  1.00  0.00     0.074 A 
ATOM     70  C   UNL A   1      46.134  30.579  32.015  1.00  0.00     0.029 A 
ATOM     71  N   UNL A   1      44.982  29.104  30.815  1.00  0.00    -0.354 N 
ATOM     72  N   UNL A   1      44.574  26.569  29.405  1.00  0.00    -0.248 NA
ATOM     73  C   UNL A   1      45.397  24.543  28.588  1.00  0.00     0.031 C 
ATOM     74  C   UNL A   1      46.974  29.501  31.716  1.00  0.00     0.029 A 
ATOM     75  C   UNL A   1      46.250  28.571  30.987  1.00  0.00     0.049 A 
ATOM     76  H   UNL A   1      44.248  28.666  30.327  1.00  0.00     0.167 HD
ATOM     77  C   UNL A   1      45.903  26.432  29.783  1.00  0.00     0.074 A 
ATOM     78  C   UNL A   1      46.352  25.152  29.279  1.00  0.00     0.031 C 
ATOM     79  C   UNL A   1      46.682  27.292  30.485  1.00  0.00     0.037 A 
BRANCH  66  80
ATOM     80  C   UNL A   1      43.826  32.529  32.096  1.00  0.00     0.064 A 
ATOM     81  C   UNL A   1      44.302  33.655  31.407  1.00  0.00     0.173 A 
ATOM     82  C   UNL A   1      43.403  32.701  33.422  1.00  0.00     0.173 A 
ATOM     83  F   UNL A   1      44.729  33.541  30.141  1.00  0.00    -0.203 F 
ATOM     84  C   UNL A   1      44.381  34.896  32.033  1.00  0.00     0.198 A 
ATOM     85  C   UNL A   1      43.455  33.950  34.035  1.00  0.00     0.198 A 
ATOM     86  F   UNL A   1      42.933  31.658  34.124  1.00  0.00    -0.203 F 
ATOM     87  F   UNL A   1      44.888  35.947  31.372  1.00  0.00    -0.200 F 
ATOM     88  C   UNL A   1      43.952  35.045  33.343  1.00  0.00     0.200 A 
ATOM     89  F   UNL A   1      43.028  34.095  35.297  1.00  0.00    -0.200 F 
ATOM     90  F   UNL A   1      44.024  36.241  33.942  1.00  0.00    -0.200 F 
ENDBRANCH  66  80
BRANCH  67  91
ATOM     91  C   UNL A   1      42.838  23.794  27.380  1.00  0.00     0.064 A 
ATOM     92  C   UNL A   1      42.351  22.648  28.022  1.00  0.00     0.173 A 
ATOM     93  C   UNL A   1      43.197  23.684  26.028  1.00  0.00     0.173 A 
ATOM     94  F   UNL A   1      42.016  22.698  29.319  1.00  0.00    -0.203 F 
ATOM     95  C   UNL A   1      42.244  21.434  27.345  1.00  0.00     0.198 A 
ATOM     96  C   UNL A   1      43.064  22.478  25.345  1.00  0.00     0.198 A 
ATOM     97  F   UNL A   1      43.664  24.755  25.369  1.00  0.00    -0.203 F 
ATOM     98  F   UNL A   1      41.817  20.343  27.994  1.00  0.00    -0.200 F 
ATOM     99  C   UNL A   1      42.595  21.352  26.006  1.00  0.00     0.200 A 
ATOM    100  F   UNL A   1      43.391  22.405  24.048  1.00  0.00    -0.200 F 
ATOM    101  F   UNL A   1      42.488  20.187  25.353  1.00  0.00    -0.200 F 
ENDBRANCH  67  91
BRANCH  79 102
ATOM    102  C   UNL A   1      48.090  26.864  30.777  1.00  0.00     0.064 A 
ATOM    103  C   UNL A   1      48.381  25.917  31.770  1.00  0.00     0.173 A 
ATOM    104  C   UNL A   1      49.158  27.379  30.026  1.00  0.00     0.173 A 
ATOM    105  F   UNL A   1      47.397  25.407  32.524  1.00  0.00    -0.203 F 
ATOM    106  C   UNL A   1      49.692  25.519  32.015  1.00  0.00     0.198 A 
ATOM    107  C   UNL A   1      50.465  26.957  30.256  1.00  0.00     0.198 A 
ATOM    108  F   UNL A   1      48.932  28.283  29.061  1.00  0.00    -0.203 F 
ATOM    109  F   UNL A   1      49.952  24.647  32.999  1.00  0.00    -0.200 F 
ATOM    110  C   UNL A   1      50.731  26.033  31.254  1.00  0.00     0.200 A 
ATOM    111  F   UNL A   1      51.466  27.446  29.510  1.00  0.00    -0.200 F 
ATOM    112  F   UNL A   1      51.993  25.643  31.488  1.00  0.00    -0.200 F 
ENDBRANCH  79 102
ENDBRANCH  53  54
ENDBRANCH  45  48
ENDBRANCH  43  44
ENDBRANCH  42  43
ENDBRANCH  41  42
ENDBRANCH  40  41
ENDBRANCH   3  40
TORSDOF 17
ENDMDL
MODEL 3
REMARK VINA RESULT:     -10.2      1.101      2.694
REMARK SMILES O=C(COc1cccc(NC(=O)c2ccc3c(c2)C(=O)N(c2ccccc2-c2ccccc2)C3=O)c1)NCCCCNC(=O)c1ccc(-c2c3nc(c(-c4c(F)c(F)c(F)c(F)c4F)c4ccc([nH]4)c(-c4c(F)c(F)c(F)c(F)c4F)c4nc(c(-c5c(F)c(F)c(F)c(F)c5F)c5ccc2[nH]5)C=C4)C=C3)cc1
REMARK SMILES IDX 1 1 2 2 37 3 3 5 4 6 5 7 6 8 36 9 7 10 9 11 8 12 10 13 11 14
REMARK SMILES IDX 12 16 13 17 14 18 18 19 15 20 17 21 16 22 19 23 34 24 20 25
REMARK SMILES IDX 21 26 35 27 22 28 23 29 27 30 24 31 26 32 25 33 28 34 29 35
REMARK SMILES IDX 33 36 30 37 32 38 31 39 38 40 39 41 40 42 41 43 42 44 43 45
REMARK SMILES IDX 44 47 45 48 46 49 107 50 47 51 106 52 48 53 49 54 50 55
REMARK SMILES IDX 100 56 51 57 105 58 99 59 101 60 52 61 104 62 98 63 97 64
REMARK SMILES IDX 53 66 85 67 65 68 84 69 66 70 69 71 83 72 102 73 67 74 68 75
REMARK SMILES IDX 82 77 103 78 70 79 54 80 55 81 63 82 56 83 57 84 61 85 64 86
REMARK SMILES IDX 58 87 59 88 62 89 60 90 86 91 87 92 95 93 88 94 89 95 93 96
REMARK SMILES IDX 96 97 90 98 91 99 94 100 92 101 71 102 72 103 80 104 73 105
REMARK SMILES IDX 74 106 78 107 81 108 75 109 76 110 79 111 77 112
REMARK H PARENT 37 4 10 15 42 46 101 65 69 76
REMARK Flexibility Score: inf
ROOT
ATOM      1  O   UNL A   1      31.987  35.678  31.899  1.00  0.00    -0.271 OA
ATOM      2  C   UNL A   1      33.196  35.575  31.717  1.00  0.00     0.257 C 
ATOM      3  N   UNL A   1      33.800  35.739  30.486  1.00  0.00    -0.353 N 
ATOM      4  H   UNL A   1      34.781  35.812  30.441  1.00  0.00     0.163 HD
ENDROOT
BRANCH   2   5
ATOM      5  C   UNL A   1      34.160  35.205  32.847  1.00  0.00     0.329 C 
BRANCH   5   6
ATOM      6  O   UNL A   1      34.944  34.037  32.642  1.00  0.00    -0.484 OA
BRANCH   6   7
ATOM      7  C   UNL A   1      36.286  34.221  32.433  1.00  0.00     0.122 A 
ATOM      8  C   UNL A   1      36.733  33.861  31.166  1.00  0.00     0.046 A 
ATOM      9  C   UNL A   1      37.214  34.573  33.427  1.00  0.00     0.072 A 
ATOM     10  C   UNL A   1      38.095  33.835  30.900  1.00  0.00     0.006 A 
ATOM     11  C   UNL A   1      38.595  34.513  33.186  1.00  0.00     0.045 A 
ATOM     12  C   UNL A   1      39.012  34.136  31.911  1.00  0.00     0.026 A 
BRANCH  11  13
ATOM     13  N   UNL A   1      39.458  34.721  34.295  1.00  0.00    -0.322 N 
ATOM     14  C   UNL A   1      39.909  33.888  35.305  1.00  0.00     0.255 C 
ATOM     15  H   UNL A   1      39.804  35.640  34.358  1.00  0.00     0.170 HD
ATOM     16  O   UNL A   1      40.430  34.335  36.322  1.00  0.00    -0.269 OA
BRANCH  14  17
ATOM     17  C   UNL A   1      39.910  32.435  35.087  1.00  0.00     0.041 A 
ATOM     18  C   UNL A   1      39.402  31.883  33.889  1.00  0.00     0.015 A 
ATOM     19  C   UNL A   1      40.677  31.687  35.977  1.00  0.00     0.028 A 
ATOM     20  C   UNL A   1      39.858  30.624  33.462  1.00  0.00     0.015 A 
ATOM     21  C   UNL A   1      41.107  30.467  35.513  1.00  0.00     0.054 A 
ATOM     22  C   UNL A   1      40.782  29.979  34.272  1.00  0.00     0.053 A 
ATOM     23  C   UNL A   1      42.211  29.694  36.028  1.00  0.00     0.266 C 
ATOM     24  C   UNL A   1      41.764  28.929  33.973  1.00  0.00     0.266 C 
ATOM     25  O   UNL A   1      42.506  29.790  37.204  1.00  0.00    -0.268 OA
ATOM     26  N   UNL A   1      42.727  28.985  34.965  1.00  0.00    -0.242 N 
ATOM     27  O   UNL A   1      41.585  28.187  33.026  1.00  0.00    -0.268 OA
BRANCH  26  28
ATOM     28  C   UNL A   1      44.079  28.478  34.946  1.00  0.00     0.060 A 
ATOM     29  C   UNL A   1      45.129  29.388  34.654  1.00  0.00     0.027 A 
ATOM     30  C   UNL A   1      44.449  27.112  35.057  1.00  0.00     0.006 A 
ATOM     31  C   UNL A   1      46.461  29.004  34.482  1.00  0.00     0.002 A 
ATOM     32  C   UNL A   1      45.820  26.751  34.916  1.00  0.00     0.011 A 
ATOM     33  C   UNL A   1      46.812  27.680  34.624  1.00  0.00     0.001 A 
BRANCH  30  34
ATOM     34  C   UNL A   1      43.539  25.963  35.176  1.00  0.00    -0.016 A 
ATOM     35  C   UNL A   1      42.496  25.966  36.116  1.00  0.00     0.009 A 
ATOM     36  C   UNL A   1      43.768  24.793  34.434  1.00  0.00     0.009 A 
ATOM     37  C   UNL A   1      41.671  24.849  36.268  1.00  0.00     0.001 A 
ATOM     38  C   UNL A   1      42.947  23.674  34.590  1.00  0.00     0.001 A 
ATOM     39  C   UNL A   1      41.893  23.706  35.502  1.00  0.00     0.000 A 
ENDBRANCH  30  34
ENDBRANCH  26  28
ENDBRANCH  14  17
ENDBRANCH  11  13
ENDBRANCH   6   7
ENDBRANCH   5   6
ENDBRANCH   2   5
BRANCH   3  40
ATOM     40  C   UNL A   1      33.035  35.807  29.261  1.00  0.00     0.116 C 
BRANCH  40  41
ATOM     41  C   UNL A   1      33.193  34.570  28.387  1.00  0.00     0.023 C 
BRANCH  41  42
ATOM     42  C   UNL A   1      33.995  33.433  29.025  1.00  0.00     0.023 C 
BRANCH  42  43
ATOM     43  C   UNL A   1      34.723  32.507  28.054  1.00  0.00     0.116 C 
BRANCH  43  44
ATOM     44  N   UNL A   1      34.084  31.209  27.907  1.00  0.00    -0.352 N 
ATOM     45  C   UNL A   1      34.639  29.950  27.917  1.00  0.00     0.251 C 
ATOM     46  H   UNL A   1      33.108  31.235  27.781  1.00  0.00     0.163 HD
ATOM     47  O   UNL A   1      33.944  28.974  27.655  1.00  0.00    -0.269 OA
BRANCH  45  48
ATOM     48  C   UNL A   1      36.079  29.766  28.207  1.00  0.00     0.039 A 
ATOM     49  C   UNL A   1      36.454  29.328  29.480  1.00  0.00     0.014 A 
ATOM     50  C   UNL A   1      37.056  30.029  27.244  1.00  0.00     0.014 A 
ATOM     51  C   UNL A   1      37.800  29.078  29.764  1.00  0.00     0.010 A 
ATOM     52  C   UNL A   1      38.390  29.715  27.504  1.00  0.00     0.010 A 
ATOM     53  C   UNL A   1      38.775  29.231  28.765  1.00  0.00    -0.014 A 
BRANCH  53  54
ATOM     54  C   UNL A   1      40.196  28.875  29.014  1.00  0.00     0.031 A 
ATOM     55  C   UNL A   1      41.125  29.859  29.666  1.00  0.00     0.074 A 
ATOM     56  C   UNL A   1      40.669  27.687  28.587  1.00  0.00     0.049 A 
ATOM     57  N   UNL A   1      42.412  29.763  29.888  1.00  0.00    -0.248 NA
ATOM     58  C   UNL A   1      40.534  31.133  30.104  1.00  0.00     0.031 C 
ATOM     59  C   UNL A   1      39.883  26.662  27.899  1.00  0.00     0.029 A 
ATOM     60  N   UNL A   1      41.930  27.148  28.656  1.00  0.00    -0.354 N 
ATOM     61  C   UNL A   1      42.786  30.963  30.477  1.00  0.00     0.074 A 
ATOM     62  C   UNL A   1      41.600  31.793  30.532  1.00  0.00     0.031 C 
ATOM     63  C   UNL A   1      40.674  25.613  27.622  1.00  0.00     0.029 A 
ATOM     64  C   UNL A   1      42.030  25.905  28.079  1.00  0.00     0.049 A 
ATOM     65  H   UNL A   1      42.691  27.608  29.077  1.00  0.00     0.167 HD
ATOM     66  C   UNL A   1      44.000  31.333  30.950  1.00  0.00     0.037 A 
ATOM     67  C   UNL A   1      43.095  25.096  27.925  1.00  0.00     0.037 A 
ATOM     68  C   UNL A   1      45.173  30.499  30.916  1.00  0.00     0.049 A 
ATOM     69  C   UNL A   1      44.434  25.529  28.456  1.00  0.00     0.074 A 
ATOM     70  C   UNL A   1      46.436  30.764  31.420  1.00  0.00     0.029 A 
ATOM     71  N   UNL A   1      45.229  29.235  30.347  1.00  0.00    -0.354 N 
ATOM     72  N   UNL A   1      44.761  26.643  29.065  1.00  0.00    -0.248 NA
ATOM     73  C   UNL A   1      45.551  24.590  28.285  1.00  0.00     0.031 C 
ATOM     74  C   UNL A   1      47.265  29.678  31.117  1.00  0.00     0.029 A 
ATOM     75  C   UNL A   1      46.508  28.716  30.469  1.00  0.00     0.049 A 
ATOM     76  H   UNL A   1      44.471  28.775  29.918  1.00  0.00     0.167 HD
ATOM     77  C   UNL A   1      46.109  26.529  29.373  1.00  0.00     0.074 A 
ATOM     78  C   UNL A   1      46.539  25.231  28.896  1.00  0.00     0.031 C 
ATOM     79  C   UNL A   1      46.920  27.420  29.994  1.00  0.00     0.037 A 
BRANCH  66  80
ATOM     80  C   UNL A   1      44.121  32.703  31.552  1.00  0.00     0.064 A 
ATOM     81  C   UNL A   1      44.553  33.802  30.793  1.00  0.00     0.173 A 
ATOM     82  C   UNL A   1      43.770  32.928  32.891  1.00  0.00     0.173 A 
ATOM     83  F   UNL A   1      44.911  33.639  29.511  1.00  0.00    -0.203 F 
ATOM     84  C   UNL A   1      44.658  35.068  31.363  1.00  0.00     0.198 A 
ATOM     85  C   UNL A   1      43.848  34.201  33.449  1.00  0.00     0.198 A 
ATOM     86  F   UNL A   1      43.346  31.912  33.659  1.00  0.00    -0.203 F 
ATOM     87  F   UNL A   1      45.121  36.093  30.634  1.00  0.00    -0.200 F 
ATOM     88  C   UNL A   1      44.300  35.269  32.688  1.00  0.00     0.200 A 
ATOM     89  F   UNL A   1      43.489  34.395  34.726  1.00  0.00    -0.200 F 
ATOM     90  F   UNL A   1      44.396  36.489  33.233  1.00  0.00    -0.200 F 
ENDBRANCH  66  80
BRANCH  67  91
ATOM     91  C   UNL A   1      42.933  23.780  27.254  1.00  0.00     0.064 A 
ATOM     92  C   UNL A   1      42.383  22.687  27.937  1.00  0.00     0.173 A 
ATOM     93  C   UNL A   1      43.325  23.588  25.921  1.00  0.00     0.173 A 
ATOM     94  F   UNL A   1      42.015  22.816  29.220  1.00  0.00    -0.203 F 
ATOM     95  C   UNL A   1      42.246  21.446  27.318  1.00  0.00     0.198 A 
ATOM     96  C   UNL A   1      43.162  22.355  25.294  1.00  0.00     0.198 A 
ATOM     97  F   UNL A   1      43.854  24.605  25.224  1.00  0.00    -0.203 F 
ATOM     98  F   UNL A   1      41.757  20.407  28.008  1.00  0.00    -0.200 F 
ATOM     99  C   UNL A   1      42.630  21.283  25.996  1.00  0.00     0.200 A 
ATOM    100  F   UNL A   1      43.522  22.204  24.013  1.00  0.00    -0.200 F 
ATOM    101  F   UNL A   1      42.494  20.091  25.399  1.00  0.00    -0.200 F 
ENDBRANCH  67  91
BRANCH  79 102
ATOM    102  C   UNL A   1      48.346  27.011  30.223  1.00  0.00     0.064 A 
ATOM    103  C   UNL A   1      49.377  27.427  29.369  1.00  0.00     0.173 A 
ATOM    104  C   UNL A   1      48.689  26.224  31.334  1.00  0.00     0.173 A 
ATOM    105  F   UNL A   1      49.099  28.168  28.286  1.00  0.00    -0.203 F 
ATOM    106  C   UNL A   1      50.697  27.052  29.606  1.00  0.00     0.198 A 
ATOM    107  C   UNL A   1      50.013  25.875  31.583  1.00  0.00     0.198 A 
ATOM    108  F   UNL A   1      47.739  25.805  32.184  1.00  0.00    -0.203 F 
ATOM    109  F   UNL A   1      51.660  27.423  28.752  1.00  0.00    -0.200 F 
ATOM    110  C   UNL A   1      51.014  26.282  30.716  1.00  0.00     0.200 A 
ATOM    111  F   UNL A   1      50.319  25.142  32.662  1.00  0.00    -0.200 F 
ATOM    112  F   UNL A   1      52.287  25.927  30.945  1.00  0.00    -0.200 F 
ENDBRANCH  79 102
ENDBRANCH  53  54
ENDBRANCH  45  48
ENDBRANCH  43  44
ENDBRANCH  42  43
ENDBRANCH  41  42
ENDBRANCH  40  41
ENDBRANCH   3  40
TORSDOF 17
ENDMDL
