MODEL 1
REMARK VINA RESULT:     -12.4      0.000      0.000
REMARK SMILES CC(C)N(CC(=O)NCCCCNC(=O)c1ccc(-c2c3nc(c(-c4c(F)c(F)c(F)c(F)c4F)c4ccc([nH]4)c(-c4c(F)c(F)c(F)c(F)c4F)c4nc(c(-c5c(F)c(F)c(F)c(F)c5F)c5ccc2[nH]5)C=C4)C=C3)cc1)C(=O)NC1C(C)(C)C1(C)C
REMARK SMILES IDX 10 1 9 2 8 3 6 4 7 5 5 7 4 8 2 9 1 10 3 11 79 12 80 13 81 14
REMARK SMILES IDX 82 16 83 17 86 18 84 19 85 20 87 21 88 22 11 23 12 24 13 25
REMARK SMILES IDX 14 26 15 28 16 29 17 30 78 31 18 32 77 33 19 34 20 35 21 36
REMARK SMILES IDX 71 37 22 38 76 39 70 40 72 41 23 42 75 43 69 44 68 45 24 47
REMARK SMILES IDX 56 48 36 49 55 50 37 51 40 52 54 53 73 54 38 55 39 56 53 58
REMARK SMILES IDX 74 59 41 60 25 61 26 62 34 63 27 64 28 65 32 66 35 67 29 68
REMARK SMILES IDX 30 69 33 70 31 71 57 72 58 73 66 74 59 75 60 76 64 77 67 78
REMARK SMILES IDX 61 79 62 80 65 81 63 82 42 83 43 84 51 85 44 86 45 87 49 88
REMARK SMILES IDX 52 89 46 90 47 91 50 92 48 93
REMARK H PARENT 8 6 81 15 13 27 72 46 40 57
REMARK Flexibility Score: inf
ROOT
ATOM      1  C   UNL A   1      31.928  30.517  26.692  1.00  0.00     0.023 C 
ENDROOT
BRANCH   1   2
ATOM      2  C   UNL A   1      31.729  29.922  25.303  1.00  0.00     0.116 C 
BRANCH   2   3
ATOM      3  N   UNL A   1      32.946  29.660  24.602  1.00  0.00    -0.355 N 
ATOM      4  C   UNL A   1      33.165  28.748  23.631  1.00  0.00     0.239 C 
ATOM      5  O   UNL A   1      34.137  28.964  22.893  1.00  0.00    -0.273 OA
ATOM      6  H   UNL A   1      33.720  30.213  24.859  1.00  0.00     0.163 HD
BRANCH   4   7
ATOM      7  C   UNL A   1      32.245  27.539  23.351  1.00  0.00     0.221 C 
BRANCH   7   8
ATOM      8  N   UNL A   1      32.519  26.074  23.445  1.00  0.00    -0.313 N 
BRANCH   8   9
ATOM      9  C   UNL A   1      31.445  25.319  24.170  1.00  0.00     0.081 C 
ATOM     10  C   UNL A   1      30.609  26.259  25.051  1.00  0.00     0.031 C 
ATOM     11  C   UNL A   1      30.515  24.423  23.339  1.00  0.00     0.031 C 
ENDBRANCH   8   9
BRANCH   8  12
ATOM     12  C   UNL A   1      33.429  25.298  22.743  1.00  0.00     0.318 C 
ATOM     13  O   UNL A   1      33.742  25.608  21.582  1.00  0.00    -0.249 OA
ATOM     14  N   UNL A   1      34.122  24.202  23.152  1.00  0.00    -0.334 N 
ATOM     15  H   UNL A   1      34.655  23.886  22.387  1.00  0.00     0.165 HD
BRANCH  14  16
ATOM     16  C   UNL A   1      34.391  23.309  24.274  1.00  0.00     0.096 C 
ATOM     17  C   UNL A   1      33.965  21.876  24.335  1.00  0.00    -0.007 C 
ATOM     18  C   UNL A   1      35.559  22.359  24.236  1.00  0.00    -0.007 C 
ATOM     19  C   UNL A   1      33.672  21.125  25.641  1.00  0.00     0.014 C 
ATOM     20  C   UNL A   1      32.776  21.588  23.418  1.00  0.00     0.014 C 
ATOM     21  C   UNL A   1      36.580  22.880  23.237  1.00  0.00     0.014 C 
ATOM     22  C   UNL A   1      36.370  22.003  25.492  1.00  0.00     0.014 C 
ENDBRANCH  14  16
ENDBRANCH   8  12
ENDBRANCH   7   8
ENDBRANCH   4   7
ENDBRANCH   2   3
ENDBRANCH   1   2
BRANCH   1  23
ATOM     23  C   UNL A   1      31.580  31.992  26.862  1.00  0.00     0.023 C 
BRANCH  23  24
ATOM     24  C   UNL A   1      32.736  32.910  27.223  1.00  0.00     0.116 C 
BRANCH  24  25
ATOM     25  N   UNL A   1      32.337  34.212  27.732  1.00  0.00    -0.352 N 
ATOM     26  C   UNL A   1      32.979  35.039  28.621  1.00  0.00     0.251 C 
ATOM     27  H   UNL A   1      31.479  34.553  27.388  1.00  0.00     0.163 HD
ATOM     28  O   UNL A   1      32.524  36.136  28.885  1.00  0.00    -0.269 OA
BRANCH  26  29
ATOM     29  C   UNL A   1      34.176  34.537  29.324  1.00  0.00     0.039 A 
ATOM     30  C   UNL A   1      33.976  33.874  30.537  1.00  0.00     0.014 A 
ATOM     31  C   UNL A   1      35.452  34.638  28.768  1.00  0.00     0.014 A 
ATOM     32  C   UNL A   1      35.047  33.237  31.155  1.00  0.00     0.010 A 
ATOM     33  C   UNL A   1      36.503  33.934  29.342  1.00  0.00     0.010 A 
ATOM     34  C   UNL A   1      36.307  33.223  30.536  1.00  0.00    -0.014 A 
BRANCH  34  35
ATOM     35  C   UNL A   1      37.432  32.470  31.132  1.00  0.00     0.031 A 
ATOM     36  C   UNL A   1      37.918  32.825  32.506  1.00  0.00     0.074 A 
ATOM     37  C   UNL A   1      38.043  31.510  30.411  1.00  0.00     0.049 A 
ATOM     38  N   UNL A   1      38.926  32.334  33.179  1.00  0.00    -0.248 NA
ATOM     39  C   UNL A   1      37.192  33.896  33.207  1.00  0.00     0.031 C 
ATOM     40  C   UNL A   1      37.686  31.118  29.046  1.00  0.00     0.029 A 
ATOM     41  N   UNL A   1      39.097  30.690  30.726  1.00  0.00    -0.354 N 
ATOM     42  C   UNL A   1      38.963  33.044  34.370  1.00  0.00     0.074 A 
ATOM     43  C   UNL A   1      37.913  34.037  34.309  1.00  0.00     0.031 C 
ATOM     44  C   UNL A   1      38.491  30.120  28.649  1.00  0.00     0.029 A 
ATOM     45  C   UNL A   1      39.439  29.823  29.718  1.00  0.00     0.049 A 
ATOM     46  H   UNL A   1      39.564  30.722  31.591  1.00  0.00     0.167 HD
ATOM     47  C   UNL A   1      39.782  32.863  35.431  1.00  0.00     0.037 A 
ATOM     48  C   UNL A   1      40.412  28.894  29.667  1.00  0.00     0.037 A 
ATOM     49  C   UNL A   1      40.800  31.850  35.498  1.00  0.00     0.049 A 
ATOM     50  C   UNL A   1      41.297  28.704  30.870  1.00  0.00     0.074 A 
ATOM     51  C   UNL A   1      41.652  31.548  36.544  1.00  0.00     0.029 A 
ATOM     52  N   UNL A   1      41.096  30.965  34.471  1.00  0.00    -0.354 N 
ATOM     53  N   UNL A   1      41.285  29.342  32.015  1.00  0.00    -0.248 NA
ATOM     54  C   UNL A   1      42.327  27.661  30.775  1.00  0.00     0.031 C 
ATOM     55  C   UNL A   1      42.485  30.501  36.141  1.00  0.00     0.029 A 
ATOM     56  C   UNL A   1      42.125  30.122  34.856  1.00  0.00     0.049 A 
ATOM     57  H   UNL A   1      40.641  30.939  33.598  1.00  0.00     0.167 HD
ATOM     58  C   UNL A   1      42.282  28.761  32.785  1.00  0.00     0.074 A 
ATOM     59  C   UNL A   1      42.870  27.708  31.983  1.00  0.00     0.031 C 
ATOM     60  C   UNL A   1      42.680  29.073  34.043  1.00  0.00     0.037 A 
BRANCH  47  61
ATOM     61  C   UNL A   1      39.598  33.771  36.610  1.00  0.00     0.064 A 
ATOM     62  C   UNL A   1      38.799  33.400  37.701  1.00  0.00     0.173 A 
ATOM     63  C   UNL A   1      40.254  35.010  36.666  1.00  0.00     0.173 A 
ATOM     64  F   UNL A   1      38.138  32.232  37.688  1.00  0.00    -0.203 F 
ATOM     65  C   UNL A   1      38.643  34.246  38.796  1.00  0.00     0.198 A 
ATOM     66  C   UNL A   1      40.117  35.842  37.775  1.00  0.00     0.198 A 
ATOM     67  F   UNL A   1      41.031  35.411  35.649  1.00  0.00    -0.203 F 
ATOM     68  F   UNL A   1      37.837  33.890  39.806  1.00  0.00    -0.200 F 
ATOM     69  C   UNL A   1      39.308  35.462  38.835  1.00  0.00     0.200 A 
ATOM     70  F   UNL A   1      40.768  37.013  37.816  1.00  0.00    -0.200 F 
ATOM     71  F   UNL A   1      39.163  36.272  39.892  1.00  0.00    -0.200 F 
ENDBRANCH  47  61
BRANCH  48  72
ATOM     72  C   UNL A   1      40.585  28.055  28.454  1.00  0.00     0.064 A 
ATOM     73  C   UNL A   1      39.980  26.793  28.359  1.00  0.00     0.173 A 
ATOM     74  C   UNL A   1      41.369  28.485  27.374  1.00  0.00     0.173 A 
ATOM     75  F   UNL A   1      39.237  26.331  29.375  1.00  0.00    -0.203 F 
ATOM     76  C   UNL A   1      40.175  25.984  27.242  1.00  0.00     0.198 A 
ATOM     77  C   UNL A   1      41.542  27.685  26.246  1.00  0.00     0.198 A 
ATOM     78  F   UNL A   1      41.965  29.687  27.412  1.00  0.00    -0.203 F 
ATOM     79  F   UNL A   1      39.627  24.762  27.200  1.00  0.00    -0.200 F 
ATOM     80  C   UNL A   1      40.952  26.432  26.185  1.00  0.00     0.200 A 
ATOM     81  F   UNL A   1      42.283  28.127  25.220  1.00  0.00    -0.200 F 
ATOM     82  F   UNL A   1      41.142  25.651  25.112  1.00  0.00    -0.200 F 
ENDBRANCH  48  72
BRANCH  60  83
ATOM     83  C   UNL A   1      43.776  28.241  34.639  1.00  0.00     0.064 A 
ATOM     84  C   UNL A   1      45.119  28.632  34.556  1.00  0.00     0.173 A 
ATOM     85  C   UNL A   1      43.471  27.063  35.338  1.00  0.00     0.173 A 
ATOM     86  F   UNL A   1      45.459  29.742  33.884  1.00  0.00    -0.203 F 
ATOM     87  C   UNL A   1      46.123  27.860  35.133  1.00  0.00     0.198 A 
ATOM     88  C   UNL A   1      44.474  26.309  35.938  1.00  0.00     0.198 A 
ATOM     89  F   UNL A   1      42.198  26.653  35.450  1.00  0.00    -0.203 F 
ATOM     90  F   UNL A   1      47.405  28.228  35.006  1.00  0.00    -0.200 F 
ATOM     91  C   UNL A   1      45.800  26.704  35.830  1.00  0.00     0.200 A 
ATOM     92  F   UNL A   1      44.159  25.200  36.621  1.00  0.00    -0.200 F 
ATOM     93  F   UNL A   1      46.767  25.967  36.392  1.00  0.00    -0.200 F 
ENDBRANCH  60  83
ENDBRANCH  34  35
ENDBRANCH  26  29
ENDBRANCH  24  25
ENDBRANCH  23  24
ENDBRANCH   1  23
TORSDOF 15
ENDMDL
MODEL 2
REMARK VINA RESULT:     -12.4      0.063      1.603
REMARK SMILES CC(C)N(CC(=O)NCCCCNC(=O)c1ccc(-c2c3nc(c(-c4c(F)c(F)c(F)c(F)c4F)c4ccc([nH]4)c(-c4c(F)c(F)c(F)c(F)c4F)c4nc(c(-c5c(F)c(F)c(F)c(F)c5F)c5ccc2[nH]5)C=C4)C=C3)cc1)C(=O)NC1C(C)(C)C1(C)C
REMARK SMILES IDX 10 1 9 2 8 3 6 4 7 5 5 7 4 8 2 9 1 10 3 11 79 12 80 13 81 14
REMARK SMILES IDX 82 16 83 17 86 18 84 19 85 20 87 21 88 22 11 23 12 24 13 25
REMARK SMILES IDX 14 26 15 28 16 29 17 30 78 31 18 32 77 33 19 34 20 35 21 36
REMARK SMILES IDX 71 37 22 38 76 39 70 40 72 41 23 42 75 43 69 44 68 45 24 47
REMARK SMILES IDX 56 48 36 49 55 50 37 51 40 52 54 53 73 54 38 55 39 56 53 58
REMARK SMILES IDX 74 59 41 60 25 61 26 62 34 63 27 64 28 65 32 66 35 67 29 68
REMARK SMILES IDX 30 69 33 70 31 71 57 72 58 73 66 74 59 75 60 76 64 77 67 78
REMARK SMILES IDX 61 79 62 80 65 81 63 82 42 83 43 84 51 85 44 86 45 87 49 88
REMARK SMILES IDX 52 89 46 90 47 91 50 92 48 93
REMARK H PARENT 8 6 81 15 13 27 72 46 40 57
REMARK Flexibility Score: inf
ROOT
ATOM      1  C   UNL A   1      31.814  30.564  26.649  1.00  0.00     0.023 C 
ENDROOT
BRANCH   1   2
ATOM      2  C   UNL A   1      31.667  29.917  25.276  1.00  0.00     0.116 C 
BRANCH   2   3
ATOM      3  N   UNL A   1      32.909  29.671  24.614  1.00  0.00    -0.355 N 
ATOM      4  C   UNL A   1      33.166  28.771  23.640  1.00  0.00     0.239 C 
ATOM      5  O   UNL A   1      34.161  29.001  22.938  1.00  0.00    -0.273 OA
ATOM      6  H   UNL A   1      33.671  30.225  24.902  1.00  0.00     0.163 HD
BRANCH   4   7
ATOM      7  C   UNL A   1      32.264  27.559  23.317  1.00  0.00     0.221 C 
BRANCH   7   8
ATOM      8  N   UNL A   1      32.537  26.095  23.423  1.00  0.00    -0.313 N 
BRANCH   8   9
ATOM      9  C   UNL A   1      31.469  25.349  24.164  1.00  0.00     0.081 C 
ATOM     10  C   UNL A   1      30.661  26.292  25.067  1.00  0.00     0.031 C 
ATOM     11  C   UNL A   1      30.513  24.469  23.346  1.00  0.00     0.031 C 
ENDBRANCH   8   9
BRANCH   8  12
ATOM     12  C   UNL A   1      33.441  25.312  22.721  1.00  0.00     0.318 C 
ATOM     13  O   UNL A   1      33.734  25.602  21.550  1.00  0.00    -0.249 OA
ATOM     14  N   UNL A   1      34.146  24.227  23.139  1.00  0.00    -0.334 N 
ATOM     15  H   UNL A   1      34.669  23.900  22.372  1.00  0.00     0.165 HD
BRANCH  14  16
ATOM     16  C   UNL A   1      34.437  23.355  24.272  1.00  0.00     0.096 C 
ATOM     17  C   UNL A   1      34.006  21.926  24.373  1.00  0.00    -0.007 C 
ATOM     18  C   UNL A   1      35.600  22.399  24.226  1.00  0.00    -0.007 C 
ATOM     19  C   UNL A   1      33.741  21.204  25.700  1.00  0.00     0.014 C 
ATOM     20  C   UNL A   1      32.795  21.626  23.491  1.00  0.00     0.014 C 
ATOM     21  C   UNL A   1      36.600  22.894  23.193  1.00  0.00     0.014 C 
ATOM     22  C   UNL A   1      36.439  22.065  25.469  1.00  0.00     0.014 C 
ENDBRANCH  14  16
ENDBRANCH   8  12
ENDBRANCH   7   8
ENDBRANCH   4   7
ENDBRANCH   2   3
ENDBRANCH   1   2
BRANCH   1  23
ATOM     23  C   UNL A   1      31.583  32.070  26.726  1.00  0.00     0.023 C 
BRANCH  23  24
ATOM     24  C   UNL A   1      32.730  32.890  27.293  1.00  0.00     0.116 C 
BRANCH  24  25
ATOM     25  N   UNL A   1      32.349  34.205  27.781  1.00  0.00    -0.352 N 
ATOM     26  C   UNL A   1      33.005  35.040  28.652  1.00  0.00     0.251 C 
ATOM     27  H   UNL A   1      31.494  34.549  27.434  1.00  0.00     0.163 HD
ATOM     28  O   UNL A   1      32.563  36.147  28.898  1.00  0.00    -0.269 OA
BRANCH  26  29
ATOM     29  C   UNL A   1      34.199  34.537  29.358  1.00  0.00     0.039 A 
ATOM     30  C   UNL A   1      33.994  33.867  30.566  1.00  0.00     0.014 A 
ATOM     31  C   UNL A   1      35.478  34.642  28.808  1.00  0.00     0.014 A 
ATOM     32  C   UNL A   1      35.064  33.228  31.186  1.00  0.00     0.010 A 
ATOM     33  C   UNL A   1      36.527  33.938  29.384  1.00  0.00     0.010 A 
ATOM     34  C   UNL A   1      36.327  33.220  30.573  1.00  0.00    -0.014 A 
BRANCH  34  35
ATOM     35  C   UNL A   1      37.451  32.466  31.170  1.00  0.00     0.031 A 
ATOM     36  C   UNL A   1      37.940  32.826  32.542  1.00  0.00     0.074 A 
ATOM     37  C   UNL A   1      38.057  31.501  30.453  1.00  0.00     0.049 A 
ATOM     38  N   UNL A   1      38.947  32.334  33.216  1.00  0.00    -0.248 NA
ATOM     39  C   UNL A   1      37.217  33.902  33.240  1.00  0.00     0.031 C 
ATOM     40  C   UNL A   1      37.698  31.106  29.089  1.00  0.00     0.029 A 
ATOM     41  N   UNL A   1      39.109  30.680  30.769  1.00  0.00    -0.354 N 
ATOM     42  C   UNL A   1      38.988  33.049  34.404  1.00  0.00     0.074 A 
ATOM     43  C   UNL A   1      37.941  34.045  34.340  1.00  0.00     0.031 C 
ATOM     44  C   UNL A   1      38.499  30.103  28.696  1.00  0.00     0.029 A 
ATOM     45  C   UNL A   1      39.447  29.807  29.765  1.00  0.00     0.049 A 
ATOM     46  H   UNL A   1      39.578  30.714  31.634  1.00  0.00     0.167 HD
ATOM     47  C   UNL A   1      39.808  32.870  35.465  1.00  0.00     0.037 A 
ATOM     48  C   UNL A   1      40.418  28.875  29.716  1.00  0.00     0.037 A 
ATOM     49  C   UNL A   1      40.823  31.854  35.534  1.00  0.00     0.049 A 
ATOM     50  C   UNL A   1      41.304  28.688  30.919  1.00  0.00     0.074 A 
ATOM     51  C   UNL A   1      41.676  31.554  36.581  1.00  0.00     0.029 A 
ATOM     52  N   UNL A   1      41.114  30.964  34.511  1.00  0.00    -0.354 N 
ATOM     53  N   UNL A   1      41.296  29.330  32.061  1.00  0.00    -0.248 NA
ATOM     54  C   UNL A   1      42.331  27.641  30.826  1.00  0.00     0.031 C 
ATOM     55  C   UNL A   1      42.505  30.502  36.180  1.00  0.00     0.029 A 
ATOM     56  C   UNL A   1      42.142  30.120  34.898  1.00  0.00     0.049 A 
ATOM     57  H   UNL A   1      40.659  30.936  33.638  1.00  0.00     0.167 HD
ATOM     58  C   UNL A   1      42.292  28.749  32.832  1.00  0.00     0.074 A 
ATOM     59  C   UNL A   1      42.876  27.691  32.033  1.00  0.00     0.031 C 
ATOM     60  C   UNL A   1      42.692  29.065  34.088  1.00  0.00     0.037 A 
BRANCH  47  61
ATOM     61  C   UNL A   1      39.628  33.783  36.640  1.00  0.00     0.064 A 
ATOM     62  C   UNL A   1      40.244  35.043  36.689  1.00  0.00     0.173 A 
ATOM     63  C   UNL A   1      38.805  33.412  37.714  1.00  0.00     0.173 A 
ATOM     64  F   UNL A   1      41.053  35.437  35.693  1.00  0.00    -0.203 F 
ATOM     65  C   UNL A   1      40.062  35.887  37.780  1.00  0.00     0.198 A 
ATOM     66  C   UNL A   1      38.604  34.271  38.792  1.00  0.00     0.198 A 
ATOM     67  F   UNL A   1      38.192  32.218  37.716  1.00  0.00    -0.203 F 
ATOM     68  F   UNL A   1      40.698  37.067  37.825  1.00  0.00    -0.200 F 
ATOM     69  C   UNL A   1      39.237  35.504  38.826  1.00  0.00     0.200 A 
ATOM     70  F   UNL A   1      37.799  33.904  39.798  1.00  0.00    -0.200 F 
ATOM     71  F   UNL A   1      39.057  36.322  39.873  1.00  0.00    -0.200 F 
ENDBRANCH  47  61
BRANCH  48  72
ATOM     72  C   UNL A   1      40.587  28.031  28.506  1.00  0.00     0.064 A 
ATOM     73  C   UNL A   1      41.365  28.470  27.425  1.00  0.00     0.173 A 
ATOM     74  C   UNL A   1      39.964  26.780  28.395  1.00  0.00     0.173 A 
ATOM     75  F   UNL A   1      41.965  29.669  27.477  1.00  0.00    -0.203 F 
ATOM     76  C   UNL A   1      41.490  27.703  26.269  1.00  0.00     0.198 A 
ATOM     77  C   UNL A   1      40.111  26.002  27.249  1.00  0.00     0.198 A 
ATOM     78  F   UNL A   1      39.213  26.311  29.404  1.00  0.00    -0.203 F 
ATOM     79  F   UNL A   1      42.198  28.170  25.232  1.00  0.00    -0.200 F 
ATOM     80  C   UNL A   1      40.867  26.467  26.183  1.00  0.00     0.200 A 
ATOM     81  F   UNL A   1      39.518  24.802  27.175  1.00  0.00    -0.200 F 
ATOM     82  F   UNL A   1      40.985  25.730  25.070  1.00  0.00    -0.200 F 
ENDBRANCH  48  72
BRANCH  60  83
ATOM     83  C   UNL A   1      43.787  28.233  34.686  1.00  0.00     0.064 A 
ATOM     84  C   UNL A   1      45.130  28.625  34.608  1.00  0.00     0.173 A 
ATOM     85  C   UNL A   1      43.480  27.053  35.382  1.00  0.00     0.173 A 
ATOM     86  F   UNL A   1      45.472  29.736  33.940  1.00  0.00    -0.203 F 
ATOM     87  C   UNL A   1      46.132  27.852  35.187  1.00  0.00     0.198 A 
ATOM     88  C   UNL A   1      44.482  26.299  35.983  1.00  0.00     0.198 A 
ATOM     89  F   UNL A   1      42.207  26.642  35.488  1.00  0.00    -0.203 F 
ATOM     90  F   UNL A   1      47.415  28.220  35.065  1.00  0.00    -0.200 F 
ATOM     91  C   UNL A   1      45.807  26.694  35.880  1.00  0.00     0.200 A 
ATOM     92  F   UNL A   1      44.165  25.188  36.662  1.00  0.00    -0.200 F 
ATOM     93  F   UNL A   1      46.773  25.956  36.444  1.00  0.00    -0.200 F 
ENDBRANCH  60  83
ENDBRANCH  34  35
ENDBRANCH  26  29
ENDBRANCH  24  25
ENDBRANCH  23  24
ENDBRANCH   1  23
TORSDOF 15
ENDMDL
MODEL 3
REMARK VINA RESULT:     -12.3      0.606      7.298
REMARK SMILES CC(C)N(CC(=O)NCCCCNC(=O)c1ccc(-c2c3nc(c(-c4c(F)c(F)c(F)c(F)c4F)c4ccc([nH]4)c(-c4c(F)c(F)c(F)c(F)c4F)c4nc(c(-c5c(F)c(F)c(F)c(F)c5F)c5ccc2[nH]5)C=C4)C=C3)cc1)C(=O)NC1C(C)(C)C1(C)C
REMARK SMILES IDX 10 1 9 2 8 3 6 4 7 5 5 7 4 8 2 9 1 10 3 11 79 12 80 13 81 14
REMARK SMILES IDX 82 16 83 17 86 18 84 19 85 20 87 21 88 22 11 23 12 24 13 25
REMARK SMILES IDX 14 26 15 28 16 29 17 30 78 31 18 32 77 33 19 34 20 35 21 36
REMARK SMILES IDX 71 37 22 38 76 39 70 40 72 41 23 42 75 43 69 44 68 45 24 47
REMARK SMILES IDX 56 48 36 49 55 50 37 51 40 52 54 53 73 54 38 55 39 56 53 58
REMARK SMILES IDX 74 59 41 60 25 61 26 62 34 63 27 64 28 65 32 66 35 67 29 68
REMARK SMILES IDX 30 69 33 70 31 71 57 72 58 73 66 74 59 75 60 76 64 77 67 78
REMARK SMILES IDX 61 79 62 80 65 81 63 82 42 83 43 84 51 85 44 86 45 87 49 88
REMARK SMILES IDX 52 89 46 90 47 91 50 92 48 93
REMARK H PARENT 8 6 81 15 13 27 72 46 40 57
REMARK Flexibility Score: inf
ROOT
ATOM      1  C   UNL A   1      32.122  30.438  26.717  1.00  0.00     0.023 C 
ENDROOT
BRANCH   1   2
ATOM      2  C   UNL A   1      31.865  29.802  25.355  1.00  0.00     0.116 C 
BRANCH   2   3
ATOM      3  N   UNL A   1      33.046  29.592  24.580  1.00  0.00    -0.355 N 
ATOM      4  C   UNL A   1      33.219  28.739  23.546  1.00  0.00     0.239 C 
ATOM      5  O   UNL A   1      34.151  29.005  22.775  1.00  0.00    -0.273 OA
ATOM      6  H   UNL A   1      33.829  30.134  24.828  1.00  0.00     0.163 HD
BRANCH   4   7
ATOM      7  C   UNL A   1      32.292  27.541  23.243  1.00  0.00     0.221 C 
BRANCH   7   8
ATOM      8  N   UNL A   1      32.536  26.074  23.372  1.00  0.00    -0.313 N 
BRANCH   8   9
ATOM      9  C   UNL A   1      31.454  25.360  24.127  1.00  0.00     0.081 C 
ATOM     10  C   UNL A   1      30.634  26.343  24.976  1.00  0.00     0.031 C 
ATOM     11  C   UNL A   1      30.509  24.448  23.331  1.00  0.00     0.031 C 
ENDBRANCH   8   9
BRANCH   8  12
ATOM     12  C   UNL A   1      33.422  25.261  22.681  1.00  0.00     0.318 C 
ATOM     13  O   UNL A   1      33.698  25.511  21.496  1.00  0.00    -0.249 OA
ATOM     14  N   UNL A   1      34.127  24.185  23.122  1.00  0.00    -0.334 N 
ATOM     15  H   UNL A   1      34.634  23.829  22.357  1.00  0.00     0.165 HD
BRANCH  14  16
ATOM     16  C   UNL A   1      34.430  23.347  24.277  1.00  0.00     0.096 C 
ATOM     17  C   UNL A   1      34.017  21.916  24.417  1.00  0.00    -0.007 C 
ATOM     18  C   UNL A   1      35.605  22.406  24.255  1.00  0.00    -0.007 C 
ATOM     19  C   UNL A   1      33.763  21.226  25.763  1.00  0.00     0.014 C 
ATOM     20  C   UNL A   1      32.809  21.576  23.544  1.00  0.00     0.014 C 
ATOM     21  C   UNL A   1      36.597  22.886  23.208  1.00  0.00     0.014 C 
ATOM     22  C   UNL A   1      36.449  22.115  25.506  1.00  0.00     0.014 C 
ENDBRANCH  14  16
ENDBRANCH   8  12
ENDBRANCH   7   8
ENDBRANCH   4   7
ENDBRANCH   2   3
ENDBRANCH   1   2
BRANCH   1  23
ATOM     23  C   UNL A   1      31.776  31.916  26.860  1.00  0.00     0.023 C 
BRANCH  23  24
ATOM     24  C   UNL A   1      32.880  32.808  27.403  1.00  0.00     0.116 C 
BRANCH  24  25
ATOM     25  N   UNL A   1      32.444  34.138  27.795  1.00  0.00    -0.352 N 
ATOM     26  C   UNL A   1      33.044  35.044  28.635  1.00  0.00     0.251 C 
ATOM     27  H   UNL A   1      31.593  34.435  27.398  1.00  0.00     0.163 HD
ATOM     28  O   UNL A   1      32.563  36.150  28.797  1.00  0.00    -0.269 OA
BRANCH  26  29
ATOM     29  C   UNL A   1      34.225  34.621  29.412  1.00  0.00     0.039 A 
ATOM     30  C   UNL A   1      33.998  34.077  30.678  1.00  0.00     0.014 A 
ATOM     31  C   UNL A   1      35.514  34.677  28.881  1.00  0.00     0.014 A 
ATOM     32  C   UNL A   1      35.057  33.509  31.381  1.00  0.00     0.010 A 
ATOM     33  C   UNL A   1      36.554  34.039  29.545  1.00  0.00     0.010 A 
ATOM     34  C   UNL A   1      36.331  33.445  30.797  1.00  0.00    -0.014 A 
BRANCH  34  35
ATOM     35  C   UNL A   1      37.446  32.761  31.490  1.00  0.00     0.031 A 
ATOM     36  C   UNL A   1      38.136  31.607  30.827  1.00  0.00     0.074 A 
ATOM     37  C   UNL A   1      37.791  33.150  32.733  1.00  0.00     0.049 A 
ATOM     38  N   UNL A   1      39.087  30.837  31.288  1.00  0.00    -0.248 NA
ATOM     39  C   UNL A   1      37.678  31.253  29.473  1.00  0.00     0.031 C 
ATOM     40  C   UNL A   1      37.152  34.226  33.493  1.00  0.00     0.029 A 
ATOM     41  N   UNL A   1      38.763  32.680  33.578  1.00  0.00    -0.354 N 
ATOM     42  C   UNL A   1      39.327  29.901  30.291  1.00  0.00     0.074 A 
ATOM     43  C   UNL A   1      38.388  30.164  29.223  1.00  0.00     0.031 C 
ATOM     44  C   UNL A   1      37.764  34.350  34.682  1.00  0.00     0.029 A 
ATOM     45  C   UNL A   1      38.816  33.342  34.780  1.00  0.00     0.049 A 
ATOM     46  H   UNL A   1      39.366  31.937  33.345  1.00  0.00     0.167 HD
ATOM     47  C   UNL A   1      40.267  28.929  30.261  1.00  0.00     0.037 A 
ATOM     48  C   UNL A   1      39.622  33.151  35.841  1.00  0.00     0.037 A 
ATOM     49  C   UNL A   1      41.220  28.698  31.313  1.00  0.00     0.049 A 
ATOM     50  C   UNL A   1      40.670  32.073  35.770  1.00  0.00     0.074 A 
ATOM     51  C   UNL A   1      42.246  27.772  31.361  1.00  0.00     0.029 A 
ATOM     52  N   UNL A   1      41.266  29.412  32.502  1.00  0.00    -0.354 N 
ATOM     53  N   UNL A   1      40.928  31.232  34.798  1.00  0.00    -0.248 NA
ATOM     54  C   UNL A   1      41.543  31.921  36.942  1.00  0.00     0.031 C 
ATOM     55  C   UNL A   1      42.894  27.904  32.593  1.00  0.00     0.029 A 
ATOM     56  C   UNL A   1      42.297  28.939  33.296  1.00  0.00     0.049 A 
ATOM     57  H   UNL A   1      40.655  30.145  32.745  1.00  0.00     0.167 HD
ATOM     58  C   UNL A   1      42.007  30.472  35.228  1.00  0.00     0.074 A 
ATOM     59  C   UNL A   1      42.366  30.963  36.543  1.00  0.00     0.031 C 
ATOM     60  C   UNL A   1      42.642  29.457  34.594  1.00  0.00     0.037 A 
BRANCH  47  61
ATOM     61  C   UNL A   1      40.319  28.055  29.044  1.00  0.00     0.064 A 
ATOM     62  C   UNL A   1      39.600  26.852  28.977  1.00  0.00     0.173 A 
ATOM     63  C   UNL A   1      41.066  28.438  27.920  1.00  0.00     0.173 A 
ATOM     64  F   UNL A   1      38.884  26.434  30.032  1.00  0.00    -0.203 F 
ATOM     65  C   UNL A   1      39.647  26.052  27.838  1.00  0.00     0.198 A 
ATOM     66  C   UNL A   1      41.088  27.649  26.773  1.00  0.00     0.198 A 
ATOM     67  F   UNL A   1      41.770  29.580  27.933  1.00  0.00    -0.203 F 
ATOM     68  F   UNL A   1      38.989  24.885  27.815  1.00  0.00    -0.200 F 
ATOM     69  C   UNL A   1      40.384  26.455  26.735  1.00  0.00     0.200 A 
ATOM     70  F   UNL A   1      41.793  28.044  25.704  1.00  0.00    -0.200 F 
ATOM     71  F   UNL A   1      40.422  25.688  25.637  1.00  0.00    -0.200 F 
ENDBRANCH  47  61
BRANCH  48  72
ATOM     72  C   UNL A   1      39.495  34.013  37.043  1.00  0.00     0.064 A 
ATOM     73  C   UNL A   1      38.751  33.591  38.155  1.00  0.00     0.173 A 
ATOM     74  C   UNL A   1      40.096  35.278  37.103  1.00  0.00     0.173 A 
ATOM     75  F   UNL A   1      38.142  32.396  38.137  1.00  0.00    -0.203 F 
ATOM     76  C   UNL A   1      38.591  34.413  39.269  1.00  0.00     0.198 A 
ATOM     77  C   UNL A   1      39.957  36.089  38.228  1.00  0.00     0.198 A 
ATOM     78  F   UNL A   1      40.823  35.726  36.069  1.00  0.00    -0.203 F 
ATOM     79  F   UNL A   1      37.833  34.005  40.295  1.00  0.00    -0.200 F 
ATOM     80  C   UNL A   1      39.197  35.659  39.306  1.00  0.00     0.200 A 
ATOM     81  F   UNL A   1      40.554  37.288  38.266  1.00  0.00    -0.200 F 
ATOM     82  F   UNL A   1      39.040  36.452  40.376  1.00  0.00    -0.200 F 
ENDBRANCH  48  72
BRANCH  60  83
ATOM     83  C   UNL A   1      43.811  28.836  35.298  1.00  0.00     0.064 A 
ATOM     84  C   UNL A   1      45.119  29.296  35.092  1.00  0.00     0.173 A 
ATOM     85  C   UNL A   1      43.611  27.800  36.224  1.00  0.00     0.173 A 
ATOM     86  F   UNL A   1      45.358  30.274  34.205  1.00  0.00    -0.203 F 
ATOM     87  C   UNL A   1      46.190  28.725  35.771  1.00  0.00     0.198 A 
ATOM     88  C   UNL A   1      44.683  27.250  36.920  1.00  0.00     0.198 A 
ATOM     89  F   UNL A   1      42.377  27.332  36.459  1.00  0.00    -0.203 F 
ATOM     90  F   UNL A   1      47.438  29.149  35.527  1.00  0.00    -0.200 F 
ATOM     91  C   UNL A   1      45.971  27.708  36.689  1.00  0.00     0.200 A 
ATOM     92  F   UNL A   1      44.468  26.277  37.816  1.00  0.00    -0.200 F 
ATOM     93  F   UNL A   1      47.004  27.164  37.347  1.00  0.00    -0.200 F 
ENDBRANCH  60  83
ENDBRANCH  34  35
ENDBRANCH  26  29
ENDBRANCH  24  25
ENDBRANCH  23  24
ENDBRANCH   1  23
TORSDOF 15
ENDMDL
