MODEL 1
REMARK VINA RESULT:     -11.8      0.000      0.000
REMARK SMILES COc1cc(C(=O)NCCCCNC(=O)c2ccc(-c3c4nc(c(-c5c(F)c(F)c(F)c(F)c5F)c5ccc([nH]5)c(-c5c(F)c(F)c(F)c(F)c5F)c5nc(c(-c6c(F)c(F)c(F)c(F)c6F)c6ccc3[nH]6)C=C5)C=C4)cc2)c([N+](=O)[O-])cc1O[C@H](C)[C@@H](C)O
REMARK SMILES IDX 9 1 8 2 6 3 7 4 5 6 3 7 4 8 84 9 83 10 79 11 2 12 1 13 85 14
REMARK SMILES IDX 86 15 87 16 88 17 89 18 90 19 80 21 81 22 82 23 10 24 11 25
REMARK SMILES IDX 12 26 13 27 14 28 15 30 16 31 17 32 78 33 18 34 77 35 19 36
REMARK SMILES IDX 20 37 21 38 71 39 22 40 76 41 70 42 72 43 23 44 75 45 69 46
REMARK SMILES IDX 68 47 24 49 56 50 36 51 55 52 37 53 40 54 54 55 73 56 38 57
REMARK SMILES IDX 39 58 53 60 74 61 41 62 25 63 26 64 34 65 27 66 28 67 32 68
REMARK SMILES IDX 35 69 29 70 30 71 33 72 31 73 57 74 58 75 66 76 59 77 60 78
REMARK SMILES IDX 64 79 67 80 61 81 62 82 65 83 63 84 42 85 43 86 51 87 44 88
REMARK SMILES IDX 45 89 49 90 52 91 46 92 47 93 50 94 48 95
REMARK H PARENT 8 5 90 20 13 29 72 48 40 59
REMARK Flexibility Score: inf
ROOT
ATOM      1  C   UNL A   1      35.770  23.843  24.988  1.00  0.00     0.116 C 
ENDROOT
BRANCH   1   2
ATOM      2  N   UNL A   1      34.499  24.508  24.747  1.00  0.00    -0.352 N 
ATOM      3  C   UNL A   1      33.223  23.987  24.716  1.00  0.00     0.258 C 
ATOM      4  O   UNL A   1      32.268  24.727  24.499  1.00  0.00    -0.269 OA
ATOM      5  H   UNL A   1      34.560  25.476  24.578  1.00  0.00     0.163 HD
BRANCH   3   6
ATOM      6  C   UNL A   1      32.992  22.529  24.851  1.00  0.00     0.121 A 
ATOM      7  C   UNL A   1      32.548  20.400  23.736  1.00  0.00     0.162 A 
ATOM      8  C   UNL A   1      32.672  21.803  23.697  1.00  0.00     0.071 A 
ATOM      9  C   UNL A   1      32.857  19.687  24.912  1.00  0.00     0.168 A 
ATOM     10  C   UNL A   1      33.121  20.421  26.063  1.00  0.00     0.136 A 
ATOM     11  C   UNL A   1      33.094  21.823  26.041  1.00  0.00     0.286 A 
BRANCH   7  12
ATOM     12  O   UNL A   1      32.156  19.863  22.535  1.00  0.00    -0.493 OA
ATOM     13  C   UNL A   1      31.778  20.786  21.518  1.00  0.00     0.278 C 
ENDBRANCH   7  12
BRANCH   9  14
ATOM     14  O   UNL A   1      32.772  18.328  24.887  1.00  0.00    -0.484 OA
BRANCH  14  15
ATOM     15  C   UNL A   1      33.857  17.423  24.592  1.00  0.00     0.198 C 
ATOM     16  C   UNL A   1      33.992  17.018  23.126  1.00  0.00     0.056 C 
BRANCH  15  17
ATOM     17  C   UNL A   1      33.951  16.265  25.619  1.00  0.00     0.151 C 
ATOM     18  C   UNL A   1      32.694  15.403  25.693  1.00  0.00     0.042 C 
BRANCH  17  19
ATOM     19  O   UNL A   1      35.045  15.402  25.275  1.00  0.00    -0.390 OA
ATOM     20  H   UNL A   1      35.881  15.883  25.380  1.00  0.00     0.211 HD
ENDBRANCH  17  19
ENDBRANCH  15  17
ENDBRANCH  14  15
ENDBRANCH   9  14
BRANCH  11  21
ATOM     21  N   UNL A   1      33.048  22.499  27.324  1.00  0.00     0.063 N 
ATOM     22  O   UNL A   1      31.958  22.942  27.704  1.00  0.00    -0.258 OA
ATOM     23  O   UNL A   1      34.109  22.562  27.963  1.00  0.00    -0.258 OA
ENDBRANCH  11  21
ENDBRANCH   3   6
ENDBRANCH   1   2
BRANCH   1  24
ATOM     24  C   UNL A   1      36.372  23.114  23.797  1.00  0.00     0.023 C 
BRANCH  24  25
ATOM     25  C   UNL A   1      36.993  21.750  24.091  1.00  0.00     0.023 C 
BRANCH  25  26
ATOM     26  C   UNL A   1      37.295  21.434  25.554  1.00  0.00     0.116 C 
BRANCH  26  27
ATOM     27  N   UNL A   1      38.472  20.600  25.754  1.00  0.00    -0.352 N 
ATOM     28  C   UNL A   1      39.716  20.904  26.266  1.00  0.00     0.251 C 
ATOM     29  H   UNL A   1      38.361  19.661  25.479  1.00  0.00     0.163 HD
ATOM     30  O   UNL A   1      40.601  20.060  26.271  1.00  0.00    -0.269 OA
BRANCH  28  31
ATOM     31  C   UNL A   1      40.006  22.270  26.759  1.00  0.00     0.039 A 
ATOM     32  C   UNL A   1      40.982  22.432  27.745  1.00  0.00     0.014 A 
ATOM     33  C   UNL A   1      39.351  23.386  26.238  1.00  0.00     0.014 A 
ATOM     34  C   UNL A   1      41.390  23.716  28.114  1.00  0.00     0.010 A 
ATOM     35  C   UNL A   1      39.820  24.663  26.536  1.00  0.00     0.010 A 
ATOM     36  C   UNL A   1      40.862  24.840  27.460  1.00  0.00    -0.014 A 
BRANCH  36  37
ATOM     37  C   UNL A   1      41.425  26.198  27.679  1.00  0.00     0.031 A 
ATOM     38  C   UNL A   1      42.815  26.535  27.222  1.00  0.00     0.074 A 
ATOM     39  C   UNL A   1      40.711  27.102  28.380  1.00  0.00     0.049 A 
ATOM     40  N   UNL A   1      43.501  27.637  27.399  1.00  0.00    -0.248 NA
ATOM     41  C   UNL A   1      43.543  25.485  26.496  1.00  0.00     0.031 C 
ATOM     42  C   UNL A   1      39.374  26.881  28.932  1.00  0.00     0.029 A 
ATOM     43  N   UNL A   1      41.016  28.386  28.760  1.00  0.00    -0.354 N 
ATOM     44  C   UNL A   1      44.744  27.404  26.827  1.00  0.00     0.074 A 
ATOM     45  C   UNL A   1      44.736  26.040  26.343  1.00  0.00     0.031 C 
ATOM     46  C   UNL A   1      38.961  27.997  29.549  1.00  0.00     0.029 A 
ATOM     47  C   UNL A   1      40.019  29.000  29.478  1.00  0.00     0.049 A 
ATOM     48  H   UNL A   1      41.869  28.825  28.539  1.00  0.00     0.167 HD
ATOM     49  C   UNL A   1      45.788  28.258  26.699  1.00  0.00     0.037 A 
ATOM     50  C   UNL A   1      39.964  30.228  30.025  1.00  0.00     0.037 A 
ATOM     51  C   UNL A   1      45.784  29.621  27.158  1.00  0.00     0.049 A 
ATOM     52  C   UNL A   1      41.142  31.153  29.881  1.00  0.00     0.074 A 
ATOM     53  C   UNL A   1      46.755  30.593  26.992  1.00  0.00     0.029 A 
ATOM     54  N   UNL A   1      44.757  30.206  27.887  1.00  0.00    -0.354 N 
ATOM     55  N   UNL A   1      42.279  30.951  29.263  1.00  0.00    -0.248 NA
ATOM     56  C   UNL A   1      41.028  32.472  30.515  1.00  0.00     0.031 C 
ATOM     57  C   UNL A   1      46.340  31.748  27.662  1.00  0.00     0.029 A 
ATOM     58  C   UNL A   1      45.088  31.513  28.207  1.00  0.00     0.049 A 
ATOM     59  H   UNL A   1      43.917  29.759  28.139  1.00  0.00     0.167 HD
ATOM     60  C   UNL A   1      43.009  32.122  29.417  1.00  0.00     0.074 A 
ATOM     61  C   UNL A   1      42.178  33.035  30.173  1.00  0.00     0.031 C 
ATOM     62  C   UNL A   1      44.257  32.409  28.971  1.00  0.00     0.037 A 
BRANCH  49  63
ATOM     63  C   UNL A   1      47.028  27.732  26.033  1.00  0.00     0.064 A 
ATOM     64  C   UNL A   1      48.101  27.217  26.776  1.00  0.00     0.173 A 
ATOM     65  C   UNL A   1      47.138  27.730  24.635  1.00  0.00     0.173 A 
ATOM     66  F   UNL A   1      48.050  27.204  28.117  1.00  0.00    -0.203 F 
ATOM     67  C   UNL A   1      49.255  26.758  26.146  1.00  0.00     0.198 A 
ATOM     68  C   UNL A   1      48.281  27.242  24.007  1.00  0.00     0.198 A 
ATOM     69  F   UNL A   1      46.139  28.204  23.877  1.00  0.00    -0.203 F 
ATOM     70  F   UNL A   1      50.290  26.326  26.880  1.00  0.00    -0.200 F 
ATOM     71  C   UNL A   1      49.342  26.767  24.762  1.00  0.00     0.200 A 
ATOM     72  F   UNL A   1      48.359  27.239  22.668  1.00  0.00    -0.200 F 
ATOM     73  F   UNL A   1      50.453  26.325  24.157  1.00  0.00    -0.200 F 
ENDBRANCH  49  63
BRANCH  50  74
ATOM     74  C   UNL A   1      38.733  30.666  30.732  1.00  0.00     0.064 A 
ATOM     75  C   UNL A   1      38.635  30.556  32.125  1.00  0.00     0.173 A 
ATOM     76  C   UNL A   1      37.646  31.220  30.040  1.00  0.00     0.173 A 
ATOM     77  F   UNL A   1      39.641  30.012  32.826  1.00  0.00    -0.203 F 
ATOM     78  C   UNL A   1      37.491  30.978  32.801  1.00  0.00     0.198 A 
ATOM     79  C   UNL A   1      36.514  31.663  30.719  1.00  0.00     0.198 A 
ATOM     80  F   UNL A   1      37.694  31.349  28.706  1.00  0.00    -0.203 F 
ATOM     81  F   UNL A   1      37.411  30.833  34.131  1.00  0.00    -0.200 F 
ATOM     82  C   UNL A   1      36.435  31.538  32.099  1.00  0.00     0.200 A 
ATOM     83  F   UNL A   1      35.501  32.217  30.039  1.00  0.00    -0.200 F 
ATOM     84  F   UNL A   1      35.341  31.954  32.750  1.00  0.00    -0.200 F 
ENDBRANCH  50  74
BRANCH  62  85
ATOM     85  C   UNL A   1      44.797  33.774  29.285  1.00  0.00     0.064 A 
ATOM     86  C   UNL A   1      44.461  34.892  28.506  1.00  0.00     0.173 A 
ATOM     87  C   UNL A   1      45.629  33.974  30.397  1.00  0.00     0.173 A 
ATOM     88  F   UNL A   1      43.683  34.749  27.422  1.00  0.00    -0.203 F 
ATOM     89  C   UNL A   1      44.954  36.155  28.817  1.00  0.00     0.198 A 
ATOM     90  C   UNL A   1      46.098  35.243  30.722  1.00  0.00     0.198 A 
ATOM     91  F   UNL A   1      45.977  32.939  31.176  1.00  0.00    -0.203 F 
ATOM     92  F   UNL A   1      44.655  37.202  28.035  1.00  0.00    -0.200 F 
ATOM     93  C   UNL A   1      45.766  36.332  29.929  1.00  0.00     0.200 A 
ATOM     94  F   UNL A   1      46.873  35.415  31.802  1.00  0.00    -0.200 F 
ATOM     95  F   UNL A   1      46.234  37.550  30.231  1.00  0.00    -0.200 F 
ENDBRANCH  62  85
ENDBRANCH  36  37
ENDBRANCH  28  31
ENDBRANCH  26  27
ENDBRANCH  25  26
ENDBRANCH  24  25
ENDBRANCH   1  24
TORSDOF 17
ENDMDL
MODEL 2
REMARK VINA RESULT:     -11.8      0.477      7.191
REMARK SMILES COc1cc(C(=O)NCCCCNC(=O)c2ccc(-c3c4nc(c(-c5c(F)c(F)c(F)c(F)c5F)c5ccc([nH]5)c(-c5c(F)c(F)c(F)c(F)c5F)c5nc(c(-c6c(F)c(F)c(F)c(F)c6F)c6ccc3[nH]6)C=C5)C=C4)cc2)c([N+](=O)[O-])cc1O[C@H](C)[C@@H](C)O
REMARK SMILES IDX 9 1 8 2 6 3 7 4 5 6 3 7 4 8 84 9 83 10 79 11 2 12 1 13 85 14
REMARK SMILES IDX 86 15 87 16 88 17 89 18 90 19 80 21 81 22 82 23 10 24 11 25
REMARK SMILES IDX 12 26 13 27 14 28 15 30 16 31 17 32 78 33 18 34 77 35 19 36
REMARK SMILES IDX 20 37 21 38 71 39 22 40 76 41 70 42 72 43 23 44 75 45 69 46
REMARK SMILES IDX 68 47 24 49 56 50 36 51 55 52 37 53 40 54 54 55 73 56 38 57
REMARK SMILES IDX 39 58 53 60 74 61 41 62 25 63 26 64 34 65 27 66 28 67 32 68
REMARK SMILES IDX 35 69 29 70 30 71 33 72 31 73 57 74 58 75 66 76 59 77 60 78
REMARK SMILES IDX 64 79 67 80 61 81 62 82 65 83 63 84 42 85 43 86 51 87 44 88
REMARK SMILES IDX 45 89 49 90 52 91 46 92 47 93 50 94 48 95
REMARK H PARENT 8 5 90 20 13 29 72 48 40 59
REMARK Flexibility Score: inf
ROOT
ATOM      1  C   UNL A   1      35.857  23.827  25.029  1.00  0.00     0.116 C 
ENDROOT
BRANCH   1   2
ATOM      2  N   UNL A   1      34.587  24.519  24.881  1.00  0.00    -0.352 N 
ATOM      3  C   UNL A   1      33.302  24.017  24.886  1.00  0.00     0.258 C 
ATOM      4  O   UNL A   1      32.349  24.778  24.750  1.00  0.00    -0.269 OA
ATOM      5  H   UNL A   1      34.654  25.493  24.756  1.00  0.00     0.163 HD
BRANCH   3   6
ATOM      6  C   UNL A   1      33.056  22.557  24.961  1.00  0.00     0.121 A 
ATOM      7  C   UNL A   1      32.531  20.490  23.767  1.00  0.00     0.162 A 
ATOM      8  C   UNL A   1      32.674  21.892  23.790  1.00  0.00     0.071 A 
ATOM      9  C   UNL A   1      32.882  19.717  24.893  1.00  0.00     0.168 A 
ATOM     10  C   UNL A   1      33.208  20.392  26.064  1.00  0.00     0.136 A 
ATOM     11  C   UNL A   1      33.201  21.793  26.110  1.00  0.00     0.286 A 
BRANCH   7  12
ATOM     12  O   UNL A   1      32.077  20.017  22.561  1.00  0.00    -0.493 OA
ATOM     13  C   UNL A   1      31.828  20.988  21.549  1.00  0.00     0.278 C 
ENDBRANCH   7  12
BRANCH   9  14
ATOM     14  O   UNL A   1      32.775  18.363  24.807  1.00  0.00    -0.484 OA
BRANCH  14  15
ATOM     15  C   UNL A   1      33.871  17.443  24.616  1.00  0.00     0.198 C 
ATOM     16  C   UNL A   1      34.158  17.056  23.167  1.00  0.00     0.056 C 
BRANCH  15  17
ATOM     17  C   UNL A   1      33.837  16.270  25.629  1.00  0.00     0.151 C 
ATOM     18  C   UNL A   1      32.481  15.574  25.720  1.00  0.00     0.042 C 
BRANCH  17  19
ATOM     19  O   UNL A   1      34.805  15.279  25.255  1.00  0.00    -0.390 OA
ATOM     20  H   UNL A   1      34.881  15.251  24.288  1.00  0.00     0.211 HD
ENDBRANCH  17  19
ENDBRANCH  15  17
ENDBRANCH  14  15
ENDBRANCH   9  14
BRANCH  11  21
ATOM     21  N   UNL A   1      33.223  22.406  27.425  1.00  0.00     0.063 N 
ATOM     22  O   UNL A   1      32.142  22.739  27.924  1.00  0.00    -0.258 OA
ATOM     23  O   UNL A   1      34.331  22.531  27.967  1.00  0.00    -0.258 OA
ENDBRANCH  11  21
ENDBRANCH   3   6
ENDBRANCH   1   2
BRANCH   1  24
ATOM     24  C   UNL A   1      36.317  23.022  23.823  1.00  0.00     0.023 C 
BRANCH  24  25
ATOM     25  C   UNL A   1      37.062  21.725  24.129  1.00  0.00     0.023 C 
BRANCH  25  26
ATOM     26  C   UNL A   1      37.436  21.476  25.589  1.00  0.00     0.116 C 
BRANCH  26  27
ATOM     27  N   UNL A   1      38.569  20.578  25.771  1.00  0.00    -0.352 N 
ATOM     28  C   UNL A   1      39.828  20.808  26.281  1.00  0.00     0.251 C 
ATOM     29  H   UNL A   1      38.407  19.651  25.481  1.00  0.00     0.163 HD
ATOM     30  O   UNL A   1      40.668  19.919  26.269  1.00  0.00    -0.269 OA
BRANCH  28  31
ATOM     31  C   UNL A   1      40.193  22.149  26.794  1.00  0.00     0.039 A 
ATOM     32  C   UNL A   1      41.101  22.236  27.853  1.00  0.00     0.014 A 
ATOM     33  C   UNL A   1      39.673  23.312  26.224  1.00  0.00     0.014 A 
ATOM     34  C   UNL A   1      41.583  23.485  28.251  1.00  0.00     0.010 A 
ATOM     35  C   UNL A   1      40.222  24.547  26.557  1.00  0.00     0.010 A 
ATOM     36  C   UNL A   1      41.201  24.645  27.557  1.00  0.00    -0.014 A 
BRANCH  36  37
ATOM     37  C   UNL A   1      41.856  25.953  27.818  1.00  0.00     0.031 A 
ATOM     38  C   UNL A   1      41.128  27.042  28.553  1.00  0.00     0.074 A 
ATOM     39  C   UNL A   1      43.079  26.192  27.305  1.00  0.00     0.049 A 
ATOM     40  N   UNL A   1      41.507  28.271  28.799  1.00  0.00    -0.248 NA
ATOM     41  C   UNL A   1      39.784  26.717  29.051  1.00  0.00     0.031 C 
ATOM     42  C   UNL A   1      43.869  25.241  26.521  1.00  0.00     0.029 A 
ATOM     43  N   UNL A   1      43.869  27.315  27.354  1.00  0.00    -0.354 N 
ATOM     44  C   UNL A   1      40.442  28.869  29.460  1.00  0.00     0.074 A 
ATOM     45  C   UNL A   1      39.384  27.885  29.531  1.00  0.00     0.031 C 
ATOM     46  C   UNL A   1      45.040  25.806  26.191  1.00  0.00     0.029 A 
ATOM     47  C   UNL A   1      45.068  27.174  26.701  1.00  0.00     0.049 A 
ATOM     48  H   UNL A   1      43.601  28.143  27.815  1.00  0.00     0.167 HD
ATOM     49  C   UNL A   1      40.364  30.119  29.978  1.00  0.00     0.037 A 
ATOM     50  C   UNL A   1      46.076  28.048  26.523  1.00  0.00     0.037 A 
ATOM     51  C   UNL A   1      41.427  31.087  29.930  1.00  0.00     0.049 A 
ATOM     52  C   UNL A   1      45.960  29.433  27.096  1.00  0.00     0.074 A 
ATOM     53  C   UNL A   1      41.480  32.343  30.507  1.00  0.00     0.029 A 
ATOM     54  N   UNL A   1      42.627  30.909  29.253  1.00  0.00    -0.354 N 
ATOM     55  N   UNL A   1      44.983  29.959  27.793  1.00  0.00    -0.248 NA
ATOM     56  C   UNL A   1      47.084  30.346  26.852  1.00  0.00     0.031 C 
ATOM     57  C   UNL A   1      42.688  32.946  30.138  1.00  0.00     0.029 A 
ATOM     58  C   UNL A   1      43.409  32.047  29.369  1.00  0.00     0.049 A 
ATOM     59  H   UNL A   1      42.883  30.095  28.763  1.00  0.00     0.167 HD
ATOM     60  C   UNL A   1      45.381  31.256  28.088  1.00  0.00     0.074 A 
ATOM     61  C   UNL A   1      46.696  31.431  27.507  1.00  0.00     0.031 C 
ATOM     62  C   UNL A   1      44.712  32.214  28.776  1.00  0.00     0.037 A 
BRANCH  49  63
ATOM     63  C   UNL A   1      39.075  30.507  30.644  1.00  0.00     0.064 A 
ATOM     64  C   UNL A   1      38.896  30.387  32.031  1.00  0.00     0.173 A 
ATOM     65  C   UNL A   1      38.010  31.020  29.888  1.00  0.00     0.173 A 
ATOM     66  F   UNL A   1      39.879  29.894  32.798  1.00  0.00    -0.203 F 
ATOM     67  C   UNL A   1      37.686  30.726  32.630  1.00  0.00     0.198 A 
ATOM     68  C   UNL A   1      36.812  31.388  30.494  1.00  0.00     0.198 A 
ATOM     69  F   UNL A   1      38.130  31.163  28.560  1.00  0.00    -0.203 F 
ATOM     70  F   UNL A   1      37.519  30.547  33.947  1.00  0.00    -0.200 F 
ATOM     71  C   UNL A   1      36.646  31.230  31.862  1.00  0.00     0.200 A 
ATOM     72  F   UNL A   1      35.812  31.887  29.753  1.00  0.00    -0.200 F 
ATOM     73  F   UNL A   1      35.482  31.556  32.440  1.00  0.00    -0.200 F 
ENDBRANCH  49  63
BRANCH  50  74
ATOM     74  C   UNL A   1      47.300  27.624  25.794  1.00  0.00     0.064 A 
ATOM     75  C   UNL A   1      48.400  27.108  26.491  1.00  0.00     0.173 A 
ATOM     76  C   UNL A   1      47.387  27.703  24.397  1.00  0.00     0.173 A 
ATOM     77  F   UNL A   1      48.371  27.035  27.830  1.00  0.00    -0.203 F 
ATOM     78  C   UNL A   1      49.547  26.693  25.817  1.00  0.00     0.198 A 
ATOM     79  C   UNL A   1      48.524  27.265  23.723  1.00  0.00     0.198 A 
ATOM     80  F   UNL A   1      46.358  28.186  23.685  1.00  0.00    -0.203 F 
ATOM     81  F   UNL A   1      50.598  26.232  26.510  1.00  0.00    -0.200 F 
ATOM     82  C   UNL A   1      49.606  26.764  24.434  1.00  0.00     0.200 A 
ATOM     83  F   UNL A   1      48.572  27.322  22.385  1.00  0.00    -0.200 F 
ATOM     84  F   UNL A   1      50.704  26.354  23.786  1.00  0.00    -0.200 F 
ENDBRANCH  50  74
BRANCH  62  85
ATOM     85  C   UNL A   1      45.399  33.538  28.947  1.00  0.00     0.064 A 
ATOM     86  C   UNL A   1      45.208  34.585  28.034  1.00  0.00     0.173 A 
ATOM     87  C   UNL A   1      46.226  33.774  30.056  1.00  0.00     0.173 A 
ATOM     88  F   UNL A   1      44.441  34.402  26.948  1.00  0.00    -0.203 F 
ATOM     89  C   UNL A   1      45.837  35.814  28.212  1.00  0.00     0.198 A 
ATOM     90  C   UNL A   1      46.832  35.013  30.246  1.00  0.00     0.198 A 
ATOM     91  F   UNL A   1      46.439  32.807  30.960  1.00  0.00    -0.203 F 
ATOM     92  F   UNL A   1      45.675  36.786  27.304  1.00  0.00    -0.200 F 
ATOM     93  C   UNL A   1      46.641  36.030  29.322  1.00  0.00     0.200 A 
ATOM     94  F   UNL A   1      47.599  35.224  31.324  1.00  0.00    -0.200 F 
ATOM     95  F   UNL A   1      47.240  37.216  29.496  1.00  0.00    -0.200 F 
ENDBRANCH  62  85
ENDBRANCH  36  37
ENDBRANCH  28  31
ENDBRANCH  26  27
ENDBRANCH  25  26
ENDBRANCH  24  25
ENDBRANCH   1  24
TORSDOF 17
ENDMDL
MODEL 3
REMARK VINA RESULT:     -11.7      3.178      5.115
REMARK SMILES COc1cc(C(=O)NCCCCNC(=O)c2ccc(-c3c4nc(c(-c5c(F)c(F)c(F)c(F)c5F)c5ccc([nH]5)c(-c5c(F)c(F)c(F)c(F)c5F)c5nc(c(-c6c(F)c(F)c(F)c(F)c6F)c6ccc3[nH]6)C=C5)C=C4)cc2)c([N+](=O)[O-])cc1O[C@H](C)[C@@H](C)O
REMARK SMILES IDX 9 1 8 2 6 3 7 4 5 6 3 7 4 8 84 9 83 10 79 11 2 12 1 13 85 14
REMARK SMILES IDX 86 15 87 16 88 17 89 18 90 19 80 21 81 22 82 23 10 24 11 25
REMARK SMILES IDX 12 26 13 27 14 28 15 30 16 31 17 32 78 33 18 34 77 35 19 36
REMARK SMILES IDX 20 37 21 38 71 39 22 40 76 41 70 42 72 43 23 44 75 45 69 46
REMARK SMILES IDX 68 47 24 49 56 50 36 51 55 52 37 53 40 54 54 55 73 56 38 57
REMARK SMILES IDX 39 58 53 60 74 61 41 62 25 63 26 64 34 65 27 66 28 67 32 68
REMARK SMILES IDX 35 69 29 70 30 71 33 72 31 73 57 74 58 75 66 76 59 77 60 78
REMARK SMILES IDX 64 79 67 80 61 81 62 82 65 83 63 84 42 85 43 86 51 87 44 88
REMARK SMILES IDX 45 89 49 90 52 91 46 92 47 93 50 94 48 95
REMARK H PARENT 8 5 90 20 13 29 72 48 40 59
REMARK Flexibility Score: inf
ROOT
ATOM      1  C   UNL A   1      34.366  21.636  26.995  1.00  0.00     0.116 C 
ENDROOT
BRANCH   1   2
ATOM      2  N   UNL A   1      33.488  20.621  26.435  1.00  0.00    -0.352 N 
ATOM      3  C   UNL A   1      32.559  20.720  25.420  1.00  0.00     0.258 C 
ATOM      4  O   UNL A   1      31.914  19.731  25.086  1.00  0.00    -0.269 OA
ATOM      5  H   UNL A   1      33.568  19.729  26.843  1.00  0.00     0.163 HD
BRANCH   3   6
ATOM      6  C   UNL A   1      32.260  22.027  24.788  1.00  0.00     0.121 A 
ATOM      7  C   UNL A   1      32.716  23.589  22.964  1.00  0.00     0.162 A 
ATOM      8  C   UNL A   1      33.020  22.413  23.678  1.00  0.00     0.071 A 
ATOM      9  C   UNL A   1      31.568  24.343  23.285  1.00  0.00     0.168 A 
ATOM     10  C   UNL A   1      30.853  23.980  24.420  1.00  0.00     0.136 A 
ATOM     11  C   UNL A   1      31.258  22.891  25.206  1.00  0.00     0.286 A 
BRANCH   7  12
ATOM     12  O   UNL A   1      33.610  23.851  21.956  1.00  0.00    -0.493 OA
ATOM     13  C   UNL A   1      33.286  23.334  20.669  1.00  0.00     0.278 C 
ENDBRANCH   7  12
BRANCH   9  14
ATOM     14  O   UNL A   1      31.287  25.444  22.535  1.00  0.00    -0.484 OA
BRANCH  14  15
ATOM     15  C   UNL A   1      31.415  26.814  22.972  1.00  0.00     0.198 C 
ATOM     16  C   UNL A   1      30.221  27.714  22.660  1.00  0.00     0.056 C 
BRANCH  15  17
ATOM     17  C   UNL A   1      32.808  27.408  22.643  1.00  0.00     0.151 C 
ATOM     18  C   UNL A   1      33.842  27.201  23.746  1.00  0.00     0.042 C 
BRANCH  17  19
ATOM     19  O   UNL A   1      33.324  26.798  21.450  1.00  0.00    -0.390 OA
ATOM     20  H   UNL A   1      32.587  26.549  20.870  1.00  0.00     0.211 HD
ENDBRANCH  17  19
ENDBRANCH  15  17
ENDBRANCH  14  15
ENDBRANCH   9  14
BRANCH  11  21
ATOM     21  N   UNL A   1      30.673  22.784  26.529  1.00  0.00     0.063 N 
ATOM     22  O   UNL A   1      31.241  23.367  27.460  1.00  0.00    -0.258 OA
ATOM     23  O   UNL A   1      29.625  22.130  26.627  1.00  0.00    -0.258 OA
ENDBRANCH  11  21
ENDBRANCH   3   6
ENDBRANCH   1   2
BRANCH   1  24
ATOM     24  C   UNL A   1      35.671  21.866  26.249  1.00  0.00     0.023 C 
BRANCH  24  25
ATOM     25  C   UNL A   1      35.994  23.317  25.898  1.00  0.00     0.023 C 
BRANCH  25  26
ATOM     26  C   UNL A   1      37.283  23.563  25.115  1.00  0.00     0.116 C 
BRANCH  26  27
ATOM     27  N   UNL A   1      38.416  22.765  25.563  1.00  0.00    -0.352 N 
ATOM     28  C   UNL A   1      39.492  23.095  26.358  1.00  0.00     0.251 C 
ATOM     29  H   UNL A   1      38.412  21.833  25.246  1.00  0.00     0.163 HD
ATOM     30  O   UNL A   1      40.387  22.283  26.549  1.00  0.00    -0.269 OA
BRANCH  28  31
ATOM     31  C   UNL A   1      39.602  24.453  26.940  1.00  0.00     0.039 A 
ATOM     32  C   UNL A   1      39.103  24.672  28.226  1.00  0.00     0.014 A 
ATOM     33  C   UNL A   1      40.216  25.495  26.244  1.00  0.00     0.014 A 
ATOM     34  C   UNL A   1      39.334  25.895  28.861  1.00  0.00     0.010 A 
ATOM     35  C   UNL A   1      40.527  26.678  26.908  1.00  0.00     0.010 A 
ATOM     36  C   UNL A   1      40.110  26.882  28.233  1.00  0.00    -0.014 A 
BRANCH  36  37
ATOM     37  C   UNL A   1      40.549  28.101  28.961  1.00  0.00     0.031 A 
ATOM     38  C   UNL A   1      41.947  28.212  29.497  1.00  0.00     0.074 A 
ATOM     39  C   UNL A   1      39.651  29.070  29.223  1.00  0.00     0.049 A 
ATOM     40  N   UNL A   1      42.482  29.161  30.225  1.00  0.00    -0.248 NA
ATOM     41  C   UNL A   1      42.858  27.097  29.201  1.00  0.00     0.031 C 
ATOM     42  C   UNL A   1      38.246  29.057  28.812  1.00  0.00     0.029 A 
ATOM     43  N   UNL A   1      39.781  30.253  29.910  1.00  0.00    -0.354 N 
ATOM     44  C   UNL A   1      43.780  28.746  30.491  1.00  0.00     0.074 A 
ATOM     45  C   UNL A   1      43.937  27.439  29.889  1.00  0.00     0.031 C 
ATOM     46  C   UNL A   1      37.654  30.188  29.225  1.00  0.00     0.029 A 
ATOM     47  C   UNL A   1      38.623  30.988  29.968  1.00  0.00     0.049 A 
ATOM     48  H   UNL A   1      40.626  30.546  30.322  1.00  0.00     0.167 HD
ATOM     49  C   UNL A   1      44.758  29.406  31.157  1.00  0.00     0.037 A 
ATOM     50  C   UNL A   1      38.365  32.169  30.559  1.00  0.00     0.037 A 
ATOM     51  C   UNL A   1      44.607  30.717  31.732  1.00  0.00     0.049 A 
ATOM     52  C   UNL A   1      39.463  32.876  31.305  1.00  0.00     0.074 A 
ATOM     53  C   UNL A   1      45.564  31.508  32.344  1.00  0.00     0.029 A 
ATOM     54  N   UNL A   1      43.416  31.428  31.776  1.00  0.00    -0.354 N 
ATOM     55  N   UNL A   1      40.710  32.514  31.475  1.00  0.00    -0.248 NA
ATOM     56  C   UNL A   1      39.114  34.151  31.943  1.00  0.00     0.031 C 
ATOM     57  C   UNL A   1      44.942  32.674  32.802  1.00  0.00     0.029 A 
ATOM     58  C   UNL A   1      43.606  32.632  32.435  1.00  0.00     0.049 A 
ATOM     59  H   UNL A   1      42.562  31.123  31.394  1.00  0.00     0.167 HD
ATOM     60  C   UNL A   1      41.301  33.523  32.224  1.00  0.00     0.074 A 
ATOM     61  C   UNL A   1      40.278  34.521  32.460  1.00  0.00     0.031 C 
ATOM     62  C   UNL A   1      42.577  33.612  32.674  1.00  0.00     0.037 A 
BRANCH  49  63
ATOM     63  C   UNL A   1      46.082  28.711  31.301  1.00  0.00     0.064 A 
ATOM     64  C   UNL A   1      47.089  28.838  30.332  1.00  0.00     0.173 A 
ATOM     65  C   UNL A   1      46.353  27.922  32.428  1.00  0.00     0.173 A 
ATOM     66  F   UNL A   1      46.878  29.574  29.230  1.00  0.00    -0.203 F 
ATOM     67  C   UNL A   1      48.301  28.166  30.465  1.00  0.00     0.198 A 
ATOM     68  C   UNL A   1      47.577  27.276  32.574  1.00  0.00     0.198 A 
ATOM     69  F   UNL A   1      45.428  27.774  33.388  1.00  0.00    -0.203 F 
ATOM     70  F   UNL A   1      49.224  28.254  29.498  1.00  0.00    -0.200 F 
ATOM     71  C   UNL A   1      48.546  27.390  31.588  1.00  0.00     0.200 A 
ATOM     72  F   UNL A   1      47.818  26.537  33.666  1.00  0.00    -0.200 F 
ATOM     73  F   UNL A   1      49.714  26.744  31.716  1.00  0.00    -0.200 F 
ENDBRANCH  49  63
BRANCH  50  74
ATOM     74  C   UNL A   1      37.013  32.774  30.439  1.00  0.00     0.064 A 
ATOM     75  C   UNL A   1      36.073  32.626  31.467  1.00  0.00     0.173 A 
ATOM     76  C   UNL A   1      36.642  33.525  29.315  1.00  0.00     0.173 A 
ATOM     77  F   UNL A   1      36.376  31.897  32.551  1.00  0.00    -0.203 F 
ATOM     78  C   UNL A   1      34.807  33.202  31.373  1.00  0.00     0.198 A 
ATOM     79  C   UNL A   1      35.385  34.121  29.232  1.00  0.00     0.198 A 
ATOM     80  F   UNL A   1      37.508  33.699  28.306  1.00  0.00    -0.203 F 
ATOM     81  F   UNL A   1      33.916  33.018  32.357  1.00  0.00    -0.200 F 
ATOM     82  C   UNL A   1      34.467  33.954  30.260  1.00  0.00     0.200 A 
ATOM     83  F   UNL A   1      35.065  34.859  28.162  1.00  0.00    -0.200 F 
ATOM     84  F   UNL A   1      33.255  34.517  30.174  1.00  0.00    -0.200 F 
ENDBRANCH  50  74
BRANCH  62  85
ATOM     85  C   UNL A   1      42.940  34.836  33.463  1.00  0.00     0.064 A 
ATOM     86  C   UNL A   1      42.914  34.838  34.865  1.00  0.00     0.173 A 
ATOM     87  C   UNL A   1      43.354  36.008  32.811  1.00  0.00     0.173 A 
ATOM     88  F   UNL A   1      42.508  33.749  35.535  1.00  0.00    -0.203 F 
ATOM     89  C   UNL A   1      43.269  35.975  35.586  1.00  0.00     0.198 A 
ATOM     90  C   UNL A   1      43.735  37.134  33.535  1.00  0.00     0.198 A 
ATOM     91  F   UNL A   1      43.399  36.056  31.472  1.00  0.00    -0.203 F 
ATOM     92  F   UNL A   1      43.196  35.968  36.924  1.00  0.00    -0.200 F 
ATOM     93  C   UNL A   1      43.687  37.118  34.921  1.00  0.00     0.200 A 
ATOM     94  F   UNL A   1      44.150  38.234  32.892  1.00  0.00    -0.200 F 
ATOM     95  F   UNL A   1      44.036  38.209  35.617  1.00  0.00    -0.200 F 
ENDBRANCH  62  85
ENDBRANCH  36  37
ENDBRANCH  28  31
ENDBRANCH  26  27
ENDBRANCH  25  26
ENDBRANCH  24  25
ENDBRANCH   1  24
TORSDOF 17
ENDMDL
