MODEL 1
REMARK VINA RESULT:     -11.6      0.000      0.000
REMARK SMILES CC(C)(C)OC(=O)N1CCSC[C@@H]1CC(=O)NCCCCNC(=O)c1ccc(-c2c3nc(c(-c4c(F)c(F)c(F)c(F)c4F)c4ccc([nH]4)c(-c4c(F)c(F)c(F)c(F)c4F)c4nc(c(-c5c(F)c(F)c(F)c(F)c5F)c5ccc2[nH]5)C=C4)C=C3)cc1
REMARK SMILES IDX 18 1 17 2 15 3 16 4 14 6 13 7 8 8 9 9 10 10 12 11 11 12 6 13
REMARK SMILES IDX 7 14 5 15 2 16 1 17 3 18 4 19 19 20 20 21 21 22 22 23 23 24
REMARK SMILES IDX 24 26 25 27 26 28 87 29 27 30 86 31 28 32 29 33 30 34 80 35
REMARK SMILES IDX 31 36 85 37 79 38 81 39 32 40 84 41 78 42 77 43 33 45 65 46
REMARK SMILES IDX 45 47 64 48 46 49 49 50 63 51 82 52 47 53 48 54 62 56 83 57
REMARK SMILES IDX 50 58 34 59 35 60 43 61 36 62 37 63 41 64 44 65 38 66 39 67
REMARK SMILES IDX 42 68 40 69 66 70 67 71 75 72 68 73 69 74 73 75 76 76 70 77
REMARK SMILES IDX 71 78 74 79 72 80 51 81 52 82 60 83 53 84 54 85 58 86 61 87
REMARK SMILES IDX 55 88 56 89 59 90 57 91
REMARK H PARENT 17 5 22 25 81 44 49 55
REMARK Flexibility Score: inf
ROOT
ATOM      1  C   UNL A   1      32.779  29.457  25.911  1.00  0.00     0.116 C 
ENDROOT
BRANCH   1   2
ATOM      2  N   UNL A   1      33.687  29.501  24.786  1.00  0.00    -0.356 N 
ATOM      3  C   UNL A   1      33.918  28.554  23.835  1.00  0.00     0.222 C 
ATOM      4  O   UNL A   1      34.808  28.759  23.010  1.00  0.00    -0.275 OA
ATOM      5  H   UNL A   1      34.211  30.329  24.695  1.00  0.00     0.163 HD
BRANCH   3   6
ATOM      6  C   UNL A   1      33.073  27.295  23.790  1.00  0.00     0.126 C 
BRANCH   6   7
ATOM      7  C   UNL A   1      31.925  27.384  22.762  1.00  0.00     0.107 C 
ATOM      8  N   UNL A   1      30.732  28.049  23.326  1.00  0.00    -0.303 N 
ATOM      9  C   UNL A   1      30.053  27.390  24.451  1.00  0.00     0.134 C 
ATOM     10  C   UNL A   1      29.499  26.015  24.059  1.00  0.00     0.091 C 
ATOM     11  C   UNL A   1      31.495  26.029  22.167  1.00  0.00     0.095 C 
ATOM     12  S   UNL A   1      30.788  24.894  23.410  1.00  0.00    -0.158 SA
BRANCH   8  13
ATOM     13  C   UNL A   1      30.154  29.089  22.616  1.00  0.00     0.410 C 
ATOM     14  O   UNL A   1      30.454  29.357  21.460  1.00  0.00    -0.224 OA
BRANCH  13  15
ATOM     15  O   UNL A   1      29.253  29.775  23.359  1.00  0.00    -0.444 OA
BRANCH  15  16
ATOM     16  C   UNL A   1      27.955  30.134  22.821  1.00  0.00     0.106 C 
ATOM     17  C   UNL A   1      27.499  31.324  23.677  1.00  0.00     0.056 C 
ATOM     18  C   UNL A   1      26.983  28.967  23.014  1.00  0.00     0.056 C 
ATOM     19  C   UNL A   1      28.008  30.594  21.357  1.00  0.00     0.056 C 
ENDBRANCH  15  16
ENDBRANCH  13  15
ENDBRANCH   8  13
ENDBRANCH   6   7
ENDBRANCH   3   6
ENDBRANCH   1   2
BRANCH   1  20
ATOM     20  C   UNL A   1      31.715  30.549  25.789  1.00  0.00     0.023 C 
BRANCH  20  21
ATOM     21  C   UNL A   1      31.657  31.508  26.978  1.00  0.00     0.023 C 
BRANCH  21  22
ATOM     22  C   UNL A   1      32.838  32.466  27.083  1.00  0.00     0.116 C 
BRANCH  22  23
ATOM     23  N   UNL A   1      32.461  33.803  27.516  1.00  0.00    -0.352 N 
ATOM     24  C   UNL A   1      33.029  34.579  28.496  1.00  0.00     0.251 C 
ATOM     25  H   UNL A   1      31.695  34.204  27.045  1.00  0.00     0.163 HD
ATOM     26  O   UNL A   1      32.524  35.653  28.808  1.00  0.00    -0.269 OA
BRANCH  24  27
ATOM     27  C   UNL A   1      34.226  34.089  29.206  1.00  0.00     0.039 A 
ATOM     28  C   UNL A   1      34.050  33.346  30.376  1.00  0.00     0.014 A 
ATOM     29  C   UNL A   1      35.509  34.326  28.703  1.00  0.00     0.014 A 
ATOM     30  C   UNL A   1      35.158  32.779  31.003  1.00  0.00     0.010 A 
ATOM     31  C   UNL A   1      36.604  33.700  29.288  1.00  0.00     0.010 A 
ATOM     32  C   UNL A   1      36.438  32.919  30.441  1.00  0.00    -0.014 A 
BRANCH  32  33
ATOM     33  C   UNL A   1      37.605  32.226  31.035  1.00  0.00     0.031 A 
ATOM     34  C   UNL A   1      38.106  32.608  32.397  1.00  0.00     0.074 A 
ATOM     35  C   UNL A   1      38.254  31.295  30.311  1.00  0.00     0.049 A 
ATOM     36  N   UNL A   1      39.115  32.120  33.074  1.00  0.00    -0.248 NA
ATOM     37  C   UNL A   1      37.398  33.703  33.078  1.00  0.00     0.031 C 
ATOM     38  C   UNL A   1      37.910  30.897  28.944  1.00  0.00     0.029 A 
ATOM     39  N   UNL A   1      39.342  30.519  30.620  1.00  0.00    -0.354 N 
ATOM     40  C   UNL A   1      39.171  32.856  34.249  1.00  0.00     0.074 A 
ATOM     41  C   UNL A   1      38.131  33.859  34.170  1.00  0.00     0.031 C 
ATOM     42  C   UNL A   1      38.752  29.934  28.543  1.00  0.00     0.029 A 
ATOM     43  C   UNL A   1      39.708  29.661  29.613  1.00  0.00     0.049 A 
ATOM     44  H   UNL A   1      39.815  30.572  31.482  1.00  0.00     0.167 HD
ATOM     45  C   UNL A   1      40.002  32.693  35.307  1.00  0.00     0.037 A 
ATOM     46  C   UNL A   1      40.698  28.752  29.562  1.00  0.00     0.037 A 
ATOM     47  C   UNL A   1      41.017  31.676  35.389  1.00  0.00     0.049 A 
ATOM     48  C   UNL A   1      41.578  28.560  30.764  1.00  0.00     0.074 A 
ATOM     49  C   UNL A   1      41.853  31.373  36.449  1.00  0.00     0.029 A 
ATOM     50  N   UNL A   1      41.338  30.799  34.362  1.00  0.00    -0.354 N 
ATOM     51  N   UNL A   1      41.562  29.195  31.910  1.00  0.00    -0.248 NA
ATOM     52  C   UNL A   1      42.606  27.514  30.670  1.00  0.00     0.031 C 
ATOM     53  C   UNL A   1      42.707  30.338  36.050  1.00  0.00     0.029 A 
ATOM     54  C   UNL A   1      42.375  29.968  34.756  1.00  0.00     0.049 A 
ATOM     55  H   UNL A   1      40.895  30.772  33.484  1.00  0.00     0.167 HD
ATOM     56  C   UNL A   1      42.561  28.618  32.681  1.00  0.00     0.074 A 
ATOM     57  C   UNL A   1      43.151  27.567  31.878  1.00  0.00     0.031 C 
ATOM     58  C   UNL A   1      42.956  28.932  33.939  1.00  0.00     0.037 A 
BRANCH  45  59
ATOM     59  C   UNL A   1      39.838  33.636  36.462  1.00  0.00     0.064 A 
ATOM     60  C   UNL A   1      39.030  33.317  37.564  1.00  0.00     0.173 A 
ATOM     61  C   UNL A   1      40.507  34.870  36.475  1.00  0.00     0.173 A 
ATOM     62  F   UNL A   1      38.357  32.155  37.595  1.00  0.00    -0.203 F 
ATOM     63  C   UNL A   1      38.870  34.211  38.620  1.00  0.00     0.198 A 
ATOM     64  C   UNL A   1      40.368  35.749  37.547  1.00  0.00     0.198 A 
ATOM     65  F   UNL A   1      41.295  35.223  35.449  1.00  0.00    -0.203 F 
ATOM     66  F   UNL A   1      38.049  33.906  39.635  1.00  0.00    -0.200 F 
ATOM     67  C   UNL A   1      39.543  35.423  38.613  1.00  0.00     0.200 A 
ATOM     68  F   UNL A   1      41.026  36.916  37.543  1.00  0.00    -0.200 F 
ATOM     69  F   UNL A   1      39.388  36.283  39.629  1.00  0.00    -0.200 F 
ENDBRANCH  45  59
BRANCH  46  70
ATOM     70  C   UNL A   1      40.870  27.923  28.343  1.00  0.00     0.064 A 
ATOM     71  C   UNL A   1      41.696  28.352  27.294  1.00  0.00     0.173 A 
ATOM     72  C   UNL A   1      40.241  26.677  28.212  1.00  0.00     0.173 A 
ATOM     73  F   UNL A   1      42.305  29.545  27.369  1.00  0.00    -0.203 F 
ATOM     74  C   UNL A   1      41.876  27.572  26.155  1.00  0.00     0.198 A 
ATOM     75  C   UNL A   1      40.440  25.887  27.082  1.00  0.00     0.198 A 
ATOM     76  F   UNL A   1      39.448  26.219  29.192  1.00  0.00    -0.203 F 
ATOM     77  F   UNL A   1      42.646  28.020  25.154  1.00  0.00    -0.200 F 
ATOM     78  C   UNL A   1      41.254  26.337  26.052  1.00  0.00     0.200 A 
ATOM     79  F   UNL A   1      39.849  24.687  26.993  1.00  0.00    -0.200 F 
ATOM     80  F   UNL A   1      41.436  25.581  24.961  1.00  0.00    -0.200 F 
ENDBRANCH  46  70
BRANCH  58  81
ATOM     81  C   UNL A   1      44.072  28.119  34.526  1.00  0.00     0.064 A 
ATOM     82  C   UNL A   1      45.410  28.527  34.421  1.00  0.00     0.173 A 
ATOM     83  C   UNL A   1      43.799  26.930  35.218  1.00  0.00     0.173 A 
ATOM     84  F   UNL A   1      45.723  29.648  33.754  1.00  0.00    -0.203 F 
ATOM     85  C   UNL A   1      46.437  27.760  34.964  1.00  0.00     0.198 A 
ATOM     86  C   UNL A   1      44.825  26.179  35.785  1.00  0.00     0.198 A 
ATOM     87  F   UNL A   1      42.535  26.499  35.350  1.00  0.00    -0.203 F 
ATOM     88  F   UNL A   1      47.712  28.142  34.809  1.00  0.00    -0.200 F 
ATOM     89  C   UNL A   1      46.143  26.590  35.651  1.00  0.00     0.200 A 
ATOM     90  F   UNL A   1      44.539  25.055  36.456  1.00  0.00    -0.200 F 
ATOM     91  F   UNL A   1      47.132  25.853  36.174  1.00  0.00    -0.200 F 
ENDBRANCH  58  81
ENDBRANCH  32  33
ENDBRANCH  24  27
ENDBRANCH  22  23
ENDBRANCH  21  22
ENDBRANCH  20  21
ENDBRANCH   1  20
TORSDOF 15
ENDMDL
MODEL 2
REMARK VINA RESULT:     -11.5      0.583      7.497
REMARK SMILES CC(C)(C)OC(=O)N1CCSC[C@@H]1CC(=O)NCCCCNC(=O)c1ccc(-c2c3nc(c(-c4c(F)c(F)c(F)c(F)c4F)c4ccc([nH]4)c(-c4c(F)c(F)c(F)c(F)c4F)c4nc(c(-c5c(F)c(F)c(F)c(F)c5F)c5ccc2[nH]5)C=C4)C=C3)cc1
REMARK SMILES IDX 18 1 17 2 15 3 16 4 14 6 13 7 8 8 9 9 10 10 12 11 11 12 6 13
REMARK SMILES IDX 7 14 5 15 2 16 1 17 3 18 4 19 19 20 20 21 21 22 22 23 23 24
REMARK SMILES IDX 24 26 25 27 26 28 87 29 27 30 86 31 28 32 29 33 30 34 80 35
REMARK SMILES IDX 31 36 85 37 79 38 81 39 32 40 84 41 78 42 77 43 33 45 65 46
REMARK SMILES IDX 45 47 64 48 46 49 49 50 63 51 82 52 47 53 48 54 62 56 83 57
REMARK SMILES IDX 50 58 34 59 35 60 43 61 36 62 37 63 41 64 44 65 38 66 39 67
REMARK SMILES IDX 42 68 40 69 66 70 67 71 75 72 68 73 69 74 73 75 76 76 70 77
REMARK SMILES IDX 71 78 74 79 72 80 51 81 52 82 60 83 53 84 54 85 58 86 61 87
REMARK SMILES IDX 55 88 56 89 59 90 57 91
REMARK H PARENT 17 5 22 25 81 44 49 55
REMARK Flexibility Score: inf
ROOT
ATOM      1  C   UNL A   1      32.837  29.470  26.024  1.00  0.00     0.116 C 
ENDROOT
BRANCH   1   2
ATOM      2  N   UNL A   1      33.731  29.500  24.888  1.00  0.00    -0.356 N 
ATOM      3  C   UNL A   1      33.930  28.553  23.929  1.00  0.00     0.222 C 
ATOM      4  O   UNL A   1      34.814  28.744  23.094  1.00  0.00    -0.275 OA
ATOM      5  H   UNL A   1      34.270  30.318  24.794  1.00  0.00     0.163 HD
BRANCH   3   6
ATOM      6  C   UNL A   1      33.059  27.312  23.890  1.00  0.00     0.126 C 
BRANCH   6   7
ATOM      7  C   UNL A   1      31.939  27.404  22.832  1.00  0.00     0.107 C 
ATOM      8  N   UNL A   1      30.739  28.088  23.359  1.00  0.00    -0.303 N 
ATOM      9  C   UNL A   1      30.024  27.447  24.472  1.00  0.00     0.134 C 
ATOM     10  C   UNL A   1      29.465  26.074  24.080  1.00  0.00     0.091 C 
ATOM     11  C   UNL A   1      31.508  26.048  22.239  1.00  0.00     0.095 C 
ATOM     12  S   UNL A   1      30.757  24.933  23.474  1.00  0.00    -0.158 SA
BRANCH   8  13
ATOM     13  C   UNL A   1      30.191  29.127  22.624  1.00  0.00     0.410 C 
ATOM     14  O   UNL A   1      30.503  29.363  21.465  1.00  0.00    -0.224 OA
BRANCH  13  15
ATOM     15  O   UNL A   1      29.305  29.851  23.349  1.00  0.00    -0.444 OA
BRANCH  15  16
ATOM     16  C   UNL A   1      27.993  30.177  22.820  1.00  0.00     0.106 C 
ATOM     17  C   UNL A   1      27.507  31.344  23.691  1.00  0.00     0.056 C 
ATOM     18  C   UNL A   1      27.057  28.980  23.006  1.00  0.00     0.056 C 
ATOM     19  C   UNL A   1      28.026  30.653  21.361  1.00  0.00     0.056 C 
ENDBRANCH  15  16
ENDBRANCH  13  15
ENDBRANCH   8  13
ENDBRANCH   6   7
ENDBRANCH   3   6
ENDBRANCH   1   2
BRANCH   1  20
ATOM     20  C   UNL A   1      31.762  30.550  25.895  1.00  0.00     0.023 C 
BRANCH  20  21
ATOM     21  C   UNL A   1      31.705  31.527  27.070  1.00  0.00     0.023 C 
BRANCH  21  22
ATOM     22  C   UNL A   1      32.875  32.500  27.148  1.00  0.00     0.116 C 
BRANCH  22  23
ATOM     23  N   UNL A   1      32.479  33.852  27.511  1.00  0.00    -0.352 N 
ATOM     24  C   UNL A   1      33.010  34.672  28.476  1.00  0.00     0.251 C 
ATOM     25  H   UNL A   1      31.729  34.229  26.996  1.00  0.00     0.163 HD
ATOM     26  O   UNL A   1      32.492  35.755  28.723  1.00  0.00    -0.269 OA
BRANCH  24  27
ATOM     27  C   UNL A   1      34.184  34.218  29.247  1.00  0.00     0.039 A 
ATOM     28  C   UNL A   1      33.970  33.491  30.420  1.00  0.00     0.014 A 
ATOM     29  C   UNL A   1      35.483  34.473  28.798  1.00  0.00     0.014 A 
ATOM     30  C   UNL A   1      35.059  32.957  31.105  1.00  0.00     0.010 A 
ATOM     31  C   UNL A   1      36.563  33.879  29.442  1.00  0.00     0.010 A 
ATOM     32  C   UNL A   1      36.360  33.114  30.599  1.00  0.00    -0.014 A 
BRANCH  32  33
ATOM     33  C   UNL A   1      37.513  32.455  31.257  1.00  0.00     0.031 A 
ATOM     34  C   UNL A   1      38.233  31.326  30.581  1.00  0.00     0.074 A 
ATOM     35  C   UNL A   1      37.864  32.836  32.499  1.00  0.00     0.049 A 
ATOM     36  N   UNL A   1      39.254  30.625  31.005  1.00  0.00    -0.248 NA
ATOM     37  C   UNL A   1      37.722  30.909  29.266  1.00  0.00     0.031 C 
ATOM     38  C   UNL A   1      37.187  33.865  33.291  1.00  0.00     0.029 A 
ATOM     39  N   UNL A   1      38.873  32.397  33.318  1.00  0.00    -0.354 N 
ATOM     40  C   UNL A   1      39.496  29.678  30.019  1.00  0.00     0.074 A 
ATOM     41  C   UNL A   1      38.483  29.858  29.002  1.00  0.00     0.031 C 
ATOM     42  C   UNL A   1      37.816  33.997  34.469  1.00  0.00     0.029 A 
ATOM     43  C   UNL A   1      38.924  33.048  34.525  1.00  0.00     0.049 A 
ATOM     44  H   UNL A   1      39.502  31.682  33.064  1.00  0.00     0.167 HD
ATOM     45  C   UNL A   1      40.489  28.759  29.960  1.00  0.00     0.037 A 
ATOM     46  C   UNL A   1      39.774  32.902  35.558  1.00  0.00     0.037 A 
ATOM     47  C   UNL A   1      41.509  28.603  30.963  1.00  0.00     0.049 A 
ATOM     48  C   UNL A   1      40.893  31.905  35.449  1.00  0.00     0.074 A 
ATOM     49  C   UNL A   1      42.607  27.761  30.957  1.00  0.00     0.029 A 
ATOM     50  N   UNL A   1      41.551  29.306  32.159  1.00  0.00    -0.354 N 
ATOM     51  N   UNL A   1      41.173  31.080  34.471  1.00  0.00    -0.248 NA
ATOM     52  C   UNL A   1      41.823  31.830  36.585  1.00  0.00     0.031 C 
ATOM     53  C   UNL A   1      43.291  27.924  32.167  1.00  0.00     0.029 A 
ATOM     54  C   UNL A   1      42.644  28.900  32.909  1.00  0.00     0.049 A 
ATOM     55  H   UNL A   1      40.901  29.991  32.435  1.00  0.00     0.167 HD
ATOM     56  C   UNL A   1      42.317  30.400  34.860  1.00  0.00     0.074 A 
ATOM     57  C   UNL A   1      42.692  30.924  36.158  1.00  0.00     0.031 C 
ATOM     58  C   UNL A   1      42.996  29.427  34.204  1.00  0.00     0.037 A 
BRANCH  45  59
ATOM     59  C   UNL A   1      40.518  27.855  28.763  1.00  0.00     0.064 A 
ATOM     60  C   UNL A   1      41.265  28.173  27.617  1.00  0.00     0.173 A 
ATOM     61  C   UNL A   1      39.803  26.647  28.764  1.00  0.00     0.173 A 
ATOM     62  F   UNL A   1      41.956  29.322  27.560  1.00  0.00    -0.203 F 
ATOM     63  C   UNL A   1      41.266  27.334  26.506  1.00  0.00     0.198 A 
ATOM     64  C   UNL A   1      39.830  25.797  27.661  1.00  0.00     0.198 A 
ATOM     65  F   UNL A   1      39.076  26.292  29.834  1.00  0.00    -0.203 F 
ATOM     66  F   UNL A   1      41.942  27.688  25.403  1.00  0.00    -0.200 F 
ATOM     67  C   UNL A   1      40.553  26.146  26.530  1.00  0.00     0.200 A 
ATOM     68  F   UNL A   1      39.149  24.644  27.689  1.00  0.00    -0.200 F 
ATOM     69  F   UNL A   1      40.555  25.340  25.459  1.00  0.00    -0.200 F 
ENDBRANCH  45  59
BRANCH  46  70
ATOM     70  C   UNL A   1      39.622  33.760  36.760  1.00  0.00     0.064 A 
ATOM     71  C   UNL A   1      40.224  35.024  36.820  1.00  0.00     0.173 A 
ATOM     72  C   UNL A   1      38.851  33.348  37.856  1.00  0.00     0.173 A 
ATOM     73  F   UNL A   1      40.984  35.452  35.801  1.00  0.00    -0.203 F 
ATOM     74  C   UNL A   1      40.071  35.841  37.938  1.00  0.00     0.198 A 
ATOM     75  C   UNL A   1      38.680  34.176  38.964  1.00  0.00     0.198 A 
ATOM     76  F   UNL A   1      38.248  32.151  37.842  1.00  0.00    -0.203 F 
ATOM     77  F   UNL A   1      40.682  37.032  37.983  1.00  0.00    -0.200 F 
ATOM     78  C   UNL A   1      39.293  35.419  39.006  1.00  0.00     0.200 A 
ATOM     79  F   UNL A   1      37.915  33.772  39.988  1.00  0.00    -0.200 F 
ATOM     80  F   UNL A   1      39.137  36.210  40.077  1.00  0.00    -0.200 F 
ENDBRANCH  46  70
BRANCH  58  81
ATOM     81  C   UNL A   1      44.219  28.877  34.877  1.00  0.00     0.064 A 
ATOM     82  C   UNL A   1      44.146  27.776  35.743  1.00  0.00     0.173 A 
ATOM     83  C   UNL A   1      45.479  29.442  34.636  1.00  0.00     0.173 A 
ATOM     84  F   UNL A   1      42.961  27.212  36.019  1.00  0.00    -0.203 F 
ATOM     85  C   UNL A   1      45.288  27.280  36.367  1.00  0.00     0.198 A 
ATOM     86  C   UNL A   1      46.623  28.926  35.238  1.00  0.00     0.198 A 
ATOM     87  F   UNL A   1      45.603  30.493  33.810  1.00  0.00    -0.203 F 
ATOM     88  F   UNL A   1      45.188  26.260  37.230  1.00  0.00    -0.200 F 
ATOM     89  C   UNL A   1      46.526  27.851  36.109  1.00  0.00     0.200 A 
ATOM     90  F   UNL A   1      47.820  29.472  34.980  1.00  0.00    -0.200 F 
ATOM     91  F   UNL A   1      47.624  27.372  36.708  1.00  0.00    -0.200 F 
ENDBRANCH  58  81
ENDBRANCH  32  33
ENDBRANCH  24  27
ENDBRANCH  22  23
ENDBRANCH  21  22
ENDBRANCH  20  21
ENDBRANCH   1  20
TORSDOF 15
ENDMDL
MODEL 3
REMARK VINA RESULT:     -11.5      1.600      3.068
REMARK SMILES CC(C)(C)OC(=O)N1CCSC[C@@H]1CC(=O)NCCCCNC(=O)c1ccc(-c2c3nc(c(-c4c(F)c(F)c(F)c(F)c4F)c4ccc([nH]4)c(-c4c(F)c(F)c(F)c(F)c4F)c4nc(c(-c5c(F)c(F)c(F)c(F)c5F)c5ccc2[nH]5)C=C4)C=C3)cc1
REMARK SMILES IDX 18 1 17 2 15 3 16 4 14 6 13 7 8 8 9 9 10 10 12 11 11 12 6 13
REMARK SMILES IDX 7 14 5 15 2 16 1 17 3 18 4 19 19 20 20 21 21 22 22 23 23 24
REMARK SMILES IDX 24 26 25 27 26 28 87 29 27 30 86 31 28 32 29 33 30 34 80 35
REMARK SMILES IDX 31 36 85 37 79 38 81 39 32 40 84 41 78 42 77 43 33 45 65 46
REMARK SMILES IDX 45 47 64 48 46 49 49 50 63 51 82 52 47 53 48 54 62 56 83 57
REMARK SMILES IDX 50 58 34 59 35 60 43 61 36 62 37 63 41 64 44 65 38 66 39 67
REMARK SMILES IDX 42 68 40 69 66 70 67 71 75 72 68 73 69 74 73 75 76 76 70 77
REMARK SMILES IDX 71 78 74 79 72 80 51 81 52 82 60 83 53 84 54 85 58 86 61 87
REMARK SMILES IDX 55 88 56 89 59 90 57 91
REMARK H PARENT 17 5 22 25 81 44 49 55
REMARK Flexibility Score: inf
ROOT
ATOM      1  C   UNL A   1      33.089  29.930  26.366  1.00  0.00     0.116 C 
ENDROOT
BRANCH   1   2
ATOM      2  N   UNL A   1      33.583  29.634  25.040  1.00  0.00    -0.356 N 
ATOM      3  C   UNL A   1      33.372  28.527  24.274  1.00  0.00     0.222 C 
ATOM      4  O   UNL A   1      33.966  28.437  23.201  1.00  0.00    -0.275 OA
ATOM      5  H   UNL A   1      34.150  30.329  24.633  1.00  0.00     0.163 HD
BRANCH   3   6
ATOM      6  C   UNL A   1      32.405  27.454  24.736  1.00  0.00     0.126 C 
BRANCH   6   7
ATOM      7  C   UNL A   1      33.077  26.074  24.895  1.00  0.00     0.107 C 
ATOM      8  N   UNL A   1      32.864  25.218  23.709  1.00  0.00    -0.303 N 
ATOM      9  C   UNL A   1      31.484  24.824  23.392  1.00  0.00     0.134 C 
ATOM     10  C   UNL A   1      30.857  23.984  24.511  1.00  0.00     0.091 C 
ATOM     11  C   UNL A   1      32.639  25.291  26.149  1.00  0.00     0.095 C 
ATOM     12  S   UNL A   1      30.871  24.837  26.127  1.00  0.00    -0.158 SA
BRANCH   8  13
ATOM     13  C   UNL A   1      33.963  24.609  23.124  1.00  0.00     0.410 C 
ATOM     14  O   UNL A   1      33.941  24.127  22.000  1.00  0.00    -0.224 OA
BRANCH  13  15
ATOM     15  O   UNL A   1      35.036  24.591  23.951  1.00  0.00    -0.444 OA
BRANCH  15  16
ATOM     16  C   UNL A   1      35.583  23.339  24.442  1.00  0.00     0.106 C 
ATOM     17  C   UNL A   1      36.240  23.706  25.780  1.00  0.00     0.056 C 
ATOM     18  C   UNL A   1      36.653  22.836  23.471  1.00  0.00     0.056 C 
ATOM     19  C   UNL A   1      34.513  22.272  24.714  1.00  0.00     0.056 C 
ENDBRANCH  15  16
ENDBRANCH  13  15
ENDBRANCH   8  13
ENDBRANCH   6   7
ENDBRANCH   3   6
ENDBRANCH   1   2
BRANCH   1  20
ATOM     20  C   UNL A   1      31.642  30.421  26.308  1.00  0.00     0.023 C 
BRANCH  20  21
ATOM     21  C   UNL A   1      31.479  31.929  26.500  1.00  0.00     0.023 C 
BRANCH  21  22
ATOM     22  C   UNL A   1      32.621  32.603  27.251  1.00  0.00     0.116 C 
BRANCH  22  23
ATOM     23  N   UNL A   1      32.347  33.990  27.595  1.00  0.00    -0.352 N 
ATOM     24  C   UNL A   1      32.986  34.789  28.510  1.00  0.00     0.251 C 
ATOM     25  H   UNL A   1      31.603  34.412  27.106  1.00  0.00     0.163 HD
ATOM     26  O   UNL A   1      32.564  35.915  28.752  1.00  0.00    -0.269 OA
BRANCH  24  27
ATOM     27  C   UNL A   1      34.159  34.265  29.237  1.00  0.00     0.039 A 
ATOM     28  C   UNL A   1      33.944  33.513  30.394  1.00  0.00     0.014 A 
ATOM     29  C   UNL A   1      35.455  34.479  28.761  1.00  0.00     0.014 A 
ATOM     30  C   UNL A   1      35.027  32.914  31.034  1.00  0.00     0.010 A 
ATOM     31  C   UNL A   1      36.526  33.823  29.358  1.00  0.00     0.010 A 
ATOM     32  C   UNL A   1      36.321  33.032  30.499  1.00  0.00    -0.014 A 
BRANCH  32  33
ATOM     33  C   UNL A   1      37.461  32.307  31.107  1.00  0.00     0.031 A 
ATOM     34  C   UNL A   1      37.943  32.661  32.483  1.00  0.00     0.074 A 
ATOM     35  C   UNL A   1      38.103  31.371  30.384  1.00  0.00     0.049 A 
ATOM     36  N   UNL A   1      38.928  32.143  33.172  1.00  0.00    -0.248 NA
ATOM     37  C   UNL A   1      37.245  33.763  33.164  1.00  0.00     0.031 C 
ATOM     38  C   UNL A   1      37.779  30.998  29.005  1.00  0.00     0.029 A 
ATOM     39  N   UNL A   1      39.168  30.568  30.703  1.00  0.00    -0.354 N 
ATOM     40  C   UNL A   1      38.976  32.863  34.358  1.00  0.00     0.074 A 
ATOM     41  C   UNL A   1      37.959  33.889  34.272  1.00  0.00     0.031 C 
ATOM     42  C   UNL A   1      38.608  30.021  28.608  1.00  0.00     0.029 A 
ATOM     43  C   UNL A   1      39.536  29.715  29.693  1.00  0.00     0.049 A 
ATOM     44  H   UNL A   1      39.625  30.600  31.575  1.00  0.00     0.167 HD
ATOM     45  C   UNL A   1      39.782  32.669  35.429  1.00  0.00     0.037 A 
ATOM     46  C   UNL A   1      40.507  28.785  29.649  1.00  0.00     0.037 A 
ATOM     47  C   UNL A   1      40.774  31.630  35.518  1.00  0.00     0.049 A 
ATOM     48  C   UNL A   1      41.360  28.560  30.866  1.00  0.00     0.074 A 
ATOM     49  C   UNL A   1      41.582  31.295  36.590  1.00  0.00     0.029 A 
ATOM     50  N   UNL A   1      41.096  30.759  34.487  1.00  0.00    -0.354 N 
ATOM     51  N   UNL A   1      41.334  29.181  32.019  1.00  0.00    -0.248 NA
ATOM     52  C   UNL A   1      42.366  27.493  30.778  1.00  0.00     0.031 C 
ATOM     53  C   UNL A   1      42.422  30.248  36.194  1.00  0.00     0.029 A 
ATOM     54  C   UNL A   1      42.107  29.901  34.890  1.00  0.00     0.049 A 
ATOM     55  H   UNL A   1      40.670  30.752  33.600  1.00  0.00     0.167 HD
ATOM     56  C   UNL A   1      42.306  28.573  32.802  1.00  0.00     0.074 A 
ATOM     57  C   UNL A   1      42.889  27.519  31.997  1.00  0.00     0.031 C 
ATOM     58  C   UNL A   1      42.682  28.863  34.071  1.00  0.00     0.037 A 
BRANCH  45  59
ATOM     59  C   UNL A   1      39.616  33.601  36.593  1.00  0.00     0.064 A 
ATOM     60  C   UNL A   1      40.282  34.835  36.649  1.00  0.00     0.173 A 
ATOM     61  C   UNL A   1      38.769  33.265  37.661  1.00  0.00     0.173 A 
ATOM     62  F   UNL A   1      41.115  35.198  35.661  1.00  0.00    -0.203 F 
ATOM     63  C   UNL A   1      40.135  35.681  37.745  1.00  0.00     0.198 A 
ATOM     64  C   UNL A   1      38.601  34.127  38.741  1.00  0.00     0.198 A 
ATOM     65  F   UNL A   1      38.104  32.100  37.656  1.00  0.00    -0.203 F 
ATOM     66  F   UNL A   1      40.826  36.829  37.800  1.00  0.00    -0.200 F 
ATOM     67  C   UNL A   1      39.291  35.329  38.787  1.00  0.00     0.200 A 
ATOM     68  F   UNL A   1      37.777  33.791  39.743  1.00  0.00    -0.200 F 
ATOM     69  F   UNL A   1      39.151  36.145  39.842  1.00  0.00    -0.200 F 
ENDBRANCH  45  59
BRANCH  46  70
ATOM     70  C   UNL A   1      40.686  27.969  28.423  1.00  0.00     0.064 A 
ATOM     71  C   UNL A   1      41.507  28.413  27.378  1.00  0.00     0.173 A 
ATOM     72  C   UNL A   1      40.067  26.718  28.282  1.00  0.00     0.173 A 
ATOM     73  F   UNL A   1      42.106  29.611  27.462  1.00  0.00    -0.203 F 
ATOM     74  C   UNL A   1      41.693  27.644  26.232  1.00  0.00     0.198 A 
ATOM     75  C   UNL A   1      40.272  25.940  27.146  1.00  0.00     0.198 A 
ATOM     76  F   UNL A   1      39.279  26.246  29.259  1.00  0.00    -0.203 F 
ATOM     77  F   UNL A   1      42.459  28.107  25.234  1.00  0.00    -0.200 F 
ATOM     78  C   UNL A   1      41.081  26.405  26.119  1.00  0.00     0.200 A 
ATOM     79  F   UNL A   1      39.691  24.736  27.047  1.00  0.00    -0.200 F 
ATOM     80  F   UNL A   1      41.269  25.660  25.021  1.00  0.00    -0.200 F 
ENDBRANCH  46  70
BRANCH  58  81
ATOM     81  C   UNL A   1      43.769  28.019  34.669  1.00  0.00     0.064 A 
ATOM     82  C   UNL A   1      45.116  28.405  34.607  1.00  0.00     0.173 A 
ATOM     83  C   UNL A   1      43.458  26.821  35.329  1.00  0.00     0.173 A 
ATOM     84  F   UNL A   1      45.465  29.534  33.971  1.00  0.00    -0.203 F 
ATOM     85  C   UNL A   1      46.115  27.609  35.160  1.00  0.00     0.198 A 
ATOM     86  C   UNL A   1      44.456  26.041  35.905  1.00  0.00     0.198 A 
ATOM     87  F   UNL A   1      42.184  26.409  35.420  1.00  0.00    -0.203 F 
ATOM     88  F   UNL A   1      47.400  27.973  35.045  1.00  0.00    -0.200 F 
ATOM     89  C   UNL A   1      45.784  26.431  35.814  1.00  0.00     0.200 A 
ATOM     90  F   UNL A   1      44.134  24.908  36.546  1.00  0.00    -0.200 F 
ATOM     91  F   UNL A   1      46.747  25.666  36.346  1.00  0.00    -0.200 F 
ENDBRANCH  58  81
ENDBRANCH  32  33
ENDBRANCH  24  27
ENDBRANCH  22  23
ENDBRANCH  21  22
ENDBRANCH  20  21
ENDBRANCH   1  20
TORSDOF 15
ENDMDL
