MODEL 1
REMARK VINA RESULT:     -11.7      0.000      0.000
REMARK SMILES CC[C@H](C)CN(CC)c1nc(C(=O)NCCCCNC(=O)c2ccc(-c3c4nc(c(-c5c(F)c(F)c(F)c(F)c5F)c5ccc([nH]5)c(-c5c(F)c(F)c(F)c(F)c5F)c5nc(c(-c6c(F)c(F)c(F)c(F)c6F)c6ccc3[nH]6)C=C5)C=C4)cc2)cc2ccccc12
REMARK SMILES IDX 15 1 14 2 12 3 13 4 11 6 9 7 10 8 91 9 86 10 90 11 85 12
REMARK SMILES IDX 87 13 89 14 88 15 6 16 5 17 3 18 4 19 2 20 1 21 7 22 8 23
REMARK SMILES IDX 16 24 17 25 18 26 19 27 20 28 21 30 22 31 23 32 84 33 24 34
REMARK SMILES IDX 83 35 25 36 26 37 27 38 77 39 28 40 82 41 76 42 78 43 29 44
REMARK SMILES IDX 81 45 75 46 74 47 30 49 62 50 42 51 61 52 43 53 46 54 60 55
REMARK SMILES IDX 79 56 44 57 45 58 59 60 80 61 47 62 31 63 32 64 40 65 33 66
REMARK SMILES IDX 34 67 38 68 41 69 35 70 36 71 39 72 37 73 63 74 64 75 72 76
REMARK SMILES IDX 65 77 66 78 70 79 73 80 67 81 68 82 71 83 69 84 48 85 49 86
REMARK SMILES IDX 57 87 50 88 51 89 55 90 58 91 52 92 53 93 56 94 54 95
REMARK H PARENT 14 5 19 29 78 48 46 59
REMARK Flexibility Score: inf
ROOT
ATOM      1  C   UNL A   1      32.134  30.268  25.792  1.00  0.00     0.116 C 
ENDROOT
BRANCH   1   2
ATOM      2  N   UNL A   1      33.384  29.999  26.463  1.00  0.00    -0.351 N 
ATOM      3  C   UNL A   1      34.168  28.868  26.435  1.00  0.00     0.269 C 
ATOM      4  O   UNL A   1      35.186  28.879  27.133  1.00  0.00    -0.268 OA
ATOM      5  H   UNL A   1      33.725  30.733  27.025  1.00  0.00     0.163 HD
BRANCH   3   6
ATOM      6  C   UNL A   1      33.849  27.655  25.605  1.00  0.00     0.131 A 
ATOM      7  C   UNL A   1      33.168  25.432  25.443  1.00  0.00     0.137 A 
ATOM      8  N   UNL A   1      33.548  26.478  26.211  1.00  0.00    -0.225 NA
ATOM      9  C   UNL A   1      32.944  25.593  24.047  1.00  0.00     0.024 A 
ATOM     10  C   UNL A   1      33.405  26.772  23.431  1.00  0.00    -0.012 A 
ATOM     11  C   UNL A   1      32.306  24.641  23.219  1.00  0.00     0.012 A 
ATOM     12  C   UNL A   1      33.852  27.819  24.228  1.00  0.00     0.043 A 
ATOM     13  C   UNL A   1      33.412  26.880  22.029  1.00  0.00     0.009 A 
ATOM     14  C   UNL A   1      32.317  24.750  21.828  1.00  0.00     0.001 A 
ATOM     15  C   UNL A   1      32.908  25.855  21.233  1.00  0.00     0.001 A 
BRANCH   7  16
ATOM     16  N   UNL A   1      33.128  24.155  26.025  1.00  0.00    -0.356 N 
BRANCH  16  17
ATOM     17  C   UNL A   1      34.430  23.523  26.386  1.00  0.00     0.121 C 
BRANCH  17  18
ATOM     18  C   UNL A   1      35.502  23.675  25.281  1.00  0.00     0.005 C 
ATOM     19  C   UNL A   1      36.919  23.644  25.870  1.00  0.00     0.009 C 
BRANCH  18  20
ATOM     20  C   UNL A   1      35.385  22.679  24.109  1.00  0.00     0.002 C 
ATOM     21  C   UNL A   1      36.529  22.889  23.112  1.00  0.00     0.004 C 
ENDBRANCH  18  20
ENDBRANCH  17  18
ENDBRANCH  16  17
BRANCH  16  22
ATOM     22  C   UNL A   1      31.975  23.829  26.871  1.00  0.00     0.114 C 
ATOM     23  C   UNL A   1      30.937  22.931  26.216  1.00  0.00     0.027 C 
ENDBRANCH  16  22
ENDBRANCH   7  16
ENDBRANCH   3   6
ENDBRANCH   1   2
BRANCH   1  24
ATOM     24  C   UNL A   1      31.204  31.162  26.600  1.00  0.00     0.023 C 
BRANCH  24  25
ATOM     25  C   UNL A   1      31.497  32.655  26.522  1.00  0.00     0.023 C 
BRANCH  25  26
ATOM     26  C   UNL A   1      32.568  33.160  27.481  1.00  0.00     0.116 C 
BRANCH  26  27
ATOM     27  N   UNL A   1      32.429  34.570  27.810  1.00  0.00    -0.352 N 
ATOM     28  C   UNL A   1      33.096  35.323  28.745  1.00  0.00     0.251 C 
ATOM     29  H   UNL A   1      31.754  35.059  27.284  1.00  0.00     0.163 HD
ATOM     30  O   UNL A   1      32.747  36.481  28.969  1.00  0.00    -0.269 OA
BRANCH  28  31
ATOM     31  C   UNL A   1      34.217  34.734  29.507  1.00  0.00     0.039 A 
ATOM     32  C   UNL A   1      33.949  34.105  30.725  1.00  0.00     0.014 A 
ATOM     33  C   UNL A   1      35.525  34.789  29.021  1.00  0.00     0.014 A 
ATOM     34  C   UNL A   1      34.984  33.477  31.421  1.00  0.00     0.010 A 
ATOM     35  C   UNL A   1      36.534  34.077  29.663  1.00  0.00     0.010 A 
ATOM     36  C   UNL A   1      36.278  33.426  30.878  1.00  0.00    -0.014 A 
BRANCH  36  37
ATOM     37  C   UNL A   1      37.378  32.715  31.582  1.00  0.00     0.031 A 
ATOM     38  C   UNL A   1      38.050  31.535  30.935  1.00  0.00     0.074 A 
ATOM     39  C   UNL A   1      37.742  33.103  32.820  1.00  0.00     0.049 A 
ATOM     40  N   UNL A   1      39.016  30.776  31.392  1.00  0.00    -0.248 NA
ATOM     41  C   UNL A   1      37.555  31.134  29.608  1.00  0.00     0.031 C 
ATOM     42  C   UNL A   1      37.126  34.192  33.580  1.00  0.00     0.029 A 
ATOM     43  N   UNL A   1      38.718  32.625  33.657  1.00  0.00    -0.354 N 
ATOM     44  C   UNL A   1      39.231  29.810  30.419  1.00  0.00     0.074 A 
ATOM     45  C   UNL A   1      38.253  30.032  29.378  1.00  0.00     0.031 C 
ATOM     46  C   UNL A   1      37.763  34.322  34.755  1.00  0.00     0.029 A 
ATOM     47  C   UNL A   1      38.805  33.305  34.848  1.00  0.00     0.049 A 
ATOM     48  H   UNL A   1      39.301  31.866  33.427  1.00  0.00     0.167 HD
ATOM     49  C   UNL A   1      40.180  28.844  30.378  1.00  0.00     0.037 A 
ATOM     50  C   UNL A   1      39.633  33.128  35.895  1.00  0.00     0.037 A 
ATOM     51  C   UNL A   1      41.167  28.640  31.406  1.00  0.00     0.049 A 
ATOM     52  C   UNL A   1      40.679  32.046  35.825  1.00  0.00     0.074 A 
ATOM     53  C   UNL A   1      42.206  27.726  31.436  1.00  0.00     0.029 A 
ATOM     54  N   UNL A   1      41.232  29.358  32.592  1.00  0.00    -0.354 N 
ATOM     55  N   UNL A   1      40.926  31.191  34.863  1.00  0.00    -0.248 NA
ATOM     56  C   UNL A   1      41.571  31.917  36.986  1.00  0.00     0.031 C 
ATOM     57  C   UNL A   1      42.866  27.855  32.662  1.00  0.00     0.029 A 
ATOM     58  C   UNL A   1      42.280  28.893  33.370  1.00  0.00     0.049 A 
ATOM     59  H   UNL A   1      40.625  30.091  32.842  1.00  0.00     0.167 HD
ATOM     60  C   UNL A   1      42.019  30.445  35.286  1.00  0.00     0.074 A 
ATOM     61  C   UNL A   1      42.398  30.963  36.584  1.00  0.00     0.031 C 
ATOM     62  C   UNL A   1      42.651  29.423  34.657  1.00  0.00     0.037 A 
BRANCH  49  63
ATOM     63  C   UNL A   1      40.198  27.937  29.180  1.00  0.00     0.064 A 
ATOM     64  C   UNL A   1      39.512  26.712  29.173  1.00  0.00     0.173 A 
ATOM     65  C   UNL A   1      40.884  28.308  28.014  1.00  0.00     0.173 A 
ATOM     66  F   UNL A   1      38.849  26.303  30.265  1.00  0.00    -0.203 F 
ATOM     67  C   UNL A   1      39.541  25.879  28.057  1.00  0.00     0.198 A 
ATOM     68  C   UNL A   1      40.882  27.489  26.888  1.00  0.00     0.198 A 
ATOM     69  F   UNL A   1      41.552  29.470  27.963  1.00  0.00    -0.203 F 
ATOM     70  F   UNL A   1      38.926  24.689  28.096  1.00  0.00    -0.200 F 
ATOM     71  C   UNL A   1      40.219  26.272  26.914  1.00  0.00     0.200 A 
ATOM     72  F   UNL A   1      41.524  27.877  25.778  1.00  0.00    -0.200 F 
ATOM     73  F   UNL A   1      40.239  25.473  25.838  1.00  0.00    -0.200 F 
ENDBRANCH  49  63
BRANCH  50  74
ATOM     74  C   UNL A   1      39.534  34.015  37.084  1.00  0.00     0.064 A 
ATOM     75  C   UNL A   1      40.180  35.259  37.112  1.00  0.00     0.173 A 
ATOM     76  C   UNL A   1      38.805  33.635  38.221  1.00  0.00     0.173 A 
ATOM     77  F   UNL A   1      40.906  35.661  36.059  1.00  0.00    -0.203 F 
ATOM     78  C   UNL A   1      40.125  36.075  38.241  1.00  0.00     0.198 A 
ATOM     79  C   UNL A   1      38.723  34.466  39.336  1.00  0.00     0.198 A 
ATOM     80  F   UNL A   1      38.163  32.458  38.243  1.00  0.00    -0.203 F 
ATOM     81  F   UNL A   1      40.798  37.234  38.261  1.00  0.00    -0.200 F 
ATOM     82  C   UNL A   1      39.392  35.681  39.349  1.00  0.00     0.200 A 
ATOM     83  F   UNL A   1      38.001  34.088  40.399  1.00  0.00    -0.200 F 
ATOM     84  F   UNL A   1      39.338  36.466  40.434  1.00  0.00    -0.200 F 
ENDBRANCH  50  74
BRANCH  62  85
ATOM     85  C   UNL A   1      43.847  28.826  35.345  1.00  0.00     0.064 A 
ATOM     86  C   UNL A   1      45.146  29.308  35.123  1.00  0.00     0.173 A 
ATOM     87  C   UNL A   1      43.686  27.771  36.256  1.00  0.00     0.173 A 
ATOM     88  F   UNL A   1      45.357  30.306  34.252  1.00  0.00    -0.203 F 
ATOM     89  C   UNL A   1      46.242  28.729  35.758  1.00  0.00     0.198 A 
ATOM     90  C   UNL A   1      44.779  27.220  36.918  1.00  0.00     0.198 A 
ATOM     91  F   UNL A   1      42.465  27.280  36.513  1.00  0.00    -0.203 F 
ATOM     92  F   UNL A   1      47.479  29.163  35.481  1.00  0.00    -0.200 F 
ATOM     93  C   UNL A   1      46.057  27.691  36.659  1.00  0.00     0.200 A 
ATOM     94  F   UNL A   1      44.597  26.229  37.801  1.00  0.00    -0.200 F 
ATOM     95  F   UNL A   1      47.113  27.138  37.271  1.00  0.00    -0.200 F 
ENDBRANCH  62  85
ENDBRANCH  36  37
ENDBRANCH  28  31
ENDBRANCH  26  27
ENDBRANCH  25  26
ENDBRANCH  24  25
ENDBRANCH   1  24
TORSDOF 16
ENDMDL
MODEL 2
REMARK VINA RESULT:     -11.7      1.232      7.404
REMARK SMILES CC[C@H](C)CN(CC)c1nc(C(=O)NCCCCNC(=O)c2ccc(-c3c4nc(c(-c5c(F)c(F)c(F)c(F)c5F)c5ccc([nH]5)c(-c5c(F)c(F)c(F)c(F)c5F)c5nc(c(-c6c(F)c(F)c(F)c(F)c6F)c6ccc3[nH]6)C=C5)C=C4)cc2)cc2ccccc12
REMARK SMILES IDX 15 1 14 2 12 3 13 4 11 6 9 7 10 8 91 9 86 10 90 11 85 12
REMARK SMILES IDX 87 13 89 14 88 15 6 16 5 17 3 18 4 19 2 20 1 21 7 22 8 23
REMARK SMILES IDX 16 24 17 25 18 26 19 27 20 28 21 30 22 31 23 32 84 33 24 34
REMARK SMILES IDX 83 35 25 36 26 37 27 38 77 39 28 40 82 41 76 42 78 43 29 44
REMARK SMILES IDX 81 45 75 46 74 47 30 49 62 50 42 51 61 52 43 53 46 54 60 55
REMARK SMILES IDX 79 56 44 57 45 58 59 60 80 61 47 62 31 63 32 64 40 65 33 66
REMARK SMILES IDX 34 67 38 68 41 69 35 70 36 71 39 72 37 73 63 74 64 75 72 76
REMARK SMILES IDX 65 77 66 78 70 79 73 80 67 81 68 82 71 83 69 84 48 85 49 86
REMARK SMILES IDX 57 87 50 88 51 89 55 90 58 91 52 92 53 93 56 94 54 95
REMARK H PARENT 14 5 19 29 78 48 46 59
REMARK Flexibility Score: inf
ROOT
ATOM      1  C   UNL A   1      33.108  29.857  26.291  1.00  0.00     0.116 C 
ENDROOT
BRANCH   1   2
ATOM      2  N   UNL A   1      33.125  29.805  24.848  1.00  0.00    -0.351 N 
ATOM      3  C   UNL A   1      33.076  28.715  24.010  1.00  0.00     0.269 C 
ATOM      4  O   UNL A   1      33.140  28.941  22.798  1.00  0.00    -0.268 OA
ATOM      5  H   UNL A   1      33.181  30.679  24.398  1.00  0.00     0.163 HD
BRANCH   3   6
ATOM      6  C   UNL A   1      32.942  27.297  24.495  1.00  0.00     0.131 A 
ATOM      7  C   UNL A   1      33.904  25.260  25.091  1.00  0.00     0.137 A 
ATOM      8  N   UNL A   1      34.036  26.495  24.557  1.00  0.00    -0.225 NA
ATOM      9  C   UNL A   1      32.688  24.856  25.710  1.00  0.00     0.024 A 
ATOM     10  C   UNL A   1      31.540  25.644  25.497  1.00  0.00    -0.012 A 
ATOM     11  C   UNL A   1      32.537  23.702  26.512  1.00  0.00     0.012 A 
ATOM     12  C   UNL A   1      31.679  26.887  24.890  1.00  0.00     0.043 A 
ATOM     13  C   UNL A   1      30.277  25.172  25.893  1.00  0.00     0.009 A 
ATOM     14  C   UNL A   1      31.282  23.235  26.901  1.00  0.00     0.001 A 
ATOM     15  C   UNL A   1      30.146  23.953  26.555  1.00  0.00     0.001 A 
BRANCH   7  16
ATOM     16  N   UNL A   1      34.946  24.337  24.906  1.00  0.00    -0.356 N 
BRANCH  16  17
ATOM     17  C   UNL A   1      35.197  23.853  23.517  1.00  0.00     0.121 C 
BRANCH  17  18
ATOM     18  C   UNL A   1      34.273  22.680  23.111  1.00  0.00     0.005 C 
ATOM     19  C   UNL A   1      34.110  21.676  24.261  1.00  0.00     0.009 C 
BRANCH  18  20
ATOM     20  C   UNL A   1      32.893  23.091  22.557  1.00  0.00     0.002 C 
ATOM     21  C   UNL A   1      31.797  22.185  23.127  1.00  0.00     0.004 C 
ENDBRANCH  18  20
ENDBRANCH  17  18
ENDBRANCH  16  17
BRANCH  16  22
ATOM     22  C   UNL A   1      36.109  24.437  25.793  1.00  0.00     0.114 C 
ATOM     23  C   UNL A   1      37.023  23.221  25.788  1.00  0.00     0.027 C 
ENDBRANCH  16  22
ENDBRANCH   7  16
ENDBRANCH   3   6
ENDBRANCH   1   2
BRANCH   1  24
ATOM     24  C   UNL A   1      31.771  30.318  26.855  1.00  0.00     0.023 C 
BRANCH  24  25
ATOM     25  C   UNL A   1      31.531  31.822  26.829  1.00  0.00     0.023 C 
BRANCH  25  26
ATOM     26  C   UNL A   1      32.774  32.684  27.009  1.00  0.00     0.116 C 
BRANCH  26  27
ATOM     27  N   UNL A   1      32.487  34.008  27.541  1.00  0.00    -0.352 N 
ATOM     28  C   UNL A   1      33.067  34.678  28.589  1.00  0.00     0.251 C 
ATOM     29  H   UNL A   1      31.766  34.497  27.080  1.00  0.00     0.163 HD
ATOM     30  O   UNL A   1      32.598  35.747  28.976  1.00  0.00    -0.269 OA
BRANCH  28  31
ATOM     31  C   UNL A   1      34.242  34.100  29.277  1.00  0.00     0.039 A 
ATOM     32  C   UNL A   1      34.038  33.147  30.278  1.00  0.00     0.014 A 
ATOM     33  C   UNL A   1      35.539  34.486  28.932  1.00  0.00     0.014 A 
ATOM     34  C   UNL A   1      35.137  32.536  30.885  1.00  0.00     0.010 A 
ATOM     35  C   UNL A   1      36.630  33.805  29.465  1.00  0.00     0.010 A 
ATOM     36  C   UNL A   1      36.442  32.834  30.458  1.00  0.00    -0.014 A 
BRANCH  36  37
ATOM     37  C   UNL A   1      37.619  32.152  31.058  1.00  0.00     0.031 A 
ATOM     38  C   UNL A   1      38.091  32.530  32.435  1.00  0.00     0.074 A 
ATOM     39  C   UNL A   1      38.288  31.222  30.347  1.00  0.00     0.049 A 
ATOM     40  N   UNL A   1      39.103  32.062  33.123  1.00  0.00    -0.248 NA
ATOM     41  C   UNL A   1      37.345  33.597  33.123  1.00  0.00     0.031 C 
ATOM     42  C   UNL A   1      37.968  30.811  28.979  1.00  0.00     0.029 A 
ATOM     43  N   UNL A   1      39.376  30.455  30.678  1.00  0.00    -0.354 N 
ATOM     44  C   UNL A   1      39.119  32.783  34.310  1.00  0.00     0.074 A 
ATOM     45  C   UNL A   1      38.062  33.765  34.223  1.00  0.00     0.031 C 
ATOM     46  C   UNL A   1      38.817  29.842  28.602  1.00  0.00     0.029 A 
ATOM     47  C   UNL A   1      39.763  29.589  29.684  1.00  0.00     0.049 A 
ATOM     48  H   UNL A   1      39.838  30.519  31.545  1.00  0.00     0.167 HD
ATOM     49  C   UNL A   1      39.920  32.619  35.390  1.00  0.00     0.037 A 
ATOM     50  C   UNL A   1      40.767  28.692  29.650  1.00  0.00     0.037 A 
ATOM     51  C   UNL A   1      40.957  31.625  35.481  1.00  0.00     0.049 A 
ATOM     52  C   UNL A   1      41.644  28.530  30.865  1.00  0.00     0.074 A 
ATOM     53  C   UNL A   1      41.787  31.340  36.552  1.00  0.00     0.029 A 
ATOM     54  N   UNL A   1      41.310  30.755  34.460  1.00  0.00    -0.354 N 
ATOM     55  N   UNL A   1      41.597  29.161  32.013  1.00  0.00    -0.248 NA
ATOM     56  C   UNL A   1      42.706  27.519  30.779  1.00  0.00     0.031 C 
ATOM     57  C   UNL A   1      42.677  30.336  36.158  1.00  0.00     0.029 A 
ATOM     58  C   UNL A   1      42.360  29.949  34.866  1.00  0.00     0.049 A 
ATOM     59  H   UNL A   1      40.877  30.717  33.576  1.00  0.00     0.167 HD
ATOM     60  C   UNL A   1      42.598  28.603  32.796  1.00  0.00     0.074 A 
ATOM     61  C   UNL A   1      43.223  27.568  31.999  1.00  0.00     0.031 C 
ATOM     62  C   UNL A   1      42.967  28.918  34.062  1.00  0.00     0.037 A 
BRANCH  49  63
ATOM     63  C   UNL A   1      39.702  33.535  36.562  1.00  0.00     0.064 A 
ATOM     64  C   UNL A   1      38.838  33.192  37.615  1.00  0.00     0.173 A 
ATOM     65  C   UNL A   1      40.385  34.757  36.649  1.00  0.00     0.173 A 
ATOM     66  F   UNL A   1      38.151  32.041  37.576  1.00  0.00    -0.203 F 
ATOM     67  C   UNL A   1      38.643  34.053  38.692  1.00  0.00     0.198 A 
ATOM     68  C   UNL A   1      40.214  35.599  37.745  1.00  0.00     0.198 A 
ATOM     69  F   UNL A   1      41.227  35.133  35.674  1.00  0.00    -0.203 F 
ATOM     70  F   UNL A   1      37.770  33.728  39.656  1.00  0.00    -0.200 F 
ATOM     71  C   UNL A   1      39.337  35.251  38.760  1.00  0.00     0.200 A 
ATOM     72  F   UNL A   1      40.897  36.750  37.817  1.00  0.00    -0.200 F 
ATOM     73  F   UNL A   1      39.153  36.075  39.801  1.00  0.00    -0.200 F 
ENDBRANCH  49  63
BRANCH  50  74
ATOM     74  C   UNL A   1      40.977  27.852  28.442  1.00  0.00     0.064 A 
ATOM     75  C   UNL A   1      41.862  28.252  27.429  1.00  0.00     0.173 A 
ATOM     76  C   UNL A   1      40.290  26.642  28.264  1.00  0.00     0.173 A 
ATOM     77  F   UNL A   1      42.528  29.410  27.542  1.00  0.00    -0.203 F 
ATOM     78  C   UNL A   1      42.030  27.489  26.275  1.00  0.00     0.198 A 
ATOM     79  C   UNL A   1      40.484  25.864  27.125  1.00  0.00     0.198 A 
ATOM     80  F   UNL A   1      39.437  26.211  29.205  1.00  0.00    -0.203 F 
ATOM     81  F   UNL A   1      42.839  27.923  25.300  1.00  0.00    -0.200 F 
ATOM     82  C   UNL A   1      41.345  26.293  26.126  1.00  0.00     0.200 A 
ATOM     83  F   UNL A   1      39.831  24.701  26.992  1.00  0.00    -0.200 F 
ATOM     84  F   UNL A   1      41.507  25.559  25.017  1.00  0.00    -0.200 F 
ENDBRANCH  50  74
BRANCH  62  85
ATOM     85  C   UNL A   1      44.071  28.105  34.680  1.00  0.00     0.064 A 
ATOM     86  C   UNL A   1      45.413  28.506  34.612  1.00  0.00     0.173 A 
ATOM     87  C   UNL A   1      43.775  26.918  35.368  1.00  0.00     0.173 A 
ATOM     88  F   UNL A   1      45.753  29.625  33.955  1.00  0.00    -0.203 F 
ATOM     89  C   UNL A   1      46.422  27.728  35.177  1.00  0.00     0.198 A 
ATOM     90  C   UNL A   1      44.782  26.163  35.964  1.00  0.00     0.198 A 
ATOM     91  F   UNL A   1      42.507  26.494  35.473  1.00  0.00    -0.203 F 
ATOM     92  F   UNL A   1      47.703  28.099  35.044  1.00  0.00    -0.200 F 
ATOM     93  C   UNL A   1      46.105  26.563  35.858  1.00  0.00     0.200 A 
ATOM     94  F   UNL A   1      44.471  25.047  36.636  1.00  0.00    -0.200 F 
ATOM     95  F   UNL A   1      47.076  25.818  36.403  1.00  0.00    -0.200 F 
ENDBRANCH  62  85
ENDBRANCH  36  37
ENDBRANCH  28  31
ENDBRANCH  26  27
ENDBRANCH  25  26
ENDBRANCH  24  25
ENDBRANCH   1  24
TORSDOF 16
ENDMDL
MODEL 3
REMARK VINA RESULT:     -11.7      4.294      8.159
REMARK SMILES CC[C@H](C)CN(CC)c1nc(C(=O)NCCCCNC(=O)c2ccc(-c3c4nc(c(-c5c(F)c(F)c(F)c(F)c5F)c5ccc([nH]5)c(-c5c(F)c(F)c(F)c(F)c5F)c5nc(c(-c6c(F)c(F)c(F)c(F)c6F)c6ccc3[nH]6)C=C5)C=C4)cc2)cc2ccccc12
REMARK SMILES IDX 15 1 14 2 12 3 13 4 11 6 9 7 10 8 91 9 86 10 90 11 85 12
REMARK SMILES IDX 87 13 89 14 88 15 6 16 5 17 3 18 4 19 2 20 1 21 7 22 8 23
REMARK SMILES IDX 16 24 17 25 18 26 19 27 20 28 21 30 22 31 23 32 84 33 24 34
REMARK SMILES IDX 83 35 25 36 26 37 27 38 77 39 28 40 82 41 76 42 78 43 29 44
REMARK SMILES IDX 81 45 75 46 74 47 30 49 62 50 42 51 61 52 43 53 46 54 60 55
REMARK SMILES IDX 79 56 44 57 45 58 59 60 80 61 47 62 31 63 32 64 40 65 33 66
REMARK SMILES IDX 34 67 38 68 41 69 35 70 36 71 39 72 37 73 63 74 64 75 72 76
REMARK SMILES IDX 65 77 66 78 70 79 73 80 67 81 68 82 71 83 69 84 48 85 49 86
REMARK SMILES IDX 57 87 50 88 51 89 55 90 58 91 52 92 53 93 56 94 54 95
REMARK H PARENT 14 5 19 29 78 48 46 59
REMARK Flexibility Score: inf
ROOT
ATOM      1  C   UNL A   1      33.396  23.017  25.225  1.00  0.00     0.116 C 
ENDROOT
BRANCH   1   2
ATOM      2  N   UNL A   1      32.231  22.971  26.077  1.00  0.00    -0.351 N 
ATOM      3  C   UNL A   1      31.405  23.993  26.487  1.00  0.00     0.269 C 
ATOM      4  O   UNL A   1      30.484  23.693  27.251  1.00  0.00    -0.268 OA
ATOM      5  H   UNL A   1      31.992  22.078  26.414  1.00  0.00     0.163 HD
BRANCH   3   6
ATOM      6  C   UNL A   1      31.568  25.423  26.047  1.00  0.00     0.131 A 
ATOM      7  C   UNL A   1      30.905  27.225  24.727  1.00  0.00     0.137 A 
ATOM      8  N   UNL A   1      30.809  25.912  25.034  1.00  0.00    -0.225 NA
ATOM      9  C   UNL A   1      31.670  28.111  25.536  1.00  0.00     0.024 A 
ATOM     10  C   UNL A   1      32.556  27.554  26.478  1.00  0.00    -0.012 A 
ATOM     11  C   UNL A   1      31.623  29.521  25.451  1.00  0.00     0.012 A 
ATOM     12  C   UNL A   1      32.491  26.191  26.741  1.00  0.00     0.043 A 
ATOM     13  C   UNL A   1      33.491  28.371  27.137  1.00  0.00     0.009 A 
ATOM     14  C   UNL A   1      32.554  30.329  26.104  1.00  0.00     0.001 A 
ATOM     15  C   UNL A   1      33.515  29.747  26.918  1.00  0.00     0.001 A 
BRANCH   7  16
ATOM     16  N   UNL A   1      30.344  27.672  23.520  1.00  0.00    -0.356 N 
BRANCH  16  17
ATOM     17  C   UNL A   1      31.137  27.463  22.274  1.00  0.00     0.121 C 
BRANCH  17  18
ATOM     18  C   UNL A   1      32.318  26.482  22.468  1.00  0.00     0.005 C 
ATOM     19  C   UNL A   1      32.518  25.599  21.229  1.00  0.00     0.009 C 
BRANCH  18  20
ATOM     20  C   UNL A   1      33.652  27.133  22.886  1.00  0.00     0.002 C 
ATOM     21  C   UNL A   1      33.721  28.580  22.385  1.00  0.00     0.004 C 
ENDBRANCH  18  20
ENDBRANCH  17  18
ENDBRANCH  16  17
BRANCH  16  22
ATOM     22  C   UNL A   1      28.884  27.629  23.391  1.00  0.00     0.114 C 
ATOM     23  C   UNL A   1      28.246  28.928  22.924  1.00  0.00     0.027 C 
ENDBRANCH  16  22
ENDBRANCH   7  16
ENDBRANCH   3   6
ENDBRANCH   1   2
BRANCH   1  24
ATOM     24  C   UNL A   1      34.692  22.728  25.971  1.00  0.00     0.023 C 
BRANCH  24  25
ATOM     25  C   UNL A   1      35.739  23.834  25.921  1.00  0.00     0.023 C 
BRANCH  25  26
ATOM     26  C   UNL A   1      36.878  23.608  24.936  1.00  0.00     0.116 C 
BRANCH  26  27
ATOM     27  N   UNL A   1      37.850  22.626  25.393  1.00  0.00    -0.352 N 
ATOM     28  C   UNL A   1      38.992  22.801  26.135  1.00  0.00     0.251 C 
ATOM     29  H   UNL A   1      37.661  21.696  25.131  1.00  0.00     0.163 HD
ATOM     30  O   UNL A   1      39.763  21.860  26.315  1.00  0.00    -0.269 OA
BRANCH  28  31
ATOM     31  C   UNL A   1      39.315  24.131  26.694  1.00  0.00     0.039 A 
ATOM     32  C   UNL A   1      38.921  24.429  28.001  1.00  0.00     0.014 A 
ATOM     33  C   UNL A   1      40.011  25.079  25.940  1.00  0.00     0.014 A 
ATOM     34  C   UNL A   1      39.284  25.651  28.571  1.00  0.00     0.010 A 
ATOM     35  C   UNL A   1      40.458  26.251  26.542  1.00  0.00     0.010 A 
ATOM     36  C   UNL A   1      40.087  26.557  27.859  1.00  0.00    -0.014 A 
BRANCH  36  37
ATOM     37  C   UNL A   1      40.526  27.838  28.473  1.00  0.00     0.031 A 
ATOM     38  C   UNL A   1      41.969  28.042  28.845  1.00  0.00     0.074 A 
ATOM     39  C   UNL A   1      39.620  28.801  28.734  1.00  0.00     0.049 A 
ATOM     40  N   UNL A   1      42.544  29.080  29.402  1.00  0.00    -0.248 NA
ATOM     41  C   UNL A   1      42.887  26.921  28.585  1.00  0.00     0.031 C 
ATOM     42  C   UNL A   1      38.182  28.701  28.477  1.00  0.00     0.029 A 
ATOM     43  N   UNL A   1      39.774  30.053  29.274  1.00  0.00    -0.354 N 
ATOM     44  C   UNL A   1      43.878  28.731  29.566  1.00  0.00     0.074 A 
ATOM     45  C   UNL A   1      44.016  27.364  29.117  1.00  0.00     0.031 C 
ATOM     46  C   UNL A   1      37.593  29.856  28.825  1.00  0.00     0.029 A 
ATOM     47  C   UNL A   1      38.601  30.763  29.363  1.00  0.00     0.049 A 
ATOM     48  H   UNL A   1      40.642  30.409  29.570  1.00  0.00     0.167 HD
ATOM     49  C   UNL A   1      44.903  29.491  30.019  1.00  0.00     0.037 A 
ATOM     50  C   UNL A   1      38.367  32.006  29.825  1.00  0.00     0.037 A 
ATOM     51  C   UNL A   1      44.766  30.859  30.445  1.00  0.00     0.049 A 
ATOM     52  C   UNL A   1      39.525  32.831  30.324  1.00  0.00     0.074 A 
ATOM     53  C   UNL A   1      45.751  31.734  30.869  1.00  0.00     0.029 A 
ATOM     54  N   UNL A   1      43.564  31.550  30.508  1.00  0.00    -0.354 N 
ATOM     55  N   UNL A   1      40.796  32.518  30.398  1.00  0.00    -0.248 NA
ATOM     56  C   UNL A   1      39.213  34.188  30.792  1.00  0.00     0.031 C 
ATOM     57  C   UNL A   1      45.138  32.936  31.239  1.00  0.00     0.029 A 
ATOM     58  C   UNL A   1      43.779  32.833  30.984  1.00  0.00     0.049 A 
ATOM     59  H   UNL A   1      42.688  31.182  30.250  1.00  0.00     0.167 HD
ATOM     60  C   UNL A   1      41.439  33.647  30.887  1.00  0.00     0.074 A 
ATOM     61  C   UNL A   1      40.420  34.658  31.075  1.00  0.00     0.031 C 
ATOM     62  C   UNL A   1      42.755  33.831  31.158  1.00  0.00     0.037 A 
BRANCH  49  63
ATOM     63  C   UNL A   1      46.266  28.859  30.073  1.00  0.00     0.064 A 
ATOM     64  C   UNL A   1      46.715  28.171  31.212  1.00  0.00     0.173 A 
ATOM     65  C   UNL A   1      47.124  28.916  28.965  1.00  0.00     0.173 A 
ATOM     66  F   UNL A   1      45.939  28.095  32.305  1.00  0.00    -0.203 F 
ATOM     67  C   UNL A   1      47.982  27.594  31.250  1.00  0.00     0.198 A 
ATOM     68  C   UNL A   1      48.376  28.308  28.994  1.00  0.00     0.198 A 
ATOM     69  F   UNL A   1      46.745  29.555  27.848  1.00  0.00    -0.203 F 
ATOM     70  F   UNL A   1      48.408  26.992  32.369  1.00  0.00    -0.200 F 
ATOM     71  C   UNL A   1      48.807  27.656  30.138  1.00  0.00     0.200 A 
ATOM     72  F   UNL A   1      49.167  28.355  27.913  1.00  0.00    -0.200 F 
ATOM     73  F   UNL A   1      50.023  27.094  30.173  1.00  0.00    -0.200 F 
ENDBRANCH  49  63
BRANCH  50  74
ATOM     74  C   UNL A   1      36.989  32.563  29.806  1.00  0.00     0.064 A 
ATOM     75  C   UNL A   1      36.510  33.268  28.691  1.00  0.00     0.173 A 
ATOM     76  C   UNL A   1      36.126  32.417  30.902  1.00  0.00     0.173 A 
ATOM     77  F   UNL A   1      37.302  33.452  27.626  1.00  0.00    -0.203 F 
ATOM     78  C   UNL A   1      35.234  33.828  28.686  1.00  0.00     0.198 A 
ATOM     79  C   UNL A   1      34.838  32.948  30.883  1.00  0.00     0.198 A 
ATOM     80  F   UNL A   1      36.532  31.746  31.990  1.00  0.00    -0.203 F 
ATOM     81  F   UNL A   1      34.824  34.544  27.630  1.00  0.00    -0.200 F 
ATOM     82  C   UNL A   1      34.398  33.663  29.779  1.00  0.00     0.200 A 
ATOM     83  F   UNL A   1      34.028  32.773  31.935  1.00  0.00    -0.200 F 
ATOM     84  F   UNL A   1      33.170  34.200  29.773  1.00  0.00    -0.200 F 
ENDBRANCH  50  74
BRANCH  62  85
ATOM     85  C   UNL A   1      43.175  35.190  31.645  1.00  0.00     0.064 A 
ATOM     86  C   UNL A   1      43.111  35.544  33.001  1.00  0.00     0.173 A 
ATOM     87  C   UNL A   1      43.667  36.144  30.741  1.00  0.00     0.173 A 
ATOM     88  F   UNL A   1      42.635  34.674  33.905  1.00  0.00    -0.203 F 
ATOM     89  C   UNL A   1      43.489  36.815  33.428  1.00  0.00     0.198 A 
ATOM     90  C   UNL A   1      44.080  37.400  31.176  1.00  0.00     0.198 A 
ATOM     91  F   UNL A   1      43.760  35.854  29.435  1.00  0.00    -0.203 F 
ATOM     92  F   UNL A   1      43.359  37.151  34.718  1.00  0.00    -0.200 F 
ATOM     93  C   UNL A   1      43.979  37.739  32.517  1.00  0.00     0.200 A 
ATOM     94  F   UNL A   1      44.570  38.285  30.298  1.00  0.00    -0.200 F 
ATOM     95  F   UNL A   1      44.345  38.960  32.930  1.00  0.00    -0.200 F 
ENDBRANCH  62  85
ENDBRANCH  36  37
ENDBRANCH  28  31
ENDBRANCH  26  27
ENDBRANCH  25  26
ENDBRANCH  24  25
ENDBRANCH   1  24
TORSDOF 16
ENDMDL
