MODEL 1
REMARK VINA RESULT:     -12.1      0.000      0.000
REMARK SMILES N#CCC[NH+]1CCN(c2cc(C(=O)NCCCCNC(=O)c3ccc(-c4c5nc(c(-c6c(F)c(F)c(F)c(F)c6F)c6ccc([nH]6)c(-c6c(F)c(F)c(F)c(F)c6F)c6nc(c(-c7c(F)c(F)c(F)c(F)c7F)c7ccc4[nH]7)C=C6)C=C5)cc3)c3cc(NS(=O)(=O)c4ccccc4Cl)ccc3n2)CC1
REMARK SMILES IDX 15 1 14 2 12 3 13 4 11 6 9 7 10 8 102 9 101 10 85 11 100 12
REMARK SMILES IDX 86 13 99 14 87 15 8 16 5 17 6 18 104 19 7 21 103 22 4 23
REMARK SMILES IDX 3 24 2 25 1 26 88 27 89 29 90 30 91 31 92 32 93 33 97 34
REMARK SMILES IDX 94 35 96 36 98 37 95 38 16 39 17 40 18 41 19 42 20 43 21 45
REMARK SMILES IDX 22 46 23 47 84 48 24 49 83 50 25 51 26 52 27 53 77 54 28 55
REMARK SMILES IDX 82 56 76 57 78 58 29 59 81 60 75 61 74 62 30 64 62 65 42 66
REMARK SMILES IDX 61 67 43 68 46 69 60 70 79 71 44 72 45 73 59 75 80 76 47 77
REMARK SMILES IDX 31 78 32 79 40 80 33 81 34 82 38 83 41 84 35 85 36 86 39 87
REMARK SMILES IDX 37 88 63 89 64 90 72 91 65 92 66 93 70 94 73 95 67 96 68 97
REMARK SMILES IDX 71 98 69 99 48 100 49 101 57 102 50 103 51 104 55 105 58 106
REMARK SMILES IDX 52 107 53 108 56 109 54 110
REMARK H PARENT 14 5 5 20 88 28 19 44 78 63 46 74
REMARK Flexibility Score: inf
ROOT
ATOM      1  C   UNL A   1      44.577  21.995  35.039  1.00  0.00     0.116 C 
ENDROOT
BRANCH   1   2
ATOM      2  N   UNL A   1      44.745  20.560  34.880  1.00  0.00    -0.352 N 
ATOM      3  C   UNL A   1      45.610  19.630  35.453  1.00  0.00     0.252 C 
ATOM      4  O   UNL A   1      45.348  18.453  35.167  1.00  0.00    -0.269 OA
ATOM      5  H   UNL A   1      44.117  20.163  34.233  1.00  0.00     0.163 HD
BRANCH   3   6
ATOM      6  C   UNL A   1      46.838  19.859  36.330  1.00  0.00     0.052 A 
ATOM      7  C   UNL A   1      49.232  20.381  36.228  1.00  0.00     0.130 A 
ATOM      8  C   UNL A   1      47.985  20.239  35.613  1.00  0.00     0.061 A 
ATOM      9  N   UNL A   1      49.383  20.174  37.539  1.00  0.00    -0.231 NA
ATOM     10  C   UNL A   1      48.355  19.714  38.238  1.00  0.00     0.074 A 
ATOM     11  C   UNL A   1      47.070  19.525  37.681  1.00  0.00     0.015 A 
ATOM     12  C   UNL A   1      48.627  19.299  39.535  1.00  0.00     0.031 A 
ATOM     13  C   UNL A   1      46.166  18.839  38.470  1.00  0.00     0.038 A 
ATOM     14  C   UNL A   1      47.732  18.490  40.231  1.00  0.00     0.029 A 
ATOM     15  C   UNL A   1      46.530  18.171  39.627  1.00  0.00     0.050 A 
BRANCH   7  16
ATOM     16  N   UNL A   1      50.354  20.698  35.492  1.00  0.00    -0.345 N 
ATOM     17  N   UNL A   1      53.266  20.930  35.582  1.00  0.00    -0.331 N 
ATOM     18  C   UNL A   1      52.361  21.748  36.419  1.00  0.00     0.284 C 
ATOM     19  C   UNL A   1      52.627  19.599  35.424  1.00  0.00     0.284 C 
ATOM     20  H   UNL A   1      54.171  20.864  36.047  1.00  0.00     0.348 HD
ATOM     21  C   UNL A   1      50.991  21.980  35.762  1.00  0.00     0.179 C 
ATOM     22  C   UNL A   1      51.174  19.630  34.880  1.00  0.00     0.179 C 
BRANCH  17  23
ATOM     23  C   UNL A   1      53.562  21.532  34.267  1.00  0.00     0.277 C 
BRANCH  23  24
ATOM     24  C   UNL A   1      54.493  22.746  34.291  1.00  0.00     0.181 C 
BRANCH  24  25
ATOM     25  C   UNL A   1      55.016  23.030  32.892  1.00  0.00     0.068 C 
ATOM     26  N   UNL A   1      55.449  23.266  31.732  1.00  0.00    -0.198 NA
ENDBRANCH  24  25
ENDBRANCH  23  24
ENDBRANCH  17  23
ENDBRANCH   7  16
BRANCH  15  27
ATOM     27  N   UNL A   1      45.784  17.052  40.076  1.00  0.00    -0.280 N 
ATOM     28  H   UNL A   1      45.895  16.203  39.590  1.00  0.00     0.180 HD
BRANCH  27  29
ATOM     29  S   UNL A   1      44.724  17.073  41.380  1.00  0.00     0.263 S 
ATOM     30  O   UNL A   1      45.471  16.715  42.555  1.00  0.00    -0.201 OA
ATOM     31  O   UNL A   1      44.048  18.360  41.299  1.00  0.00    -0.201 OA
BRANCH  29  32
ATOM     32  C   UNL A   1      43.460  15.813  41.171  1.00  0.00     0.106 A 
ATOM     33  C   UNL A   1      42.977  15.174  42.328  1.00  0.00     0.024 A 
ATOM     34  C   UNL A   1      42.968  15.395  39.943  1.00  0.00     0.061 A 
ATOM     35  C   UNL A   1      42.041  14.141  42.287  1.00  0.00     0.002 A 
ATOM     36  C   UNL A   1      42.023  14.348  39.896  1.00  0.00     0.022 A 
ATOM     37  Cl  UNL A   1      43.457  16.083  38.444  1.00  0.00    -0.083 Cl
ATOM     38  C   UNL A   1      41.565  13.720  41.059  1.00  0.00     0.002 A 
ENDBRANCH  29  32
ENDBRANCH  27  29
ENDBRANCH  15  27
ENDBRANCH   3   6
ENDBRANCH   1   2
BRANCH   1  39
ATOM     39  C   UNL A   1      45.264  22.985  34.095  1.00  0.00     0.023 C 
BRANCH  39  40
ATOM     40  C   UNL A   1      46.772  23.314  34.206  1.00  0.00     0.023 C 
BRANCH  40  41
ATOM     41  C   UNL A   1      47.446  24.679  33.930  1.00  0.00     0.116 C 
BRANCH  41  42
ATOM     42  N   UNL A   1      48.250  25.328  34.945  1.00  0.00    -0.352 N 
ATOM     43  C   UNL A   1      47.903  26.458  35.676  1.00  0.00     0.251 C 
ATOM     44  H   UNL A   1      49.130  24.930  35.135  1.00  0.00     0.163 HD
ATOM     45  O   UNL A   1      48.630  26.912  36.553  1.00  0.00    -0.269 OA
BRANCH  43  46
ATOM     46  C   UNL A   1      46.630  27.153  35.368  1.00  0.00     0.039 A 
ATOM     47  C   UNL A   1      46.674  28.380  34.703  1.00  0.00     0.014 A 
ATOM     48  C   UNL A   1      45.399  26.566  35.681  1.00  0.00     0.014 A 
ATOM     49  C   UNL A   1      45.488  28.958  34.239  1.00  0.00     0.010 A 
ATOM     50  C   UNL A   1      44.218  27.124  35.182  1.00  0.00     0.010 A 
ATOM     51  C   UNL A   1      44.255  28.304  34.420  1.00  0.00    -0.014 A 
BRANCH  51  52
ATOM     52  C   UNL A   1      43.038  28.802  33.721  1.00  0.00     0.031 A 
ATOM     53  C   UNL A   1      42.057  29.710  34.403  1.00  0.00     0.074 A 
ATOM     54  C   UNL A   1      42.806  28.401  32.454  1.00  0.00     0.049 A 
ATOM     55  N   UNL A   1      40.976  30.271  33.920  1.00  0.00    -0.248 NA
ATOM     56  C   UNL A   1      42.313  30.017  35.817  1.00  0.00     0.031 C 
ATOM     57  C   UNL A   1      43.651  27.474  31.698  1.00  0.00     0.029 A 
ATOM     58  N   UNL A   1      41.799  28.720  31.575  1.00  0.00    -0.354 N 
ATOM     59  C   UNL A   1      40.427  31.004  34.964  1.00  0.00     0.074 A 
ATOM     60  C   UNL A   1      41.266  30.773  36.122  1.00  0.00     0.031 C 
ATOM     61  C   UNL A   1      43.148  27.326  30.463  1.00  0.00     0.029 A 
ATOM     62  C   UNL A   1      41.932  28.123  30.343  1.00  0.00     0.049 A 
ATOM     63  H   UNL A   1      41.053  29.320  31.806  1.00  0.00     0.167 HD
ATOM     64  C   UNL A   1      39.337  31.810  34.951  1.00  0.00     0.037 A 
ATOM     65  C   UNL A   1      41.164  28.213  29.239  1.00  0.00     0.037 A 
ATOM     66  C   UNL A   1      38.504  32.037  33.797  1.00  0.00     0.049 A 
ATOM     67  C   UNL A   1      39.957  29.111  29.254  1.00  0.00     0.074 A 
ATOM     68  C   UNL A   1      37.408  32.874  33.674  1.00  0.00     0.029 A 
ATOM     69  N   UNL A   1      38.670  31.418  32.567  1.00  0.00    -0.354 N 
ATOM     70  N   UNL A   1      39.501  29.868  30.223  1.00  0.00    -0.248 NA
ATOM     71  C   UNL A   1      39.164  29.178  28.018  1.00  0.00     0.031 C 
ATOM     72  C   UNL A   1      36.882  32.724  32.385  1.00  0.00     0.029 A 
ATOM     73  C   UNL A   1      37.682  31.833  31.688  1.00  0.00     0.049 A 
ATOM     74  H   UNL A   1      39.385  30.776  32.350  1.00  0.00     0.167 HD
ATOM     75  C   UNL A   1      38.386  30.516  29.709  1.00  0.00     0.074 A 
ATOM     76  C   UNL A   1      38.245  30.079  28.336  1.00  0.00     0.031 C 
ATOM     77  C   UNL A   1      37.553  31.392  30.321  1.00  0.00     0.037 A 
BRANCH  64  78
ATOM     78  C   UNL A   1      38.979  32.510  36.231  1.00  0.00     0.064 A 
ATOM     79  C   UNL A   1      38.190  31.887  37.211  1.00  0.00     0.173 A 
ATOM     80  C   UNL A   1      39.458  33.800  36.500  1.00  0.00     0.173 A 
ATOM     81  F   UNL A   1      37.704  30.654  37.002  1.00  0.00    -0.203 F 
ATOM     82  C   UNL A   1      37.868  32.543  38.397  1.00  0.00     0.198 A 
ATOM     83  C   UNL A   1      39.158  34.442  37.700  1.00  0.00     0.198 A 
ATOM     84  F   UNL A   1      40.226  34.438  35.603  1.00  0.00    -0.203 F 
ATOM     85  F   UNL A   1      37.074  31.945  39.297  1.00  0.00    -0.200 F 
ATOM     86  C   UNL A   1      38.356  33.817  38.643  1.00  0.00     0.200 A 
ATOM     87  F   UNL A   1      39.643  35.668  37.943  1.00  0.00    -0.200 F 
ATOM     88  F   UNL A   1      38.050  34.445  39.786  1.00  0.00    -0.200 F 
ENDBRANCH  64  78
BRANCH  65  89
ATOM     89  C   UNL A   1      41.533  27.455  28.014  1.00  0.00     0.064 A 
ATOM     90  C   UNL A   1      41.033  26.165  27.784  1.00  0.00     0.173 A 
ATOM     91  C   UNL A   1      42.395  27.999  27.051  1.00  0.00     0.173 A 
ATOM     92  F   UNL A   1      40.222  25.591  28.685  1.00  0.00    -0.203 F 
ATOM     93  C   UNL A   1      41.397  25.442  26.649  1.00  0.00     0.198 A 
ATOM     94  C   UNL A   1      42.736  27.288  25.903  1.00  0.00     0.198 A 
ATOM     95  F   UNL A   1      42.899  29.231  27.220  1.00  0.00    -0.203 F 
ATOM     96  F   UNL A   1      40.940  24.194  26.478  1.00  0.00    -0.200 F 
ATOM     97  C   UNL A   1      42.243  26.006  25.707  1.00  0.00     0.200 A 
ATOM     98  F   UNL A   1      43.542  27.842  24.987  1.00  0.00    -0.200 F 
ATOM     99  F   UNL A   1      42.588  25.313  24.613  1.00  0.00    -0.200 F 
ENDBRANCH  65  89
BRANCH  77 100
ATOM    100  C   UNL A   1      36.427  31.956  29.505  1.00  0.00     0.064 A 
ATOM    101  C   UNL A   1      35.343  31.163  29.101  1.00  0.00     0.173 A 
ATOM    102  C   UNL A   1      36.413  33.315  29.154  1.00  0.00     0.173 A 
ATOM    103  F   UNL A   1      35.316  29.854  29.397  1.00  0.00    -0.203 F 
ATOM    104  C   UNL A   1      34.298  31.704  28.356  1.00  0.00     0.198 A 
ATOM    105  C   UNL A   1      35.353  33.859  28.434  1.00  0.00     0.198 A 
ATOM    106  F   UNL A   1      37.422  34.118  29.521  1.00  0.00    -0.203 F 
ATOM    107  F   UNL A   1      33.295  30.917  27.941  1.00  0.00    -0.200 F 
ATOM    108  C   UNL A   1      34.299  33.052  28.030  1.00  0.00     0.200 A 
ATOM    109  F   UNL A   1      35.349  35.164  28.131  1.00  0.00    -0.200 F 
ATOM    110  F   UNL A   1      33.290  33.572  27.319  1.00  0.00    -0.200 F 
ENDBRANCH  77 100
ENDBRANCH  51  52
ENDBRANCH  43  46
ENDBRANCH  41  42
ENDBRANCH  40  41
ENDBRANCH  39  40
ENDBRANCH   1  39
TORSDOF 18
ENDMDL
MODEL 2
REMARK VINA RESULT:     -12.0      1.041      6.969
REMARK SMILES N#CCC[NH+]1CCN(c2cc(C(=O)NCCCCNC(=O)c3ccc(-c4c5nc(c(-c6c(F)c(F)c(F)c(F)c6F)c6ccc([nH]6)c(-c6c(F)c(F)c(F)c(F)c6F)c6nc(c(-c7c(F)c(F)c(F)c(F)c7F)c7ccc4[nH]7)C=C6)C=C5)cc3)c3cc(NS(=O)(=O)c4ccccc4Cl)ccc3n2)CC1
REMARK SMILES IDX 15 1 14 2 12 3 13 4 11 6 9 7 10 8 102 9 101 10 85 11 100 12
REMARK SMILES IDX 86 13 99 14 87 15 8 16 5 17 6 18 104 19 7 21 103 22 4 23
REMARK SMILES IDX 3 24 2 25 1 26 88 27 89 29 90 30 91 31 92 32 93 33 97 34
REMARK SMILES IDX 94 35 96 36 98 37 95 38 16 39 17 40 18 41 19 42 20 43 21 45
REMARK SMILES IDX 22 46 23 47 84 48 24 49 83 50 25 51 26 52 27 53 77 54 28 55
REMARK SMILES IDX 82 56 76 57 78 58 29 59 81 60 75 61 74 62 30 64 62 65 42 66
REMARK SMILES IDX 61 67 43 68 46 69 60 70 79 71 44 72 45 73 59 75 80 76 47 77
REMARK SMILES IDX 31 78 32 79 40 80 33 81 34 82 38 83 41 84 35 85 36 86 39 87
REMARK SMILES IDX 37 88 63 89 64 90 72 91 65 92 66 93 70 94 73 95 67 96 68 97
REMARK SMILES IDX 71 98 69 99 48 100 49 101 57 102 50 103 51 104 55 105 58 106
REMARK SMILES IDX 52 107 53 108 56 109 54 110
REMARK H PARENT 14 5 5 20 88 28 19 44 78 63 46 74
REMARK Flexibility Score: inf
ROOT
ATOM      1  C   UNL A   1      44.632  21.906  35.271  1.00  0.00     0.116 C 
ENDROOT
BRANCH   1   2
ATOM      2  N   UNL A   1      44.793  20.486  35.002  1.00  0.00    -0.352 N 
ATOM      3  C   UNL A   1      45.612  19.499  35.545  1.00  0.00     0.252 C 
ATOM      4  O   UNL A   1      45.355  18.354  35.147  1.00  0.00    -0.269 OA
ATOM      5  H   UNL A   1      44.202  20.155  34.289  1.00  0.00     0.163 HD
BRANCH   3   6
ATOM      6  C   UNL A   1      46.787  19.635  36.510  1.00  0.00     0.052 A 
ATOM      7  C   UNL A   1      49.209  20.010  36.586  1.00  0.00     0.130 A 
ATOM      8  C   UNL A   1      48.002  19.958  35.883  1.00  0.00     0.061 A 
ATOM      9  N   UNL A   1      49.255  19.769  37.900  1.00  0.00    -0.231 NA
ATOM     10  C   UNL A   1      48.155  19.358  38.515  1.00  0.00     0.074 A 
ATOM     11  C   UNL A   1      46.904  19.260  37.866  1.00  0.00     0.015 A 
ATOM     12  C   UNL A   1      48.310  18.902  39.816  1.00  0.00     0.031 A 
ATOM     13  C   UNL A   1      45.907  18.615  38.574  1.00  0.00     0.038 A 
ATOM     14  C   UNL A   1      47.322  18.136  40.429  1.00  0.00     0.029 A 
ATOM     15  C   UNL A   1      46.148  17.903  39.737  1.00  0.00     0.050 A 
BRANCH   7  16
ATOM     16  N   UNL A   1      50.397  20.273  35.937  1.00  0.00    -0.345 N 
ATOM     17  N   UNL A   1      51.616  21.707  33.702  1.00  0.00    -0.331 N 
ATOM     18  C   UNL A   1      50.601  20.646  33.527  1.00  0.00     0.284 C 
ATOM     19  C   UNL A   1      51.282  22.426  34.958  1.00  0.00     0.284 C 
ATOM     20  H   UNL A   1      51.587  22.326  32.891  1.00  0.00     0.348 HD
ATOM     21  C   UNL A   1      50.624  19.608  34.660  1.00  0.00     0.179 C 
ATOM     22  C   UNL A   1      51.139  21.522  36.211  1.00  0.00     0.179 C 
BRANCH  17  23
ATOM     23  C   UNL A   1      53.003  21.201  33.738  1.00  0.00     0.277 C 
BRANCH  23  24
ATOM     24  C   UNL A   1      53.853  21.518  32.506  1.00  0.00     0.181 C 
BRANCH  24  25
ATOM     25  C   UNL A   1      54.295  22.973  32.539  1.00  0.00     0.068 C 
ATOM     26  N   UNL A   1      54.661  24.179  32.565  1.00  0.00    -0.198 NA
ENDBRANCH  24  25
ENDBRANCH  23  24
ENDBRANCH  17  23
ENDBRANCH   7  16
BRANCH  15  27
ATOM     27  N   UNL A   1      45.307  16.823  40.106  1.00  0.00    -0.280 N 
ATOM     28  H   UNL A   1      45.209  16.081  39.468  1.00  0.00     0.180 HD
BRANCH  27  29
ATOM     29  S   UNL A   1      44.466  16.722  41.558  1.00  0.00     0.263 S 
ATOM     30  O   UNL A   1      45.410  16.379  42.586  1.00  0.00    -0.201 OA
ATOM     31  O   UNL A   1      43.702  17.959  41.641  1.00  0.00    -0.201 OA
BRANCH  29  32
ATOM     32  C   UNL A   1      43.271  15.382  41.489  1.00  0.00     0.106 A 
ATOM     33  C   UNL A   1      42.784  15.005  40.224  1.00  0.00     0.024 A 
ATOM     34  C   UNL A   1      42.761  14.732  42.604  1.00  0.00     0.061 A 
ATOM     35  C   UNL A   1      41.811  14.020  40.050  1.00  0.00     0.002 A 
ATOM     36  C   UNL A   1      41.774  13.737  42.433  1.00  0.00     0.022 A 
ATOM     37  Cl  UNL A   1      43.261  15.078  44.212  1.00  0.00    -0.083 Cl
ATOM     38  C   UNL A   1      41.298  13.386  41.165  1.00  0.00     0.002 A 
ENDBRANCH  29  32
ENDBRANCH  27  29
ENDBRANCH  15  27
ENDBRANCH   3   6
ENDBRANCH   1   2
BRANCH   1  39
ATOM     39  C   UNL A   1      45.760  22.901  34.991  1.00  0.00     0.023 C 
BRANCH  39  40
ATOM     40  C   UNL A   1      46.949  23.091  35.963  1.00  0.00     0.023 C 
BRANCH  40  41
ATOM     41  C   UNL A   1      47.959  24.263  35.976  1.00  0.00     0.116 C 
BRANCH  41  42
ATOM     42  N   UNL A   1      47.980  25.213  37.069  1.00  0.00    -0.352 N 
ATOM     43  C   UNL A   1      47.173  26.336  37.203  1.00  0.00     0.251 C 
ATOM     44  H   UNL A   1      48.631  25.046  37.789  1.00  0.00     0.163 HD
ATOM     45  O   UNL A   1      47.228  27.061  38.191  1.00  0.00    -0.269 OA
BRANCH  43  46
ATOM     46  C   UNL A   1      46.238  26.687  36.107  1.00  0.00     0.039 A 
ATOM     47  C   UNL A   1      44.971  26.100  36.087  1.00  0.00     0.014 A 
ATOM     48  C   UNL A   1      46.590  27.635  35.141  1.00  0.00     0.014 A 
ATOM     49  C   UNL A   1      44.013  26.557  35.176  1.00  0.00     0.010 A 
ATOM     50  C   UNL A   1      45.619  28.119  34.257  1.00  0.00     0.010 A 
ATOM     51  C   UNL A   1      44.310  27.613  34.295  1.00  0.00    -0.014 A 
BRANCH  51  52
ATOM     52  C   UNL A   1      43.221  28.248  33.501  1.00  0.00     0.031 A 
ATOM     53  C   UNL A   1      43.005  27.910  32.054  1.00  0.00     0.074 A 
ATOM     54  C   UNL A   1      42.434  29.167  34.096  1.00  0.00     0.049 A 
ATOM     55  N   UNL A   1      42.073  28.336  31.236  1.00  0.00    -0.248 NA
ATOM     56  C   UNL A   1      43.968  26.985  31.440  1.00  0.00     0.031 C 
ATOM     57  C   UNL A   1      42.576  29.628  35.478  1.00  0.00     0.029 A 
ATOM     58  N   UNL A   1      41.356  29.877  33.622  1.00  0.00    -0.354 N 
ATOM     59  C   UNL A   1      42.331  27.726  30.016  1.00  0.00     0.074 A 
ATOM     60  C   UNL A   1      43.537  26.942  30.186  1.00  0.00     0.031 C 
ATOM     61  C   UNL A   1      41.606  30.514  35.751  1.00  0.00     0.029 A 
ATOM     62  C   UNL A   1      40.787  30.708  34.559  1.00  0.00     0.049 A 
ATOM     63  H   UNL A   1      41.023  29.798  32.699  1.00  0.00     0.167 HD
ATOM     64  C   UNL A   1      41.615  27.798  28.867  1.00  0.00     0.037 A 
ATOM     65  C   UNL A   1      39.722  31.528  34.470  1.00  0.00     0.037 A 
ATOM     66  C   UNL A   1      40.416  28.580  28.700  1.00  0.00     0.049 A 
ATOM     67  C   UNL A   1      38.949  31.592  33.181  1.00  0.00     0.074 A 
ATOM     68  C   UNL A   1      39.595  28.677  27.589  1.00  0.00     0.029 A 
ATOM     69  N   UNL A   1      39.869  29.406  29.670  1.00  0.00    -0.354 N 
ATOM     70  N   UNL A   1      39.153  30.942  32.061  1.00  0.00    -0.248 NA
ATOM     71  C   UNL A   1      37.790  32.497  33.146  1.00  0.00     0.031 C 
ATOM     72  C   UNL A   1      38.580  29.599  27.871  1.00  0.00     0.029 A 
ATOM     73  C   UNL A   1      38.737  30.037  29.175  1.00  0.00     0.049 A 
ATOM     74  H   UNL A   1      40.231  29.528  30.579  1.00  0.00     0.167 HD
ATOM     75  C   UNL A   1      38.138  31.338  31.200  1.00  0.00     0.074 A 
ATOM     76  C   UNL A   1      37.308  32.271  31.932  1.00  0.00     0.031 C 
ATOM     77  C   UNL A   1      37.917  30.963  29.916  1.00  0.00     0.037 A 
BRANCH  64  78
ATOM     78  C   UNL A   1      42.113  27.007  27.690  1.00  0.00     0.064 A 
ATOM     79  C   UNL A   1      41.688  25.690  27.460  1.00  0.00     0.173 A 
ATOM     80  C   UNL A   1      42.992  27.583  26.760  1.00  0.00     0.173 A 
ATOM     81  F   UNL A   1      40.851  25.091  28.320  1.00  0.00    -0.203 F 
ATOM     82  C   UNL A   1      42.152  24.967  26.363  1.00  0.00     0.198 A 
ATOM     83  C   UNL A   1      43.431  26.867  25.649  1.00  0.00     0.198 A 
ATOM     84  F   UNL A   1      43.421  28.843  26.925  1.00  0.00    -0.203 F 
ATOM     85  F   UNL A   1      41.769  23.694  26.192  1.00  0.00    -0.200 F 
ATOM     86  C   UNL A   1      43.018  25.557  25.456  1.00  0.00     0.200 A 
ATOM     87  F   UNL A   1      44.256  27.444  24.764  1.00  0.00    -0.200 F 
ATOM     88  F   UNL A   1      43.459  24.863  24.398  1.00  0.00    -0.200 F 
ENDBRANCH  64  78
BRANCH  65  89
ATOM     89  C   UNL A   1      39.303  32.332  35.649  1.00  0.00     0.064 A 
ATOM     90  C   UNL A   1      39.793  33.631  35.849  1.00  0.00     0.173 A 
ATOM     91  C   UNL A   1      38.410  31.820  36.602  1.00  0.00     0.173 A 
ATOM     92  F   UNL A   1      40.666  34.158  34.979  1.00  0.00    -0.203 F 
ATOM     93  C   UNL A   1      39.422  34.377  36.967  1.00  0.00     0.198 A 
ATOM     94  C   UNL A   1      38.017  32.578  37.703  1.00  0.00     0.198 A 
ATOM     95  F   UNL A   1      37.909  30.584  36.457  1.00  0.00    -0.203 F 
ATOM     96  F   UNL A   1      39.942  35.598  37.157  1.00  0.00    -0.200 F 
ATOM     97  C   UNL A   1      38.530  33.853  37.889  1.00  0.00     0.200 A 
ATOM     98  F   UNL A   1      37.144  32.072  38.585  1.00  0.00    -0.200 F 
ATOM     99  F   UNL A   1      38.169  34.573  38.960  1.00  0.00    -0.200 F 
ENDBRANCH  65  89
BRANCH  77 100
ATOM    100  C   UNL A   1      36.718  31.545  29.227  1.00  0.00     0.064 A 
ATOM    101  C   UNL A   1      36.692  32.879  28.795  1.00  0.00     0.173 A 
ATOM    102  C   UNL A   1      35.594  30.748  28.961  1.00  0.00     0.173 A 
ATOM    103  F   UNL A   1      37.736  33.688  29.039  1.00  0.00    -0.203 F 
ATOM    104  C   UNL A   1      35.577  33.401  28.144  1.00  0.00     0.198 A 
ATOM    105  C   UNL A   1      34.492  31.264  28.284  1.00  0.00     0.198 A 
ATOM    106  F   UNL A   1      35.569  29.464  29.348  1.00  0.00    -0.203 F 
ATOM    107  F   UNL A   1      35.557  34.691  27.781  1.00  0.00    -0.200 F 
ATOM    108  C   UNL A   1      34.482  32.591  27.882  1.00  0.00     0.200 A 
ATOM    109  F   UNL A   1      33.439  30.477  28.020  1.00  0.00    -0.200 F 
ATOM    110  F   UNL A   1      33.412  33.093  27.249  1.00  0.00    -0.200 F 
ENDBRANCH  77 100
ENDBRANCH  51  52
ENDBRANCH  43  46
ENDBRANCH  41  42
ENDBRANCH  40  41
ENDBRANCH  39  40
ENDBRANCH   1  39
TORSDOF 18
ENDMDL
MODEL 3
REMARK VINA RESULT:     -11.7      6.725     11.446
REMARK SMILES N#CCC[NH+]1CCN(c2cc(C(=O)NCCCCNC(=O)c3ccc(-c4c5nc(c(-c6c(F)c(F)c(F)c(F)c6F)c6ccc([nH]6)c(-c6c(F)c(F)c(F)c(F)c6F)c6nc(c(-c7c(F)c(F)c(F)c(F)c7F)c7ccc4[nH]7)C=C6)C=C5)cc3)c3cc(NS(=O)(=O)c4ccccc4Cl)ccc3n2)CC1
REMARK SMILES IDX 15 1 14 2 12 3 13 4 11 6 9 7 10 8 102 9 101 10 85 11 100 12
REMARK SMILES IDX 86 13 99 14 87 15 8 16 5 17 6 18 104 19 7 21 103 22 4 23
REMARK SMILES IDX 3 24 2 25 1 26 88 27 89 29 90 30 91 31 92 32 93 33 97 34
REMARK SMILES IDX 94 35 96 36 98 37 95 38 16 39 17 40 18 41 19 42 20 43 21 45
REMARK SMILES IDX 22 46 23 47 84 48 24 49 83 50 25 51 26 52 27 53 77 54 28 55
REMARK SMILES IDX 82 56 76 57 78 58 29 59 81 60 75 61 74 62 30 64 62 65 42 66
REMARK SMILES IDX 61 67 43 68 46 69 60 70 79 71 44 72 45 73 59 75 80 76 47 77
REMARK SMILES IDX 31 78 32 79 40 80 33 81 34 82 38 83 41 84 35 85 36 86 39 87
REMARK SMILES IDX 37 88 63 89 64 90 72 91 65 92 66 93 70 94 73 95 67 96 68 97
REMARK SMILES IDX 71 98 69 99 48 100 49 101 57 102 50 103 51 104 55 105 58 106
REMARK SMILES IDX 52 107 53 108 56 109 54 110
REMARK H PARENT 14 5 5 20 88 28 19 44 78 63 46 74
REMARK Flexibility Score: inf
ROOT
ATOM      1  C   UNL A   1      46.417  27.888  24.889  1.00  0.00     0.116 C 
ENDROOT
BRANCH   1   2
ATOM      2  N   UNL A   1      44.989  27.931  24.619  1.00  0.00    -0.352 N 
ATOM      3  C   UNL A   1      43.867  27.547  25.350  1.00  0.00     0.252 C 
ATOM      4  O   UNL A   1      42.790  27.881  24.836  1.00  0.00    -0.269 OA
ATOM      5  H   UNL A   1      44.770  28.311  23.738  1.00  0.00     0.163 HD
BRANCH   3   6
ATOM      6  C   UNL A   1      43.782  26.749  26.649  1.00  0.00     0.052 A 
ATOM      7  C   UNL A   1      43.619  24.462  27.520  1.00  0.00     0.130 A 
ATOM      8  C   UNL A   1      43.804  25.357  26.462  1.00  0.00     0.061 A 
ATOM      9  N   UNL A   1      43.428  24.899  28.769  1.00  0.00    -0.231 NA
ATOM     10  C   UNL A   1      43.296  26.201  28.979  1.00  0.00     0.074 A 
ATOM     11  C   UNL A   1      43.448  27.164  27.955  1.00  0.00     0.015 A 
ATOM     12  C   UNL A   1      42.871  26.582  30.245  1.00  0.00     0.031 A 
ATOM     13  C   UNL A   1      43.068  28.453  28.279  1.00  0.00     0.038 A 
ATOM     14  C   UNL A   1      42.368  27.859  30.478  1.00  0.00     0.029 A 
ATOM     15  C   UNL A   1      42.370  28.765  29.434  1.00  0.00     0.050 A 
BRANCH   7  16
ATOM     16  N   UNL A   1      43.586  23.102  27.302  1.00  0.00    -0.345 N 
ATOM     17  N   UNL A   1      42.877  21.021  25.377  1.00  0.00    -0.331 N 
ATOM     18  C   UNL A   1      41.891  21.959  25.956  1.00  0.00     0.284 C 
ATOM     19  C   UNL A   1      44.154  21.765  25.236  1.00  0.00     0.284 C 
ATOM     20  H   UNL A   1      42.527  20.694  24.476  1.00  0.00     0.348 HD
ATOM     21  C   UNL A   1      42.286  22.445  27.360  1.00  0.00     0.179 C 
ATOM     22  C   UNL A   1      44.665  22.441  26.537  1.00  0.00     0.179 C 
BRANCH  17  23
ATOM     23  C   UNL A   1      43.066  19.793  26.174  1.00  0.00     0.277 C 
BRANCH  23  24
ATOM     24  C   UNL A   1      43.500  18.555  25.387  1.00  0.00     0.181 C 
BRANCH  24  25
ATOM     25  C   UNL A   1      45.017  18.453  25.369  1.00  0.00     0.068 C 
ATOM     26  N   UNL A   1      46.275  18.369  25.354  1.00  0.00    -0.198 NA
ENDBRANCH  24  25
ENDBRANCH  23  24
ENDBRANCH  17  23
ENDBRANCH   7  16
BRANCH  15  27
ATOM     27  N   UNL A   1      41.517  29.898  29.474  1.00  0.00    -0.280 N 
ATOM     28  H   UNL A   1      41.554  30.525  28.717  1.00  0.00     0.180 HD
BRANCH  27  29
ATOM     29  S   UNL A   1      40.449  30.244  30.724  1.00  0.00     0.263 S 
ATOM     30  O   UNL A   1      39.480  29.183  30.777  1.00  0.00    -0.201 OA
ATOM     31  O   UNL A   1      41.292  30.530  31.876  1.00  0.00    -0.201 OA
BRANCH  29  32
ATOM     32  C   UNL A   1      39.540  31.752  30.363  1.00  0.00     0.106 A 
ATOM     33  C   UNL A   1      39.857  32.900  31.112  1.00  0.00     0.024 A 
ATOM     34  C   UNL A   1      38.515  31.843  29.434  1.00  0.00     0.061 A 
ATOM     35  C   UNL A   1      39.180  34.111  30.964  1.00  0.00     0.002 A 
ATOM     36  C   UNL A   1      37.825  33.065  29.282  1.00  0.00     0.022 A 
ATOM     37  Cl  UNL A   1      38.018  30.529  28.441  1.00  0.00    -0.083 Cl
ATOM     38  C   UNL A   1      38.151  34.191  30.045  1.00  0.00     0.002 A 
ENDBRANCH  29  32
ENDBRANCH  27  29
ENDBRANCH  15  27
ENDBRANCH   3   6
ENDBRANCH   1   2
BRANCH   1  39
ATOM     39  C   UNL A   1      47.409  27.389  23.835  1.00  0.00     0.023 C 
BRANCH  39  40
ATOM     40  C   UNL A   1      48.540  26.390  24.179  1.00  0.00     0.023 C 
BRANCH  40  41
ATOM     41  C   UNL A   1      49.781  26.661  25.062  1.00  0.00     0.116 C 
BRANCH  41  42
ATOM     42  N   UNL A   1      50.230  25.684  26.032  1.00  0.00    -0.352 N 
ATOM     43  C   UNL A   1      49.846  25.608  27.366  1.00  0.00     0.251 C 
ATOM     44  H   UNL A   1      50.870  25.007  25.716  1.00  0.00     0.163 HD
ATOM     45  O   UNL A   1      50.242  24.713  28.105  1.00  0.00    -0.269 OA
BRANCH  43  46
ATOM     46  C   UNL A   1      48.953  26.654  27.920  1.00  0.00     0.039 A 
ATOM     47  C   UNL A   1      47.571  26.487  27.818  1.00  0.00     0.014 A 
ATOM     48  C   UNL A   1      49.480  27.764  28.590  1.00  0.00     0.014 A 
ATOM     49  C   UNL A   1      46.717  27.363  28.496  1.00  0.00     0.010 A 
ATOM     50  C   UNL A   1      48.627  28.615  29.300  1.00  0.00     0.010 A 
ATOM     51  C   UNL A   1      47.240  28.397  29.294  1.00  0.00    -0.014 A 
BRANCH  51  52
ATOM     52  C   UNL A   1      46.340  29.170  30.195  1.00  0.00     0.031 A 
ATOM     53  C   UNL A   1      45.839  28.594  31.487  1.00  0.00     0.074 A 
ATOM     54  C   UNL A   1      45.948  30.405  29.819  1.00  0.00     0.049 A 
ATOM     55  N   UNL A   1      45.091  29.153  32.407  1.00  0.00    -0.248 NA
ATOM     56  C   UNL A   1      46.214  27.204  31.780  1.00  0.00     0.031 C 
ATOM     57  C   UNL A   1      46.315  31.057  28.561  1.00  0.00     0.029 A 
ATOM     58  N   UNL A   1      45.161  31.335  30.454  1.00  0.00    -0.354 N 
ATOM     59  C   UNL A   1      44.913  28.189  33.390  1.00  0.00     0.074 A 
ATOM     60  C   UNL A   1      45.587  26.992  32.930  1.00  0.00     0.031 C 
ATOM     61  C   UNL A   1      45.785  32.289  28.531  1.00  0.00     0.029 A 
ATOM     62  C   UNL A   1      45.018  32.509  29.752  1.00  0.00     0.049 A 
ATOM     63  H   UNL A   1      44.739  31.177  31.330  1.00  0.00     0.167 HD
ATOM     64  C   UNL A   1      44.264  28.300  34.575  1.00  0.00     0.037 A 
ATOM     65  C   UNL A   1      44.349  33.638  30.060  1.00  0.00     0.037 A 
ATOM     66  C   UNL A   1      43.593  29.492  35.030  1.00  0.00     0.049 A 
ATOM     67  C   UNL A   1      43.634  33.732  31.380  1.00  0.00     0.074 A 
ATOM     68  C   UNL A   1      42.951  29.715  36.236  1.00  0.00     0.029 A 
ATOM     69  N   UNL A   1      43.471  30.660  34.293  1.00  0.00    -0.354 N 
ATOM     70  N   UNL A   1      43.548  32.843  32.340  1.00  0.00    -0.248 NA
ATOM     71  C   UNL A   1      42.930  34.992  31.666  1.00  0.00     0.031 C 
ATOM     72  C   UNL A   1      42.399  31.001  36.210  1.00  0.00     0.029 A 
ATOM     73  C   UNL A   1      42.741  31.599  35.008  1.00  0.00     0.049 A 
ATOM     74  H   UNL A   1      43.847  30.804  33.394  1.00  0.00     0.167 HD
ATOM     75  C   UNL A   1      42.805  33.441  33.349  1.00  0.00     0.074 A 
ATOM     76  C   UNL A   1      42.481  34.776  32.894  1.00  0.00     0.031 C 
ATOM     77  C   UNL A   1      42.426  32.927  34.544  1.00  0.00     0.037 A 
BRANCH  64  78
ATOM     78  C   UNL A   1      44.246  27.093  35.471  1.00  0.00     0.064 A 
ATOM     79  C   UNL A   1      45.236  26.890  36.446  1.00  0.00     0.173 A 
ATOM     80  C   UNL A   1      43.212  26.150  35.382  1.00  0.00     0.173 A 
ATOM     81  F   UNL A   1      46.250  27.759  36.570  1.00  0.00    -0.203 F 
ATOM     82  C   UNL A   1      45.207  25.770  37.274  1.00  0.00     0.198 A 
ATOM     83  C   UNL A   1      43.170  25.047  36.232  1.00  0.00     0.198 A 
ATOM     84  F   UNL A   1      42.234  26.302  34.476  1.00  0.00    -0.203 F 
ATOM     85  F   UNL A   1      46.190  25.574  38.165  1.00  0.00    -0.200 F 
ATOM     86  C   UNL A   1      44.172  24.854  37.171  1.00  0.00     0.200 A 
ATOM     87  F   UNL A   1      42.161  24.170  36.142  1.00  0.00    -0.200 F 
ATOM     88  F   UNL A   1      44.143  23.780  37.972  1.00  0.00    -0.200 F 
ENDBRANCH  64  78
BRANCH  65  89
ATOM     89  C   UNL A   1      44.352  34.785  29.113  1.00  0.00     0.064 A 
ATOM     90  C   UNL A   1      45.438  35.670  29.053  1.00  0.00     0.173 A 
ATOM     91  C   UNL A   1      43.271  35.024  28.252  1.00  0.00     0.173 A 
ATOM     92  F   UNL A   1      46.487  35.499  29.871  1.00  0.00    -0.203 F 
ATOM     93  C   UNL A   1      45.433  36.760  28.185  1.00  0.00     0.198 A 
ATOM     94  C   UNL A   1      43.279  36.097  27.363  1.00  0.00     0.198 A 
ATOM     95  F   UNL A   1      42.208  34.206  28.266  1.00  0.00    -0.203 F 
ATOM     96  F   UNL A   1      46.465  37.616  28.181  1.00  0.00    -0.200 F 
ATOM     97  C   UNL A   1      44.357  36.969  27.336  1.00  0.00     0.200 A 
ATOM     98  F   UNL A   1      42.243  36.287  26.535  1.00  0.00    -0.200 F 
ATOM     99  F   UNL A   1      44.355  38.014  26.497  1.00  0.00    -0.200 F 
ENDBRANCH  65  89
BRANCH  77 100
ATOM    100  C   UNL A   1      41.634  33.819  35.456  1.00  0.00     0.064 A 
ATOM    101  C   UNL A   1      42.259  34.748  36.300  1.00  0.00     0.173 A 
ATOM    102  C   UNL A   1      40.232  33.771  35.457  1.00  0.00     0.173 A 
ATOM    103  F   UNL A   1      43.599  34.823  36.348  1.00  0.00    -0.203 F 
ATOM    104  C   UNL A   1      41.511  35.580  37.130  1.00  0.00     0.198 A 
ATOM    105  C   UNL A   1      39.486  34.623  36.266  1.00  0.00     0.198 A 
ATOM    106  F   UNL A   1      39.584  32.904  34.664  1.00  0.00    -0.203 F 
ATOM    107  F   UNL A   1      42.131  36.428  37.962  1.00  0.00    -0.200 F 
ATOM    108  C   UNL A   1      40.125  35.522  37.106  1.00  0.00     0.200 A 
ATOM    109  F   UNL A   1      38.146  34.575  36.233  1.00  0.00    -0.200 F 
ATOM    110  F   UNL A   1      39.406  36.328  37.900  1.00  0.00    -0.200 F 
ENDBRANCH  77 100
ENDBRANCH  51  52
ENDBRANCH  43  46
ENDBRANCH  41  42
ENDBRANCH  40  41
ENDBRANCH  39  40
ENDBRANCH   1  39
TORSDOF 18
ENDMDL
