MODEL 1
REMARK VINA RESULT:     -12.6      0.000      0.000
REMARK SMILES C[C@@H](C(=O)NCCCCNC(=O)c1ccc(-c2c3nc(c(-c4c(F)c(F)c(F)c(F)c4F)c4ccc([nH]4)c(-c4c(F)c(F)c(F)c(F)c4F)c4nc(c(-c5c(F)c(F)c(F)c(F)c5F)c5ccc2[nH]5)C=C4)C=C3)cc1)c1ccc(C[C@H]2CCCC2=O)cc1Br
REMARK SMILES IDX 7 1 6 2 5 3 3 4 4 5 2 7 1 8 76 9 77 10 88 11 78 12 87 13
REMARK SMILES IDX 89 14 79 15 80 16 81 17 82 18 85 19 83 20 84 21 86 22 8 23
REMARK SMILES IDX 9 24 10 25 11 26 12 28 13 29 14 30 75 31 15 32 74 33 16 34
REMARK SMILES IDX 17 35 18 36 68 37 19 38 73 39 67 40 69 41 20 42 72 43 66 44
REMARK SMILES IDX 65 45 21 47 53 48 33 49 52 50 34 51 37 52 51 53 70 54 35 55
REMARK SMILES IDX 36 56 50 58 71 59 38 60 22 61 23 62 31 63 24 64 25 65 29 66
REMARK SMILES IDX 32 67 26 68 27 69 30 70 28 71 54 72 55 73 63 74 56 75 57 76
REMARK SMILES IDX 61 77 64 78 58 79 59 80 62 81 60 82 39 83 40 84 48 85 41 86
REMARK SMILES IDX 42 87 46 88 49 89 43 90 44 91 47 92 45 93
REMARK H PARENT 5 6 10 27 69 46 37 57
REMARK Flexibility Score: inf
ROOT
ATOM      1  C   UNL A   1      37.354  20.032  24.887  1.00  0.00     0.023 C 
ENDROOT
BRANCH   1   2
ATOM      2  C   UNL A   1      37.555  21.483  25.340  1.00  0.00     0.116 C 
BRANCH   2   3
ATOM      3  N   UNL A   1      37.364  22.385  24.223  1.00  0.00    -0.356 N 
ATOM      4  C   UNL A   1      36.222  23.010  23.804  1.00  0.00     0.227 C 
ATOM      5  O   UNL A   1      36.220  23.465  22.659  1.00  0.00    -0.274 OA
ATOM      6  H   UNL A   1      38.170  22.576  23.690  1.00  0.00     0.163 HD
BRANCH   4   7
ATOM      7  C   UNL A   1      35.021  23.135  24.765  1.00  0.00     0.106 C 
ATOM      8  C   UNL A   1      35.555  23.485  26.164  1.00  0.00     0.023 C 
BRANCH   7   9
ATOM      9  C   UNL A   1      34.130  21.884  24.743  1.00  0.00    -0.022 A 
ATOM     10  C   UNL A   1      34.173  20.959  25.803  1.00  0.00     0.006 A 
ATOM     11  C   UNL A   1      33.247  21.594  23.684  1.00  0.00     0.022 A 
ATOM     12  C   UNL A   1      33.443  19.773  25.774  1.00  0.00     0.004 A 
ATOM     13  C   UNL A   1      32.565  20.367  23.625  1.00  0.00     0.019 A 
ATOM     14  Br  UNL A   1      32.873  22.833  22.286  1.00  0.00    -0.051 Br
ATOM     15  C   UNL A   1      32.692  19.427  24.652  1.00  0.00    -0.046 A 
BRANCH  15  16
ATOM     16  C   UNL A   1      32.045  18.067  24.561  1.00  0.00     0.047 C 
BRANCH  16  17
ATOM     17  C   UNL A   1      32.920  16.934  23.997  1.00  0.00     0.060 C 
ATOM     18  C   UNL A   1      34.331  17.328  23.547  1.00  0.00     0.012 C 
ATOM     19  C   UNL A   1      33.208  15.841  25.002  1.00  0.00     0.136 C 
ATOM     20  C   UNL A   1      35.265  16.973  24.699  1.00  0.00     0.009 C 
ATOM     21  C   UNL A   1      34.674  15.721  25.331  1.00  0.00     0.076 C 
ATOM     22  O   UNL A   1      32.344  15.123  25.493  1.00  0.00    -0.299 OA
ENDBRANCH  16  17
ENDBRANCH  15  16
ENDBRANCH   7   9
ENDBRANCH   4   7
ENDBRANCH   2   3
ENDBRANCH   1   2
BRANCH   1  23
ATOM     23  C   UNL A   1      38.446  19.065  25.351  1.00  0.00     0.023 C 
BRANCH  23  24
ATOM     24  C   UNL A   1      39.725  19.727  25.843  1.00  0.00     0.116 C 
BRANCH  24  25
ATOM     25  N   UNL A   1      40.826  18.789  25.985  1.00  0.00    -0.352 N 
ATOM     26  C   UNL A   1      42.154  19.036  26.213  1.00  0.00     0.251 C 
ATOM     27  H   UNL A   1      40.583  17.839  25.907  1.00  0.00     0.163 HD
ATOM     28  O   UNL A   1      42.962  18.107  26.170  1.00  0.00    -0.269 OA
BRANCH  26  29
ATOM     29  C   UNL A   1      42.628  20.410  26.473  1.00  0.00     0.039 A 
ATOM     30  C   UNL A   1      43.128  21.154  25.401  1.00  0.00     0.014 A 
ATOM     31  C   UNL A   1      42.597  20.966  27.756  1.00  0.00     0.014 A 
ATOM     32  C   UNL A   1      43.548  22.467  25.607  1.00  0.00     0.010 A 
ATOM     33  C   UNL A   1      42.945  22.302  27.946  1.00  0.00     0.010 A 
ATOM     34  C   UNL A   1      43.431  23.063  26.874  1.00  0.00    -0.014 A 
BRANCH  34  35
ATOM     35  C   UNL A   1      43.813  24.483  27.071  1.00  0.00     0.031 A 
ATOM     36  C   UNL A   1      42.802  25.492  27.536  1.00  0.00     0.074 A 
ATOM     37  C   UNL A   1      45.078  24.864  26.808  1.00  0.00     0.049 A 
ATOM     38  N   UNL A   1      42.966  26.765  27.798  1.00  0.00    -0.248 NA
ATOM     39  C   UNL A   1      41.420  25.019  27.707  1.00  0.00     0.031 C 
ATOM     40  C   UNL A   1      46.130  23.992  26.282  1.00  0.00     0.029 A 
ATOM     41  N   UNL A   1      45.696  26.081  26.949  1.00  0.00    -0.354 N 
ATOM     42  C   UNL A   1      41.716  27.240  28.169  1.00  0.00     0.074 A 
ATOM     43  C   UNL A   1      40.788  26.137  28.033  1.00  0.00     0.031 C 
ATOM     44  C   UNL A   1      47.270  24.693  26.174  1.00  0.00     0.029 A 
ATOM     45  C   UNL A   1      47.024  26.066  26.603  1.00  0.00     0.049 A 
ATOM     46  H   UNL A   1      45.231  26.887  27.270  1.00  0.00     0.167 HD
ATOM     47  C   UNL A   1      41.377  28.474  28.614  1.00  0.00     0.037 A 
ATOM     48  C   UNL A   1      47.943  27.050  26.634  1.00  0.00     0.037 A 
ATOM     49  C   UNL A   1      42.304  29.566  28.756  1.00  0.00     0.049 A 
ATOM     50  C   UNL A   1      47.546  28.405  27.154  1.00  0.00     0.074 A 
ATOM     51  C   UNL A   1      42.068  30.845  29.231  1.00  0.00     0.029 A 
ATOM     52  N   UNL A   1      43.649  29.508  28.421  1.00  0.00    -0.354 N 
ATOM     53  N   UNL A   1      46.375  28.819  27.576  1.00  0.00    -0.248 NA
ATOM     54  C   UNL A   1      48.603  29.422  27.220  1.00  0.00     0.031 C 
ATOM     55  C   UNL A   1      43.261  31.571  29.148  1.00  0.00     0.029 A 
ATOM     56  C   UNL A   1      44.252  30.730  28.667  1.00  0.00     0.049 A 
ATOM     57  H   UNL A   1      44.107  28.714  28.061  1.00  0.00     0.167 HD
ATOM     58  C   UNL A   1      46.558  30.137  27.973  1.00  0.00     0.074 A 
ATOM     59  C   UNL A   1      47.960  30.442  27.771  1.00  0.00     0.031 C 
ATOM     60  C   UNL A   1      45.648  31.018  28.455  1.00  0.00     0.037 A 
BRANCH  47  61
ATOM     61  C   UNL A   1      39.943  28.700  28.999  1.00  0.00     0.064 A 
ATOM     62  C   UNL A   1      39.488  28.445  30.303  1.00  0.00     0.173 A 
ATOM     63  C   UNL A   1      39.023  29.215  28.074  1.00  0.00     0.173 A 
ATOM     64  F   UNL A   1      40.324  27.941  31.223  1.00  0.00    -0.203 F 
ATOM     65  C   UNL A   1      38.161  28.672  30.657  1.00  0.00     0.198 A 
ATOM     66  C   UNL A   1      37.704  29.469  28.440  1.00  0.00     0.198 A 
ATOM     67  F   UNL A   1      39.405  29.481  26.816  1.00  0.00    -0.203 F 
ATOM     68  F   UNL A   1      37.740  28.377  31.895  1.00  0.00    -0.200 F 
ATOM     69  C   UNL A   1      37.272  29.190  29.729  1.00  0.00     0.200 A 
ATOM     70  F   UNL A   1      36.848  29.982  27.545  1.00  0.00    -0.200 F 
ATOM     71  F   UNL A   1      35.997  29.417  30.074  1.00  0.00    -0.200 F 
ENDBRANCH  47  61
BRANCH  48  72
ATOM     72  C   UNL A   1      49.335  26.779  26.193  1.00  0.00     0.064 A 
ATOM     73  C   UNL A   1      49.725  26.981  24.862  1.00  0.00     0.173 A 
ATOM     74  C   UNL A   1      50.302  26.307  27.091  1.00  0.00     0.173 A 
ATOM     75  F   UNL A   1      48.831  27.416  23.961  1.00  0.00    -0.203 F 
ATOM     76  C   UNL A   1      51.021  26.695  24.439  1.00  0.00     0.198 A 
ATOM     77  C   UNL A   1      51.607  26.050  26.675  1.00  0.00     0.198 A 
ATOM     78  F   UNL A   1      49.984  26.106  28.379  1.00  0.00    -0.203 F 
ATOM     79  F   UNL A   1      51.352  26.847  23.150  1.00  0.00    -0.200 F 
ATOM     80  C   UNL A   1      51.962  26.233  25.347  1.00  0.00     0.200 A 
ATOM     81  F   UNL A   1      52.518  25.620  27.558  1.00  0.00    -0.200 F 
ATOM     82  F   UNL A   1      53.209  25.960  24.941  1.00  0.00    -0.200 F 
ENDBRANCH  48  72
BRANCH  60  83
ATOM     83  C   UNL A   1      46.150  32.388  28.810  1.00  0.00     0.064 A 
ATOM     84  C   UNL A   1      46.616  32.688  30.098  1.00  0.00     0.173 A 
ATOM     85  C   UNL A   1      46.172  33.408  27.848  1.00  0.00     0.173 A 
ATOM     86  F   UNL A   1      46.602  31.749  31.058  1.00  0.00    -0.203 F 
ATOM     87  C   UNL A   1      47.049  33.971  30.422  1.00  0.00     0.198 A 
ATOM     88  C   UNL A   1      46.636  34.682  28.167  1.00  0.00     0.198 A 
ATOM     89  F   UNL A   1      45.746  33.172  26.599  1.00  0.00    -0.203 F 
ATOM     90  F   UNL A   1      47.430  34.251  31.677  1.00  0.00    -0.200 F 
ATOM     91  C   UNL A   1      47.063  34.965  29.455  1.00  0.00     0.200 A 
ATOM     92  F   UNL A   1      46.661  35.639  27.229  1.00  0.00    -0.200 F 
ATOM     93  F   UNL A   1      47.477  36.201  29.770  1.00  0.00    -0.200 F 
ENDBRANCH  60  83
ENDBRANCH  34  35
ENDBRANCH  26  29
ENDBRANCH  24  25
ENDBRANCH  23  24
ENDBRANCH   1  23
TORSDOF 14
ENDMDL
MODEL 2
REMARK VINA RESULT:     -12.5      0.775      7.324
REMARK SMILES C[C@@H](C(=O)NCCCCNC(=O)c1ccc(-c2c3nc(c(-c4c(F)c(F)c(F)c(F)c4F)c4ccc([nH]4)c(-c4c(F)c(F)c(F)c(F)c4F)c4nc(c(-c5c(F)c(F)c(F)c(F)c5F)c5ccc2[nH]5)C=C4)C=C3)cc1)c1ccc(C[C@H]2CCCC2=O)cc1Br
REMARK SMILES IDX 7 1 6 2 5 3 3 4 4 5 2 7 1 8 76 9 77 10 88 11 78 12 87 13
REMARK SMILES IDX 89 14 79 15 80 16 81 17 82 18 85 19 83 20 84 21 86 22 8 23
REMARK SMILES IDX 9 24 10 25 11 26 12 28 13 29 14 30 75 31 15 32 74 33 16 34
REMARK SMILES IDX 17 35 18 36 68 37 19 38 73 39 67 40 69 41 20 42 72 43 66 44
REMARK SMILES IDX 65 45 21 47 53 48 33 49 52 50 34 51 37 52 51 53 70 54 35 55
REMARK SMILES IDX 36 56 50 58 71 59 38 60 22 61 23 62 31 63 24 64 25 65 29 66
REMARK SMILES IDX 32 67 26 68 27 69 30 70 28 71 54 72 55 73 63 74 56 75 57 76
REMARK SMILES IDX 61 77 64 78 58 79 59 80 62 81 60 82 39 83 40 84 48 85 41 86
REMARK SMILES IDX 42 87 46 88 49 89 43 90 44 91 47 92 45 93
REMARK H PARENT 5 6 10 27 69 46 37 57
REMARK Flexibility Score: inf
ROOT
ATOM      1  C   UNL A   1      37.359  20.059  24.945  1.00  0.00     0.023 C 
ENDROOT
BRANCH   1   2
ATOM      2  C   UNL A   1      37.596  21.514  25.365  1.00  0.00     0.116 C 
BRANCH   2   3
ATOM      3  N   UNL A   1      37.404  22.396  24.232  1.00  0.00    -0.356 N 
ATOM      4  C   UNL A   1      36.263  23.015  23.804  1.00  0.00     0.227 C 
ATOM      5  O   UNL A   1      36.260  23.450  22.650  1.00  0.00    -0.274 OA
ATOM      6  H   UNL A   1      38.210  22.577  23.695  1.00  0.00     0.163 HD
BRANCH   4   7
ATOM      7  C   UNL A   1      35.063  23.159  24.764  1.00  0.00     0.106 C 
ATOM      8  C   UNL A   1      35.601  23.519  26.159  1.00  0.00     0.023 C 
BRANCH   7   9
ATOM      9  C   UNL A   1      34.164  21.913  24.755  1.00  0.00    -0.022 A 
ATOM     10  C   UNL A   1      34.201  20.999  25.825  1.00  0.00     0.006 A 
ATOM     11  C   UNL A   1      33.278  21.619  23.700  1.00  0.00     0.022 A 
ATOM     12  C   UNL A   1      33.463  19.818  25.808  1.00  0.00     0.004 A 
ATOM     13  C   UNL A   1      32.587  20.396  23.654  1.00  0.00     0.019 A 
ATOM     14  Br  UNL A   1      32.911  22.846  22.290  1.00  0.00    -0.051 Br
ATOM     15  C   UNL A   1      32.709  19.466  24.691  1.00  0.00    -0.046 A 
BRANCH  15  16
ATOM     16  C   UNL A   1      32.052  18.109  24.614  1.00  0.00     0.047 C 
BRANCH  16  17
ATOM     17  C   UNL A   1      32.914  16.969  24.046  1.00  0.00     0.060 C 
ATOM     18  C   UNL A   1      34.316  17.354  23.564  1.00  0.00     0.012 C 
ATOM     19  C   UNL A   1      33.219  15.886  25.057  1.00  0.00     0.136 C 
ATOM     20  C   UNL A   1      35.272  17.008  24.702  1.00  0.00     0.009 C 
ATOM     21  C   UNL A   1      34.690  15.765  25.358  1.00  0.00     0.076 C 
ATOM     22  O   UNL A   1      32.363  15.175  25.572  1.00  0.00    -0.299 OA
ENDBRANCH  16  17
ENDBRANCH  15  16
ENDBRANCH   7   9
ENDBRANCH   4   7
ENDBRANCH   2   3
ENDBRANCH   1   2
BRANCH   1  23
ATOM     23  C   UNL A   1      38.479  19.093  25.342  1.00  0.00     0.023 C 
BRANCH  23  24
ATOM     24  C   UNL A   1      39.761  19.758  25.824  1.00  0.00     0.116 C 
BRANCH  24  25
ATOM     25  N   UNL A   1      40.901  18.858  25.812  1.00  0.00    -0.352 N 
ATOM     26  C   UNL A   1      42.223  19.126  26.049  1.00  0.00     0.251 C 
ATOM     27  H   UNL A   1      40.694  17.918  25.603  1.00  0.00     0.163 HD
ATOM     28  O   UNL A   1      43.067  18.249  25.860  1.00  0.00    -0.269 OA
BRANCH  26  29
ATOM     29  C   UNL A   1      42.648  20.469  26.494  1.00  0.00     0.039 A 
ATOM     30  C   UNL A   1      43.185  21.343  25.545  1.00  0.00     0.014 A 
ATOM     31  C   UNL A   1      42.535  20.869  27.829  1.00  0.00     0.014 A 
ATOM     32  C   UNL A   1      43.561  22.631  25.926  1.00  0.00     0.010 A 
ATOM     33  C   UNL A   1      42.839  22.179  28.193  1.00  0.00     0.010 A 
ATOM     34  C   UNL A   1      43.361  23.070  27.245  1.00  0.00    -0.014 A 
BRANCH  34  35
ATOM     35  C   UNL A   1      43.696  24.464  27.628  1.00  0.00     0.031 A 
ATOM     36  C   UNL A   1      45.124  24.930  27.657  1.00  0.00     0.074 A 
ATOM     37  C   UNL A   1      42.702  25.307  27.969  1.00  0.00     0.049 A 
ATOM     38  N   UNL A   1      45.599  26.121  27.930  1.00  0.00    -0.248 NA
ATOM     39  C   UNL A   1      46.157  23.925  27.367  1.00  0.00     0.031 C 
ATOM     40  C   UNL A   1      41.284  24.952  28.050  1.00  0.00     0.029 A 
ATOM     41  N   UNL A   1      42.730  26.636  28.310  1.00  0.00    -0.354 N 
ATOM     42  C   UNL A   1      46.979  26.007  27.837  1.00  0.00     0.074 A 
ATOM     43  C   UNL A   1      47.271  24.619  27.551  1.00  0.00     0.031 C 
ATOM     44  C   UNL A   1      40.575  26.041  28.385  1.00  0.00     0.029 A 
ATOM     45  C   UNL A   1      41.489  27.164  28.564  1.00  0.00     0.049 A 
ATOM     46  H   UNL A   1      43.562  27.161  28.366  1.00  0.00     0.167 HD
ATOM     47  C   UNL A   1      47.917  26.979  27.948  1.00  0.00     0.037 A 
ATOM     48  C   UNL A   1      41.128  28.418  28.898  1.00  0.00     0.037 A 
ATOM     49  C   UNL A   1      47.623  28.361  28.224  1.00  0.00     0.049 A 
ATOM     50  C   UNL A   1      42.187  29.483  28.991  1.00  0.00     0.074 A 
ATOM     51  C   UNL A   1      48.498  29.429  28.321  1.00  0.00     0.029 A 
ATOM     52  N   UNL A   1      46.350  28.867  28.449  1.00  0.00    -0.354 N 
ATOM     53  N   UNL A   1      43.484  29.378  28.825  1.00  0.00    -0.248 NA
ATOM     54  C   UNL A   1      41.729  30.843  29.301  1.00  0.00     0.031 C 
ATOM     55  C   UNL A   1      47.759  30.573  28.643  1.00  0.00     0.029 A 
ATOM     56  C   UNL A   1      46.418  30.228  28.697  1.00  0.00     0.049 A 
ATOM     57  H   UNL A   1      45.521  28.336  28.435  1.00  0.00     0.167 HD
ATOM     58  C   UNL A   1      43.994  30.658  28.992  1.00  0.00     0.074 A 
ATOM     59  C   UNL A   1      42.862  31.528  29.241  1.00  0.00     0.031 C 
ATOM     60  C   UNL A   1      45.282  31.077  28.950  1.00  0.00     0.037 A 
BRANCH  47  61
ATOM     61  C   UNL A   1      49.352  26.581  27.749  1.00  0.00     0.064 A 
ATOM     62  C   UNL A   1      49.893  26.419  26.464  1.00  0.00     0.173 A 
ATOM     63  C   UNL A   1      50.206  26.400  28.847  1.00  0.00     0.173 A 
ATOM     64  F   UNL A   1      49.116  26.568  25.380  1.00  0.00    -0.203 F 
ATOM     65  C   UNL A   1      51.228  26.065  26.287  1.00  0.00     0.198 A 
ATOM     66  C   UNL A   1      51.548  26.076  28.665  1.00  0.00     0.198 A 
ATOM     67  F   UNL A   1      49.742  26.548  30.097  1.00  0.00    -0.203 F 
ATOM     68  F   UNL A   1      51.709  25.870  25.051  1.00  0.00    -0.200 F 
ATOM     69  C   UNL A   1      52.056  25.901  27.386  1.00  0.00     0.200 A 
ATOM     70  F   UNL A   1      52.351  25.930  29.729  1.00  0.00    -0.200 F 
ATOM     71  F   UNL A   1      53.343  25.570  27.214  1.00  0.00    -0.200 F 
ENDBRANCH  47  61
BRANCH  48  72
ATOM     72  C   UNL A   1      39.697  28.741  29.131  1.00  0.00     0.064 A 
ATOM     73  C   UNL A   1      38.882  29.212  28.093  1.00  0.00     0.173 A 
ATOM     74  C   UNL A   1      39.118  28.592  30.399  1.00  0.00     0.173 A 
ATOM     75  F   UNL A   1      39.396  29.388  26.866  1.00  0.00    -0.203 F 
ATOM     76  C   UNL A   1      37.549  29.548  28.319  1.00  0.00     0.198 A 
ATOM     77  C   UNL A   1      37.776  28.899  30.618  1.00  0.00     0.198 A 
ATOM     78  F   UNL A   1      39.851  28.136  31.425  1.00  0.00    -0.203 F 
ATOM     79  F   UNL A   1      36.807  30.045  27.320  1.00  0.00    -0.200 F 
ATOM     80  C   UNL A   1      36.996  29.387  29.580  1.00  0.00     0.200 A 
ATOM     81  F   UNL A   1      37.241  28.726  31.834  1.00  0.00    -0.200 F 
ATOM     82  F   UNL A   1      35.714  29.708  29.798  1.00  0.00    -0.200 F 
ENDBRANCH  48  72
BRANCH  60  83
ATOM     83  C   UNL A   1      45.528  32.543  29.162  1.00  0.00     0.064 A 
ATOM     84  C   UNL A   1      45.770  33.069  30.439  1.00  0.00     0.173 A 
ATOM     85  C   UNL A   1      45.528  33.429  28.075  1.00  0.00     0.173 A 
ATOM     86  F   UNL A   1      45.766  32.265  31.514  1.00  0.00    -0.203 F 
ATOM     87  C   UNL A   1      45.964  34.435  30.626  1.00  0.00     0.198 A 
ATOM     88  C   UNL A   1      45.754  34.791  28.261  1.00  0.00     0.198 A 
ATOM     89  F   UNL A   1      45.310  32.976  26.832  1.00  0.00    -0.203 F 
ATOM     90  F   UNL A   1      46.131  34.924  31.863  1.00  0.00    -0.200 F 
ATOM     91  C   UNL A   1      45.960  35.294  29.536  1.00  0.00     0.200 A 
ATOM     92  F   UNL A   1      45.763  35.617  27.206  1.00  0.00    -0.200 F 
ATOM     93  F   UNL A   1      46.144  36.609  29.718  1.00  0.00    -0.200 F 
ENDBRANCH  60  83
ENDBRANCH  34  35
ENDBRANCH  26  29
ENDBRANCH  24  25
ENDBRANCH  23  24
ENDBRANCH   1  23
TORSDOF 14
ENDMDL
MODEL 3
REMARK VINA RESULT:     -12.4      2.537      8.417
REMARK SMILES C[C@@H](C(=O)NCCCCNC(=O)c1ccc(-c2c3nc(c(-c4c(F)c(F)c(F)c(F)c4F)c4ccc([nH]4)c(-c4c(F)c(F)c(F)c(F)c4F)c4nc(c(-c5c(F)c(F)c(F)c(F)c5F)c5ccc2[nH]5)C=C4)C=C3)cc1)c1ccc(C[C@H]2CCCC2=O)cc1Br
REMARK SMILES IDX 7 1 6 2 5 3 3 4 4 5 2 7 1 8 76 9 77 10 88 11 78 12 87 13
REMARK SMILES IDX 89 14 79 15 80 16 81 17 82 18 85 19 83 20 84 21 86 22 8 23
REMARK SMILES IDX 9 24 10 25 11 26 12 28 13 29 14 30 75 31 15 32 74 33 16 34
REMARK SMILES IDX 17 35 18 36 68 37 19 38 73 39 67 40 69 41 20 42 72 43 66 44
REMARK SMILES IDX 65 45 21 47 53 48 33 49 52 50 34 51 37 52 51 53 70 54 35 55
REMARK SMILES IDX 36 56 50 58 71 59 38 60 22 61 23 62 31 63 24 64 25 65 29 66
REMARK SMILES IDX 32 67 26 68 27 69 30 70 28 71 54 72 55 73 63 74 56 75 57 76
REMARK SMILES IDX 61 77 64 78 58 79 59 80 62 81 60 82 39 83 40 84 48 85 41 86
REMARK SMILES IDX 42 87 46 88 49 89 43 90 44 91 47 92 45 93
REMARK H PARENT 5 6 10 27 69 46 37 57
REMARK Flexibility Score: inf
ROOT
ATOM      1  C   UNL A   1      36.556  19.292  25.002  1.00  0.00     0.023 C 
ENDROOT
BRANCH   1   2
ATOM      2  C   UNL A   1      35.249  20.016  24.658  1.00  0.00     0.116 C 
BRANCH   2   3
ATOM      3  N   UNL A   1      34.768  20.750  25.811  1.00  0.00    -0.356 N 
ATOM      4  C   UNL A   1      34.930  22.072  26.121  1.00  0.00     0.227 C 
ATOM      5  O   UNL A   1      34.720  22.403  27.289  1.00  0.00    -0.274 OA
ATOM      6  H   UNL A   1      34.250  20.223  26.462  1.00  0.00     0.163 HD
BRANCH   4   7
ATOM      7  C   UNL A   1      35.338  23.073  25.019  1.00  0.00     0.106 C 
ATOM      8  C   UNL A   1      36.725  23.637  25.368  1.00  0.00     0.023 C 
BRANCH   7   9
ATOM      9  C   UNL A   1      34.271  24.157  24.800  1.00  0.00    -0.022 A 
ATOM     10  C   UNL A   1      34.398  25.416  25.415  1.00  0.00     0.006 A 
ATOM     11  C   UNL A   1      33.131  23.955  23.997  1.00  0.00     0.022 A 
ATOM     12  C   UNL A   1      33.408  26.390  25.307  1.00  0.00     0.004 A 
ATOM     13  C   UNL A   1      32.104  24.912  23.945  1.00  0.00     0.019 A 
ATOM     14  Br  UNL A   1      32.904  22.415  22.898  1.00  0.00    -0.051 Br
ATOM     15  C   UNL A   1      32.217  26.122  24.636  1.00  0.00    -0.046 A 
BRANCH  15  16
ATOM     16  C   UNL A   1      31.084  27.119  24.670  1.00  0.00     0.047 C 
BRANCH  16  17
ATOM     17  C   UNL A   1      31.174  28.283  23.668  1.00  0.00     0.060 C 
ATOM     18  C   UNL A   1      30.318  28.155  22.403  1.00  0.00     0.012 C 
ATOM     19  C   UNL A   1      30.697  29.601  24.234  1.00  0.00     0.136 C 
ATOM     20  C   UNL A   1      29.051  28.964  22.658  1.00  0.00     0.009 C 
ATOM     21  C   UNL A   1      29.485  30.140  23.520  1.00  0.00     0.076 C 
ATOM     22  O   UNL A   1      31.241  30.177  25.170  1.00  0.00    -0.299 OA
ENDBRANCH  16  17
ENDBRANCH  15  16
ENDBRANCH   7   9
ENDBRANCH   4   7
ENDBRANCH   2   3
ENDBRANCH   1   2
BRANCH   1  23
ATOM     23  C   UNL A   1      37.826  20.057  24.620  1.00  0.00     0.023 C 
BRANCH  23  24
ATOM     24  C   UNL A   1      38.802  20.293  25.764  1.00  0.00     0.116 C 
BRANCH  24  25
ATOM     25  N   UNL A   1      39.854  19.292  25.822  1.00  0.00    -0.352 N 
ATOM     26  C   UNL A   1      41.194  19.451  26.055  1.00  0.00     0.251 C 
ATOM     27  H   UNL A   1      39.561  18.364  25.672  1.00  0.00     0.163 HD
ATOM     28  O   UNL A   1      41.953  18.489  25.933  1.00  0.00    -0.269 OA
BRANCH  26  29
ATOM     29  C   UNL A   1      41.740  20.775  26.417  1.00  0.00     0.039 A 
ATOM     30  C   UNL A   1      41.956  21.704  25.397  1.00  0.00     0.014 A 
ATOM     31  C   UNL A   1      42.051  21.103  27.740  1.00  0.00     0.014 A 
ATOM     32  C   UNL A   1      42.436  22.976  25.710  1.00  0.00     0.010 A 
ATOM     33  C   UNL A   1      42.457  22.397  28.061  1.00  0.00     0.010 A 
ATOM     34  C   UNL A   1      42.660  23.343  27.048  1.00  0.00    -0.014 A 
BRANCH  34  35
ATOM     35  C   UNL A   1      43.102  24.720  27.381  1.00  0.00     0.031 A 
ATOM     36  C   UNL A   1      44.512  25.161  27.110  1.00  0.00     0.074 A 
ATOM     37  C   UNL A   1      42.225  25.569  27.951  1.00  0.00     0.049 A 
ATOM     38  N   UNL A   1      45.062  26.335  27.300  1.00  0.00    -0.248 NA
ATOM     39  C   UNL A   1      45.434  24.147  26.576  1.00  0.00     0.031 C 
ATOM     40  C   UNL A   1      40.851  25.236  28.331  1.00  0.00     0.029 A 
ATOM     41  N   UNL A   1      42.357  26.887  28.309  1.00  0.00    -0.354 N 
ATOM     42  C   UNL A   1      46.386  26.201  26.906  1.00  0.00     0.074 A 
ATOM     43  C   UNL A   1      46.577  24.817  26.530  1.00  0.00     0.031 C 
ATOM     44  C   UNL A   1      40.257  26.327  28.839  1.00  0.00     0.029 A 
ATOM     45  C   UNL A   1      41.214  27.429  28.841  1.00  0.00     0.049 A 
ATOM     46  H   UNL A   1      43.193  27.396  28.195  1.00  0.00     0.167 HD
ATOM     47  C   UNL A   1      47.347  27.153  26.833  1.00  0.00     0.037 A 
ATOM     48  C   UNL A   1      40.962  28.679  29.275  1.00  0.00     0.037 A 
ATOM     49  C   UNL A   1      47.151  28.531  27.200  1.00  0.00     0.049 A 
ATOM     50  C   UNL A   1      42.040  29.723  29.161  1.00  0.00     0.074 A 
ATOM     51  C   UNL A   1      48.050  29.581  27.129  1.00  0.00     0.029 A 
ATOM     52  N   UNL A   1      45.970  29.052  27.709  1.00  0.00    -0.354 N 
ATOM     53  N   UNL A   1      43.266  29.601  28.714  1.00  0.00    -0.248 NA
ATOM     54  C   UNL A   1      41.691  31.081  29.596  1.00  0.00     0.031 C 
ATOM     55  C   UNL A   1      47.425  30.728  27.631  1.00  0.00     0.029 A 
ATOM     56  C   UNL A   1      46.121  30.404  27.969  1.00  0.00     0.049 A 
ATOM     57  H   UNL A   1      45.146  28.536  27.863  1.00  0.00     0.167 HD
ATOM     58  C   UNL A   1      43.829  30.867  28.796  1.00  0.00     0.074 A 
ATOM     59  C   UNL A   1      42.799  31.748  29.306  1.00  0.00     0.031 C 
ATOM     60  C   UNL A   1      45.087  31.265  28.483  1.00  0.00     0.037 A 
BRANCH  47  61
ATOM     61  C   UNL A   1      48.695  26.737  26.316  1.00  0.00     0.064 A 
ATOM     62  C   UNL A   1      49.053  26.929  24.972  1.00  0.00     0.173 A 
ATOM     63  C   UNL A   1      49.653  26.180  27.175  1.00  0.00     0.173 A 
ATOM     64  F   UNL A   1      48.169  27.446  24.106  1.00  0.00    -0.203 F 
ATOM     65  C   UNL A   1      50.309  26.555  24.504  1.00  0.00     0.198 A 
ATOM     66  C   UNL A   1      50.919  25.835  26.710  1.00  0.00     0.198 A 
ATOM     67  F   UNL A   1      49.365  25.979  28.470  1.00  0.00    -0.203 F 
ATOM     68  F   UNL A   1      50.610  26.706  23.206  1.00  0.00    -0.200 F 
ATOM     69  C   UNL A   1      51.244  26.015  25.373  1.00  0.00     0.200 A 
ATOM     70  F   UNL A   1      51.826  25.324  27.555  1.00  0.00    -0.200 F 
ATOM     71  F   UNL A   1      52.456  25.664  24.923  1.00  0.00    -0.200 F 
ENDBRANCH  47  61
BRANCH  48  72
ATOM     72  C   UNL A   1      39.624  29.019  29.823  1.00  0.00     0.064 A 
ATOM     73  C   UNL A   1      38.606  29.512  28.995  1.00  0.00     0.173 A 
ATOM     74  C   UNL A   1      39.338  28.866  31.187  1.00  0.00     0.173 A 
ATOM     75  F   UNL A   1      38.837  29.692  27.686  1.00  0.00    -0.203 F 
ATOM     76  C   UNL A   1      37.362  29.863  29.513  1.00  0.00     0.198 A 
ATOM     77  C   UNL A   1      38.084  29.189  31.701  1.00  0.00     0.198 A 
ATOM     78  F   UNL A   1      40.274  28.390  32.021  1.00  0.00    -0.203 F 
ATOM     79  F   UNL A   1      36.425  30.380  28.708  1.00  0.00    -0.200 F 
ATOM     80  C   UNL A   1      37.101  29.698  30.866  1.00  0.00     0.200 A 
ATOM     81  F   UNL A   1      37.830  29.012  33.004  1.00  0.00    -0.200 F 
ATOM     82  F   UNL A   1      35.904  30.034  31.364  1.00  0.00    -0.200 F 
ENDBRANCH  48  72
BRANCH  60  83
ATOM     83  C   UNL A   1      45.406  32.720  28.672  1.00  0.00     0.064 A 
ATOM     84  C   UNL A   1      45.169  33.661  27.660  1.00  0.00     0.173 A 
ATOM     85  C   UNL A   1      45.948  33.178  29.882  1.00  0.00     0.173 A 
ATOM     86  F   UNL A   1      44.664  33.271  26.479  1.00  0.00    -0.203 F 
ATOM     87  C   UNL A   1      45.498  35.002  27.837  1.00  0.00     0.198 A 
ATOM     88  C   UNL A   1      46.248  34.525  30.068  1.00  0.00     0.198 A 
ATOM     89  F   UNL A   1      46.187  32.320  30.885  1.00  0.00    -0.203 F 
ATOM     90  F   UNL A   1      45.321  35.873  26.833  1.00  0.00    -0.200 F 
ATOM     91  C   UNL A   1      46.034  35.433  29.042  1.00  0.00     0.200 A 
ATOM     92  F   UNL A   1      46.753  34.942  31.236  1.00  0.00    -0.200 F 
ATOM     93  F   UNL A   1      46.355  36.724  29.211  1.00  0.00    -0.200 F 
ENDBRANCH  60  83
ENDBRANCH  34  35
ENDBRANCH  26  29
ENDBRANCH  24  25
ENDBRANCH  23  24
ENDBRANCH   1  23
TORSDOF 14
ENDMDL
