MODEL 1
REMARK VINA RESULT:     -10.9      0.000      0.000
REMARK SMILES CCNC(=O)C[NH2+][C@@H](C)[C@@H](C)C(=O)NCCCCNC(=O)c1ccc(-c2c3nc(c(-c4c(F)c(F)c(F)c(F)c4F)c4ccc([nH]4)c(-c4c(F)c(F)c(F)c(F)c4F)c4nc(c(-c5c(F)c(F)c(F)c(F)c5F)c5ccc2[nH]5)C=C4)C=C3)cc1
REMARK SMILES IDX 15 1 14 2 12 3 13 4 10 6 11 7 8 8 9 9 7 10 6 13 4 14 3 15
REMARK SMILES IDX 5 17 2 18 1 19 16 20 17 21 18 22 19 23 20 24 21 26 22 27
REMARK SMILES IDX 23 28 84 29 24 30 83 31 25 32 26 33 27 34 77 35 28 36 82 37
REMARK SMILES IDX 76 38 78 39 29 40 81 41 75 42 74 43 30 45 62 46 42 47 61 48
REMARK SMILES IDX 43 49 46 50 60 51 79 52 44 53 45 54 59 56 80 57 47 58 31 59
REMARK SMILES IDX 32 60 40 61 33 62 34 63 38 64 41 65 35 66 36 67 39 68 37 69
REMARK SMILES IDX 63 70 64 71 72 72 65 73 66 74 70 75 73 76 67 77 68 78 71 79
REMARK SMILES IDX 69 80 48 81 49 82 57 83 50 84 51 85 55 86 58 87 52 88 53 89
REMARK SMILES IDX 56 90 54 91
REMARK H PARENT 14 5 7 11 7 12 3 16 19 25 78 44 46 55
REMARK Flexibility Score: inf
ROOT
ATOM      1  C   UNL A   1      33.059  30.008  26.426  1.00  0.00     0.116 C 
ENDROOT
BRANCH   1   2
ATOM      2  N   UNL A   1      33.617  29.223  25.341  1.00  0.00    -0.356 N 
ATOM      3  C   UNL A   1      33.441  27.922  24.987  1.00  0.00     0.228 C 
ATOM      4  O   UNL A   1      34.076  27.518  24.009  1.00  0.00    -0.275 OA
ATOM      5  H   UNL A   1      34.232  29.721  24.757  1.00  0.00     0.163 HD
BRANCH   3   6
ATOM      6  C   UNL A   1      32.498  26.979  25.736  1.00  0.00     0.133 C 
ATOM      7  C   UNL A   1      33.103  25.573  25.794  1.00  0.00     0.024 C 
BRANCH   6   8
ATOM      8  C   UNL A   1      31.040  27.066  25.216  1.00  0.00     0.191 C 
ATOM      9  C   UNL A   1      30.210  25.894  25.765  1.00  0.00     0.076 C 
BRANCH   8  10
ATOM     10  N   UNL A   1      31.007  27.103  23.744  1.00  0.00    -0.336 N 
ATOM     11  H   UNL A   1      31.937  27.341  23.401  1.00  0.00     0.346 HD
ATOM     12  H   UNL A   1      30.713  26.183  23.416  1.00  0.00     0.346 HD
BRANCH  10  13
ATOM     13  C   UNL A   1      30.042  28.092  23.230  1.00  0.00     0.362 C 
BRANCH  13  14
ATOM     14  C   UNL A   1      30.777  29.246  22.545  1.00  0.00     0.275 C 
ATOM     15  N   UNL A   1      30.067  30.310  22.067  1.00  0.00    -0.351 N 
ATOM     16  H   UNL A   1      30.581  30.969  21.548  1.00  0.00     0.163 HD
ATOM     17  O   UNL A   1      32.000  29.226  22.391  1.00  0.00    -0.269 OA
BRANCH  15  18
ATOM     18  C   UNL A   1      28.654  30.596  22.225  1.00  0.00     0.112 C 
ATOM     19  C   UNL A   1      28.433  31.617  23.325  1.00  0.00     0.027 C 
ENDBRANCH  15  18
ENDBRANCH  13  14
ENDBRANCH  10  13
ENDBRANCH   8  10
ENDBRANCH   6   8
ENDBRANCH   3   6
ENDBRANCH   1   2
BRANCH   1  20
ATOM     20  C   UNL A   1      31.800  30.763  25.999  1.00  0.00     0.023 C 
BRANCH  20  21
ATOM     21  C   UNL A   1      31.475  31.998  26.838  1.00  0.00     0.023 C 
BRANCH  21  22
ATOM     22  C   UNL A   1      32.681  32.797  27.314  1.00  0.00     0.116 C 
BRANCH  22  23
ATOM     23  N   UNL A   1      32.367  34.185  27.622  1.00  0.00    -0.352 N 
ATOM     24  C   UNL A   1      32.953  35.017  28.544  1.00  0.00     0.251 C 
ATOM     25  H   UNL A   1      31.633  34.581  27.098  1.00  0.00     0.163 HD
ATOM     26  O   UNL A   1      32.491  36.134  28.754  1.00  0.00    -0.269 OA
BRANCH  24  27
ATOM     27  C   UNL A   1      34.122  34.543  29.312  1.00  0.00     0.039 A 
ATOM     28  C   UNL A   1      33.917  33.980  30.574  1.00  0.00     0.014 A 
ATOM     29  C   UNL A   1      35.410  34.621  28.774  1.00  0.00     0.014 A 
ATOM     30  C   UNL A   1      34.996  33.425  31.265  1.00  0.00     0.010 A 
ATOM     31  C   UNL A   1      36.469  34.002  29.429  1.00  0.00     0.010 A 
ATOM     32  C   UNL A   1      36.272  33.396  30.679  1.00  0.00    -0.014 A 
BRANCH  32  33
ATOM     33  C   UNL A   1      37.414  32.731  31.355  1.00  0.00     0.031 A 
ATOM     34  C   UNL A   1      38.106  31.569  30.699  1.00  0.00     0.074 A 
ATOM     35  C   UNL A   1      37.779  33.125  32.591  1.00  0.00     0.049 A 
ATOM     36  N   UNL A   1      39.067  30.809  31.159  1.00  0.00    -0.248 NA
ATOM     37  C   UNL A   1      37.633  31.193  29.357  1.00  0.00     0.031 C 
ATOM     38  C   UNL A   1      37.152  34.206  33.354  1.00  0.00     0.029 A 
ATOM     39  N   UNL A   1      38.760  32.654  33.428  1.00  0.00    -0.354 N 
ATOM     40  C   UNL A   1      39.301  29.860  30.174  1.00  0.00     0.074 A 
ATOM     41  C   UNL A   1      38.347  30.104  29.114  1.00  0.00     0.031 C 
ATOM     42  C   UNL A   1      37.775  34.329  34.536  1.00  0.00     0.029 A 
ATOM     43  C   UNL A   1      38.820  33.314  34.631  1.00  0.00     0.049 A 
ATOM     44  H   UNL A   1      39.362  31.914  33.188  1.00  0.00     0.167 HD
ATOM     45  C   UNL A   1      40.244  28.888  30.146  1.00  0.00     0.037 A 
ATOM     46  C   UNL A   1      39.624  33.117  35.693  1.00  0.00     0.037 A 
ATOM     47  C   UNL A   1      41.209  28.666  31.190  1.00  0.00     0.049 A 
ATOM     48  C   UNL A   1      40.663  32.030  35.636  1.00  0.00     0.074 A 
ATOM     49  C   UNL A   1      42.245  27.749  31.227  1.00  0.00     0.029 A 
ATOM     50  N   UNL A   1      41.255  29.370  32.385  1.00  0.00    -0.354 N 
ATOM     51  N   UNL A   1      40.923  31.184  34.668  1.00  0.00    -0.248 NA
ATOM     52  C   UNL A   1      41.524  31.874  36.816  1.00  0.00     0.031 C 
ATOM     53  C   UNL A   1      42.890  27.868  32.463  1.00  0.00     0.029 A 
ATOM     54  C   UNL A   1      42.288  28.893  33.175  1.00  0.00     0.049 A 
ATOM     55  H   UNL A   1      40.643  30.100  32.634  1.00  0.00     0.167 HD
ATOM     56  C   UNL A   1      41.994  30.418  35.109  1.00  0.00     0.074 A 
ATOM     57  C   UNL A   1      42.344  30.909  36.426  1.00  0.00     0.031 C 
ATOM     58  C   UNL A   1      42.629  29.399  34.480  1.00  0.00     0.037 A 
BRANCH  45  59
ATOM     59  C   UNL A   1      40.281  27.993  28.941  1.00  0.00     0.064 A 
ATOM     60  C   UNL A   1      41.023  28.328  27.798  1.00  0.00     0.173 A 
ATOM     61  C   UNL A   1      39.593  26.770  28.941  1.00  0.00     0.173 A 
ATOM     62  F   UNL A   1      41.689  29.492  27.742  1.00  0.00    -0.203 F 
ATOM     63  C   UNL A   1      41.051  27.487  26.690  1.00  0.00     0.198 A 
ATOM     64  C   UNL A   1      39.648  25.916  27.842  1.00  0.00     0.198 A 
ATOM     65  F   UNL A   1      38.872  26.399  30.009  1.00  0.00    -0.203 F 
ATOM     66  F   UNL A   1      41.725  27.852  25.590  1.00  0.00    -0.200 F 
ATOM     67  C   UNL A   1      40.370  26.279  26.715  1.00  0.00     0.200 A 
ATOM     68  F   UNL A   1      39.000  24.743  27.873  1.00  0.00    -0.200 F 
ATOM     69  F   UNL A   1      40.404  25.467  25.649  1.00  0.00    -0.200 F 
ENDBRANCH  45  59
BRANCH  46  70
ATOM     70  C   UNL A   1      39.497  33.984  36.893  1.00  0.00     0.064 A 
ATOM     71  C   UNL A   1      40.144  35.227  36.954  1.00  0.00     0.173 A 
ATOM     72  C   UNL A   1      38.734  33.592  38.003  1.00  0.00     0.173 A 
ATOM     73  F   UNL A   1      40.901  35.637  35.925  1.00  0.00    -0.203 F 
ATOM     74  C   UNL A   1      40.051  36.033  38.086  1.00  0.00     0.198 A 
ATOM     75  C   UNL A   1      38.618  34.412  39.123  1.00  0.00     0.198 A 
ATOM     76  F   UNL A   1      38.090  32.415  37.993  1.00  0.00    -0.203 F 
ATOM     77  F   UNL A   1      40.718  37.194  38.135  1.00  0.00    -0.200 F 
ATOM     78  C   UNL A   1      39.284  35.628  39.168  1.00  0.00     0.200 A 
ATOM     79  F   UNL A   1      37.865  34.024  40.160  1.00  0.00    -0.200 F 
ATOM     80  F   UNL A   1      39.193  36.405  40.254  1.00  0.00    -0.200 F 
ENDBRANCH  46  70
BRANCH  58  81
ATOM     81  C   UNL A   1      43.792  28.770  35.190  1.00  0.00     0.064 A 
ATOM     82  C   UNL A   1      43.627  27.664  36.037  1.00  0.00     0.173 A 
ATOM     83  C   UNL A   1      45.093  29.256  34.988  1.00  0.00     0.173 A 
ATOM     84  F   UNL A   1      42.402  27.173  36.276  1.00  0.00    -0.203 F 
ATOM     85  C   UNL A   1      44.721  27.083  36.675  1.00  0.00     0.198 A 
ATOM     86  C   UNL A   1      46.187  28.653  35.603  1.00  0.00     0.198 A 
ATOM     87  F   UNL A   1      45.304  30.307  34.182  1.00  0.00    -0.203 F 
ATOM     88  F   UNL A   1      44.535  26.058  37.517  1.00  0.00    -0.200 F 
ATOM     89  C   UNL A   1      45.999  27.572  36.451  1.00  0.00     0.200 A 
ATOM     90  F   UNL A   1      47.422  29.119  35.375  1.00  0.00    -0.200 F 
ATOM     91  F   UNL A   1      47.050  27.006  37.059  1.00  0.00    -0.200 F 
ENDBRANCH  58  81
ENDBRANCH  32  33
ENDBRANCH  24  27
ENDBRANCH  22  23
ENDBRANCH  21  22
ENDBRANCH  20  21
ENDBRANCH   1  20
TORSDOF 16
ENDMDL
MODEL 2
REMARK VINA RESULT:     -10.6      1.021      7.643
REMARK SMILES CCNC(=O)C[NH2+][C@@H](C)[C@@H](C)C(=O)NCCCCNC(=O)c1ccc(-c2c3nc(c(-c4c(F)c(F)c(F)c(F)c4F)c4ccc([nH]4)c(-c4c(F)c(F)c(F)c(F)c4F)c4nc(c(-c5c(F)c(F)c(F)c(F)c5F)c5ccc2[nH]5)C=C4)C=C3)cc1
REMARK SMILES IDX 15 1 14 2 12 3 13 4 10 6 11 7 8 8 9 9 7 10 6 13 4 14 3 15
REMARK SMILES IDX 5 17 2 18 1 19 16 20 17 21 18 22 19 23 20 24 21 26 22 27
REMARK SMILES IDX 23 28 84 29 24 30 83 31 25 32 26 33 27 34 77 35 28 36 82 37
REMARK SMILES IDX 76 38 78 39 29 40 81 41 75 42 74 43 30 45 62 46 42 47 61 48
REMARK SMILES IDX 43 49 46 50 60 51 79 52 44 53 45 54 59 56 80 57 47 58 31 59
REMARK SMILES IDX 32 60 40 61 33 62 34 63 38 64 41 65 35 66 36 67 39 68 37 69
REMARK SMILES IDX 63 70 64 71 72 72 65 73 66 74 70 75 73 76 67 77 68 78 71 79
REMARK SMILES IDX 69 80 48 81 49 82 57 83 50 84 51 85 55 86 58 87 52 88 53 89
REMARK SMILES IDX 56 90 54 91
REMARK H PARENT 14 5 7 11 7 12 3 16 19 25 78 44 46 55
REMARK Flexibility Score: inf
ROOT
ATOM      1  C   UNL A   1      31.455  29.899  25.358  1.00  0.00     0.116 C 
ENDROOT
BRANCH   1   2
ATOM      2  N   UNL A   1      32.648  29.698  24.558  1.00  0.00    -0.356 N 
ATOM      3  C   UNL A   1      33.394  28.586  24.316  1.00  0.00     0.228 C 
ATOM      4  O   UNL A   1      34.387  28.726  23.596  1.00  0.00    -0.275 OA
ATOM      5  H   UNL A   1      32.977  30.510  24.110  1.00  0.00     0.163 HD
BRANCH   3   6
ATOM      6  C   UNL A   1      33.040  27.211  24.881  1.00  0.00     0.133 C 
ATOM      7  C   UNL A   1      33.964  26.876  26.056  1.00  0.00     0.024 C 
BRANCH   6   8
ATOM      8  C   UNL A   1      32.930  26.128  23.778  1.00  0.00     0.191 C 
ATOM      9  C   UNL A   1      34.156  25.201  23.820  1.00  0.00     0.076 C 
BRANCH   8  10
ATOM     10  N   UNL A   1      32.770  26.745  22.449  1.00  0.00    -0.336 N 
ATOM     11  H   UNL A   1      32.969  27.741  22.524  1.00  0.00     0.346 HD
ATOM     12  H   UNL A   1      33.417  26.282  21.812  1.00  0.00     0.346 HD
BRANCH  10  13
ATOM     13  C   UNL A   1      31.408  26.571  21.912  1.00  0.00     0.362 C 
BRANCH  13  14
ATOM     14  C   UNL A   1      30.470  27.633  22.488  1.00  0.00     0.275 C 
ATOM     15  N   UNL A   1      29.484  27.262  23.357  1.00  0.00    -0.351 N 
ATOM     16  H   UNL A   1      28.851  27.970  23.613  1.00  0.00     0.163 HD
ATOM     17  O   UNL A   1      30.567  28.819  22.165  1.00  0.00    -0.269 OA
BRANCH  15  18
ATOM     18  C   UNL A   1      29.249  25.961  23.954  1.00  0.00     0.112 C 
ATOM     19  C   UNL A   1      29.691  25.948  25.405  1.00  0.00     0.027 C 
ENDBRANCH  15  18
ENDBRANCH  13  14
ENDBRANCH  10  13
ENDBRANCH   8  10
ENDBRANCH   6   8
ENDBRANCH   3   6
ENDBRANCH   1   2
BRANCH   1  20
ATOM     20  C   UNL A   1      31.775  30.535  26.712  1.00  0.00     0.023 C 
BRANCH  20  21
ATOM     21  C   UNL A   1      31.565  32.047  26.778  1.00  0.00     0.023 C 
BRANCH  21  22
ATOM     22  C   UNL A   1      32.797  32.860  27.152  1.00  0.00     0.116 C 
BRANCH  22  23
ATOM     23  N   UNL A   1      32.482  34.200  27.626  1.00  0.00    -0.352 N 
ATOM     24  C   UNL A   1      33.045  34.903  28.663  1.00  0.00     0.251 C 
ATOM     25  H   UNL A   1      31.765  34.665  27.136  1.00  0.00     0.163 HD
ATOM     26  O   UNL A   1      32.583  35.988  29.000  1.00  0.00    -0.269 OA
BRANCH  24  27
ATOM     27  C   UNL A   1      34.189  34.325  29.396  1.00  0.00     0.039 A 
ATOM     28  C   UNL A   1      33.937  33.516  30.507  1.00  0.00     0.014 A 
ATOM     29  C   UNL A   1      35.500  34.550  28.969  1.00  0.00     0.014 A 
ATOM     30  C   UNL A   1      34.999  32.870  31.145  1.00  0.00     0.010 A 
ATOM     31  C   UNL A   1      36.547  33.849  29.558  1.00  0.00     0.010 A 
ATOM     32  C   UNL A   1      36.306  33.000  30.649  1.00  0.00    -0.014 A 
BRANCH  32  33
ATOM     33  C   UNL A   1      37.437  32.252  31.254  1.00  0.00     0.031 A 
ATOM     34  C   UNL A   1      37.935  32.617  32.624  1.00  0.00     0.074 A 
ATOM     35  C   UNL A   1      38.060  31.294  30.541  1.00  0.00     0.049 A 
ATOM     36  N   UNL A   1      38.954  32.138  33.290  1.00  0.00    -0.248 NA
ATOM     37  C   UNL A   1      37.207  33.686  33.327  1.00  0.00     0.031 C 
ATOM     38  C   UNL A   1      37.703  30.884  29.181  1.00  0.00     0.029 A 
ATOM     39  N   UNL A   1      39.134  30.499  30.856  1.00  0.00    -0.354 N 
ATOM     40  C   UNL A   1      38.999  32.855  34.478  1.00  0.00     0.074 A 
ATOM     41  C   UNL A   1      37.940  33.838  34.420  1.00  0.00     0.031 C 
ATOM     42  C   UNL A   1      38.528  29.901  28.788  1.00  0.00     0.029 A 
ATOM     43  C   UNL A   1      39.494  29.636  29.849  1.00  0.00     0.049 A 
ATOM     44  H   UNL A   1      39.601  30.543  31.721  1.00  0.00     0.167 HD
ATOM     45  C   UNL A   1      39.834  32.690  35.532  1.00  0.00     0.037 A 
ATOM     46  C   UNL A   1      40.496  28.739  29.789  1.00  0.00     0.037 A 
ATOM     47  C   UNL A   1      40.869  31.692  35.597  1.00  0.00     0.049 A 
ATOM     48  C   UNL A   1      41.409  28.577  30.973  1.00  0.00     0.074 A 
ATOM     49  C   UNL A   1      41.724  31.404  36.646  1.00  0.00     0.029 A 
ATOM     50  N   UNL A   1      41.189  30.820  34.567  1.00  0.00    -0.354 N 
ATOM     51  N   UNL A   1      41.397  29.211  32.121  1.00  0.00    -0.248 NA
ATOM     52  C   UNL A   1      42.472  27.569  30.858  1.00  0.00     0.031 C 
ATOM     53  C   UNL A   1      42.593  30.387  36.234  1.00  0.00     0.029 A 
ATOM     54  C   UNL A   1      42.244  30.007  34.947  1.00  0.00     0.049 A 
ATOM     55  H   UNL A   1      40.734  30.785  33.694  1.00  0.00     0.167 HD
ATOM     56  C   UNL A   1      42.426  28.660  32.872  1.00  0.00     0.074 A 
ATOM     57  C   UNL A   1      43.035  27.630  32.056  1.00  0.00     0.031 C 
ATOM     58  C   UNL A   1      42.832  28.980  34.125  1.00  0.00     0.037 A 
BRANCH  45  59
ATOM     59  C   UNL A   1      39.656  33.609  36.706  1.00  0.00     0.064 A 
ATOM     60  C   UNL A   1      38.810  33.280  37.776  1.00  0.00     0.173 A 
ATOM     61  C   UNL A   1      40.366  34.817  36.780  1.00  0.00     0.173 A 
ATOM     62  F   UNL A   1      38.099  32.143  37.750  1.00  0.00    -0.203 F 
ATOM     63  C   UNL A   1      38.658  34.140  38.860  1.00  0.00     0.198 A 
ATOM     64  C   UNL A   1      40.235  35.660  37.880  1.00  0.00     0.198 A 
ATOM     65  F   UNL A   1      41.193  35.177  35.786  1.00  0.00    -0.203 F 
ATOM     66  F   UNL A   1      37.804  33.829  39.846  1.00  0.00    -0.200 F 
ATOM     67  C   UNL A   1      39.376  35.325  38.915  1.00  0.00     0.200 A 
ATOM     68  F   UNL A   1      40.940  36.799  37.938  1.00  0.00    -0.200 F 
ATOM     69  F   UNL A   1      39.233  36.149  39.963  1.00  0.00    -0.200 F 
ENDBRANCH  45  59
BRANCH  46  70
ATOM     70  C   UNL A   1      40.674  27.905  28.572  1.00  0.00     0.064 A 
ATOM     71  C   UNL A   1      41.452  28.358  27.497  1.00  0.00     0.173 A 
ATOM     72  C   UNL A   1      40.071  26.643  28.454  1.00  0.00     0.173 A 
ATOM     73  F   UNL A   1      42.032  29.566  27.554  1.00  0.00    -0.203 F 
ATOM     74  C   UNL A   1      41.601  27.593  26.342  1.00  0.00     0.198 A 
ATOM     75  C   UNL A   1      40.245  25.867  27.311  1.00  0.00     0.198 A 
ATOM     76  F   UNL A   1      39.322  26.162  29.457  1.00  0.00    -0.203 F 
ATOM     77  F   UNL A   1      42.311  28.071  25.311  1.00  0.00    -0.200 F 
ATOM     78  C   UNL A   1      41.002  26.346  26.252  1.00  0.00     0.200 A 
ATOM     79  F   UNL A   1      39.676  24.657  27.233  1.00  0.00    -0.200 F 
ATOM     80  F   UNL A   1      41.149  25.609  25.143  1.00  0.00    -0.200 F 
ENDBRANCH  46  70
BRANCH  58  81
ATOM     81  C   UNL A   1      43.963  28.183  34.707  1.00  0.00     0.064 A 
ATOM     82  C   UNL A   1      43.739  26.995  35.418  1.00  0.00     0.173 A 
ATOM     83  C   UNL A   1      45.291  28.595  34.515  1.00  0.00     0.173 A 
ATOM     84  F   UNL A   1      42.487  26.569  35.642  1.00  0.00    -0.203 F 
ATOM     85  C   UNL A   1      44.803  26.261  35.936  1.00  0.00     0.198 A 
ATOM     86  C   UNL A   1      46.353  27.841  35.008  1.00  0.00     0.198 A 
ATOM     87  F   UNL A   1      45.559  29.720  33.837  1.00  0.00    -0.203 F 
ATOM     88  F   UNL A   1      44.563  25.154  36.652  1.00  0.00    -0.200 F 
ATOM     89  C   UNL A   1      46.108  26.680  35.724  1.00  0.00     0.200 A 
ATOM     90  F   UNL A   1      47.614  28.240  34.791  1.00  0.00    -0.200 F 
ATOM     91  F   UNL A   1      47.130  25.966  36.216  1.00  0.00    -0.200 F 
ENDBRANCH  58  81
ENDBRANCH  32  33
ENDBRANCH  24  27
ENDBRANCH  22  23
ENDBRANCH  21  22
ENDBRANCH  20  21
ENDBRANCH   1  20
TORSDOF 16
ENDMDL
MODEL 3
REMARK VINA RESULT:     -10.4      3.434      9.968
REMARK SMILES CCNC(=O)C[NH2+][C@@H](C)[C@@H](C)C(=O)NCCCCNC(=O)c1ccc(-c2c3nc(c(-c4c(F)c(F)c(F)c(F)c4F)c4ccc([nH]4)c(-c4c(F)c(F)c(F)c(F)c4F)c4nc(c(-c5c(F)c(F)c(F)c(F)c5F)c5ccc2[nH]5)C=C4)C=C3)cc1
REMARK SMILES IDX 15 1 14 2 12 3 13 4 10 6 11 7 8 8 9 9 7 10 6 13 4 14 3 15
REMARK SMILES IDX 5 17 2 18 1 19 16 20 17 21 18 22 19 23 20 24 21 26 22 27
REMARK SMILES IDX 23 28 84 29 24 30 83 31 25 32 26 33 27 34 77 35 28 36 82 37
REMARK SMILES IDX 76 38 78 39 29 40 81 41 75 42 74 43 30 45 62 46 42 47 61 48
REMARK SMILES IDX 43 49 46 50 60 51 79 52 44 53 45 54 59 56 80 57 47 58 31 59
REMARK SMILES IDX 32 60 40 61 33 62 34 63 38 64 41 65 35 66 36 67 39 68 37 69
REMARK SMILES IDX 63 70 64 71 72 72 65 73 66 74 70 75 73 76 67 77 68 78 71 79
REMARK SMILES IDX 69 80 48 81 49 82 57 83 50 84 51 85 55 86 58 87 52 88 53 89
REMARK SMILES IDX 56 90 54 91
REMARK H PARENT 14 5 7 11 7 12 3 16 19 25 78 44 46 55
REMARK Flexibility Score: inf
ROOT
ATOM      1  C   UNL A   1      33.251  36.295  29.705  1.00  0.00     0.116 C 
ENDROOT
BRANCH   1   2
ATOM      2  N   UNL A   1      32.156  36.252  30.655  1.00  0.00    -0.356 N 
ATOM      3  C   UNL A   1      32.143  36.108  32.008  1.00  0.00     0.228 C 
ATOM      4  O   UNL A   1      31.037  36.086  32.556  1.00  0.00    -0.275 OA
ATOM      5  H   UNL A   1      31.264  36.342  30.250  1.00  0.00     0.163 HD
BRANCH   3   6
ATOM      6  C   UNL A   1      33.418  35.990  32.842  1.00  0.00     0.133 C 
ATOM      7  C   UNL A   1      34.117  37.352  32.922  1.00  0.00     0.024 C 
BRANCH   6   8
ATOM      8  C   UNL A   1      34.307  34.800  32.399  1.00  0.00     0.191 C 
ATOM      9  C   UNL A   1      34.013  33.566  33.267  1.00  0.00     0.076 C 
BRANCH   8  10
ATOM     10  N   UNL A   1      35.734  35.161  32.448  1.00  0.00    -0.336 N 
ATOM     11  H   UNL A   1      35.900  35.929  31.798  1.00  0.00     0.346 HD
ATOM     12  H   UNL A   1      35.955  35.430  33.406  1.00  0.00     0.346 HD
BRANCH  10  13
ATOM     13  C   UNL A   1      36.611  34.033  32.084  1.00  0.00     0.362 C 
BRANCH  13  14
ATOM     14  C   UNL A   1      38.080  34.433  32.225  1.00  0.00     0.275 C 
ATOM     15  N   UNL A   1      38.842  34.605  31.104  1.00  0.00    -0.351 N 
ATOM     16  H   UNL A   1      39.802  34.761  31.261  1.00  0.00     0.163 HD
ATOM     17  O   UNL A   1      38.601  34.581  33.332  1.00  0.00    -0.269 OA
BRANCH  15  18
ATOM     18  C   UNL A   1      38.425  34.588  29.716  1.00  0.00     0.112 C 
ATOM     19  C   UNL A   1      38.437  33.173  29.168  1.00  0.00     0.027 C 
ENDBRANCH  15  18
ENDBRANCH  13  14
ENDBRANCH  10  13
ENDBRANCH   8  10
ENDBRANCH   6   8
ENDBRANCH   3   6
ENDBRANCH   1   2
BRANCH   1  20
ATOM     20  C   UNL A   1      33.303  35.039  28.833  1.00  0.00     0.023 C 
BRANCH  20  21
ATOM     21  C   UNL A   1      34.701  34.458  28.626  1.00  0.00     0.023 C 
BRANCH  21  22
ATOM     22  C   UNL A   1      34.850  32.983  28.973  1.00  0.00     0.116 C 
BRANCH  22  23
ATOM     23  N   UNL A   1      34.123  32.102  28.071  1.00  0.00    -0.352 N 
ATOM     24  C   UNL A   1      34.479  30.860  27.605  1.00  0.00     0.251 C 
ATOM     25  H   UNL A   1      33.256  32.445  27.750  1.00  0.00     0.163 HD
ATOM     26  O   UNL A   1      33.794  30.296  26.757  1.00  0.00    -0.269 OA
BRANCH  24  27
ATOM     27  C   UNL A   1      35.715  30.224  28.102  1.00  0.00     0.039 A 
ATOM     28  C   UNL A   1      36.872  30.301  27.324  1.00  0.00     0.014 A 
ATOM     29  C   UNL A   1      35.741  29.586  29.345  1.00  0.00     0.014 A 
ATOM     30  C   UNL A   1      38.076  29.803  27.827  1.00  0.00     0.010 A 
ATOM     31  C   UNL A   1      36.953  29.159  29.876  1.00  0.00     0.010 A 
ATOM     32  C   UNL A   1      38.133  29.266  29.124  1.00  0.00    -0.014 A 
BRANCH  32  33
ATOM     33  C   UNL A   1      39.418  28.816  29.714  1.00  0.00     0.031 A 
ATOM     34  C   UNL A   1      40.032  29.579  30.855  1.00  0.00     0.074 A 
ATOM     35  C   UNL A   1      40.067  27.764  29.177  1.00  0.00     0.049 A 
ATOM     36  N   UNL A   1      41.181  29.392  31.453  1.00  0.00    -0.248 NA
ATOM     37  C   UNL A   1      39.265  30.724  31.370  1.00  0.00     0.031 C 
ATOM     38  C   UNL A   1      39.599  26.975  28.036  1.00  0.00     0.029 A 
ATOM     39  N   UNL A   1      41.266  27.187  29.511  1.00  0.00    -0.354 N 
ATOM     40  C   UNL A   1      41.280  30.401  32.401  1.00  0.00     0.074 A 
ATOM     41  C   UNL A   1      40.103  31.231  32.263  1.00  0.00     0.031 C 
ATOM     42  C   UNL A   1      40.488  26.004  27.779  1.00  0.00     0.029 A 
ATOM     43  C   UNL A   1      41.607  26.124  28.710  1.00  0.00     0.049 A 
ATOM     44  H   UNL A   1      41.828  27.504  30.254  1.00  0.00     0.167 HD
ATOM     45  C   UNL A   1      42.255  30.603  33.320  1.00  0.00     0.037 A 
ATOM     46  C   UNL A   1      42.702  25.341  28.722  1.00  0.00     0.037 A 
ATOM     47  C   UNL A   1      43.411  29.760  33.472  1.00  0.00     0.049 A 
ATOM     48  C   UNL A   1      43.769  25.587  29.753  1.00  0.00     0.074 A 
ATOM     49  C   UNL A   1      44.421  29.843  34.413  1.00  0.00     0.029 A 
ATOM     50  N   UNL A   1      43.711  28.678  32.657  1.00  0.00    -0.354 N 
ATOM     51  N   UNL A   1      43.819  26.501  30.692  1.00  0.00    -0.248 NA
ATOM     52  C   UNL A   1      44.932  24.688  29.730  1.00  0.00     0.031 C 
ATOM     53  C   UNL A   1      45.357  28.839  34.140  1.00  0.00     0.029 A 
ATOM     54  C   UNL A   1      44.902  28.099  33.061  1.00  0.00     0.049 A 
ATOM     55  H   UNL A   1      43.159  28.369  31.903  1.00  0.00     0.167 HD
ATOM     56  C   UNL A   1      44.997  26.269  31.388  1.00  0.00     0.074 A 
ATOM     57  C   UNL A   1      45.627  25.119  30.773  1.00  0.00     0.031 C 
ATOM     58  C   UNL A   1      45.511  26.949  32.442  1.00  0.00     0.037 A 
BRANCH  45  59
ATOM     59  C   UNL A   1      42.107  31.781  34.238  1.00  0.00     0.064 A 
ATOM     60  C   UNL A   1      42.591  33.052  33.890  1.00  0.00     0.173 A 
ATOM     61  C   UNL A   1      41.444  31.648  35.468  1.00  0.00     0.173 A 
ATOM     62  F   UNL A   1      43.243  33.231  32.731  1.00  0.00    -0.203 F 
ATOM     63  C   UNL A   1      42.444  34.136  34.750  1.00  0.00     0.198 A 
ATOM     64  C   UNL A   1      41.271  32.742  36.312  1.00  0.00     0.198 A 
ATOM     65  F   UNL A   1      40.958  30.457  35.849  1.00  0.00    -0.203 F 
ATOM     66  F   UNL A   1      42.959  35.328  34.417  1.00  0.00    -0.200 F 
ATOM     67  C   UNL A   1      41.778  33.982  35.957  1.00  0.00     0.200 A 
ATOM     68  F   UNL A   1      40.616  32.594  37.473  1.00  0.00    -0.200 F 
ATOM     69  F   UNL A   1      41.631  35.029  36.780  1.00  0.00    -0.200 F 
ENDBRANCH  45  59
BRANCH  46  70
ATOM     70  C   UNL A   1      42.833  24.232  27.741  1.00  0.00     0.064 A 
ATOM     71  C   UNL A   1      42.450  22.926  28.077  1.00  0.00     0.173 A 
ATOM     72  C   UNL A   1      43.347  24.450  26.453  1.00  0.00     0.173 A 
ATOM     73  F   UNL A   1      41.973  22.664  29.303  1.00  0.00    -0.203 F 
ATOM     74  C   UNL A   1      42.596  21.876  27.172  1.00  0.00     0.198 A 
ATOM     75  C   UNL A   1      43.464  23.406  25.539  1.00  0.00     0.198 A 
ATOM     76  F   UNL A   1      43.722  25.682  26.081  1.00  0.00    -0.203 F 
ATOM     77  F   UNL A   1      42.265  20.630  27.536  1.00  0.00    -0.200 F 
ATOM     78  C   UNL A   1      43.098  22.118  25.902  1.00  0.00     0.200 A 
ATOM     79  F   UNL A   1      43.936  23.645  24.309  1.00  0.00    -0.200 F 
ATOM     80  F   UNL A   1      43.234  21.109  25.031  1.00  0.00    -0.200 F 
ENDBRANCH  46  70
BRANCH  58  81
ATOM     81  C   UNL A   1      46.801  26.446  33.022  1.00  0.00     0.064 A 
ATOM     82  C   UNL A   1      48.041  26.963  32.621  1.00  0.00     0.173 A 
ATOM     83  C   UNL A   1      46.792  25.460  34.022  1.00  0.00     0.173 A 
ATOM     84  F   UNL A   1      48.104  27.895  31.657  1.00  0.00    -0.203 F 
ATOM     85  C   UNL A   1      49.227  26.496  33.182  1.00  0.00     0.198 A 
ATOM     86  C   UNL A   1      47.977  25.018  34.603  1.00  0.00     0.198 A 
ATOM     87  F   UNL A   1      45.632  24.938  34.445  1.00  0.00    -0.203 F 
ATOM     88  F   UNL A   1      50.402  26.971  32.751  1.00  0.00    -0.200 F 
ATOM     89  C   UNL A   1      49.193  25.530  34.178  1.00  0.00     0.200 A 
ATOM     90  F   UNL A   1      47.942  24.094  35.573  1.00  0.00    -0.200 F 
ATOM     91  F   UNL A   1      50.335  25.088  34.722  1.00  0.00    -0.200 F 
ENDBRANCH  58  81
ENDBRANCH  32  33
ENDBRANCH  24  27
ENDBRANCH  22  23
ENDBRANCH  21  22
ENDBRANCH  20  21
ENDBRANCH   1  20
TORSDOF 16
ENDMDL
