MODEL 1
REMARK VINA RESULT:     -13.6      0.000      0.000
REMARK SMILES O=C(COc1ccccc1/C=N/N1[C@@H](S)N=N[C@H]1[C@@H]1C=C(c2ccccc2)N=N1)NCCCCNC(=O)c1ccc(-c2c3nc(c(-c4c(F)c(F)c(F)c(F)c4F)c4ccc([nH]4)c(-c4c(F)c(F)c(F)c(F)c4F)c4nc(c(-c5c(F)c(F)c(F)c(F)c5F)c5ccc2[nH]5)C=C4)C=C3)cc1
REMARK SMILES IDX 1 1 2 2 30 3 3 5 4 6 5 7 6 8 10 9 7 10 9 11 8 12 11 13 12 14
REMARK SMILES IDX 13 15 14 16 18 17 16 18 17 19 15 20 19 22 20 23 29 24 21 25
REMARK SMILES IDX 28 26 22 27 23 28 27 29 24 30 26 31 25 32 31 33 32 34 33 35
REMARK SMILES IDX 34 36 35 37 36 38 37 40 38 41 39 42 100 43 40 44 99 45 41 46
REMARK SMILES IDX 42 47 43 48 93 49 44 50 98 51 92 52 94 53 45 54 97 55 91 56
REMARK SMILES IDX 90 57 46 59 78 60 58 61 77 62 59 63 62 64 76 65 95 66 60 67
REMARK SMILES IDX 61 68 75 70 96 71 63 72 47 73 48 74 56 75 49 76 50 77 54 78
REMARK SMILES IDX 57 79 51 80 52 81 55 82 53 83 79 84 80 85 88 86 81 87 82 88
REMARK SMILES IDX 86 89 89 90 83 91 84 92 87 93 85 94 64 95 65 96 73 97 66 98
REMARK SMILES IDX 67 99 71 100 74 101 68 102 69 103 72 104 70 105
REMARK H PARENT 30 4 15 21 35 39 94 58 62 69
REMARK Flexibility Score: inf
ROOT
ATOM      1  O   UNL A   1      45.905  28.231  24.682  1.00  0.00    -0.271 OA
ATOM      2  C   UNL A   1      46.168  28.658  25.813  1.00  0.00     0.257 C 
ATOM      3  N   UNL A   1      45.938  29.965  26.448  1.00  0.00    -0.353 N 
ATOM      4  H   UNL A   1      46.088  29.854  27.414  1.00  0.00     0.163 HD
ENDROOT
BRANCH   2   5
ATOM      5  C   UNL A   1      46.918  27.537  26.477  1.00  0.00     0.329 C 
BRANCH   5   6
ATOM      6  O   UNL A   1      46.588  27.131  27.733  1.00  0.00    -0.483 OA
BRANCH   6   7
ATOM      7  C   UNL A   1      45.287  27.161  28.099  1.00  0.00     0.128 A 
ATOM      8  C   UNL A   1      45.320  27.819  29.353  1.00  0.00     0.047 A 
ATOM      9  C   UNL A   1      44.144  26.489  27.592  1.00  0.00     0.037 A 
ATOM     10  C   UNL A   1      44.273  27.724  30.231  1.00  0.00     0.004 A 
ATOM     11  C   UNL A   1      43.098  26.406  28.534  1.00  0.00     0.013 A 
ATOM     12  C   UNL A   1      43.169  26.993  29.827  1.00  0.00     0.001 A 
BRANCH   9  13
ATOM     13  C   UNL A   1      43.974  25.570  26.323  1.00  0.00     0.145 C 
ATOM     14  N   UNL A   1      44.196  24.273  26.206  1.00  0.00    -0.180 NA
BRANCH  14  15
ATOM     15  N   UNL A   1      43.413  23.485  25.142  1.00  0.00    -0.233 NA
ATOM     16  C   UNL A   1      44.254  22.429  24.477  1.00  0.00     0.298 C 
ATOM     17  C   UNL A   1      42.171  22.327  25.563  1.00  0.00     0.274 C 
ATOM     18  N   UNL A   1      43.994  21.084  25.059  1.00  0.00    -0.153 NA
ATOM     19  N   UNL A   1      42.879  21.007  25.650  1.00  0.00    -0.161 NA
BRANCH  16  20
ATOM     20  S   UNL A   1      46.009  22.893  24.251  1.00  0.00    -0.128 SA
ATOM     21  H   UNL A   1      46.517  22.237  23.174  1.00  0.00     0.106 HD
ENDBRANCH  16  20
BRANCH  17  22
ATOM     22  C   UNL A   1      40.571  22.280  26.574  1.00  0.00     0.202 C 
ATOM     23  C   UNL A   1      39.125  21.848  26.125  1.00  0.00     0.037 C 
ATOM     24  N   UNL A   1      40.109  23.576  27.269  1.00  0.00    -0.177 NA
ATOM     25  C   UNL A   1      38.275  22.877  26.254  1.00  0.00     0.091 C 
ATOM     26  N   UNL A   1      38.890  23.879  26.966  1.00  0.00    -0.155 NA
BRANCH  25  27
ATOM     27  C   UNL A   1      37.077  23.019  25.317  1.00  0.00     0.002 A 
ATOM     28  C   UNL A   1      35.971  23.807  25.696  1.00  0.00     0.010 A 
ATOM     29  C   UNL A   1      37.027  22.577  23.991  1.00  0.00     0.010 A 
ATOM     30  C   UNL A   1      34.967  24.267  24.824  1.00  0.00     0.001 A 
ATOM     31  C   UNL A   1      35.955  22.933  23.126  1.00  0.00     0.001 A 
ATOM     32  C   UNL A   1      34.953  23.817  23.523  1.00  0.00     0.000 A 
ENDBRANCH  25  27
ENDBRANCH  17  22
ENDBRANCH  14  15
ENDBRANCH   9  13
ENDBRANCH   6   7
ENDBRANCH   5   6
ENDBRANCH   2   5
BRANCH   3  33
ATOM     33  C   UNL A   1      45.524  31.575  26.188  1.00  0.00     0.116 C 
BRANCH  33  34
ATOM     34  C   UNL A   1      44.139  32.546  26.079  1.00  0.00     0.023 C 
BRANCH  34  35
ATOM     35  C   UNL A   1      43.724  33.783  25.155  1.00  0.00     0.023 C 
BRANCH  35  36
ATOM     36  C   UNL A   1      43.713  35.201  25.753  1.00  0.00     0.116 C 
BRANCH  36  37
ATOM     37  N   UNL A   1      45.026  35.597  26.276  1.00  0.00    -0.352 N 
ATOM     38  C   UNL A   1      45.382  35.992  27.557  1.00  0.00     0.251 C 
ATOM     39  H   UNL A   1      45.760  35.581  25.621  1.00  0.00     0.163 HD
ATOM     40  O   UNL A   1      46.396  36.606  27.781  1.00  0.00    -0.269 OA
BRANCH  38  41
ATOM     41  C   UNL A   1      44.466  35.617  28.646  1.00  0.00     0.039 A 
ATOM     42  C   UNL A   1      43.525  36.513  29.152  1.00  0.00     0.014 A 
ATOM     43  C   UNL A   1      44.501  34.293  29.059  1.00  0.00     0.014 A 
ATOM     44  C   UNL A   1      42.555  36.021  30.016  1.00  0.00     0.010 A 
ATOM     45  C   UNL A   1      43.435  33.773  29.733  1.00  0.00     0.010 A 
ATOM     46  C   UNL A   1      42.501  34.639  30.276  1.00  0.00    -0.014 A 
BRANCH  46  47
ATOM     47  C   UNL A   1      41.419  34.067  31.060  1.00  0.00     0.031 A 
ATOM     48  C   UNL A   1      41.768  33.754  32.468  1.00  0.00     0.074 A 
ATOM     49  C   UNL A   1      40.159  33.951  30.588  1.00  0.00     0.049 A 
ATOM     50  N   UNL A   1      41.883  32.584  32.997  1.00  0.00    -0.248 NA
ATOM     51  C   UNL A   1      42.160  34.850  33.365  1.00  0.00     0.031 C 
ATOM     52  C   UNL A   1      39.592  34.444  29.324  1.00  0.00     0.029 A 
ATOM     53  N   UNL A   1      39.082  33.383  31.194  1.00  0.00    -0.354 N 
ATOM     54  C   UNL A   1      42.178  32.787  34.342  1.00  0.00     0.074 A 
ATOM     55  C   UNL A   1      42.455  34.192  34.488  1.00  0.00     0.031 C 
ATOM     56  C   UNL A   1      38.247  34.331  29.347  1.00  0.00     0.029 A 
ATOM     57  C   UNL A   1      37.881  33.580  30.529  1.00  0.00     0.049 A 
ATOM     58  H   UNL A   1      39.150  32.877  32.035  1.00  0.00     0.167 HD
ATOM     59  C   UNL A   1      41.951  31.799  35.249  1.00  0.00     0.037 A 
ATOM     60  C   UNL A   1      36.663  33.122  30.899  1.00  0.00     0.037 A 
ATOM     61  C   UNL A   1      41.817  30.524  34.588  1.00  0.00     0.049 A 
ATOM     62  C   UNL A   1      36.897  31.964  31.793  1.00  0.00     0.074 A 
ATOM     63  C   UNL A   1      42.654  29.725  33.834  1.00  0.00     0.029 A 
ATOM     64  N   UNL A   1      40.542  30.085  34.329  1.00  0.00    -0.354 N 
ATOM     65  N   UNL A   1      37.418  30.838  31.390  1.00  0.00    -0.248 NA
ATOM     66  C   UNL A   1      36.965  32.208  33.224  1.00  0.00     0.031 C 
ATOM     67  C   UNL A   1      41.818  29.160  32.825  1.00  0.00     0.029 A 
ATOM     68  C   UNL A   1      40.510  29.593  33.050  1.00  0.00     0.049 A 
ATOM     69  H   UNL A   1      39.783  30.119  34.954  1.00  0.00     0.167 HD
ATOM     70  C   UNL A   1      38.242  30.438  32.430  1.00  0.00     0.074 A 
ATOM     71  C   UNL A   1      37.835  31.255  33.570  1.00  0.00     0.031 C 
ATOM     72  C   UNL A   1      39.355  29.684  32.187  1.00  0.00     0.037 A 
BRANCH  59  73
ATOM     73  C   UNL A   1      41.452  32.023  36.657  1.00  0.00     0.064 A 
ATOM     74  C   UNL A   1      40.202  32.650  36.844  1.00  0.00     0.173 A 
ATOM     75  C   UNL A   1      42.273  31.954  37.803  1.00  0.00     0.173 A 
ATOM     76  F   UNL A   1      39.342  32.779  35.822  1.00  0.00    -0.203 F 
ATOM     77  C   UNL A   1      39.850  33.252  38.054  1.00  0.00     0.198 A 
ATOM     78  C   UNL A   1      41.896  32.512  39.024  1.00  0.00     0.198 A 
ATOM     79  F   UNL A   1      43.513  31.454  37.766  1.00  0.00    -0.203 F 
ATOM     80  F   UNL A   1      38.714  33.958  38.140  1.00  0.00    -0.200 F 
ATOM     81  C   UNL A   1      40.703  33.192  39.140  1.00  0.00     0.200 A 
ATOM     82  F   UNL A   1      42.744  32.461  40.060  1.00  0.00    -0.200 F 
ATOM     83  F   UNL A   1      40.402  33.831  40.278  1.00  0.00    -0.200 F 
ENDBRANCH  59  73
BRANCH  60  84
ATOM     84  C   UNL A   1      35.341  33.757  30.725  1.00  0.00     0.064 A 
ATOM     85  C   UNL A   1      34.901  34.768  31.591  1.00  0.00     0.173 A 
ATOM     86  C   UNL A   1      34.614  33.585  29.532  1.00  0.00     0.173 A 
ATOM     87  F   UNL A   1      35.560  35.014  32.732  1.00  0.00    -0.203 F 
ATOM     88  C   UNL A   1      33.818  35.590  31.262  1.00  0.00     0.198 A 
ATOM     89  C   UNL A   1      33.533  34.404  29.205  1.00  0.00     0.198 A 
ATOM     90  F   UNL A   1      35.000  32.683  28.617  1.00  0.00    -0.203 F 
ATOM     91  F   UNL A   1      33.464  36.589  32.083  1.00  0.00    -0.200 F 
ATOM     92  C   UNL A   1      33.146  35.417  30.062  1.00  0.00     0.200 A 
ATOM     93  F   UNL A   1      32.914  34.247  28.025  1.00  0.00    -0.200 F 
ATOM     94  F   UNL A   1      32.154  36.249  29.714  1.00  0.00    -0.200 F 
ENDBRANCH  60  84
BRANCH  72  95
ATOM     95  C   UNL A   1      39.481  29.066  30.820  1.00  0.00     0.064 A 
ATOM     96  C   UNL A   1      40.108  29.690  29.728  1.00  0.00     0.173 A 
ATOM     97  C   UNL A   1      39.067  27.739  30.652  1.00  0.00     0.173 A 
ATOM     98  F   UNL A   1      40.610  30.925  29.834  1.00  0.00    -0.203 F 
ATOM     99  C   UNL A   1      40.279  29.025  28.514  1.00  0.00     0.198 A 
ATOM    100  C   UNL A   1      39.269  27.066  29.451  1.00  0.00     0.198 A 
ATOM    101  F   UNL A   1      38.509  27.077  31.677  1.00  0.00    -0.203 F 
ATOM    102  F   UNL A   1      40.872  29.647  27.484  1.00  0.00    -0.200 F 
ATOM    103  C   UNL A   1      39.865  27.711  28.380  1.00  0.00     0.200 A 
ATOM    104  F   UNL A   1      38.907  25.780  29.341  1.00  0.00    -0.200 F 
ATOM    105  F   UNL A   1      40.063  27.057  27.226  1.00  0.00    -0.200 F 
ENDBRANCH  72  95
ENDBRANCH  46  47
ENDBRANCH  38  41
ENDBRANCH  36  37
ENDBRANCH  35  36
ENDBRANCH  34  35
ENDBRANCH  33  34
ENDBRANCH   3  33
TORSDOF 18
ENDMDL
MODEL 2
REMARK VINA RESULT:     -13.6      5.103     10.848
REMARK SMILES O=C(COc1ccccc1/C=N/N1[C@@H](S)N=N[C@H]1[C@@H]1C=C(c2ccccc2)N=N1)NCCCCNC(=O)c1ccc(-c2c3nc(c(-c4c(F)c(F)c(F)c(F)c4F)c4ccc([nH]4)c(-c4c(F)c(F)c(F)c(F)c4F)c4nc(c(-c5c(F)c(F)c(F)c(F)c5F)c5ccc2[nH]5)C=C4)C=C3)cc1
REMARK SMILES IDX 1 1 2 2 30 3 3 5 4 6 5 7 6 8 10 9 7 10 9 11 8 12 11 13 12 14
REMARK SMILES IDX 13 15 14 16 18 17 16 18 17 19 15 20 19 22 20 23 29 24 21 25
REMARK SMILES IDX 28 26 22 27 23 28 27 29 24 30 26 31 25 32 31 33 32 34 33 35
REMARK SMILES IDX 34 36 35 37 36 38 37 40 38 41 39 42 100 43 40 44 99 45 41 46
REMARK SMILES IDX 42 47 43 48 93 49 44 50 98 51 92 52 94 53 45 54 97 55 91 56
REMARK SMILES IDX 90 57 46 59 78 60 58 61 77 62 59 63 62 64 76 65 95 66 60 67
REMARK SMILES IDX 61 68 75 70 96 71 63 72 47 73 48 74 56 75 49 76 50 77 54 78
REMARK SMILES IDX 57 79 51 80 52 81 55 82 53 83 79 84 80 85 88 86 81 87 82 88
REMARK SMILES IDX 86 89 89 90 83 91 84 92 87 93 85 94 64 95 65 96 73 97 66 98
REMARK SMILES IDX 67 99 71 100 74 101 68 102 69 103 72 104 70 105
REMARK H PARENT 30 4 15 21 35 39 94 58 62 69
REMARK Flexibility Score: inf
ROOT
ATOM      1  O   UNL A   1      37.012  23.369  24.515  1.00  0.00    -0.271 OA
ATOM      2  C   UNL A   1      37.200  22.269  25.048  1.00  0.00     0.257 C 
ATOM      3  N   UNL A   1      38.261  21.777  25.941  1.00  0.00    -0.353 N 
ATOM      4  H   UNL A   1      37.954  20.924  26.323  1.00  0.00     0.163 HD
ENDROOT
BRANCH   2   5
ATOM      5  C   UNL A   1      36.102  21.394  24.509  1.00  0.00     0.329 C 
BRANCH   5   6
ATOM      6  O   UNL A   1      35.372  20.605  25.344  1.00  0.00    -0.483 OA
BRANCH   6   7
ATOM      7  C   UNL A   1      34.191  20.119  24.903  1.00  0.00     0.128 A 
ATOM      8  C   UNL A   1      34.499  18.775  24.573  1.00  0.00     0.047 A 
ATOM      9  C   UNL A   1      32.978  20.760  24.541  1.00  0.00     0.037 A 
ATOM     10  C   UNL A   1      33.686  18.044  23.748  1.00  0.00     0.004 A 
ATOM     11  C   UNL A   1      32.180  19.976  23.683  1.00  0.00     0.013 A 
ATOM     12  C   UNL A   1      32.535  18.658  23.283  1.00  0.00     0.001 A 
BRANCH   9  13
ATOM     13  C   UNL A   1      32.539  22.270  24.664  1.00  0.00     0.145 C 
ATOM     14  N   UNL A   1      31.751  22.831  25.564  1.00  0.00    -0.180 NA
BRANCH  14  15
ATOM     15  N   UNL A   1      31.943  24.324  25.881  1.00  0.00    -0.233 NA
ATOM     16  C   UNL A   1      33.377  24.665  26.184  1.00  0.00     0.298 C 
ATOM     17  C   UNL A   1      31.837  25.562  24.650  1.00  0.00     0.274 C 
ATOM     18  N   UNL A   1      34.054  25.261  24.999  1.00  0.00    -0.153 NA
ATOM     19  N   UNL A   1      33.244  25.749  24.161  1.00  0.00    -0.161 NA
BRANCH  16  20
ATOM     20  S   UNL A   1      34.294  23.353  27.071  1.00  0.00    -0.128 SA
ATOM     21  H   UNL A   1      35.250  23.918  27.855  1.00  0.00     0.106 HD
ENDBRANCH  16  20
BRANCH  17  22
ATOM     22  C   UNL A   1      30.604  26.144  23.337  1.00  0.00     0.202 C 
ATOM     23  C   UNL A   1      30.555  27.511  22.557  1.00  0.00     0.037 C 
ATOM     24  N   UNL A   1      29.105  26.146  23.696  1.00  0.00    -0.177 NA
ATOM     25  C   UNL A   1      29.408  28.153  22.821  1.00  0.00     0.091 C 
ATOM     26  N   UNL A   1      28.557  27.297  23.479  1.00  0.00    -0.155 NA
BRANCH  25  27
ATOM     27  C   UNL A   1      29.351  29.679  22.818  1.00  0.00     0.002 A 
ATOM     28  C   UNL A   1      28.922  30.370  21.667  1.00  0.00     0.010 A 
ATOM     29  C   UNL A   1      29.519  30.500  23.938  1.00  0.00     0.010 A 
ATOM     30  C   UNL A   1      28.531  31.721  21.631  1.00  0.00     0.001 A 
ATOM     31  C   UNL A   1      29.245  31.894  23.889  1.00  0.00     0.001 A 
ATOM     32  C   UNL A   1      28.704  32.497  22.755  1.00  0.00     0.000 A 
ENDBRANCH  25  27
ENDBRANCH  17  22
ENDBRANCH  14  15
ENDBRANCH   9  13
ENDBRANCH   6   7
ENDBRANCH   5   6
ENDBRANCH   2   5
BRANCH   3  33
ATOM     33  C   UNL A   1      39.790  22.086  26.573  1.00  0.00     0.116 C 
BRANCH  33  34
ATOM     34  C   UNL A   1      41.317  21.358  26.661  1.00  0.00     0.023 C 
BRANCH  34  35
ATOM     35  C   UNL A   1      41.896  19.940  26.199  1.00  0.00     0.023 C 
BRANCH  35  36
ATOM     36  C   UNL A   1      43.282  19.493  26.695  1.00  0.00     0.116 C 
BRANCH  36  37
ATOM     37  N   UNL A   1      44.219  19.253  25.591  1.00  0.00    -0.352 N 
ATOM     38  C   UNL A   1      44.741  20.145  24.667  1.00  0.00     0.251 C 
ATOM     39  H   UNL A   1      44.520  18.321  25.493  1.00  0.00     0.163 HD
ATOM     40  O   UNL A   1      45.223  19.780  23.623  1.00  0.00    -0.269 OA
BRANCH  38  41
ATOM     41  C   UNL A   1      44.691  21.572  25.021  1.00  0.00     0.039 A 
ATOM     42  C   UNL A   1      43.862  22.466  24.344  1.00  0.00     0.014 A 
ATOM     43  C   UNL A   1      45.416  21.960  26.139  1.00  0.00     0.014 A 
ATOM     44  C   UNL A   1      43.704  23.739  24.877  1.00  0.00     0.010 A 
ATOM     45  C   UNL A   1      45.100  23.128  26.770  1.00  0.00     0.010 A 
ATOM     46  C   UNL A   1      44.304  24.050  26.110  1.00  0.00    -0.014 A 
BRANCH  46  47
ATOM     47  C   UNL A   1      44.049  25.320  26.768  1.00  0.00     0.031 A 
ATOM     48  C   UNL A   1      45.060  26.374  26.503  1.00  0.00     0.074 A 
ATOM     49  C   UNL A   1      42.916  25.569  27.460  1.00  0.00     0.049 A 
ATOM     50  N   UNL A   1      45.907  26.865  27.341  1.00  0.00    -0.248 NA
ATOM     51  C   UNL A   1      45.245  26.851  25.125  1.00  0.00     0.031 C 
ATOM     52  C   UNL A   1      41.713  24.734  27.600  1.00  0.00     0.029 A 
ATOM     53  N   UNL A   1      42.587  26.684  28.165  1.00  0.00    -0.354 N 
ATOM     54  C   UNL A   1      46.613  27.850  26.656  1.00  0.00     0.074 A 
ATOM     55  C   UNL A   1      46.251  27.717  25.269  1.00  0.00     0.031 C 
ATOM     56  C   UNL A   1      40.720  25.449  28.172  1.00  0.00     0.029 A 
ATOM     57  C   UNL A   1      41.275  26.711  28.615  1.00  0.00     0.049 A 
ATOM     58  H   UNL A   1      43.226  27.411  28.339  1.00  0.00     0.167 HD
ATOM     59  C   UNL A   1      47.269  28.825  27.342  1.00  0.00     0.037 A 
ATOM     60  C   UNL A   1      40.686  27.686  29.345  1.00  0.00     0.037 A 
ATOM     61  C   UNL A   1      47.467  28.432  28.716  1.00  0.00     0.049 A 
ATOM     62  C   UNL A   1      41.776  28.428  30.021  1.00  0.00     0.074 A 
ATOM     63  C   UNL A   1      48.168  27.426  29.351  1.00  0.00     0.029 A 
ATOM     64  N   UNL A   1      46.559  28.898  29.635  1.00  0.00    -0.354 N 
ATOM     65  N   UNL A   1      42.526  27.911  30.953  1.00  0.00    -0.248 NA
ATOM     66  C   UNL A   1      42.321  29.599  29.354  1.00  0.00     0.031 C 
ATOM     67  C   UNL A   1      47.345  27.036  30.449  1.00  0.00     0.029 A 
ATOM     68  C   UNL A   1      46.218  27.860  30.463  1.00  0.00     0.049 A 
ATOM     69  H   UNL A   1      46.212  29.817  29.690  1.00  0.00     0.167 HD
ATOM     70  C   UNL A   1      43.794  28.414  30.705  1.00  0.00     0.074 A 
ATOM     71  C   UNL A   1      43.584  29.530  29.787  1.00  0.00     0.031 C 
ATOM     72  C   UNL A   1      44.906  27.702  31.050  1.00  0.00     0.037 A 
BRANCH  59  73
ATOM     73  C   UNL A   1      47.370  30.266  26.902  1.00  0.00     0.064 A 
ATOM     74  C   UNL A   1      48.607  30.931  27.032  1.00  0.00     0.173 A 
ATOM     75  C   UNL A   1      46.254  31.098  26.674  1.00  0.00     0.173 A 
ATOM     76  F   UNL A   1      49.735  30.241  27.257  1.00  0.00    -0.203 F 
ATOM     77  C   UNL A   1      48.700  32.325  27.040  1.00  0.00     0.198 A 
ATOM     78  C   UNL A   1      46.359  32.489  26.633  1.00  0.00     0.198 A 
ATOM     79  F   UNL A   1      45.007  30.620  26.601  1.00  0.00    -0.203 F 
ATOM     80  F   UNL A   1      49.873  32.912  27.310  1.00  0.00    -0.200 F 
ATOM     81  C   UNL A   1      47.573  33.103  26.852  1.00  0.00     0.200 A 
ATOM     82  F   UNL A   1      45.252  33.226  26.467  1.00  0.00    -0.200 F 
ATOM     83  F   UNL A   1      47.645  34.438  26.933  1.00  0.00    -0.200 F 
ENDBRANCH  59  73
BRANCH  60  84
ATOM     84  C   UNL A   1      39.288  28.158  29.303  1.00  0.00     0.064 A 
ATOM     85  C   UNL A   1      38.511  28.233  30.469  1.00  0.00     0.173 A 
ATOM     86  C   UNL A   1      38.785  28.816  28.165  1.00  0.00     0.173 A 
ATOM     87  F   UNL A   1      38.937  27.659  31.602  1.00  0.00    -0.203 F 
ATOM     88  C   UNL A   1      37.319  28.964  30.505  1.00  0.00     0.198 A 
ATOM     89  C   UNL A   1      37.595  29.543  28.201  1.00  0.00     0.198 A 
ATOM     90  F   UNL A   1      39.489  28.848  27.023  1.00  0.00    -0.203 F 
ATOM     91  F   UNL A   1      36.635  29.069  31.653  1.00  0.00    -0.200 F 
ATOM     92  C   UNL A   1      36.871  29.631  29.376  1.00  0.00     0.200 A 
ATOM     93  F   UNL A   1      37.191  30.211  27.110  1.00  0.00    -0.200 F 
ATOM     94  F   UNL A   1      35.767  30.388  29.428  1.00  0.00    -0.200 F 
ENDBRANCH  60  84
BRANCH  72  95
ATOM     95  C   UNL A   1      44.711  26.519  31.960  1.00  0.00     0.064 A 
ATOM     96  C   UNL A   1      44.515  25.202  31.509  1.00  0.00     0.173 A 
ATOM     97  C   UNL A   1      44.859  26.711  33.338  1.00  0.00     0.173 A 
ATOM     98  F   UNL A   1      44.452  24.922  30.203  1.00  0.00    -0.203 F 
ATOM     99  C   UNL A   1      44.437  24.134  32.402  1.00  0.00     0.198 A 
ATOM    100  C   UNL A   1      44.814  25.640  34.226  1.00  0.00     0.198 A 
ATOM    101  F   UNL A   1      45.098  27.940  33.822  1.00  0.00    -0.203 F 
ATOM    102  F   UNL A   1      44.240  22.888  31.947  1.00  0.00    -0.200 F 
ATOM    103  C   UNL A   1      44.594  24.354  33.760  1.00  0.00     0.200 A 
ATOM    104  F   UNL A   1      45.011  25.853  35.535  1.00  0.00    -0.200 F 
ATOM    105  F   UNL A   1      44.558  23.324  34.618  1.00  0.00    -0.200 F 
ENDBRANCH  72  95
ENDBRANCH  46  47
ENDBRANCH  38  41
ENDBRANCH  36  37
ENDBRANCH  35  36
ENDBRANCH  34  35
ENDBRANCH  33  34
ENDBRANCH   3  33
TORSDOF 18
ENDMDL
MODEL 3
REMARK VINA RESULT:     -13.2      4.980     10.760
REMARK SMILES O=C(COc1ccccc1/C=N/N1[C@@H](S)N=N[C@H]1[C@@H]1C=C(c2ccccc2)N=N1)NCCCCNC(=O)c1ccc(-c2c3nc(c(-c4c(F)c(F)c(F)c(F)c4F)c4ccc([nH]4)c(-c4c(F)c(F)c(F)c(F)c4F)c4nc(c(-c5c(F)c(F)c(F)c(F)c5F)c5ccc2[nH]5)C=C4)C=C3)cc1
REMARK SMILES IDX 1 1 2 2 30 3 3 5 4 6 5 7 6 8 10 9 7 10 9 11 8 12 11 13 12 14
REMARK SMILES IDX 13 15 14 16 18 17 16 18 17 19 15 20 19 22 20 23 29 24 21 25
REMARK SMILES IDX 28 26 22 27 23 28 27 29 24 30 26 31 25 32 31 33 32 34 33 35
REMARK SMILES IDX 34 36 35 37 36 38 37 40 38 41 39 42 100 43 40 44 99 45 41 46
REMARK SMILES IDX 42 47 43 48 93 49 44 50 98 51 92 52 94 53 45 54 97 55 91 56
REMARK SMILES IDX 90 57 46 59 78 60 58 61 77 62 59 63 62 64 76 65 95 66 60 67
REMARK SMILES IDX 61 68 75 70 96 71 63 72 47 73 48 74 56 75 49 76 50 77 54 78
REMARK SMILES IDX 57 79 51 80 52 81 55 82 53 83 79 84 80 85 88 86 81 87 82 88
REMARK SMILES IDX 86 89 89 90 83 91 84 92 87 93 85 94 64 95 65 96 73 97 66 98
REMARK SMILES IDX 67 99 71 100 74 101 68 102 69 103 72 104 70 105
REMARK H PARENT 30 4 15 21 35 39 94 58 62 69
REMARK Flexibility Score: inf
ROOT
ATOM      1  O   UNL A   1      36.713  23.588  25.056  1.00  0.00    -0.271 OA
ATOM      2  C   UNL A   1      36.975  22.418  25.360  1.00  0.00     0.257 C 
ATOM      3  N   UNL A   1      38.104  21.821  26.092  1.00  0.00    -0.353 N 
ATOM      4  H   UNL A   1      37.852  20.897  26.319  1.00  0.00     0.163 HD
ENDROOT
BRANCH   2   5
ATOM      5  C   UNL A   1      35.884  21.606  24.718  1.00  0.00     0.329 C 
BRANCH   5   6
ATOM      6  O   UNL A   1      34.677  21.461  25.331  1.00  0.00    -0.483 OA
BRANCH   6   7
ATOM      7  C   UNL A   1      33.621  21.063  24.587  1.00  0.00     0.128 A 
ATOM      8  C   UNL A   1      33.418  19.724  25.006  1.00  0.00     0.047 A 
ATOM      9  C   UNL A   1      32.990  21.637  23.453  1.00  0.00     0.037 A 
ATOM     10  C   UNL A   1      32.695  18.845  24.244  1.00  0.00     0.004 A 
ATOM     11  C   UNL A   1      32.268  20.693  22.694  1.00  0.00     0.013 A 
ATOM     12  C   UNL A   1      32.140  19.329  23.071  1.00  0.00     0.001 A 
BRANCH   9  13
ATOM     13  C   UNL A   1      33.221  23.026  22.744  1.00  0.00     0.145 C 
ATOM     14  N   UNL A   1      32.394  24.052  22.645  1.00  0.00    -0.180 NA
BRANCH  14  15
ATOM     15  N   UNL A   1      32.985  25.462  22.488  1.00  0.00    -0.233 NA
ATOM     16  C   UNL A   1      32.510  26.147  21.235  1.00  0.00     0.298 C 
ATOM     17  C   UNL A   1      32.484  26.804  23.493  1.00  0.00     0.274 C 
ATOM     18  N   UNL A   1      31.403  27.100  21.526  1.00  0.00    -0.153 NA
ATOM     19  N   UNL A   1      31.370  27.466  22.735  1.00  0.00    -0.161 NA
BRANCH  16  20
ATOM     20  S   UNL A   1      32.265  25.027  19.809  1.00  0.00    -0.128 SA
ATOM     21  H   UNL A   1      32.180  25.758  18.667  1.00  0.00     0.106 HD
ENDBRANCH  16  20
BRANCH  17  22
ATOM     22  C   UNL A   1      32.357  27.215  25.336  1.00  0.00     0.202 C 
ATOM     23  C   UNL A   1      31.829  28.528  26.027  1.00  0.00     0.037 C 
ATOM     24  N   UNL A   1      33.635  27.123  26.193  1.00  0.00    -0.177 NA
ATOM     25  C   UNL A   1      32.806  29.094  26.750  1.00  0.00     0.091 C 
ATOM     26  N   UNL A   1      33.857  28.214  26.849  1.00  0.00    -0.155 NA
BRANCH  25  27
ATOM     27  C   UNL A   1      32.857  30.609  26.938  1.00  0.00     0.002 A 
ATOM     28  C   UNL A   1      31.788  31.414  26.499  1.00  0.00     0.010 A 
ATOM     29  C   UNL A   1      33.813  31.301  27.689  1.00  0.00     0.010 A 
ATOM     30  C   UNL A   1      31.569  32.751  26.881  1.00  0.00     0.001 A 
ATOM     31  C   UNL A   1      33.670  32.685  27.985  1.00  0.00     0.001 A 
ATOM     32  C   UNL A   1      32.528  33.399  27.626  1.00  0.00     0.000 A 
ENDBRANCH  25  27
ENDBRANCH  17  22
ENDBRANCH  14  15
ENDBRANCH   9  13
ENDBRANCH   6   7
ENDBRANCH   5   6
ENDBRANCH   2   5
BRANCH   3  33
ATOM     33  C   UNL A   1      39.652  22.083  26.696  1.00  0.00     0.116 C 
BRANCH  33  34
ATOM     34  C   UNL A   1      41.215  21.446  26.548  1.00  0.00     0.023 C 
BRANCH  34  35
ATOM     35  C   UNL A   1      41.793  20.015  26.128  1.00  0.00     0.023 C 
BRANCH  35  36
ATOM     36  C   UNL A   1      43.169  19.573  26.655  1.00  0.00     0.116 C 
BRANCH  36  37
ATOM     37  N   UNL A   1      44.132  19.339  25.573  1.00  0.00    -0.352 N 
ATOM     38  C   UNL A   1      44.677  20.237  24.667  1.00  0.00     0.251 C 
ATOM     39  H   UNL A   1      44.435  18.407  25.476  1.00  0.00     0.163 HD
ATOM     40  O   UNL A   1      45.184  19.878  23.633  1.00  0.00    -0.269 OA
BRANCH  38  41
ATOM     41  C   UNL A   1      44.621  21.662  25.030  1.00  0.00     0.039 A 
ATOM     42  C   UNL A   1      43.760  22.547  24.384  1.00  0.00     0.014 A 
ATOM     43  C   UNL A   1      45.375  22.054  26.127  1.00  0.00     0.014 A 
ATOM     44  C   UNL A   1      43.602  23.816  24.927  1.00  0.00     0.010 A 
ATOM     45  C   UNL A   1      45.064  23.215  26.773  1.00  0.00     0.010 A 
ATOM     46  C   UNL A   1      44.237  24.129  26.143  1.00  0.00    -0.014 A 
BRANCH  46  47
ATOM     47  C   UNL A   1      43.986  25.394  26.814  1.00  0.00     0.031 A 
ATOM     48  C   UNL A   1      44.976  26.460  26.525  1.00  0.00     0.074 A 
ATOM     49  C   UNL A   1      42.871  25.625  27.540  1.00  0.00     0.049 A 
ATOM     50  N   UNL A   1      45.842  26.958  27.340  1.00  0.00    -0.248 NA
ATOM     51  C   UNL A   1      45.116  26.946  25.145  1.00  0.00     0.031 C 
ATOM     52  C   UNL A   1      41.683  24.775  27.712  1.00  0.00     0.029 A 
ATOM     53  N   UNL A   1      42.550  26.733  28.261  1.00  0.00    -0.354 N 
ATOM     54  C   UNL A   1      46.516  27.954  26.640  1.00  0.00     0.074 A 
ATOM     55  C   UNL A   1      46.115  27.823  25.264  1.00  0.00     0.031 C 
ATOM     56  C   UNL A   1      40.699  25.475  28.316  1.00  0.00     0.029 A 
ATOM     57  C   UNL A   1      41.252  26.742  28.750  1.00  0.00     0.049 A 
ATOM     58  H   UNL A   1      43.185  27.467  28.420  1.00  0.00     0.167 HD
ATOM     59  C   UNL A   1      47.181  28.933  27.311  1.00  0.00     0.037 A 
ATOM     60  C   UNL A   1      40.673  27.707  29.501  1.00  0.00     0.037 A 
ATOM     61  C   UNL A   1      47.423  28.536  28.677  1.00  0.00     0.049 A 
ATOM     62  C   UNL A   1      41.773  28.458  30.149  1.00  0.00     0.074 A 
ATOM     63  C   UNL A   1      48.155  27.536  29.286  1.00  0.00     0.029 A 
ATOM     64  N   UNL A   1      46.537  28.986  29.625  1.00  0.00    -0.354 N 
ATOM     65  N   UNL A   1      42.557  27.946  31.056  1.00  0.00    -0.248 NA
ATOM     66  C   UNL A   1      42.286  29.638  29.473  1.00  0.00     0.031 C 
ATOM     67  C   UNL A   1      47.369  27.130  30.406  1.00  0.00     0.029 A 
ATOM     68  C   UNL A   1      46.233  27.940  30.457  1.00  0.00     0.049 A 
ATOM     69  H   UNL A   1      46.182  29.901  29.694  1.00  0.00     0.167 HD
ATOM     70  C   UNL A   1      43.811  28.465  30.773  1.00  0.00     0.074 A 
ATOM     71  C   UNL A   1      43.561  29.583  29.868  1.00  0.00     0.031 C 
ATOM     72  C   UNL A   1      44.942  27.764  31.082  1.00  0.00     0.037 A 
BRANCH  59  73
ATOM     73  C   UNL A   1      47.252  30.377  26.876  1.00  0.00     0.064 A 
ATOM     74  C   UNL A   1      48.485  31.055  26.970  1.00  0.00     0.173 A 
ATOM     75  C   UNL A   1      46.120  31.199  26.689  1.00  0.00     0.173 A 
ATOM     76  F   UNL A   1      49.627  30.377  27.155  1.00  0.00    -0.203 F 
ATOM     77  C   UNL A   1      48.563  32.450  26.983  1.00  0.00     0.198 A 
ATOM     78  C   UNL A   1      46.208  32.590  26.652  1.00  0.00     0.198 A 
ATOM     79  F   UNL A   1      44.876  30.707  26.653  1.00  0.00    -0.203 F 
ATOM     80  F   UNL A   1      49.738  33.049  27.217  1.00  0.00    -0.200 F 
ATOM     81  C   UNL A   1      47.422  33.217  26.835  1.00  0.00     0.200 A 
ATOM     82  F   UNL A   1      45.088  33.317  26.526  1.00  0.00    -0.200 F 
ATOM     83  F   UNL A   1      47.483  34.552  26.921  1.00  0.00    -0.200 F 
ENDBRANCH  59  73
BRANCH  60  84
ATOM     84  C   UNL A   1      39.269  28.162  29.503  1.00  0.00     0.064 A 
ATOM     85  C   UNL A   1      38.540  28.267  30.698  1.00  0.00     0.173 A 
ATOM     86  C   UNL A   1      38.712  28.777  28.367  1.00  0.00     0.173 A 
ATOM     87  F   UNL A   1      39.021  27.734  31.830  1.00  0.00    -0.203 F 
ATOM     88  C   UNL A   1      37.342  28.986  30.760  1.00  0.00     0.198 A 
ATOM     89  C   UNL A   1      37.516  29.493  28.429  1.00  0.00     0.198 A 
ATOM     90  F   UNL A   1      39.367  28.779  27.196  1.00  0.00    -0.203 F 
ATOM     91  F   UNL A   1      36.705  29.121  31.932  1.00  0.00    -0.200 F 
ATOM     92  C   UNL A   1      36.840  29.611  29.630  1.00  0.00     0.200 A 
ATOM     93  F   UNL A   1      37.059  30.121  27.335  1.00  0.00    -0.200 F 
ATOM     94  F   UNL A   1      35.730  30.358  29.705  1.00  0.00    -0.200 F 
ENDBRANCH  60  84
BRANCH  72  95
ATOM     95  C   UNL A   1      44.787  26.574  31.990  1.00  0.00     0.064 A 
ATOM     96  C   UNL A   1      44.569  25.261  31.540  1.00  0.00     0.173 A 
ATOM     97  C   UNL A   1      44.999  26.756  33.362  1.00  0.00     0.173 A 
ATOM     98  F   UNL A   1      44.445  24.992  30.236  1.00  0.00    -0.203 F 
ATOM     99  C   UNL A   1      44.530  24.187  32.428  1.00  0.00     0.198 A 
ATOM    100  C   UNL A   1      44.993  25.678  34.243  1.00  0.00     0.198 A 
ATOM    101  F   UNL A   1      45.262  27.981  33.843  1.00  0.00    -0.203 F 
ATOM    102  F   UNL A   1      44.312  22.944  31.972  1.00  0.00    -0.200 F 
ATOM    103  C   UNL A   1      44.750  24.397  33.778  1.00  0.00     0.200 A 
ATOM    104  F   UNL A   1      45.251  25.881  35.543  1.00  0.00    -0.200 F 
ATOM    105  F   UNL A   1      44.753  23.360  34.629  1.00  0.00    -0.200 F 
ENDBRANCH  72  95
ENDBRANCH  46  47
ENDBRANCH  38  41
ENDBRANCH  36  37
ENDBRANCH  35  36
ENDBRANCH  34  35
ENDBRANCH  33  34
ENDBRANCH   3  33
TORSDOF 18
ENDMDL
