MODEL 1
REMARK VINA RESULT:     -13.4      0.000      0.000
REMARK SMILES C[C@H]1OCC[C@@H]1C(=O)Nc1sc2c(c1C(=O)NCCCCNC(=O)c1ccc(-c3c4nc(c(-c5c(F)c(F)c(F)c(F)c5F)c5ccc([nH]5)c(-c5c(F)c(F)c(F)c(F)c5F)c5nc(c(-c6c(F)c(F)c(F)c(F)c6F)c6ccc3[nH]6)C=C5)C=C4)cc1)CCC2
REMARK SMILES IDX 19 1 18 2 17 3 15 4 16 5 14 7 10 8 11 9 12 10 13 11 90 12
REMARK SMILES IDX 88 13 89 14 9 15 7 16 8 17 6 19 1 20 2 21 3 22 4 23 5 24
REMARK SMILES IDX 20 25 21 26 22 27 23 28 24 30 25 31 26 32 87 33 27 34 86 35
REMARK SMILES IDX 28 36 29 37 30 38 80 39 31 40 85 41 79 42 81 43 32 44 84 45
REMARK SMILES IDX 78 46 77 47 33 49 65 50 45 51 64 52 46 53 49 54 63 55 82 56
REMARK SMILES IDX 47 57 48 58 62 60 83 61 50 62 34 63 35 64 43 65 36 66 37 67
REMARK SMILES IDX 41 68 44 69 38 70 39 71 42 72 40 73 66 74 67 75 75 76 68 77
REMARK SMILES IDX 69 78 73 79 76 80 70 81 71 82 74 83 72 84 51 85 52 86 60 87
REMARK SMILES IDX 53 88 54 89 58 90 61 91 55 92 56 93 59 94 57 95
REMARK H PARENT 17 6 9 18 22 29 81 48 49 59
REMARK Flexibility Score: inf
ROOT
ATOM      1  C   UNL A   1      36.827  20.594  24.653  1.00  0.00     0.023 C 
ENDROOT
BRANCH   1   2
ATOM      2  C   UNL A   1      37.020  21.983  25.263  1.00  0.00     0.116 C 
BRANCH   2   3
ATOM      3  N   UNL A   1      36.200  22.295  26.403  1.00  0.00    -0.352 N 
ATOM      4  C   UNL A   1      34.843  22.332  26.604  1.00  0.00     0.254 C 
ATOM      5  O   UNL A   1      34.513  22.172  27.783  1.00  0.00    -0.269 OA
ATOM      6  H   UNL A   1      36.718  22.529  27.206  1.00  0.00     0.163 HD
BRANCH   4   7
ATOM      7  C   UNL A   1      33.826  22.562  25.569  1.00  0.00     0.078 A 
ATOM      8  C   UNL A   1      32.906  21.548  25.259  1.00  0.00     0.108 A 
ATOM      9  S   UNL A   1      32.174  21.721  23.717  1.00  0.00    -0.122 S 
ATOM     10  C   UNL A   1      32.784  23.260  23.598  1.00  0.00     0.011 A 
ATOM     11  C   UNL A   1      33.614  23.633  24.629  1.00  0.00    -0.019 A 
ATOM     12  C   UNL A   1      32.635  24.255  22.511  1.00  0.00     0.047 C 
ATOM     13  C   UNL A   1      34.126  25.003  24.338  1.00  0.00     0.038 C 
ATOM     14  C   UNL A   1      33.195  25.515  23.203  1.00  0.00     0.010 C 
BRANCH   8  15
ATOM     15  N   UNL A   1      32.560  20.341  25.819  1.00  0.00    -0.317 N 
ATOM     16  C   UNL A   1      32.669  19.071  25.349  1.00  0.00     0.230 C 
ATOM     17  O   UNL A   1      32.254  18.176  26.101  1.00  0.00    -0.274 OA
ATOM     18  H   UNL A   1      32.164  20.410  26.717  1.00  0.00     0.170 HD
BRANCH  16  19
ATOM     19  C   UNL A   1      33.361  18.641  24.060  1.00  0.00     0.110 C 
ATOM     20  C   UNL A   1      32.491  18.487  21.689  1.00  0.00     0.039 C 
ATOM     21  C   UNL A   1      32.479  17.868  23.088  1.00  0.00     0.127 C 
ATOM     22  O   UNL A   1      33.035  16.546  23.006  1.00  0.00    -0.378 OA
ATOM     23  C   UNL A   1      34.429  16.645  23.296  1.00  0.00     0.161 C 
ATOM     24  C   UNL A   1      34.622  17.830  24.211  1.00  0.00     0.044 C 
ENDBRANCH  16  19
ENDBRANCH   8  15
ENDBRANCH   4   7
ENDBRANCH   2   3
ENDBRANCH   1   2
BRANCH   1  25
ATOM     25  C   UNL A   1      37.884  19.537  25.012  1.00  0.00     0.023 C 
BRANCH  25  26
ATOM     26  C   UNL A   1      39.195  20.086  25.574  1.00  0.00     0.116 C 
BRANCH  26  27
ATOM     27  N   UNL A   1      40.226  19.057  25.788  1.00  0.00    -0.352 N 
ATOM     28  C   UNL A   1      41.588  19.221  26.013  1.00  0.00     0.251 C 
ATOM     29  H   UNL A   1      39.908  18.125  25.768  1.00  0.00     0.163 HD
ATOM     30  O   UNL A   1      42.388  18.317  25.843  1.00  0.00    -0.269 OA
BRANCH  28  31
ATOM     31  C   UNL A   1      42.037  20.525  26.524  1.00  0.00     0.039 A 
ATOM     32  C   UNL A   1      42.771  21.455  25.783  1.00  0.00     0.014 A 
ATOM     33  C   UNL A   1      41.595  20.820  27.801  1.00  0.00     0.014 A 
ATOM     34  C   UNL A   1      42.983  22.719  26.334  1.00  0.00     0.010 A 
ATOM     35  C   UNL A   1      41.534  22.118  28.189  1.00  0.00     0.010 A 
ATOM     36  C   UNL A   1      42.347  23.035  27.540  1.00  0.00    -0.014 A 
BRANCH  36  37
ATOM     37  C   UNL A   1      42.472  24.310  28.222  1.00  0.00     0.031 A 
ATOM     38  C   UNL A   1      41.296  25.214  28.130  1.00  0.00     0.074 A 
ATOM     39  C   UNL A   1      43.456  24.468  29.139  1.00  0.00     0.049 A 
ATOM     40  N   UNL A   1      41.259  26.413  27.652  1.00  0.00    -0.248 NA
ATOM     41  C   UNL A   1      39.974  24.691  28.515  1.00  0.00     0.031 C 
ATOM     42  C   UNL A   1      44.482  23.502  29.571  1.00  0.00     0.029 A 
ATOM     43  N   UNL A   1      43.652  25.498  29.996  1.00  0.00    -0.354 N 
ATOM     44  C   UNL A   1      39.951  26.864  27.818  1.00  0.00     0.074 A 
ATOM     45  C   UNL A   1      39.175  25.712  28.199  1.00  0.00     0.031 C 
ATOM     46  C   UNL A   1      45.010  23.893  30.751  1.00  0.00     0.029 A 
ATOM     47  C   UNL A   1      44.500  25.211  31.060  1.00  0.00     0.049 A 
ATOM     48  H   UNL A   1      43.229  26.379  29.875  1.00  0.00     0.167 HD
ATOM     49  C   UNL A   1      39.655  28.195  27.819  1.00  0.00     0.037 A 
ATOM     50  C   UNL A   1      44.699  26.004  32.142  1.00  0.00     0.037 A 
ATOM     51  C   UNL A   1      40.767  28.966  27.326  1.00  0.00     0.049 A 
ATOM     52  C   UNL A   1      44.265  27.374  31.744  1.00  0.00     0.074 A 
ATOM     53  C   UNL A   1      41.427  29.029  26.115  1.00  0.00     0.029 A 
ATOM     54  N   UNL A   1      41.624  29.524  28.247  1.00  0.00    -0.354 N 
ATOM     55  N   UNL A   1      44.867  28.071  30.815  1.00  0.00    -0.248 NA
ATOM     56  C   UNL A   1      42.876  27.735  31.994  1.00  0.00     0.031 C 
ATOM     57  C   UNL A   1      42.808  29.128  26.459  1.00  0.00     0.029 A 
ATOM     58  C   UNL A   1      42.901  29.215  27.849  1.00  0.00     0.049 A 
ATOM     59  H   UNL A   1      41.368  30.047  29.041  1.00  0.00     0.167 HD
ATOM     60  C   UNL A   1      43.841  28.664  30.089  1.00  0.00     0.074 A 
ATOM     61  C   UNL A   1      42.638  28.462  30.897  1.00  0.00     0.031 C 
ATOM     62  C   UNL A   1      43.994  28.984  28.768  1.00  0.00     0.037 A 
BRANCH  49  63
ATOM     63  C   UNL A   1      38.501  28.843  28.540  1.00  0.00     0.064 A 
ATOM     64  C   UNL A   1      37.724  29.808  27.865  1.00  0.00     0.173 A 
ATOM     65  C   UNL A   1      38.302  28.772  29.934  1.00  0.00     0.173 A 
ATOM     66  F   UNL A   1      37.832  29.968  26.538  1.00  0.00    -0.203 F 
ATOM     67  C   UNL A   1      36.880  30.689  28.548  1.00  0.00     0.198 A 
ATOM     68  C   UNL A   1      37.418  29.616  30.605  1.00  0.00     0.198 A 
ATOM     69  F   UNL A   1      39.028  27.965  30.716  1.00  0.00    -0.203 F 
ATOM     70  F   UNL A   1      36.259  31.669  27.878  1.00  0.00    -0.200 F 
ATOM     71  C   UNL A   1      36.734  30.597  29.919  1.00  0.00     0.200 A 
ATOM     72  F   UNL A   1      37.298  29.519  31.937  1.00  0.00    -0.200 F 
ATOM     73  F   UNL A   1      35.975  31.477  30.584  1.00  0.00    -0.200 F 
ENDBRANCH  49  63
BRANCH  50  74
ATOM     74  C   UNL A   1      44.861  25.561  33.550  1.00  0.00     0.064 A 
ATOM     75  C   UNL A   1      44.123  24.487  34.068  1.00  0.00     0.173 A 
ATOM     76  C   UNL A   1      45.928  26.026  34.347  1.00  0.00     0.173 A 
ATOM     77  F   UNL A   1      43.121  23.953  33.356  1.00  0.00    -0.203 F 
ATOM     78  C   UNL A   1      44.443  23.904  35.302  1.00  0.00     0.198 A 
ATOM     79  C   UNL A   1      46.242  25.450  35.578  1.00  0.00     0.198 A 
ATOM     80  F   UNL A   1      46.745  26.994  33.906  1.00  0.00    -0.203 F 
ATOM     81  F   UNL A   1      43.749  22.845  35.742  1.00  0.00    -0.200 F 
ATOM     82  C   UNL A   1      45.507  24.381  36.051  1.00  0.00     0.200 A 
ATOM     83  F   UNL A   1      47.297  25.899  36.272  1.00  0.00    -0.200 F 
ATOM     84  F   UNL A   1      45.847  23.787  37.204  1.00  0.00    -0.200 F 
ENDBRANCH  50  74
BRANCH  62  85
ATOM     85  C   UNL A   1      45.363  28.854  28.151  1.00  0.00     0.064 A 
ATOM     86  C   UNL A   1      45.822  27.698  27.493  1.00  0.00     0.173 A 
ATOM     87  C   UNL A   1      46.157  30.002  28.042  1.00  0.00     0.173 A 
ATOM     88  F   UNL A   1      45.080  26.588  27.452  1.00  0.00    -0.203 F 
ATOM     89  C   UNL A   1      47.026  27.684  26.790  1.00  0.00     0.198 A 
ATOM     90  C   UNL A   1      47.343  29.997  27.311  1.00  0.00     0.198 A 
ATOM     91  F   UNL A   1      45.745  31.155  28.592  1.00  0.00    -0.203 F 
ATOM     92  F   UNL A   1      47.430  26.565  26.170  1.00  0.00    -0.200 F 
ATOM     93  C   UNL A   1      47.781  28.838  26.692  1.00  0.00     0.200 A 
ATOM     94  F   UNL A   1      48.042  31.132  27.172  1.00  0.00    -0.200 F 
ATOM     95  F   UNL A   1      48.913  28.842  25.974  1.00  0.00    -0.200 F 
ENDBRANCH  62  85
ENDBRANCH  36  37
ENDBRANCH  28  31
ENDBRANCH  26  27
ENDBRANCH  25  26
ENDBRANCH   1  25
TORSDOF 13
ENDMDL
MODEL 2
REMARK VINA RESULT:     -13.3      3.161      7.857
REMARK SMILES C[C@H]1OCC[C@@H]1C(=O)Nc1sc2c(c1C(=O)NCCCCNC(=O)c1ccc(-c3c4nc(c(-c5c(F)c(F)c(F)c(F)c5F)c5ccc([nH]5)c(-c5c(F)c(F)c(F)c(F)c5F)c5nc(c(-c6c(F)c(F)c(F)c(F)c6F)c6ccc3[nH]6)C=C5)C=C4)cc1)CCC2
REMARK SMILES IDX 19 1 18 2 17 3 15 4 16 5 14 7 10 8 11 9 12 10 13 11 90 12
REMARK SMILES IDX 88 13 89 14 9 15 7 16 8 17 6 19 1 20 2 21 3 22 4 23 5 24
REMARK SMILES IDX 20 25 21 26 22 27 23 28 24 30 25 31 26 32 87 33 27 34 86 35
REMARK SMILES IDX 28 36 29 37 30 38 80 39 31 40 85 41 79 42 81 43 32 44 84 45
REMARK SMILES IDX 78 46 77 47 33 49 65 50 45 51 64 52 46 53 49 54 63 55 82 56
REMARK SMILES IDX 47 57 48 58 62 60 83 61 50 62 34 63 35 64 43 65 36 66 37 67
REMARK SMILES IDX 41 68 44 69 38 70 39 71 42 72 40 73 66 74 67 75 75 76 68 77
REMARK SMILES IDX 69 78 73 79 76 80 70 81 71 82 74 83 72 84 51 85 52 86 60 87
REMARK SMILES IDX 53 88 54 89 58 90 61 91 55 92 56 93 59 94 57 95
REMARK H PARENT 17 6 9 18 22 29 81 48 49 59
REMARK Flexibility Score: inf
ROOT
ATOM      1  C   UNL A   1      35.197  29.685  27.225  1.00  0.00     0.023 C 
ENDROOT
BRANCH   1   2
ATOM      2  C   UNL A   1      34.200  28.614  26.781  1.00  0.00     0.116 C 
BRANCH   2   3
ATOM      3  N   UNL A   1      32.931  28.607  27.459  1.00  0.00    -0.352 N 
ATOM      4  C   UNL A   1      31.767  27.908  27.269  1.00  0.00     0.254 C 
ATOM      5  O   UNL A   1      31.078  27.806  28.289  1.00  0.00    -0.269 OA
ATOM      6  H   UNL A   1      32.889  29.234  28.216  1.00  0.00     0.163 HD
BRANCH   4   7
ATOM      7  C   UNL A   1      31.307  27.331  25.998  1.00  0.00     0.078 A 
ATOM      8  C   UNL A   1      31.133  25.943  25.885  1.00  0.00     0.108 A 
ATOM      9  S   UNL A   1      31.145  25.371  24.268  1.00  0.00    -0.122 S 
ATOM     10  C   UNL A   1      31.034  26.931  23.713  1.00  0.00     0.011 A 
ATOM     11  C   UNL A   1      31.092  27.897  24.690  1.00  0.00    -0.019 A 
ATOM     12  C   UNL A   1      30.967  27.438  22.322  1.00  0.00     0.047 C 
ATOM     13  C   UNL A   1      31.050  29.231  24.025  1.00  0.00     0.038 C 
ATOM     14  C   UNL A   1      30.583  28.911  22.577  1.00  0.00     0.010 C 
BRANCH   8  15
ATOM     15  N   UNL A   1      31.124  24.887  26.765  1.00  0.00    -0.317 N 
ATOM     16  C   UNL A   1      31.881  23.761  26.822  1.00  0.00     0.230 C 
ATOM     17  O   UNL A   1      31.623  22.978  27.749  1.00  0.00    -0.274 OA
ATOM     18  H   UNL A   1      30.450  24.960  27.478  1.00  0.00     0.170 HD
BRANCH  16  19
ATOM     19  C   UNL A   1      33.085  23.436  25.943  1.00  0.00     0.110 C 
ATOM     20  C   UNL A   1      33.248  22.137  23.778  1.00  0.00     0.039 C 
ATOM     21  C   UNL A   1      33.049  22.059  25.293  1.00  0.00     0.127 C 
ATOM     22  O   UNL A   1      34.143  21.320  25.859  1.00  0.00    -0.378 OA
ATOM     23  C   UNL A   1      35.141  22.259  26.255  1.00  0.00     0.161 C 
ATOM     24  C   UNL A   1      34.441  23.554  26.588  1.00  0.00     0.044 C 
ENDBRANCH  16  19
ENDBRANCH   8  15
ENDBRANCH   4   7
ENDBRANCH   2   3
ENDBRANCH   1   2
BRANCH   1  25
ATOM     25  C   UNL A   1      34.631  31.099  27.437  1.00  0.00     0.023 C 
BRANCH  25  26
ATOM     26  C   UNL A   1      35.610  32.114  28.026  1.00  0.00     0.116 C 
BRANCH  26  27
ATOM     27  N   UNL A   1      35.222  32.611  29.356  1.00  0.00    -0.352 N 
ATOM     28  C   UNL A   1      35.508  32.073  30.606  1.00  0.00     0.251 C 
ATOM     29  H   UNL A   1      34.685  33.437  29.361  1.00  0.00     0.163 HD
ATOM     30  O   UNL A   1      34.869  32.367  31.601  1.00  0.00    -0.269 OA
BRANCH  28  31
ATOM     31  C   UNL A   1      36.661  31.165  30.702  1.00  0.00     0.039 A 
ATOM     32  C   UNL A   1      36.588  29.777  30.556  1.00  0.00     0.014 A 
ATOM     33  C   UNL A   1      37.877  31.802  30.867  1.00  0.00     0.014 A 
ATOM     34  C   UNL A   1      37.782  29.056  30.503  1.00  0.00     0.010 A 
ATOM     35  C   UNL A   1      39.011  31.151  30.507  1.00  0.00     0.010 A 
ATOM     36  C   UNL A   1      38.988  29.765  30.473  1.00  0.00    -0.014 A 
BRANCH  36  37
ATOM     37  C   UNL A   1      40.299  29.147  30.411  1.00  0.00     0.031 A 
ATOM     38  C   UNL A   1      40.954  28.880  31.718  1.00  0.00     0.074 A 
ATOM     39  C   UNL A   1      40.694  28.565  29.253  1.00  0.00     0.049 A 
ATOM     40  N   UNL A   1      42.095  29.320  32.133  1.00  0.00    -0.248 NA
ATOM     41  C   UNL A   1      40.209  28.120  32.736  1.00  0.00     0.031 C 
ATOM     42  C   UNL A   1      39.969  28.462  27.974  1.00  0.00     0.029 A 
ATOM     43  N   UNL A   1      41.789  27.801  29.025  1.00  0.00    -0.354 N 
ATOM     44  C   UNL A   1      42.295  28.769  33.397  1.00  0.00     0.074 A 
ATOM     45  C   UNL A   1      41.038  28.179  33.780  1.00  0.00     0.031 C 
ATOM     46  C   UNL A   1      40.520  27.492  27.213  1.00  0.00     0.029 A 
ATOM     47  C   UNL A   1      41.730  27.039  27.863  1.00  0.00     0.049 A 
ATOM     48  H   UNL A   1      42.564  27.786  29.632  1.00  0.00     0.167 HD
ATOM     49  C   UNL A   1      43.542  28.675  33.940  1.00  0.00     0.037 A 
ATOM     50  C   UNL A   1      42.605  26.063  27.518  1.00  0.00     0.037 A 
ATOM     51  C   UNL A   1      44.484  29.474  33.198  1.00  0.00     0.049 A 
ATOM     52  C   UNL A   1      43.842  26.307  28.314  1.00  0.00     0.074 A 
ATOM     53  C   UNL A   1      44.604  30.827  32.949  1.00  0.00     0.029 A 
ATOM     54  N   UNL A   1      45.247  28.848  32.239  1.00  0.00    -0.354 N 
ATOM     55  N   UNL A   1      44.590  27.371  28.164  1.00  0.00    -0.248 NA
ATOM     56  C   UNL A   1      43.943  25.653  29.612  1.00  0.00     0.031 C 
ATOM     57  C   UNL A   1      44.986  30.910  31.578  1.00  0.00     0.029 A 
ATOM     58  C   UNL A   1      45.167  29.610  31.100  1.00  0.00     0.049 A 
ATOM     59  H   UNL A   1      45.753  28.012  32.350  1.00  0.00     0.167 HD
ATOM     60  C   UNL A   1      44.932  27.756  29.454  1.00  0.00     0.074 A 
ATOM     61  C   UNL A   1      44.548  26.626  30.302  1.00  0.00     0.031 C 
ATOM     62  C   UNL A   1      45.201  29.061  29.763  1.00  0.00     0.037 A 
BRANCH  49  63
ATOM     63  C   UNL A   1      43.996  27.639  34.936  1.00  0.00     0.064 A 
ATOM     64  C   UNL A   1      43.943  26.275  34.581  1.00  0.00     0.173 A 
ATOM     65  C   UNL A   1      44.207  27.901  36.305  1.00  0.00     0.173 A 
ATOM     66  F   UNL A   1      43.744  25.906  33.307  1.00  0.00    -0.203 F 
ATOM     67  C   UNL A   1      44.010  25.257  35.537  1.00  0.00     0.198 A 
ATOM     68  C   UNL A   1      44.328  26.882  37.249  1.00  0.00     0.198 A 
ATOM     69  F   UNL A   1      44.195  29.144  36.802  1.00  0.00    -0.203 F 
ATOM     70  F   UNL A   1      43.831  23.983  35.166  1.00  0.00    -0.200 F 
ATOM     71  C   UNL A   1      44.196  25.563  36.872  1.00  0.00     0.200 A 
ATOM     72  F   UNL A   1      44.496  27.199  38.542  1.00  0.00    -0.200 F 
ATOM     73  F   UNL A   1      44.198  24.596  37.798  1.00  0.00    -0.200 F 
ENDBRANCH  49  63
BRANCH  50  74
ATOM     74  C   UNL A   1      42.282  24.770  26.866  1.00  0.00     0.064 A 
ATOM     75  C   UNL A   1      42.986  24.323  25.738  1.00  0.00     0.173 A 
ATOM     76  C   UNL A   1      41.436  23.826  27.486  1.00  0.00     0.173 A 
ATOM     77  F   UNL A   1      43.846  25.141  25.114  1.00  0.00    -0.203 F 
ATOM     78  C   UNL A   1      42.863  23.008  25.270  1.00  0.00     0.198 A 
ATOM     79  C   UNL A   1      41.309  22.519  27.015  1.00  0.00     0.198 A 
ATOM     80  F   UNL A   1      40.782  24.127  28.618  1.00  0.00    -0.203 F 
ATOM     81  F   UNL A   1      43.592  22.601  24.220  1.00  0.00    -0.200 F 
ATOM     82  C   UNL A   1      42.032  22.105  25.913  1.00  0.00     0.200 A 
ATOM     83  F   UNL A   1      40.529  21.649  27.671  1.00  0.00    -0.200 F 
ATOM     84  F   UNL A   1      41.958  20.833  25.498  1.00  0.00    -0.200 F 
ENDBRANCH  50  74
BRANCH  62  85
ATOM     85  C   UNL A   1      45.302  30.058  28.638  1.00  0.00     0.064 A 
ATOM     86  C   UNL A   1      44.254  30.910  28.246  1.00  0.00     0.173 A 
ATOM     87  C   UNL A   1      46.561  30.304  28.076  1.00  0.00     0.173 A 
ATOM     88  F   UNL A   1      43.046  30.819  28.809  1.00  0.00    -0.203 F 
ATOM     89  C   UNL A   1      44.447  31.933  27.318  1.00  0.00     0.198 A 
ATOM     90  C   UNL A   1      46.762  31.347  27.175  1.00  0.00     0.198 A 
ATOM     91  F   UNL A   1      47.619  29.569  28.455  1.00  0.00    -0.203 F 
ATOM     92  F   UNL A   1      43.425  32.730  26.972  1.00  0.00    -0.200 F 
ATOM     93  C   UNL A   1      45.706  32.157  26.790  1.00  0.00     0.200 A 
ATOM     94  F   UNL A   1      47.994  31.595  26.709  1.00  0.00    -0.200 F 
ATOM     95  F   UNL A   1      45.906  33.170  25.938  1.00  0.00    -0.200 F 
ENDBRANCH  62  85
ENDBRANCH  36  37
ENDBRANCH  28  31
ENDBRANCH  26  27
ENDBRANCH  25  26
ENDBRANCH   1  25
TORSDOF 13
ENDMDL
MODEL 3
REMARK VINA RESULT:     -13.2      2.988      7.476
REMARK SMILES C[C@H]1OCC[C@@H]1C(=O)Nc1sc2c(c1C(=O)NCCCCNC(=O)c1ccc(-c3c4nc(c(-c5c(F)c(F)c(F)c(F)c5F)c5ccc([nH]5)c(-c5c(F)c(F)c(F)c(F)c5F)c5nc(c(-c6c(F)c(F)c(F)c(F)c6F)c6ccc3[nH]6)C=C5)C=C4)cc1)CCC2
REMARK SMILES IDX 19 1 18 2 17 3 15 4 16 5 14 7 10 8 11 9 12 10 13 11 90 12
REMARK SMILES IDX 88 13 89 14 9 15 7 16 8 17 6 19 1 20 2 21 3 22 4 23 5 24
REMARK SMILES IDX 20 25 21 26 22 27 23 28 24 30 25 31 26 32 87 33 27 34 86 35
REMARK SMILES IDX 28 36 29 37 30 38 80 39 31 40 85 41 79 42 81 43 32 44 84 45
REMARK SMILES IDX 78 46 77 47 33 49 65 50 45 51 64 52 46 53 49 54 63 55 82 56
REMARK SMILES IDX 47 57 48 58 62 60 83 61 50 62 34 63 35 64 43 65 36 66 37 67
REMARK SMILES IDX 41 68 44 69 38 70 39 71 42 72 40 73 66 74 67 75 75 76 68 77
REMARK SMILES IDX 69 78 73 79 76 80 70 81 71 82 74 83 72 84 51 85 52 86 60 87
REMARK SMILES IDX 53 88 54 89 58 90 61 91 55 92 56 93 59 94 57 95
REMARK H PARENT 17 6 9 18 22 29 81 48 49 59
REMARK Flexibility Score: inf
ROOT
ATOM      1  C   UNL A   1      32.662  28.304  27.294  1.00  0.00     0.023 C 
ENDROOT
BRANCH   1   2
ATOM      2  C   UNL A   1      31.411  27.750  26.612  1.00  0.00     0.116 C 
BRANCH   2   3
ATOM      3  N   UNL A   1      31.090  26.376  26.895  1.00  0.00    -0.352 N 
ATOM      4  C   UNL A   1      31.591  25.181  26.444  1.00  0.00     0.254 C 
ATOM      5  O   UNL A   1      31.415  24.244  27.228  1.00  0.00    -0.269 OA
ATOM      6  H   UNL A   1      30.361  26.271  27.547  1.00  0.00     0.163 HD
BRANCH   4   7
ATOM      7  C   UNL A   1      32.257  24.959  25.153  1.00  0.00     0.078 A 
ATOM      8  C   UNL A   1      33.406  24.156  25.091  1.00  0.00     0.108 A 
ATOM      9  S   UNL A   1      34.370  24.427  23.699  1.00  0.00    -0.122 S 
ATOM     10  C   UNL A   1      33.145  25.322  23.024  1.00  0.00     0.011 A 
ATOM     11  C   UNL A   1      32.060  25.524  23.842  1.00  0.00    -0.019 A 
ATOM     12  C   UNL A   1      33.085  26.002  21.709  1.00  0.00     0.047 C 
ATOM     13  C   UNL A   1      31.090  26.396  23.118  1.00  0.00     0.038 C 
ATOM     14  C   UNL A   1      31.585  26.359  21.645  1.00  0.00     0.010 C 
BRANCH   8  15
ATOM     15  N   UNL A   1      34.053  23.311  25.962  1.00  0.00    -0.317 N 
ATOM     16  C   UNL A   1      34.270  21.971  25.915  1.00  0.00     0.230 C 
ATOM     17  O   UNL A   1      34.893  21.487  26.874  1.00  0.00    -0.274 OA
ATOM     18  H   UNL A   1      34.423  23.755  26.758  1.00  0.00     0.170 HD
BRANCH  16  19
ATOM     19  C   UNL A   1      33.939  21.042  24.752  1.00  0.00     0.110 C 
ATOM     20  C   UNL A   1      32.121  21.171  22.998  1.00  0.00     0.039 C 
ATOM     21  C   UNL A   1      32.453  20.883  24.463  1.00  0.00     0.127 C 
ATOM     22  O   UNL A   1      32.135  19.509  24.740  1.00  0.00    -0.378 OA
ATOM     23  C   UNL A   1      33.323  18.742  24.544  1.00  0.00     0.161 C 
ATOM     24  C   UNL A   1      34.499  19.644  24.826  1.00  0.00     0.044 C 
ENDBRANCH  16  19
ENDBRANCH   8  15
ENDBRANCH   4   7
ENDBRANCH   2   3
ENDBRANCH   1   2
BRANCH   1  25
ATOM     25  C   UNL A   1      32.914  29.812  27.140  1.00  0.00     0.023 C 
BRANCH  25  26
ATOM     26  C   UNL A   1      34.348  30.268  27.409  1.00  0.00     0.116 C 
BRANCH  26  27
ATOM     27  N   UNL A   1      34.440  31.573  28.084  1.00  0.00    -0.352 N 
ATOM     28  C   UNL A   1      35.204  31.931  29.189  1.00  0.00     0.251 C 
ATOM     29  H   UNL A   1      33.884  32.290  27.700  1.00  0.00     0.163 HD
ATOM     30  O   UNL A   1      34.955  32.919  29.857  1.00  0.00    -0.269 OA
BRANCH  28  31
ATOM     31  C   UNL A   1      36.374  31.097  29.501  1.00  0.00     0.039 A 
ATOM     32  C   UNL A   1      36.349  29.703  29.599  1.00  0.00     0.014 A 
ATOM     33  C   UNL A   1      37.562  31.798  29.608  1.00  0.00     0.014 A 
ATOM     34  C   UNL A   1      37.563  29.029  29.732  1.00  0.00     0.010 A 
ATOM     35  C   UNL A   1      38.732  31.136  29.425  1.00  0.00     0.010 A 
ATOM     36  C   UNL A   1      38.749  29.766  29.635  1.00  0.00    -0.014 A 
BRANCH  36  37
ATOM     37  C   UNL A   1      40.078  29.196  29.747  1.00  0.00     0.031 A 
ATOM     38  C   UNL A   1      40.594  29.016  31.129  1.00  0.00     0.074 A 
ATOM     39  C   UNL A   1      40.616  28.574  28.670  1.00  0.00     0.049 A 
ATOM     40  N   UNL A   1      41.668  29.518  31.641  1.00  0.00    -0.248 NA
ATOM     41  C   UNL A   1      39.767  28.278  32.099  1.00  0.00     0.031 C 
ATOM     42  C   UNL A   1      40.040  28.383  27.327  1.00  0.00     0.029 A 
ATOM     43  N   UNL A   1      41.754  27.842  28.602  1.00  0.00    -0.354 N 
ATOM     44  C   UNL A   1      41.745  29.036  32.947  1.00  0.00     0.074 A 
ATOM     45  C   UNL A   1      40.474  28.418  33.222  1.00  0.00     0.031 C 
ATOM     46  C   UNL A   1      40.702  27.400  26.681  1.00  0.00     0.029 A 
ATOM     47  C   UNL A   1      41.848  27.024  27.480  1.00  0.00     0.049 A 
ATOM     48  H   UNL A   1      42.458  27.886  29.289  1.00  0.00     0.167 HD
ATOM     49  C   UNL A   1      42.928  29.015  33.625  1.00  0.00     0.037 A 
ATOM     50  C   UNL A   1      42.787  26.067  27.283  1.00  0.00     0.037 A 
ATOM     51  C   UNL A   1      43.919  29.813  32.949  1.00  0.00     0.049 A 
ATOM     52  C   UNL A   1      43.920  26.396  28.194  1.00  0.00     0.074 A 
ATOM     53  C   UNL A   1      44.022  31.156  32.645  1.00  0.00     0.029 A 
ATOM     54  N   UNL A   1      44.802  29.172  32.112  1.00  0.00    -0.354 N 
ATOM     55  N   UNL A   1      44.644  27.478  28.071  1.00  0.00    -0.248 NA
ATOM     56  C   UNL A   1      43.899  25.808  29.528  1.00  0.00     0.031 C 
ATOM     57  C   UNL A   1      44.549  31.188  31.321  1.00  0.00     0.029 A 
ATOM     58  C   UNL A   1      44.824  29.875  30.933  1.00  0.00     0.049 A 
ATOM     59  H   UNL A   1      45.321  28.362  32.320  1.00  0.00     0.167 HD
ATOM     60  C   UNL A   1      44.831  27.937  29.369  1.00  0.00     0.074 A 
ATOM     61  C   UNL A   1      44.393  26.835  30.228  1.00  0.00     0.031 C 
ATOM     62  C   UNL A   1      45.022  29.264  29.638  1.00  0.00     0.037 A 
BRANCH  49  63
ATOM     63  C   UNL A   1      43.303  28.046  34.717  1.00  0.00     0.064 A 
ATOM     64  C   UNL A   1      43.650  28.546  35.990  1.00  0.00     0.173 A 
ATOM     65  C   UNL A   1      43.609  26.688  34.496  1.00  0.00     0.173 A 
ATOM     66  F   UNL A   1      43.409  29.826  36.312  1.00  0.00    -0.203 F 
ATOM     67  C   UNL A   1      44.330  27.768  36.931  1.00  0.00     0.198 A 
ATOM     68  C   UNL A   1      44.238  25.899  35.458  1.00  0.00     0.198 A 
ATOM     69  F   UNL A   1      43.415  26.099  33.309  1.00  0.00    -0.203 F 
ATOM     70  F   UNL A   1      44.749  28.324  38.075  1.00  0.00    -0.200 F 
ATOM     71  C   UNL A   1      44.630  26.447  36.661  1.00  0.00     0.200 A 
ATOM     72  F   UNL A   1      44.531  24.622  35.173  1.00  0.00    -0.200 F 
ATOM     73  F   UNL A   1      45.334  25.715  37.534  1.00  0.00    -0.200 F 
ENDBRANCH  49  63
BRANCH  50  74
ATOM     74  C   UNL A   1      42.578  24.733  26.666  1.00  0.00     0.064 A 
ATOM     75  C   UNL A   1      43.268  24.346  25.508  1.00  0.00     0.173 A 
ATOM     76  C   UNL A   1      41.881  23.711  27.345  1.00  0.00     0.173 A 
ATOM     77  F   UNL A   1      43.995  25.244  24.827  1.00  0.00    -0.203 F 
ATOM     78  C   UNL A   1      43.272  23.017  25.065  1.00  0.00     0.198 A 
ATOM     79  C   UNL A   1      41.879  22.389  26.899  1.00  0.00     0.198 A 
ATOM     80  F   UNL A   1      41.257  23.958  28.507  1.00  0.00    -0.203 F 
ATOM     81  F   UNL A   1      43.985  22.675  23.982  1.00  0.00    -0.200 F 
ATOM     82  C   UNL A   1      42.585  22.039  25.765  1.00  0.00     0.200 A 
ATOM     83  F   UNL A   1      41.240  21.449  27.609  1.00  0.00    -0.200 F 
ATOM     84  F   UNL A   1      42.635  20.758  25.371  1.00  0.00    -0.200 F 
ENDBRANCH  50  74
BRANCH  62  85
ATOM     85  C   UNL A   1      45.214  30.210  28.480  1.00  0.00     0.064 A 
ATOM     86  C   UNL A   1      44.174  30.955  27.894  1.00  0.00     0.173 A 
ATOM     87  C   UNL A   1      46.520  30.528  28.087  1.00  0.00     0.173 A 
ATOM     88  F   UNL A   1      42.908  30.796  28.285  1.00  0.00    -0.203 F 
ATOM     89  C   UNL A   1      44.427  31.943  26.942  1.00  0.00     0.198 A 
ATOM     90  C   UNL A   1      46.774  31.538  27.163  1.00  0.00     0.198 A 
ATOM     91  F   UNL A   1      47.561  29.899  28.655  1.00  0.00    -0.203 F 
ATOM     92  F   UNL A   1      43.411  32.638  26.408  1.00  0.00    -0.200 F 
ATOM     93  C   UNL A   1      45.729  32.241  26.585  1.00  0.00     0.200 A 
ATOM     94  F   UNL A   1      48.040  31.860  26.862  1.00  0.00    -0.200 F 
ATOM     95  F   UNL A   1      45.978  33.224  25.710  1.00  0.00    -0.200 F 
ENDBRANCH  62  85
ENDBRANCH  36  37
ENDBRANCH  28  31
ENDBRANCH  26  27
ENDBRANCH  25  26
ENDBRANCH   1  25
TORSDOF 13
ENDMDL
