MODEL 1
REMARK VINA RESULT:     -13.1      0.000      0.000
REMARK SMILES CC[C@@H](Oc1ccccc1/C=C1\S/C(=[NH+]\c2cccc(O)c2)N(CC)C1=O)C(=O)NCCCCNC(=O)c1ccc(-c2c3nc(c(-c4c(F)c(F)c(F)c(F)c4F)c4ccc([nH]4)c(-c4c(F)c(F)c(F)c(F)c4F)c4nc(c(-c5c(F)c(F)c(F)c(F)c5F)c5ccc2[nH]5)C=C4)C=C3)cc1
REMARK SMILES IDX 31 1 30 2 28 3 29 4 3 6 2 7 1 8 4 9 5 10 6 11 10 12 7 13
REMARK SMILES IDX 9 14 8 15 11 16 12 17 13 18 26 19 14 20 23 21 27 22 15 23
REMARK SMILES IDX 24 25 25 26 16 27 17 28 22 29 18 30 20 31 19 32 21 33 32 35
REMARK SMILES IDX 33 36 34 37 35 38 36 39 37 41 38 42 39 43 100 44 40 45 99 46
REMARK SMILES IDX 41 47 42 48 43 49 93 50 44 51 98 52 92 53 94 54 45 55 97 56
REMARK SMILES IDX 91 57 90 58 46 60 78 61 58 62 77 63 59 64 62 65 76 66 95 67
REMARK SMILES IDX 60 68 61 69 75 71 96 72 63 73 47 74 48 75 56 76 49 77 50 78
REMARK SMILES IDX 54 79 57 80 51 81 52 82 55 83 53 84 79 85 80 86 88 87 81 88
REMARK SMILES IDX 82 89 86 90 89 91 83 92 84 93 87 94 85 95 64 96 65 97 73 98
REMARK SMILES IDX 66 99 67 100 71 101 74 102 68 103 69 104 72 105 70 106
REMARK H PARENT 30 5 15 24 21 34 35 40 94 59 62 70
REMARK Flexibility Score: inf
ROOT
ATOM      1  C   UNL A   1      35.537  20.894  25.107  1.00  0.00     0.116 C 
ENDROOT
BRANCH   1   2
ATOM      2  N   UNL A   1      34.922  21.008  26.415  1.00  0.00    -0.353 N 
ATOM      3  C   UNL A   1      33.820  21.699  26.830  1.00  0.00     0.261 C 
ATOM      4  O   UNL A   1      33.476  21.528  28.007  1.00  0.00    -0.271 OA
ATOM      5  H   UNL A   1      35.377  20.499  27.124  1.00  0.00     0.163 HD
BRANCH   3   6
ATOM      6  C   UNL A   1      33.082  22.747  25.956  1.00  0.00     0.261 C 
BRANCH   6   7
ATOM      7  C   UNL A   1      32.064  23.462  26.865  1.00  0.00     0.052 C 
ATOM      8  C   UNL A   1      30.616  23.201  26.455  1.00  0.00     0.008 C 
ENDBRANCH   6   7
BRANCH   6   9
ATOM      9  O   UNL A   1      33.975  23.677  25.339  1.00  0.00    -0.480 OA
BRANCH   9  10
ATOM     10  C   UNL A   1      33.587  24.152  24.112  1.00  0.00     0.127 A 
ATOM     11  C   UNL A   1      33.548  23.280  23.025  1.00  0.00     0.047 A 
ATOM     12  C   UNL A   1      33.377  25.535  23.924  1.00  0.00     0.018 A 
ATOM     13  C   UNL A   1      33.251  23.773  21.754  1.00  0.00     0.004 A 
ATOM     14  C   UNL A   1      33.068  26.017  22.649  1.00  0.00     0.012 A 
ATOM     15  C   UNL A   1      33.006  25.136  21.568  1.00  0.00     0.001 A 
BRANCH  12  16
ATOM     16  C   UNL A   1      33.439  26.466  25.058  1.00  0.00     0.036 C 
ATOM     17  C   UNL A   1      32.669  27.552  25.178  1.00  0.00     0.110 C 
ATOM     18  S   UNL A   1      31.307  27.963  24.235  1.00  0.00     0.007 SA
ATOM     19  C   UNL A   1      33.044  28.676  26.076  1.00  0.00     0.348 C 
ATOM     20  C   UNL A   1      31.282  29.604  24.841  1.00  0.00     0.324 C 
ATOM     21  N   UNL A   1      32.227  29.768  25.837  1.00  0.00    -0.186 N 
ATOM     22  O   UNL A   1      34.022  28.644  26.807  1.00  0.00    -0.240 OA
ATOM     23  N   UNL A   1      30.539  30.565  24.394  1.00  0.00    -0.234 N 
ATOM     24  H   UNL A   1      30.667  31.475  24.746  1.00  0.00     0.313 HD
BRANCH  21  25
ATOM     25  C   UNL A   1      32.555  31.075  26.417  1.00  0.00     0.244 C 
ATOM     26  C   UNL A   1      31.368  31.956  26.773  1.00  0.00     0.055 C 
ENDBRANCH  21  25
BRANCH  23  27
ATOM     27  C   UNL A   1      29.548  30.334  23.413  1.00  0.00     0.129 A 
ATOM     28  C   UNL A   1      29.651  30.924  22.147  1.00  0.00     0.052 A 
ATOM     29  C   UNL A   1      28.403  29.581  23.695  1.00  0.00     0.097 A 
ATOM     30  C   UNL A   1      28.638  30.789  21.193  1.00  0.00     0.008 A 
ATOM     31  C   UNL A   1      27.429  29.389  22.715  1.00  0.00     0.119 A 
ATOM     32  C   UNL A   1      27.523  30.010  21.478  1.00  0.00     0.046 A 
BRANCH  31  33
ATOM     33  O   UNL A   1      26.359  28.573  22.936  1.00  0.00    -0.508 OA
ATOM     34  H   UNL A   1      25.488  28.905  22.838  1.00  0.00     0.293 HD
ENDBRANCH  31  33
ENDBRANCH  23  27
ENDBRANCH  12  16
ENDBRANCH   9  10
ENDBRANCH   6   9
ENDBRANCH   3   6
ENDBRANCH   1   2
BRANCH   1  35
ATOM     35  C   UNL A   1      36.994  21.337  25.109  1.00  0.00     0.023 C 
BRANCH  35  36
ATOM     36  C   UNL A   1      38.042  20.232  24.975  1.00  0.00     0.023 C 
BRANCH  36  37
ATOM     37  C   UNL A   1      39.315  20.454  25.792  1.00  0.00     0.116 C 
BRANCH  37  38
ATOM     38  N   UNL A   1      40.213  19.308  25.855  1.00  0.00    -0.352 N 
ATOM     39  C   UNL A   1      41.559  19.235  26.139  1.00  0.00     0.251 C 
ATOM     40  H   UNL A   1      39.787  18.441  25.663  1.00  0.00     0.163 HD
ATOM     41  O   UNL A   1      42.138  18.154  26.060  1.00  0.00    -0.269 OA
BRANCH  39  42
ATOM     42  C   UNL A   1      42.342  20.441  26.493  1.00  0.00     0.039 A 
ATOM     43  C   UNL A   1      43.080  21.058  25.478  1.00  0.00     0.014 A 
ATOM     44  C   UNL A   1      42.331  20.998  27.772  1.00  0.00     0.014 A 
ATOM     45  C   UNL A   1      43.665  22.300  25.707  1.00  0.00     0.010 A 
ATOM     46  C   UNL A   1      42.804  22.287  27.967  1.00  0.00     0.010 A 
ATOM     47  C   UNL A   1      43.448  22.960  26.924  1.00  0.00    -0.014 A 
BRANCH  47  48
ATOM     48  C   UNL A   1      43.821  24.383  27.081  1.00  0.00     0.031 A 
ATOM     49  C   UNL A   1      42.814  25.387  27.551  1.00  0.00     0.074 A 
ATOM     50  C   UNL A   1      45.067  24.758  26.731  1.00  0.00     0.049 A 
ATOM     51  N   UNL A   1      42.971  26.667  27.774  1.00  0.00    -0.248 NA
ATOM     52  C   UNL A   1      41.442  24.903  27.771  1.00  0.00     0.031 C 
ATOM     53  C   UNL A   1      46.093  23.868  26.176  1.00  0.00     0.029 A 
ATOM     54  N   UNL A   1      45.691  25.975  26.800  1.00  0.00    -0.354 N 
ATOM     55  C   UNL A   1      41.721  27.137  28.150  1.00  0.00     0.074 A 
ATOM     56  C   UNL A   1      40.801  26.026  28.058  1.00  0.00     0.031 C 
ATOM     57  C   UNL A   1      47.235  24.555  26.017  1.00  0.00     0.029 A 
ATOM     58  C   UNL A   1      47.010  25.938  26.417  1.00  0.00     0.049 A 
ATOM     59  H   UNL A   1      45.239  26.798  27.095  1.00  0.00     0.167 HD
ATOM     60  C   UNL A   1      41.385  28.381  28.565  1.00  0.00     0.037 A 
ATOM     61  C   UNL A   1      47.937  26.913  26.409  1.00  0.00     0.037 A 
ATOM     62  C   UNL A   1      42.322  29.469  28.664  1.00  0.00     0.049 A 
ATOM     63  C   UNL A   1      47.539  28.279  26.892  1.00  0.00     0.074 A 
ATOM     64  C   UNL A   1      42.111  30.753  29.129  1.00  0.00     0.029 A 
ATOM     65  N   UNL A   1      43.656  29.394  28.281  1.00  0.00    -0.354 N 
ATOM     66  N   UNL A   1      46.378  28.693  27.342  1.00  0.00    -0.248 NA
ATOM     67  C   UNL A   1      48.582  29.311  26.879  1.00  0.00     0.031 C 
ATOM     68  C   UNL A   1      43.300  31.472  28.974  1.00  0.00     0.029 A 
ATOM     69  C   UNL A   1      44.273  30.619  28.475  1.00  0.00     0.049 A 
ATOM     70  H   UNL A   1      44.097  28.590  27.924  1.00  0.00     0.167 HD
ATOM     71  C   UNL A   1      46.559  30.022  27.699  1.00  0.00     0.074 A 
ATOM     72  C   UNL A   1      47.948  30.336  27.429  1.00  0.00     0.031 C 
ATOM     73  C   UNL A   1      45.660  30.903  28.205  1.00  0.00     0.037 A 
BRANCH  60  74
ATOM     74  C   UNL A   1      39.948  28.622  28.933  1.00  0.00     0.064 A 
ATOM     75  C   UNL A   1      39.018  29.113  28.001  1.00  0.00     0.173 A 
ATOM     76  C   UNL A   1      39.492  28.353  30.231  1.00  0.00     0.173 A 
ATOM     77  F   UNL A   1      39.404  29.403  26.749  1.00  0.00    -0.203 F 
ATOM     78  C   UNL A   1      37.697  29.362  28.367  1.00  0.00     0.198 A 
ATOM     79  C   UNL A   1      38.161  28.570  30.584  1.00  0.00     0.198 A 
ATOM     80  F   UNL A   1      40.335  27.881  31.161  1.00  0.00    -0.203 F 
ATOM     81  F   UNL A   1      36.846  29.891  27.478  1.00  0.00    -0.200 F 
ATOM     82  C   UNL A   1      37.268  29.083  29.656  1.00  0.00     0.200 A 
ATOM     83  F   UNL A   1      37.746  28.288  31.827  1.00  0.00    -0.200 F 
ATOM     84  F   UNL A   1      35.997  29.320  30.006  1.00  0.00    -0.200 F 
ENDBRANCH  60  74
BRANCH  61  85
ATOM     85  C   UNL A   1      49.332  26.620  25.984  1.00  0.00     0.064 A 
ATOM     86  C   UNL A   1      49.762  26.904  24.679  1.00  0.00     0.173 A 
ATOM     87  C   UNL A   1      50.263  26.051  26.864  1.00  0.00     0.173 A 
ATOM     88  F   UNL A   1      48.907  27.439  23.794  1.00  0.00    -0.203 F 
ATOM     89  C   UNL A   1      51.056  26.601  24.262  1.00  0.00     0.198 A 
ATOM     90  C   UNL A   1      51.568  25.777  26.456  1.00  0.00     0.198 A 
ATOM     91  F   UNL A   1      49.910  25.770  28.127  1.00  0.00    -0.203 F 
ATOM     92  F   UNL A   1      51.422  26.834  22.994  1.00  0.00    -0.200 F 
ATOM     93  C   UNL A   1      51.960  26.042  25.153  1.00  0.00     0.200 A 
ATOM     94  F   UNL A   1      52.444  25.254  27.325  1.00  0.00    -0.200 F 
ATOM     95  F   UNL A   1      53.206  25.752  24.754  1.00  0.00    -0.200 F 
ENDBRANCH  61  85
BRANCH  73  96
ATOM     96  C   UNL A   1      46.169  32.273  28.543  1.00  0.00     0.064 A 
ATOM     97  C   UNL A   1      46.640  32.595  29.825  1.00  0.00     0.173 A 
ATOM     98  C   UNL A   1      46.207  33.274  27.559  1.00  0.00     0.173 A 
ATOM     99  F   UNL A   1      46.612  31.679  30.804  1.00  0.00    -0.203 F 
ATOM    100  C   UNL A   1      47.091  33.879  30.119  1.00  0.00     0.198 A 
ATOM    101  C   UNL A   1      46.696  34.544  27.846  1.00  0.00     0.198 A 
ATOM    102  F   UNL A   1      45.778  33.015  26.315  1.00  0.00    -0.203 F 
ATOM    103  F   UNL A   1      47.475  34.181  31.367  1.00  0.00    -0.200 F 
ATOM    104  C   UNL A   1      47.126  34.849  29.129  1.00  0.00     0.200 A 
ATOM    105  F   UNL A   1      46.745  35.475  26.883  1.00  0.00    -0.200 F 
ATOM    106  F   UNL A   1      47.565  36.082  29.413  1.00  0.00    -0.200 F 
ENDBRANCH  73  96
ENDBRANCH  47  48
ENDBRANCH  39  42
ENDBRANCH  37  38
ENDBRANCH  36  37
ENDBRANCH  35  36
ENDBRANCH   1  35
TORSDOF 18
ENDMDL
MODEL 2
REMARK VINA RESULT:     -13.0      1.114      6.994
REMARK SMILES CC[C@@H](Oc1ccccc1/C=C1\S/C(=[NH+]\c2cccc(O)c2)N(CC)C1=O)C(=O)NCCCCNC(=O)c1ccc(-c2c3nc(c(-c4c(F)c(F)c(F)c(F)c4F)c4ccc([nH]4)c(-c4c(F)c(F)c(F)c(F)c4F)c4nc(c(-c5c(F)c(F)c(F)c(F)c5F)c5ccc2[nH]5)C=C4)C=C3)cc1
REMARK SMILES IDX 31 1 30 2 28 3 29 4 3 6 2 7 1 8 4 9 5 10 6 11 10 12 7 13
REMARK SMILES IDX 9 14 8 15 11 16 12 17 13 18 26 19 14 20 23 21 27 22 15 23
REMARK SMILES IDX 24 25 25 26 16 27 17 28 22 29 18 30 20 31 19 32 21 33 32 35
REMARK SMILES IDX 33 36 34 37 35 38 36 39 37 41 38 42 39 43 100 44 40 45 99 46
REMARK SMILES IDX 41 47 42 48 43 49 93 50 44 51 98 52 92 53 94 54 45 55 97 56
REMARK SMILES IDX 91 57 90 58 46 60 78 61 58 62 77 63 59 64 62 65 76 66 95 67
REMARK SMILES IDX 60 68 61 69 75 71 96 72 63 73 47 74 48 75 56 76 49 77 50 78
REMARK SMILES IDX 54 79 57 80 51 81 52 82 55 83 53 84 79 85 80 86 88 87 81 88
REMARK SMILES IDX 82 89 86 90 89 91 83 92 84 93 87 94 85 95 64 96 65 97 73 98
REMARK SMILES IDX 66 99 67 100 71 101 74 102 68 103 69 104 72 105 70 106
REMARK H PARENT 30 5 15 24 21 34 35 40 94 59 62 70
REMARK Flexibility Score: inf
ROOT
ATOM      1  C   UNL A   1      35.336  21.090  25.538  1.00  0.00     0.116 C 
ENDROOT
BRANCH   1   2
ATOM      2  N   UNL A   1      34.718  21.392  26.813  1.00  0.00    -0.353 N 
ATOM      3  C   UNL A   1      33.659  22.194  27.129  1.00  0.00     0.261 C 
ATOM      4  O   UNL A   1      33.294  22.181  28.312  1.00  0.00    -0.271 OA
ATOM      5  H   UNL A   1      35.133  20.940  27.583  1.00  0.00     0.163 HD
BRANCH   3   6
ATOM      6  C   UNL A   1      32.998  23.179  26.130  1.00  0.00     0.261 C 
BRANCH   6   7
ATOM      7  C   UNL A   1      31.773  23.791  26.836  1.00  0.00     0.052 C 
ATOM      8  C   UNL A   1      30.472  23.068  26.499  1.00  0.00     0.008 C 
ENDBRANCH   6   7
BRANCH   6   9
ATOM      9  O   UNL A   1      33.900  24.192  25.676  1.00  0.00    -0.480 OA
BRANCH   9  10
ATOM     10  C   UNL A   1      33.600  24.759  24.464  1.00  0.00     0.127 A 
ATOM     11  C   UNL A   1      33.655  23.974  23.313  1.00  0.00     0.047 A 
ATOM     12  C   UNL A   1      33.387  26.151  24.368  1.00  0.00     0.018 A 
ATOM     13  C   UNL A   1      33.449  24.564  22.065  1.00  0.00     0.004 A 
ATOM     14  C   UNL A   1      33.169  26.729  23.115  1.00  0.00     0.012 A 
ATOM     15  C   UNL A   1      33.201  25.935  21.967  1.00  0.00     0.001 A 
BRANCH  12  16
ATOM     16  C   UNL A   1      33.350  26.990  25.573  1.00  0.00     0.036 C 
ATOM     17  C   UNL A   1      32.591  28.082  25.701  1.00  0.00     0.110 C 
ATOM     18  S   UNL A   1      31.337  28.598  24.663  1.00  0.00     0.007 SA
ATOM     19  C   UNL A   1      32.893  29.126  26.717  1.00  0.00     0.348 C 
ATOM     20  C   UNL A   1      31.279  30.187  25.392  1.00  0.00     0.324 C 
ATOM     21  N   UNL A   1      32.122  30.252  26.485  1.00  0.00    -0.186 N 
ATOM     22  O   UNL A   1      33.792  29.013  27.536  1.00  0.00    -0.240 OA
ATOM     23  N   UNL A   1      30.601  31.197  24.950  1.00  0.00    -0.234 N 
ATOM     24  H   UNL A   1      30.708  32.075  25.383  1.00  0.00     0.313 HD
BRANCH  21  25
ATOM     25  C   UNL A   1      32.411  31.502  27.195  1.00  0.00     0.244 C 
ATOM     26  C   UNL A   1      33.877  31.763  27.505  1.00  0.00     0.055 C 
ENDBRANCH  21  25
BRANCH  23  27
ATOM     27  C   UNL A   1      29.709  31.067  23.861  1.00  0.00     0.129 A 
ATOM     28  C   UNL A   1      29.375  29.801  23.365  1.00  0.00     0.052 A 
ATOM     29  C   UNL A   1      29.195  32.188  23.199  1.00  0.00     0.097 A 
ATOM     30  C   UNL A   1      28.572  29.650  22.230  1.00  0.00     0.008 A 
ATOM     31  C   UNL A   1      28.336  32.031  22.113  1.00  0.00     0.119 A 
ATOM     32  C   UNL A   1      28.043  30.773  21.605  1.00  0.00     0.046 A 
BRANCH  31  33
ATOM     33  O   UNL A   1      27.744  33.107  21.521  1.00  0.00    -0.508 OA
ATOM     34  H   UNL A   1      26.811  33.194  21.531  1.00  0.00     0.293 HD
ENDBRANCH  31  33
ENDBRANCH  23  27
ENDBRANCH  12  16
ENDBRANCH   9  10
ENDBRANCH   6   9
ENDBRANCH   3   6
ENDBRANCH   1   2
BRANCH   1  35
ATOM     35  C   UNL A   1      36.724  21.704  25.403  1.00  0.00     0.023 C 
BRANCH  35  36
ATOM     36  C   UNL A   1      37.853  20.756  25.004  1.00  0.00     0.023 C 
BRANCH  36  37
ATOM     37  C   UNL A   1      39.111  20.859  25.866  1.00  0.00     0.116 C 
BRANCH  37  38
ATOM     38  N   UNL A   1      39.998  19.704  25.800  1.00  0.00    -0.352 N 
ATOM     39  C   UNL A   1      41.349  19.592  26.048  1.00  0.00     0.251 C 
ATOM     40  H   UNL A   1      39.560  18.864  25.534  1.00  0.00     0.163 HD
ATOM     41  O   UNL A   1      41.914  18.518  25.854  1.00  0.00    -0.269 OA
BRANCH  39  42
ATOM     42  C   UNL A   1      42.151  20.751  26.501  1.00  0.00     0.039 A 
ATOM     43  C   UNL A   1      42.673  21.603  25.522  1.00  0.00     0.014 A 
ATOM     44  C   UNL A   1      42.362  21.041  27.849  1.00  0.00     0.014 A 
ATOM     45  C   UNL A   1      43.257  22.809  25.896  1.00  0.00     0.010 A 
ATOM     46  C   UNL A   1      42.828  22.294  28.220  1.00  0.00     0.010 A 
ATOM     47  C   UNL A   1      43.251  23.200  27.242  1.00  0.00    -0.014 A 
BRANCH  47  48
ATOM     48  C   UNL A   1      43.608  24.584  27.622  1.00  0.00     0.031 A 
ATOM     49  C   UNL A   1      45.039  25.027  27.631  1.00  0.00     0.074 A 
ATOM     50  C   UNL A   1      42.621  25.412  28.016  1.00  0.00     0.049 A 
ATOM     51  N   UNL A   1      45.533  26.206  27.907  1.00  0.00    -0.248 NA
ATOM     52  C   UNL A   1      46.054  24.008  27.321  1.00  0.00     0.031 C 
ATOM     53  C   UNL A   1      41.205  25.045  28.129  1.00  0.00     0.029 A 
ATOM     54  N   UNL A   1      42.649  26.731  28.384  1.00  0.00    -0.354 N 
ATOM     55  C   UNL A   1      46.910  26.067  27.812  1.00  0.00     0.074 A 
ATOM     56  C   UNL A   1      47.179  24.676  27.524  1.00  0.00     0.031 C 
ATOM     57  C   UNL A   1      40.493  26.129  28.473  1.00  0.00     0.029 A 
ATOM     58  C   UNL A   1      41.405  27.253  28.647  1.00  0.00     0.049 A 
ATOM     59  H   UNL A   1      43.478  27.255  28.454  1.00  0.00     0.167 HD
ATOM     60  C   UNL A   1      47.859  27.026  27.926  1.00  0.00     0.037 A 
ATOM     61  C   UNL A   1      41.044  28.506  28.976  1.00  0.00     0.037 A 
ATOM     62  C   UNL A   1      47.566  28.408  28.198  1.00  0.00     0.049 A 
ATOM     63  C   UNL A   1      42.117  29.554  29.077  1.00  0.00     0.074 A 
ATOM     64  C   UNL A   1      48.437  29.479  28.274  1.00  0.00     0.029 A 
ATOM     65  N   UNL A   1      46.293  28.907  28.446  1.00  0.00    -0.354 N 
ATOM     66  N   UNL A   1      43.410  29.436  28.887  1.00  0.00    -0.248 NA
ATOM     67  C   UNL A   1      41.681  30.911  29.424  1.00  0.00     0.031 C 
ATOM     68  C   UNL A   1      47.700  30.614  28.624  1.00  0.00     0.029 A 
ATOM     69  C   UNL A   1      46.360  30.268  28.701  1.00  0.00     0.049 A 
ATOM     70  H   UNL A   1      45.466  28.374  28.441  1.00  0.00     0.167 HD
ATOM     71  C   UNL A   1      43.938  30.709  29.056  1.00  0.00     0.074 A 
ATOM     72  C   UNL A   1      42.820  31.584  29.347  1.00  0.00     0.031 C 
ATOM     73  C   UNL A   1      45.229  31.117  28.979  1.00  0.00     0.037 A 
BRANCH  60  74
ATOM     74  C   UNL A   1      49.291  26.605  27.762  1.00  0.00     0.064 A 
ATOM     75  C   UNL A   1      50.129  26.380  28.867  1.00  0.00     0.173 A 
ATOM     76  C   UNL A   1      49.835  26.413  26.483  1.00  0.00     0.173 A 
ATOM     77  F   UNL A   1      49.666  26.564  30.113  1.00  0.00    -0.203 F 
ATOM     78  C   UNL A   1      51.464  26.022  28.697  1.00  0.00     0.198 A 
ATOM     79  C   UNL A   1      51.161  26.019  26.317  1.00  0.00     0.198 A 
ATOM     80  F   UNL A   1      49.081  26.610  25.390  1.00  0.00    -0.203 F 
ATOM     81  F   UNL A   1      52.259  25.878  29.766  1.00  0.00    -0.200 F 
ATOM     82  C   UNL A   1      51.977  25.834  27.422  1.00  0.00     0.200 A 
ATOM     83  F   UNL A   1      51.651  25.827  25.084  1.00  0.00    -0.200 F 
ATOM     84  F   UNL A   1      53.261  25.486  27.259  1.00  0.00    -0.200 F 
ENDBRANCH  60  74
BRANCH  61  85
ATOM     85  C   UNL A   1      39.610  28.848  29.175  1.00  0.00     0.064 A 
ATOM     86  C   UNL A   1      38.821  29.295  28.105  1.00  0.00     0.173 A 
ATOM     87  C   UNL A   1      38.998  28.740  30.432  1.00  0.00     0.173 A 
ATOM     88  F   UNL A   1      39.362  29.427  26.884  1.00  0.00    -0.203 F 
ATOM     89  C   UNL A   1      37.486  29.650  28.290  1.00  0.00     0.198 A 
ATOM     90  C   UNL A   1      37.654  29.064  30.610  1.00  0.00     0.198 A 
ATOM     91  F   UNL A   1      39.702  28.305  31.488  1.00  0.00    -0.203 F 
ATOM     92  F   UNL A   1      36.773  30.125  27.260  1.00  0.00    -0.200 F 
ATOM     93  C   UNL A   1      36.902  29.530  29.542  1.00  0.00     0.200 A 
ATOM     94  F   UNL A   1      37.088  28.929  31.817  1.00  0.00    -0.200 F 
ATOM     95  F   UNL A   1      35.619  29.869  29.720  1.00  0.00    -0.200 F 
ENDBRANCH  61  85
BRANCH  73  96
ATOM     96  C   UNL A   1      45.489  32.584  29.164  1.00  0.00     0.064 A 
ATOM     97  C   UNL A   1      45.679  33.149  30.433  1.00  0.00     0.173 A 
ATOM     98  C   UNL A   1      45.570  33.432  28.048  1.00  0.00     0.173 A 
ATOM     99  F   UNL A   1      45.597  32.385  31.532  1.00  0.00    -0.203 F 
ATOM    100  C   UNL A   1      45.901  34.516  30.580  1.00  0.00     0.198 A 
ATOM    101  C   UNL A   1      45.831  34.790  28.196  1.00  0.00     0.198 A 
ATOM    102  F   UNL A   1      45.404  32.939  26.811  1.00  0.00    -0.203 F 
ATOM    103  F   UNL A   1      46.016  35.045  31.807  1.00  0.00    -0.200 F 
ATOM    104  C   UNL A   1      45.985  35.333  29.463  1.00  0.00     0.200 A 
ATOM    105  F   UNL A   1      45.929  35.574  27.114  1.00  0.00    -0.200 F 
ATOM    106  F   UNL A   1      46.203  36.646  29.607  1.00  0.00    -0.200 F 
ENDBRANCH  73  96
ENDBRANCH  47  48
ENDBRANCH  39  42
ENDBRANCH  37  38
ENDBRANCH  36  37
ENDBRANCH  35  36
ENDBRANCH   1  35
TORSDOF 18
ENDMDL
MODEL 3
REMARK VINA RESULT:     -12.3      0.831      7.028
REMARK SMILES CC[C@@H](Oc1ccccc1/C=C1\S/C(=[NH+]\c2cccc(O)c2)N(CC)C1=O)C(=O)NCCCCNC(=O)c1ccc(-c2c3nc(c(-c4c(F)c(F)c(F)c(F)c4F)c4ccc([nH]4)c(-c4c(F)c(F)c(F)c(F)c4F)c4nc(c(-c5c(F)c(F)c(F)c(F)c5F)c5ccc2[nH]5)C=C4)C=C3)cc1
REMARK SMILES IDX 31 1 30 2 28 3 29 4 3 6 2 7 1 8 4 9 5 10 6 11 10 12 7 13
REMARK SMILES IDX 9 14 8 15 11 16 12 17 13 18 26 19 14 20 23 21 27 22 15 23
REMARK SMILES IDX 24 25 25 26 16 27 17 28 22 29 18 30 20 31 19 32 21 33 32 35
REMARK SMILES IDX 33 36 34 37 35 38 36 39 37 41 38 42 39 43 100 44 40 45 99 46
REMARK SMILES IDX 41 47 42 48 43 49 93 50 44 51 98 52 92 53 94 54 45 55 97 56
REMARK SMILES IDX 91 57 90 58 46 60 78 61 58 62 77 63 59 64 62 65 76 66 95 67
REMARK SMILES IDX 60 68 61 69 75 71 96 72 63 73 47 74 48 75 56 76 49 77 50 78
REMARK SMILES IDX 54 79 57 80 51 81 52 82 55 83 53 84 79 85 80 86 88 87 81 88
REMARK SMILES IDX 82 89 86 90 89 91 83 92 84 93 87 94 85 95 64 96 65 97 73 98
REMARK SMILES IDX 66 99 67 100 71 101 74 102 68 103 69 104 72 105 70 106
REMARK H PARENT 30 5 15 24 21 34 35 40 94 59 62 70
REMARK Flexibility Score: inf
ROOT
ATOM      1  C   UNL A   1      35.816  21.480  24.673  1.00  0.00     0.116 C 
ENDROOT
BRANCH   1   2
ATOM      2  N   UNL A   1      35.280  21.277  26.004  1.00  0.00    -0.353 N 
ATOM      3  C   UNL A   1      34.082  21.635  26.552  1.00  0.00     0.261 C 
ATOM      4  O   UNL A   1      33.863  21.236  27.703  1.00  0.00    -0.271 OA
ATOM      5  H   UNL A   1      35.883  20.797  26.617  1.00  0.00     0.163 HD
BRANCH   3   6
ATOM      6  C   UNL A   1      33.072  22.591  25.863  1.00  0.00     0.261 C 
BRANCH   6   7
ATOM      7  C   UNL A   1      31.853  22.716  26.797  1.00  0.00     0.052 C 
ATOM      8  C   UNL A   1      30.536  22.850  26.037  1.00  0.00     0.008 C 
ENDBRANCH   6   7
BRANCH   6   9
ATOM      9  O   UNL A   1      33.638  23.870  25.568  1.00  0.00    -0.480 OA
BRANCH   9  10
ATOM     10  C   UNL A   1      33.302  24.405  24.351  1.00  0.00     0.127 A 
ATOM     11  C   UNL A   1      33.204  23.565  23.242  1.00  0.00     0.047 A 
ATOM     12  C   UNL A   1      33.206  25.805  24.196  1.00  0.00     0.018 A 
ATOM     13  C   UNL A   1      32.961  24.112  21.981  1.00  0.00     0.004 A 
ATOM     14  C   UNL A   1      32.949  26.341  22.931  1.00  0.00     0.012 A 
ATOM     15  C   UNL A   1      32.828  25.494  21.828  1.00  0.00     0.001 A 
BRANCH  12  16
ATOM     16  C   UNL A   1      33.331  26.699  25.353  1.00  0.00     0.036 C 
ATOM     17  C   UNL A   1      32.623  27.822  25.512  1.00  0.00     0.110 C 
ATOM     18  S   UNL A   1      31.276  28.332  24.597  1.00  0.00     0.007 SA
ATOM     19  C   UNL A   1      33.069  28.900  26.435  1.00  0.00     0.348 C 
ATOM     20  C   UNL A   1      31.347  29.955  25.247  1.00  0.00     0.324 C 
ATOM     21  N   UNL A   1      32.311  30.040  26.235  1.00  0.00    -0.186 N 
ATOM     22  O   UNL A   1      34.052  28.794  27.152  1.00  0.00    -0.240 OA
ATOM     23  N   UNL A   1      30.653  30.966  24.835  1.00  0.00    -0.234 N 
ATOM     24  H   UNL A   1      30.834  31.859  25.209  1.00  0.00     0.313 HD
BRANCH  21  25
ATOM     25  C   UNL A   1      32.715  31.311  26.845  1.00  0.00     0.244 C 
ATOM     26  C   UNL A   1      31.607  32.333  27.042  1.00  0.00     0.055 C 
ENDBRANCH  21  25
BRANCH  23  27
ATOM     27  C   UNL A   1      29.640  30.817  23.860  1.00  0.00     0.129 A 
ATOM     28  C   UNL A   1      29.133  31.935  23.186  1.00  0.00     0.052 A 
ATOM     29  C   UNL A   1      29.060  29.571  23.595  1.00  0.00     0.097 A 
ATOM     30  C   UNL A   1      28.067  31.825  22.288  1.00  0.00     0.008 A 
ATOM     31  C   UNL A   1      28.046  29.456  22.645  1.00  0.00     0.119 A 
ATOM     32  C   UNL A   1      27.525  30.575  22.011  1.00  0.00     0.046 A 
BRANCH  31  33
ATOM     33  O   UNL A   1      27.542  28.238  22.297  1.00  0.00    -0.508 OA
ATOM     34  H   UNL A   1      27.941  27.744  21.608  1.00  0.00     0.293 HD
ENDBRANCH  31  33
ENDBRANCH  23  27
ENDBRANCH  12  16
ENDBRANCH   9  10
ENDBRANCH   6   9
ENDBRANCH   3   6
ENDBRANCH   1   2
BRANCH   1  35
ATOM     35  C   UNL A   1      37.339  21.496  24.656  1.00  0.00     0.023 C 
BRANCH  35  36
ATOM     36  C   UNL A   1      38.041  20.310  25.318  1.00  0.00     0.023 C 
BRANCH  36  37
ATOM     37  C   UNL A   1      39.451  20.605  25.830  1.00  0.00     0.116 C 
BRANCH  37  38
ATOM     38  N   UNL A   1      40.362  19.468  25.812  1.00  0.00    -0.352 N 
ATOM     39  C   UNL A   1      41.706  19.387  26.106  1.00  0.00     0.251 C 
ATOM     40  H   UNL A   1      39.949  18.615  25.545  1.00  0.00     0.163 HD
ATOM     41  O   UNL A   1      42.299  18.322  25.948  1.00  0.00    -0.269 OA
BRANCH  39  42
ATOM     42  C   UNL A   1      42.470  20.569  26.566  1.00  0.00     0.039 A 
ATOM     43  C   UNL A   1      43.126  21.337  25.599  1.00  0.00     0.014 A 
ATOM     44  C   UNL A   1      42.518  20.961  27.904  1.00  0.00     0.014 A 
ATOM     45  C   UNL A   1      43.684  22.562  25.950  1.00  0.00     0.010 A 
ATOM     46  C   UNL A   1      42.960  22.234  28.235  1.00  0.00     0.010 A 
ATOM     47  C   UNL A   1      43.519  23.056  27.251  1.00  0.00    -0.014 A 
BRANCH  47  48
ATOM     48  C   UNL A   1      43.855  24.462  27.567  1.00  0.00     0.031 A 
ATOM     49  C   UNL A   1      45.276  24.933  27.526  1.00  0.00     0.074 A 
ATOM     50  C   UNL A   1      42.859  25.285  27.949  1.00  0.00     0.049 A 
ATOM     51  N   UNL A   1      45.751  26.133  27.744  1.00  0.00    -0.248 NA
ATOM     52  C   UNL A   1      46.306  23.924  27.236  1.00  0.00     0.031 C 
ATOM     53  C   UNL A   1      41.454  24.895  28.107  1.00  0.00     0.029 A 
ATOM     54  N   UNL A   1      42.866  26.618  28.262  1.00  0.00    -0.354 N 
ATOM     55  C   UNL A   1      47.128  26.017  27.625  1.00  0.00     0.074 A 
ATOM     56  C   UNL A   1      47.420  24.622  27.387  1.00  0.00     0.031 C 
ATOM     57  C   UNL A   1      40.727  25.977  28.422  1.00  0.00     0.029 A 
ATOM     58  C   UNL A   1      41.617  27.125  28.530  1.00  0.00     0.049 A 
ATOM     59  H   UNL A   1      43.686  27.161  28.292  1.00  0.00     0.167 HD
ATOM     60  C   UNL A   1      48.058  26.999  27.678  1.00  0.00     0.037 A 
ATOM     61  C   UNL A   1      41.238  28.384  28.816  1.00  0.00     0.037 A 
ATOM     62  C   UNL A   1      47.742  28.386  27.900  1.00  0.00     0.049 A 
ATOM     63  C   UNL A   1      42.290  29.456  28.851  1.00  0.00     0.074 A 
ATOM     64  C   UNL A   1      48.592  29.476  27.914  1.00  0.00     0.029 A 
ATOM     65  N   UNL A   1      46.464  28.869  28.156  1.00  0.00    -0.354 N 
ATOM     66  N   UNL A   1      43.581  29.357  28.638  1.00  0.00    -0.248 NA
ATOM     67  C   UNL A   1      41.833  30.817  29.153  1.00  0.00     0.031 C 
ATOM     68  C   UNL A   1      47.839  30.610  28.234  1.00  0.00     0.029 A 
ATOM     69  C   UNL A   1      46.508  30.239  28.354  1.00  0.00     0.049 A 
ATOM     70  H   UNL A   1      45.649  28.319  28.191  1.00  0.00     0.167 HD
ATOM     71  C   UNL A   1      44.085  30.645  28.744  1.00  0.00     0.074 A 
ATOM     72  C   UNL A   1      42.955  31.509  29.023  1.00  0.00     0.031 C 
ATOM     73  C   UNL A   1      45.366  31.077  28.622  1.00  0.00     0.037 A 
BRANCH  60  74
ATOM     74  C   UNL A   1      49.496  26.601  27.500  1.00  0.00     0.064 A 
ATOM     75  C   UNL A   1      50.043  26.348  26.232  1.00  0.00     0.173 A 
ATOM     76  C   UNL A   1      50.343  26.478  28.612  1.00  0.00     0.173 A 
ATOM     77  F   UNL A   1      49.274  26.435  25.135  1.00  0.00    -0.203 F 
ATOM     78  C   UNL A   1      51.369  25.947  26.086  1.00  0.00     0.198 A 
ATOM     79  C   UNL A   1      51.679  26.112  28.460  1.00  0.00     0.198 A 
ATOM     80  F   UNL A   1      49.876  26.710  29.848  1.00  0.00    -0.203 F 
ATOM     81  F   UNL A   1      51.847  25.648  24.872  1.00  0.00    -0.200 F 
ATOM     82  C   UNL A   1      52.188  25.837  27.200  1.00  0.00     0.200 A 
ATOM     83  F   UNL A   1      52.471  26.018  29.537  1.00  0.00    -0.200 F 
ATOM     84  F   UNL A   1      53.465  25.455  27.060  1.00  0.00    -0.200 F 
ENDBRANCH  60  74
BRANCH  61  85
ATOM     85  C   UNL A   1      39.801  28.704  29.033  1.00  0.00     0.064 A 
ATOM     86  C   UNL A   1      39.210  28.542  30.294  1.00  0.00     0.173 A 
ATOM     87  C   UNL A   1      38.989  29.174  27.991  1.00  0.00     0.173 A 
ATOM     88  F   UNL A   1      39.941  28.084  31.322  1.00  0.00    -0.203 F 
ATOM     89  C   UNL A   1      37.857  28.807  30.498  1.00  0.00     0.198 A 
ATOM     90  C   UNL A   1      37.643  29.470  28.203  1.00  0.00     0.198 A 
ATOM     91  F   UNL A   1      39.505  29.360  26.767  1.00  0.00    -0.203 F 
ATOM     92  F   UNL A   1      37.308  28.591  31.701  1.00  0.00    -0.200 F 
ATOM     93  C   UNL A   1      37.076  29.275  29.453  1.00  0.00     0.200 A 
ATOM     94  F   UNL A   1      36.895  29.940  27.195  1.00  0.00    -0.200 F 
ATOM     95  F   UNL A   1      35.775  29.531  29.648  1.00  0.00    -0.200 F 
ENDBRANCH  61  85
BRANCH  73  96
ATOM     96  C   UNL A   1      45.598  32.555  28.741  1.00  0.00     0.064 A 
ATOM     97  C   UNL A   1      45.511  33.411  27.634  1.00  0.00     0.173 A 
ATOM     98  C   UNL A   1      45.890  33.124  29.991  1.00  0.00     0.173 A 
ATOM     99  F   UNL A   1      45.249  32.915  26.416  1.00  0.00    -0.203 F 
ATOM    100  C   UNL A   1      45.748  34.776  27.767  1.00  0.00     0.198 A 
ATOM    101  C   UNL A   1      46.088  34.494  30.127  1.00  0.00     0.198 A 
ATOM    102  F   UNL A   1      45.975  32.350  31.084  1.00  0.00    -0.203 F 
ATOM    103  F   UNL A   1      45.724  35.566  26.684  1.00  0.00    -0.200 F 
ATOM    104  C   UNL A   1      46.028  35.318  29.013  1.00  0.00     0.200 A 
ATOM    105  F   UNL A   1      46.340  35.016  31.334  1.00  0.00    -0.200 F 
ATOM    106  F   UNL A   1      46.251  36.632  29.139  1.00  0.00    -0.200 F 
ENDBRANCH  73  96
ENDBRANCH  47  48
ENDBRANCH  39  42
ENDBRANCH  37  38
ENDBRANCH  36  37
ENDBRANCH  35  36
ENDBRANCH   1  35
TORSDOF 18
ENDMDL
