MODEL 1
REMARK VINA RESULT:     -12.6      0.000      0.000
REMARK SMILES O=C(NCCCCNC(=O)[C@@H]1[C@H](C(=O)NCc2ccncc2)[C@H]2C=C[C@@H]1O2)c1ccc(-c2c3nc(c(-c4c(F)c(F)c(F)c(F)c4F)c4ccc([nH]4)c(-c4c(F)c(F)c(F)c(F)c4F)c4nc(c(-c5c(F)c(F)c(F)c(F)c5F)c5ccc2[nH]5)C=C4)C=C3)cc1
REMARK SMILES IDX 6 1 5 2 4 3 3 4 1 5 2 6 28 8 29 9 90 10 30 11 89 12 31 13
REMARK SMILES IDX 32 14 33 15 83 16 34 17 88 18 82 19 84 20 35 21 87 22 81 23
REMARK SMILES IDX 80 24 36 26 68 27 48 28 67 29 49 30 52 31 66 32 85 33 50 34
REMARK SMILES IDX 51 35 65 37 86 38 53 39 37 40 38 41 46 42 39 43 40 44 44 45
REMARK SMILES IDX 47 46 41 47 42 48 45 49 43 50 69 51 70 52 78 53 71 54 72 55
REMARK SMILES IDX 76 56 79 57 73 58 74 59 77 60 75 61 54 62 55 63 63 64 56 65
REMARK SMILES IDX 57 66 61 67 64 68 58 69 59 70 62 71 60 72 7 73 8 74 9 75
REMARK SMILES IDX 10 77 11 78 12 79 26 80 23 81 25 82 27 83 24 84 13 85 14 86
REMARK SMILES IDX 15 87 16 89 17 90 18 91 22 92 19 93 21 94 20 95
REMARK H PARENT 3 7 84 25 52 36 8 76 15 88
REMARK Flexibility Score: inf
ROOT
ATOM      1  C   UNL A   1      36.663  19.854  25.000  1.00  0.00     0.023 C 
ENDROOT
BRANCH   1   2
ATOM      2  C   UNL A   1      38.146  19.607  24.703  1.00  0.00     0.023 C 
BRANCH   2   3
ATOM      3  C   UNL A   1      39.099  19.991  25.829  1.00  0.00     0.116 C 
BRANCH   3   4
ATOM      4  N   UNL A   1      40.236  19.091  25.918  1.00  0.00    -0.352 N 
ATOM      5  O   UNL A   1      42.409  18.502  25.942  1.00  0.00    -0.269 OA
ATOM      6  C   UNL A   1      41.569  19.381  26.076  1.00  0.00     0.251 C 
ATOM      7  H   UNL A   1      40.018  18.133  25.856  1.00  0.00     0.163 HD
BRANCH   6   8
ATOM      8  C   UNL A   1      41.989  20.763  26.392  1.00  0.00     0.039 A 
ATOM      9  C   UNL A   1      42.106  21.722  25.383  1.00  0.00     0.014 A 
ATOM     10  C   UNL A   1      42.242  21.109  27.722  1.00  0.00     0.014 A 
ATOM     11  C   UNL A   1      42.593  22.989  25.686  1.00  0.00     0.010 A 
ATOM     12  C   UNL A   1      42.653  22.406  28.036  1.00  0.00     0.010 A 
ATOM     13  C   UNL A   1      42.854  23.351  27.018  1.00  0.00    -0.014 A 
BRANCH  13  14
ATOM     14  C   UNL A   1      43.262  24.744  27.327  1.00  0.00     0.031 A 
ATOM     15  C   UNL A   1      44.655  25.228  27.042  1.00  0.00     0.074 A 
ATOM     16  C   UNL A   1      42.348  25.579  27.856  1.00  0.00     0.049 A 
ATOM     17  N   UNL A   1      45.171  26.415  27.243  1.00  0.00    -0.248 NA
ATOM     18  C   UNL A   1      45.596  24.256  26.467  1.00  0.00     0.031 C 
ATOM     19  C   UNL A   1      40.969  25.212  28.188  1.00  0.00     0.029 A 
ATOM     20  N   UNL A   1      42.430  26.904  28.196  1.00  0.00    -0.354 N 
ATOM     21  C   UNL A   1      46.494  26.330  26.832  1.00  0.00     0.074 A 
ATOM     22  C   UNL A   1      46.713  24.967  26.397  1.00  0.00     0.031 C 
ATOM     23  C   UNL A   1      40.324  26.294  28.646  1.00  0.00     0.029 A 
ATOM     24  C   UNL A   1      41.257  27.414  28.696  1.00  0.00     0.049 A 
ATOM     25  H   UNL A   1      43.251  27.438  28.092  1.00  0.00     0.167 HD
ATOM     26  C   UNL A   1      47.436  27.306  26.814  1.00  0.00     0.037 A 
ATOM     27  C   UNL A   1      40.968  28.643  29.161  1.00  0.00     0.037 A 
ATOM     28  C   UNL A   1      47.205  28.664  27.238  1.00  0.00     0.049 A 
ATOM     29  C   UNL A   1      42.039  29.696  29.152  1.00  0.00     0.074 A 
ATOM     30  C   UNL A   1      48.083  29.734  27.221  1.00  0.00     0.029 A 
ATOM     31  N   UNL A   1      46.011  29.138  27.762  1.00  0.00    -0.354 N 
ATOM     32  N   UNL A   1      43.274  29.613  28.724  1.00  0.00    -0.248 NA
ATOM     33  C   UNL A   1      41.675  31.012  29.691  1.00  0.00     0.031 C 
ATOM     34  C   UNL A   1      47.437  30.842  27.781  1.00  0.00     0.029 A 
ATOM     35  C   UNL A   1      46.138  30.477  28.097  1.00  0.00     0.049 A 
ATOM     36  H   UNL A   1      45.193  28.602  27.879  1.00  0.00     0.167 HD
ATOM     37  C   UNL A   1      43.832  30.867  28.924  1.00  0.00     0.074 A 
ATOM     38  C   UNL A   1      42.790  31.699  29.493  1.00  0.00     0.031 C 
ATOM     39  C   UNL A   1      45.092  31.292  28.662  1.00  0.00     0.037 A 
BRANCH  26  40
ATOM     40  C   UNL A   1      48.810  26.942  26.333  1.00  0.00     0.064 A 
ATOM     41  C   UNL A   1      49.779  26.411  27.196  1.00  0.00     0.173 A 
ATOM     42  C   UNL A   1      49.145  27.075  24.976  1.00  0.00     0.173 A 
ATOM     43  F   UNL A   1      49.514  26.273  28.504  1.00  0.00    -0.203 F 
ATOM     44  C   UNL A   1      51.039  26.047  26.725  1.00  0.00     0.198 A 
ATOM     45  C   UNL A   1      50.396  26.684  24.503  1.00  0.00     0.198 A 
ATOM     46  F   UNL A   1      48.254  27.569  24.104  1.00  0.00    -0.203 F 
ATOM     47  F   UNL A   1      51.961  25.579  27.577  1.00  0.00    -0.200 F 
ATOM     48  C   UNL A   1      51.343  26.176  25.378  1.00  0.00     0.200 A 
ATOM     49  F   UNL A   1      50.683  26.796  23.198  1.00  0.00    -0.200 F 
ATOM     50  F   UNL A   1      52.552  25.815  24.926  1.00  0.00    -0.200 F 
ENDBRANCH  26  40
BRANCH  27  51
ATOM     51  C   UNL A   1      39.605  28.934  29.673  1.00  0.00     0.064 A 
ATOM     52  C   UNL A   1      39.275  28.708  31.016  1.00  0.00     0.173 A 
ATOM     53  C   UNL A   1      38.611  29.460  28.835  1.00  0.00     0.173 A 
ATOM     54  F   UNL A   1      40.187  28.190  31.852  1.00  0.00    -0.203 F 
ATOM     55  C   UNL A   1      37.997  28.982  31.498  1.00  0.00     0.198 A 
ATOM     56  C   UNL A   1      37.343  29.763  29.325  1.00  0.00     0.198 A 
ATOM     57  F   UNL A   1      38.879  29.701  27.543  1.00  0.00    -0.203 F 
ATOM     58  F   UNL A   1      37.695  28.719  32.776  1.00  0.00    -0.200 F 
ATOM     59  C   UNL A   1      37.035  29.517  30.654  1.00  0.00     0.200 A 
ATOM     60  F   UNL A   1      36.423  30.297  28.510  1.00  0.00    -0.200 F 
ATOM     61  F   UNL A   1      35.809  29.789  31.120  1.00  0.00    -0.200 F 
ENDBRANCH  27  51
BRANCH  39  62
ATOM     62  C   UNL A   1      45.404  32.728  28.964  1.00  0.00     0.064 A 
ATOM     63  C   UNL A   1      45.173  33.744  28.025  1.00  0.00     0.173 A 
ATOM     64  C   UNL A   1      45.918  33.094  30.217  1.00  0.00     0.173 A 
ATOM     65  F   UNL A   1      44.699  33.442  26.807  1.00  0.00    -0.203 F 
ATOM     66  C   UNL A   1      45.469  35.072  28.321  1.00  0.00     0.198 A 
ATOM     67  C   UNL A   1      46.185  34.426  30.520  1.00  0.00     0.198 A 
ATOM     68  F   UNL A   1      46.154  32.160  31.151  1.00  0.00    -0.203 F 
ATOM     69  F   UNL A   1      45.287  36.020  27.392  1.00  0.00    -0.200 F 
ATOM     70  C   UNL A   1      45.968  35.412  29.569  1.00  0.00     0.200 A 
ATOM     71  F   UNL A   1      46.656  34.754  31.731  1.00  0.00    -0.200 F 
ATOM     72  F   UNL A   1      46.250  36.691  29.854  1.00  0.00    -0.200 F 
ENDBRANCH  39  62
ENDBRANCH  13  14
ENDBRANCH   6   8
ENDBRANCH   3   4
ENDBRANCH   2   3
ENDBRANCH   1   2
BRANCH   1  73
ATOM     73  C   UNL A   1      36.339  21.254  25.529  1.00  0.00     0.116 C 
BRANCH  73  74
ATOM     74  N   UNL A   1      36.621  22.253  24.519  1.00  0.00    -0.356 N 
ATOM     75  C   UNL A   1      35.714  23.099  23.961  1.00  0.00     0.227 C 
ATOM     76  H   UNL A   1      37.552  22.327  24.210  1.00  0.00     0.163 HD
ATOM     77  O   UNL A   1      35.734  23.201  22.736  1.00  0.00    -0.275 OA
BRANCH  75  78
ATOM     78  C   UNL A   1      34.650  23.744  24.813  1.00  0.00     0.127 C 
ATOM     79  C   UNL A   1      33.227  23.130  24.683  1.00  0.00     0.127 C 
ATOM     80  C   UNL A   1      34.350  25.235  24.542  1.00  0.00     0.155 C 
ATOM     81  C   UNL A   1      32.349  24.378  24.529  1.00  0.00     0.155 C 
ATOM     82  C   UNL A   1      33.660  25.796  25.752  1.00  0.00     0.004 C 
ATOM     83  O   UNL A   1      33.193  25.181  23.669  1.00  0.00    -0.365 OA
ATOM     84  C   UNL A   1      32.435  25.248  25.759  1.00  0.00     0.004 C 
BRANCH  79  85
ATOM     85  C   UNL A   1      32.935  22.055  23.629  1.00  0.00     0.227 C 
ATOM     86  O   UNL A   1      32.869  22.408  22.443  1.00  0.00    -0.275 OA
ATOM     87  N   UNL A   1      32.758  20.727  23.862  1.00  0.00    -0.352 N 
ATOM     88  H   UNL A   1      32.429  20.227  23.082  1.00  0.00     0.163 HD
BRANCH  87  89
ATOM     89  C   UNL A   1      32.963  19.909  25.038  1.00  0.00     0.151 C 
BRANCH  89  90
ATOM     90  C   UNL A   1      33.051  18.424  24.781  1.00  0.00    -0.026 A 
ATOM     91  C   UNL A   1      32.674  17.492  25.751  1.00  0.00     0.025 A 
ATOM     92  C   UNL A   1      33.699  17.944  23.638  1.00  0.00     0.025 A 
ATOM     93  C   UNL A   1      33.003  16.157  25.575  1.00  0.00     0.111 A 
ATOM     94  C   UNL A   1      33.968  16.586  23.541  1.00  0.00     0.111 A 
ATOM     95  N   UNL A   1      33.653  15.685  24.495  1.00  0.00    -0.265 NA
ENDBRANCH  89  90
ENDBRANCH  87  89
ENDBRANCH  79  85
ENDBRANCH  75  78
ENDBRANCH  73  74
ENDBRANCH   1  73
TORSDOF 14
ENDMDL
MODEL 2
REMARK VINA RESULT:     -12.6      0.063      1.585
REMARK SMILES O=C(NCCCCNC(=O)[C@@H]1[C@H](C(=O)NCc2ccncc2)[C@H]2C=C[C@@H]1O2)c1ccc(-c2c3nc(c(-c4c(F)c(F)c(F)c(F)c4F)c4ccc([nH]4)c(-c4c(F)c(F)c(F)c(F)c4F)c4nc(c(-c5c(F)c(F)c(F)c(F)c5F)c5ccc2[nH]5)C=C4)C=C3)cc1
REMARK SMILES IDX 6 1 5 2 4 3 3 4 1 5 2 6 28 8 29 9 90 10 30 11 89 12 31 13
REMARK SMILES IDX 32 14 33 15 83 16 34 17 88 18 82 19 84 20 35 21 87 22 81 23
REMARK SMILES IDX 80 24 36 26 68 27 48 28 67 29 49 30 52 31 66 32 85 33 50 34
REMARK SMILES IDX 51 35 65 37 86 38 53 39 37 40 38 41 46 42 39 43 40 44 44 45
REMARK SMILES IDX 47 46 41 47 42 48 45 49 43 50 69 51 70 52 78 53 71 54 72 55
REMARK SMILES IDX 76 56 79 57 73 58 74 59 77 60 75 61 54 62 55 63 63 64 56 65
REMARK SMILES IDX 57 66 61 67 64 68 58 69 59 70 62 71 60 72 7 73 8 74 9 75
REMARK SMILES IDX 10 77 11 78 12 79 26 80 23 81 25 82 27 83 24 84 13 85 14 86
REMARK SMILES IDX 15 87 16 89 17 90 18 91 22 92 19 93 21 94 20 95
REMARK H PARENT 3 7 84 25 52 36 8 76 15 88
REMARK Flexibility Score: inf
ROOT
ATOM      1  C   UNL A   1      36.658  19.771  24.977  1.00  0.00     0.023 C 
ENDROOT
BRANCH   1   2
ATOM      2  C   UNL A   1      38.159  19.677  24.683  1.00  0.00     0.023 C 
BRANCH   2   3
ATOM      3  C   UNL A   1      39.066  19.990  25.867  1.00  0.00     0.116 C 
BRANCH   3   4
ATOM      4  N   UNL A   1      40.206  19.092  25.939  1.00  0.00    -0.352 N 
ATOM      5  O   UNL A   1      42.380  18.508  25.933  1.00  0.00    -0.269 OA
ATOM      6  C   UNL A   1      41.541  19.385  26.080  1.00  0.00     0.251 C 
ATOM      7  H   UNL A   1      39.990  18.134  25.877  1.00  0.00     0.163 HD
BRANCH   6   8
ATOM      8  C   UNL A   1      41.962  20.767  26.394  1.00  0.00     0.039 A 
ATOM      9  C   UNL A   1      42.147  21.706  25.377  1.00  0.00     0.014 A 
ATOM     10  C   UNL A   1      42.146  21.134  27.730  1.00  0.00     0.014 A 
ATOM     11  C   UNL A   1      42.633  22.971  25.683  1.00  0.00     0.010 A 
ATOM     12  C   UNL A   1      42.558  22.431  28.044  1.00  0.00     0.010 A 
ATOM     13  C   UNL A   1      42.827  23.354  27.021  1.00  0.00    -0.014 A 
BRANCH  13  14
ATOM     14  C   UNL A   1      43.237  24.747  27.328  1.00  0.00     0.031 A 
ATOM     15  C   UNL A   1      44.631  25.228  27.048  1.00  0.00     0.074 A 
ATOM     16  C   UNL A   1      42.322  25.586  27.850  1.00  0.00     0.049 A 
ATOM     17  N   UNL A   1      45.150  26.414  27.247  1.00  0.00    -0.248 NA
ATOM     18  C   UNL A   1      45.573  24.251  26.480  1.00  0.00     0.031 C 
ATOM     19  C   UNL A   1      40.941  25.223  28.177  1.00  0.00     0.029 A 
ATOM     20  N   UNL A   1      42.406  26.912  28.186  1.00  0.00    -0.354 N 
ATOM     21  C   UNL A   1      46.474  26.325  26.842  1.00  0.00     0.074 A 
ATOM     22  C   UNL A   1      46.692  24.960  26.412  1.00  0.00     0.031 C 
ATOM     23  C   UNL A   1      40.296  26.308  28.629  1.00  0.00     0.029 A 
ATOM     24  C   UNL A   1      41.232  27.426  28.679  1.00  0.00     0.049 A 
ATOM     25  H   UNL A   1      43.228  27.444  28.084  1.00  0.00     0.167 HD
ATOM     26  C   UNL A   1      47.418  27.299  26.825  1.00  0.00     0.037 A 
ATOM     27  C   UNL A   1      40.943  28.657  29.139  1.00  0.00     0.037 A 
ATOM     28  C   UNL A   1      47.189  28.659  27.244  1.00  0.00     0.049 A 
ATOM     29  C   UNL A   1      42.016  29.708  29.132  1.00  0.00     0.074 A 
ATOM     30  C   UNL A   1      48.069  29.727  27.228  1.00  0.00     0.029 A 
ATOM     31  N   UNL A   1      45.992  29.137  27.761  1.00  0.00    -0.354 N 
ATOM     32  N   UNL A   1      43.253  29.621  28.710  1.00  0.00    -0.248 NA
ATOM     33  C   UNL A   1      41.652  31.026  29.665  1.00  0.00     0.031 C 
ATOM     34  C   UNL A   1      47.423  30.838  27.781  1.00  0.00     0.029 A 
ATOM     35  C   UNL A   1      46.121  30.477  28.092  1.00  0.00     0.049 A 
ATOM     36  H   UNL A   1      45.173  28.603  27.876  1.00  0.00     0.167 HD
ATOM     37  C   UNL A   1      43.812  30.875  28.908  1.00  0.00     0.074 A 
ATOM     38  C   UNL A   1      42.770  31.710  29.470  1.00  0.00     0.031 C 
ATOM     39  C   UNL A   1      45.074  31.296  28.650  1.00  0.00     0.037 A 
BRANCH  26  40
ATOM     40  C   UNL A   1      48.794  26.931  26.351  1.00  0.00     0.064 A 
ATOM     41  C   UNL A   1      49.755  26.395  27.219  1.00  0.00     0.173 A 
ATOM     42  C   UNL A   1      49.137  27.064  24.996  1.00  0.00     0.173 A 
ATOM     43  F   UNL A   1      49.483  26.256  28.525  1.00  0.00    -0.203 F 
ATOM     44  C   UNL A   1      51.017  26.026  26.755  1.00  0.00     0.198 A 
ATOM     45  C   UNL A   1      50.389  26.669  24.530  1.00  0.00     0.198 A 
ATOM     46  F   UNL A   1      48.253  27.564  24.120  1.00  0.00    -0.203 F 
ATOM     47  F   UNL A   1      51.932  25.553  27.611  1.00  0.00    -0.200 F 
ATOM     48  C   UNL A   1      51.329  26.156  25.409  1.00  0.00     0.200 A 
ATOM     49  F   UNL A   1      50.684  26.783  23.227  1.00  0.00    -0.200 F 
ATOM     50  F   UNL A   1      52.539  25.792  24.963  1.00  0.00    -0.200 F 
ENDBRANCH  26  40
BRANCH  27  51
ATOM     51  C   UNL A   1      39.578  28.953  29.645  1.00  0.00     0.064 A 
ATOM     52  C   UNL A   1      38.587  29.459  28.794  1.00  0.00     0.173 A 
ATOM     53  C   UNL A   1      39.234  28.719  30.985  1.00  0.00     0.173 A 
ATOM     54  F   UNL A   1      38.873  29.716  27.510  1.00  0.00    -0.203 F 
ATOM     55  C   UNL A   1      37.306  29.736  29.269  1.00  0.00     0.198 A 
ATOM     56  C   UNL A   1      37.945  28.966  31.450  1.00  0.00     0.198 A 
ATOM     57  F   UNL A   1      40.145  28.228  31.837  1.00  0.00    -0.203 F 
ATOM     58  F   UNL A   1      36.388  30.258  28.444  1.00  0.00    -0.200 F 
ATOM     59  C   UNL A   1      36.984  29.481  30.593  1.00  0.00     0.200 A 
ATOM     60  F   UNL A   1      37.634  28.701  32.726  1.00  0.00    -0.200 F 
ATOM     61  F   UNL A   1      35.750  29.738  31.046  1.00  0.00    -0.200 F 
ENDBRANCH  27  51
BRANCH  39  62
ATOM     62  C   UNL A   1      45.389  32.732  28.949  1.00  0.00     0.064 A 
ATOM     63  C   UNL A   1      45.932  33.125  30.180  1.00  0.00     0.173 A 
ATOM     64  C   UNL A   1      45.166  33.723  27.981  1.00  0.00     0.173 A 
ATOM     65  F   UNL A   1      46.146  32.218  31.144  1.00  0.00    -0.203 F 
ATOM     66  C   UNL A   1      46.218  34.463  30.441  1.00  0.00     0.198 A 
ATOM     67  C   UNL A   1      45.480  35.055  28.234  1.00  0.00     0.198 A 
ATOM     68  F   UNL A   1      44.651  33.397  26.785  1.00  0.00    -0.203 F 
ATOM     69  F   UNL A   1      46.688  34.824  31.642  1.00  0.00    -0.200 F 
ATOM     70  C   UNL A   1      45.998  35.425  29.467  1.00  0.00     0.200 A 
ATOM     71  F   UNL A   1      45.278  35.981  27.287  1.00  0.00    -0.200 F 
ATOM     72  F   UNL A   1      46.276  36.711  29.717  1.00  0.00    -0.200 F 
ENDBRANCH  39  62
ENDBRANCH  13  14
ENDBRANCH   6   8
ENDBRANCH   3   4
ENDBRANCH   2   3
ENDBRANCH   1   2
BRANCH   1  73
ATOM     73  C   UNL A   1      36.185  21.141  25.469  1.00  0.00     0.116 C 
BRANCH  73  74
ATOM     74  N   UNL A   1      36.536  22.170  24.512  1.00  0.00    -0.356 N 
ATOM     75  C   UNL A   1      35.679  23.075  23.967  1.00  0.00     0.227 C 
ATOM     76  H   UNL A   1      37.478  22.219  24.232  1.00  0.00     0.163 HD
ATOM     77  O   UNL A   1      35.739  23.228  22.748  1.00  0.00    -0.275 OA
BRANCH  75  78
ATOM     78  C   UNL A   1      34.617  23.726  24.816  1.00  0.00     0.127 C 
ATOM     79  C   UNL A   1      33.191  23.118  24.685  1.00  0.00     0.127 C 
ATOM     80  C   UNL A   1      34.324  25.217  24.543  1.00  0.00     0.155 C 
ATOM     81  C   UNL A   1      32.319  24.368  24.528  1.00  0.00     0.155 C 
ATOM     82  C   UNL A   1      33.634  25.783  25.750  1.00  0.00     0.004 C 
ATOM     83  O   UNL A   1      33.167  25.167  23.668  1.00  0.00    -0.365 OA
ATOM     84  C   UNL A   1      32.406  25.240  25.756  1.00  0.00     0.004 C 
BRANCH  79  85
ATOM     85  C   UNL A   1      32.897  22.042  23.632  1.00  0.00     0.227 C 
ATOM     86  O   UNL A   1      32.854  22.390  22.444  1.00  0.00    -0.275 OA
ATOM     87  N   UNL A   1      32.694  20.719  23.869  1.00  0.00    -0.352 N 
ATOM     88  H   UNL A   1      32.368  20.220  23.086  1.00  0.00     0.163 HD
BRANCH  87  89
ATOM     89  C   UNL A   1      32.868  19.904  25.051  1.00  0.00     0.151 C 
BRANCH  89  90
ATOM     90  C   UNL A   1      32.969  18.418  24.800  1.00  0.00    -0.026 A 
ATOM     91  C   UNL A   1      32.543  17.486  25.750  1.00  0.00     0.025 A 
ATOM     92  C   UNL A   1      33.673  17.938  23.691  1.00  0.00     0.025 A 
ATOM     93  C   UNL A   1      32.880  16.152  25.592  1.00  0.00     0.111 A 
ATOM     94  C   UNL A   1      33.947  16.579  23.609  1.00  0.00     0.111 A 
ATOM     95  N   UNL A   1      33.584  15.678  24.545  1.00  0.00    -0.265 NA
ENDBRANCH  89  90
ENDBRANCH  87  89
ENDBRANCH  79  85
ENDBRANCH  75  78
ENDBRANCH  73  74
ENDBRANCH   1  73
TORSDOF 14
ENDMDL
MODEL 3
REMARK VINA RESULT:     -12.5      0.395      7.368
REMARK SMILES O=C(NCCCCNC(=O)[C@@H]1[C@H](C(=O)NCc2ccncc2)[C@H]2C=C[C@@H]1O2)c1ccc(-c2c3nc(c(-c4c(F)c(F)c(F)c(F)c4F)c4ccc([nH]4)c(-c4c(F)c(F)c(F)c(F)c4F)c4nc(c(-c5c(F)c(F)c(F)c(F)c5F)c5ccc2[nH]5)C=C4)C=C3)cc1
REMARK SMILES IDX 6 1 5 2 4 3 3 4 1 5 2 6 28 8 29 9 90 10 30 11 89 12 31 13
REMARK SMILES IDX 32 14 33 15 83 16 34 17 88 18 82 19 84 20 35 21 87 22 81 23
REMARK SMILES IDX 80 24 36 26 68 27 48 28 67 29 49 30 52 31 66 32 85 33 50 34
REMARK SMILES IDX 51 35 65 37 86 38 53 39 37 40 38 41 46 42 39 43 40 44 44 45
REMARK SMILES IDX 47 46 41 47 42 48 45 49 43 50 69 51 70 52 78 53 71 54 72 55
REMARK SMILES IDX 76 56 79 57 73 58 74 59 77 60 75 61 54 62 55 63 63 64 56 65
REMARK SMILES IDX 57 66 61 67 64 68 58 69 59 70 62 71 60 72 7 73 8 74 9 75
REMARK SMILES IDX 10 77 11 78 12 79 26 80 23 81 25 82 27 83 24 84 13 85 14 86
REMARK SMILES IDX 15 87 16 89 17 90 18 91 22 92 19 93 21 94 20 95
REMARK H PARENT 3 7 84 25 52 36 8 76 15 88
REMARK Flexibility Score: inf
ROOT
ATOM      1  C   UNL A   1      36.606  20.219  24.966  1.00  0.00     0.023 C 
ENDROOT
BRANCH   1   2
ATOM      2  C   UNL A   1      37.929  19.450  24.891  1.00  0.00     0.023 C 
BRANCH   2   3
ATOM      3  C   UNL A   1      39.061  20.038  25.725  1.00  0.00     0.116 C 
BRANCH   3   4
ATOM      4  N   UNL A   1      40.158  19.101  25.902  1.00  0.00    -0.352 N 
ATOM      5  O   UNL A   1      42.303  18.436  26.058  1.00  0.00    -0.269 OA
ATOM      6  C   UNL A   1      41.491  19.348  26.119  1.00  0.00     0.251 C 
ATOM      7  H   UNL A   1      39.907  18.150  25.860  1.00  0.00     0.163 HD
BRANCH   6   8
ATOM      8  C   UNL A   1      41.946  20.725  26.412  1.00  0.00     0.039 A 
ATOM      9  C   UNL A   1      42.051  21.674  25.392  1.00  0.00     0.014 A 
ATOM     10  C   UNL A   1      42.245  21.076  27.731  1.00  0.00     0.014 A 
ATOM     11  C   UNL A   1      42.570  22.933  25.670  1.00  0.00     0.010 A 
ATOM     12  C   UNL A   1      42.690  22.367  28.023  1.00  0.00     0.010 A 
ATOM     13  C   UNL A   1      42.877  23.300  26.991  1.00  0.00    -0.014 A 
BRANCH  13  14
ATOM     14  C   UNL A   1      43.321  24.687  27.277  1.00  0.00     0.031 A 
ATOM     15  C   UNL A   1      42.386  25.695  27.881  1.00  0.00     0.074 A 
ATOM     16  C   UNL A   1      44.595  25.024  26.999  1.00  0.00     0.049 A 
ATOM     17  N   UNL A   1      42.616  26.944  28.201  1.00  0.00    -0.248 NA
ATOM     18  C   UNL A   1      41.011  25.251  28.153  1.00  0.00     0.031 C 
ATOM     19  C   UNL A   1      45.587  24.130  26.397  1.00  0.00     0.029 A 
ATOM     20  N   UNL A   1      45.278  26.196  27.194  1.00  0.00    -0.354 N 
ATOM     21  C   UNL A   1      41.418  27.437  28.699  1.00  0.00     0.074 A 
ATOM     22  C   UNL A   1      40.453  26.363  28.613  1.00  0.00     0.031 C 
ATOM     23  C   UNL A   1      46.761  24.772  26.309  1.00  0.00     0.029 A 
ATOM     24  C   UNL A   1      46.590  26.138  26.791  1.00  0.00     0.049 A 
ATOM     25  H   UNL A   1      44.868  27.002  27.584  1.00  0.00     0.167 HD
ATOM     26  C   UNL A   1      41.155  28.673  29.191  1.00  0.00     0.037 A 
ATOM     27  C   UNL A   1      47.546  27.085  26.791  1.00  0.00     0.037 A 
ATOM     28  C   UNL A   1      42.127  29.734  29.285  1.00  0.00     0.049 A 
ATOM     29  C   UNL A   1      47.217  28.452  27.318  1.00  0.00     0.074 A 
ATOM     30  C   UNL A   1      41.967  31.007  29.803  1.00  0.00     0.029 A 
ATOM     31  N   UNL A   1      43.440  29.645  28.843  1.00  0.00    -0.354 N 
ATOM     32  N   UNL A   1      46.091  28.894  27.822  1.00  0.00    -0.248 NA
ATOM     33  C   UNL A   1      48.291  29.452  27.274  1.00  0.00     0.031 C 
ATOM     34  C   UNL A   1      43.167  31.706  29.630  1.00  0.00     0.029 A 
ATOM     35  C   UNL A   1      44.093  30.850  29.054  1.00  0.00     0.049 A 
ATOM     36  H   UNL A   1      43.848  28.845  28.441  1.00  0.00     0.167 HD
ATOM     37  C   UNL A   1      46.324  30.215  28.174  1.00  0.00     0.074 A 
ATOM     38  C   UNL A   1      47.706  30.496  27.843  1.00  0.00     0.031 C 
ATOM     39  C   UNL A   1      45.470  31.115  28.719  1.00  0.00     0.037 A 
BRANCH  26  40
ATOM     40  C   UNL A   1      39.756  28.957  29.655  1.00  0.00     0.064 A 
ATOM     41  C   UNL A   1      38.770  29.436  28.780  1.00  0.00     0.173 A 
ATOM     42  C   UNL A   1      39.382  28.695  30.983  1.00  0.00     0.173 A 
ATOM     43  F   UNL A   1      39.077  29.713  27.504  1.00  0.00    -0.203 F 
ATOM     44  C   UNL A   1      37.468  29.661  29.221  1.00  0.00     0.198 A 
ATOM     45  C   UNL A   1      38.072  28.895  31.413  1.00  0.00     0.198 A 
ATOM     46  F   UNL A   1      40.282  28.229  31.860  1.00  0.00    -0.203 F 
ATOM     47  F   UNL A   1      36.552  30.156  28.376  1.00  0.00    -0.200 F 
ATOM     48  C   UNL A   1      37.118  29.383  30.534  1.00  0.00     0.200 A 
ATOM     49  F   UNL A   1      37.733  28.612  32.679  1.00  0.00    -0.200 F 
ATOM     50  F   UNL A   1      35.862  29.591  30.952  1.00  0.00    -0.200 F 
ENDBRANCH  26  40
BRANCH  27  51
ATOM     51  C   UNL A   1      48.900  26.764  26.272  1.00  0.00     0.064 A 
ATOM     52  C   UNL A   1      49.875  26.194  27.102  1.00  0.00     0.173 A 
ATOM     53  C   UNL A   1      49.240  27.005  24.932  1.00  0.00     0.173 A 
ATOM     54  F   UNL A   1      49.603  25.963  28.393  1.00  0.00    -0.203 F 
ATOM     55  C   UNL A   1      51.145  25.892  26.614  1.00  0.00     0.198 A 
ATOM     56  C   UNL A   1      50.499  26.673  24.439  1.00  0.00     0.198 A 
ATOM     57  F   UNL A   1      48.339  27.541  24.096  1.00  0.00    -0.203 F 
ATOM     58  F   UNL A   1      52.073  25.386  27.438  1.00  0.00    -0.200 F 
ATOM     59  C   UNL A   1      51.453  26.124  25.282  1.00  0.00     0.200 A 
ATOM     60  F   UNL A   1      50.785  26.882  23.147  1.00  0.00    -0.200 F 
ATOM     61  F   UNL A   1      52.671  25.825  24.812  1.00  0.00    -0.200 F 
ENDBRANCH  27  51
BRANCH  39  62
ATOM     62  C   UNL A   1      46.016  32.480  29.017  1.00  0.00     0.064 A 
ATOM     63  C   UNL A   1      46.638  32.772  30.239  1.00  0.00     0.173 A 
ATOM     64  C   UNL A   1      45.937  33.501  28.057  1.00  0.00     0.173 A 
ATOM     65  F   UNL A   1      46.722  31.836  31.195  1.00  0.00    -0.203 F 
ATOM     66  C   UNL A   1      47.140  34.045  30.500  1.00  0.00     0.198 A 
ATOM     67  C   UNL A   1      46.465  34.763  28.309  1.00  0.00     0.198 A 
ATOM     68  F   UNL A   1      45.354  33.270  26.871  1.00  0.00    -0.203 F 
ATOM     69  F   UNL A   1      47.685  34.317  31.692  1.00  0.00    -0.200 F 
ATOM     70  C   UNL A   1      47.059  35.036  29.533  1.00  0.00     0.200 A 
ATOM     71  F   UNL A   1      46.397  35.716  27.370  1.00  0.00    -0.200 F 
ATOM     72  F   UNL A   1      47.545  36.260  29.784  1.00  0.00    -0.200 F 
ENDBRANCH  39  62
ENDBRANCH  13  14
ENDBRANCH   6   8
ENDBRANCH   3   4
ENDBRANCH   2   3
ENDBRANCH   1   2
BRANCH   1  73
ATOM     73  C   UNL A   1      36.723  21.648  25.501  1.00  0.00     0.116 C 
BRANCH  73  74
ATOM     74  N   UNL A   1      36.785  22.594  24.407  1.00  0.00    -0.356 N 
ATOM     75  C   UNL A   1      35.730  23.274  23.882  1.00  0.00     0.227 C 
ATOM     76  H   UNL A   1      37.669  22.760  24.008  1.00  0.00     0.163 HD
ATOM     77  O   UNL A   1      35.634  23.284  22.656  1.00  0.00    -0.275 OA
BRANCH  75  78
ATOM     78  C   UNL A   1      34.667  23.844  24.785  1.00  0.00     0.127 C 
ATOM     79  C   UNL A   1      33.281  23.141  24.712  1.00  0.00     0.127 C 
ATOM     80  C   UNL A   1      34.260  25.314  24.541  1.00  0.00     0.155 C 
ATOM     81  C   UNL A   1      32.319  24.330  24.609  1.00  0.00     0.155 C 
ATOM     82  C   UNL A   1      33.590  25.822  25.785  1.00  0.00     0.004 C 
ATOM     83  O   UNL A   1      33.071  25.191  23.720  1.00  0.00    -0.365 OA
ATOM     84  C   UNL A   1      32.403  25.196  25.841  1.00  0.00     0.004 C 
BRANCH  79  85
ATOM     85  C   UNL A   1      33.012  22.056  23.663  1.00  0.00     0.227 C 
ATOM     86  O   UNL A   1      32.899  22.407  22.480  1.00  0.00    -0.275 OA
ATOM     87  N   UNL A   1      32.904  20.720  23.897  1.00  0.00    -0.352 N 
ATOM     88  H   UNL A   1      32.578  20.206  23.123  1.00  0.00     0.163 HD
BRANCH  87  89
ATOM     89  C   UNL A   1      33.176  19.910  25.064  1.00  0.00     0.151 C 
BRANCH  89  90
ATOM     90  C   UNL A   1      33.156  18.419  24.831  1.00  0.00    -0.026 A 
ATOM     91  C   UNL A   1      32.617  17.540  25.774  1.00  0.00     0.025 A 
ATOM     92  C   UNL A   1      33.855  17.865  23.754  1.00  0.00     0.025 A 
ATOM     93  C   UNL A   1      32.843  16.179  25.641  1.00  0.00     0.111 A 
ATOM     94  C   UNL A   1      34.012  16.487  23.694  1.00  0.00     0.111 A 
ATOM     95  N   UNL A   1      33.539  15.633  24.626  1.00  0.00    -0.265 NA
ENDBRANCH  89  90
ENDBRANCH  87  89
ENDBRANCH  79  85
ENDBRANCH  75  78
ENDBRANCH  73  74
ENDBRANCH   1  73
TORSDOF 14
ENDMDL
