MODEL 1
REMARK VINA RESULT:     -12.0      0.000      0.000
REMARK SMILES CCC[C@]1(C(=O)NCCCCNC(=O)c2ccc(-c3c4nc(c(-c5c(F)c(F)c(F)c(F)c5F)c5ccc([nH]5)c(-c5c(F)c(F)c(F)c(F)c5F)c5nc(c(-c6c(F)c(F)c(F)c(F)c6F)c6ccc3[nH]6)C=C5)C=C4)cc2)CCN(c2cncc(C(=O)OC)n2)C1
REMARK SMILES IDX 9 1 8 2 7 3 5 4 6 5 4 7 78 8 91 9 79 10 80 11 3 12 2 13 1 14
REMARK SMILES IDX 81 15 82 16 90 17 83 18 85 19 84 20 86 21 87 22 88 23 89 24
REMARK SMILES IDX 10 25 11 26 12 27 13 28 14 30 15 31 16 32 77 33 17 34 76 35
REMARK SMILES IDX 18 36 19 37 20 38 70 39 21 40 75 41 69 42 71 43 22 44 74 45
REMARK SMILES IDX 68 46 67 47 23 49 55 50 35 51 54 52 36 53 39 54 53 55 72 56
REMARK SMILES IDX 37 57 38 58 52 60 73 61 40 62 24 63 25 64 33 65 26 66 27 67
REMARK SMILES IDX 31 68 34 69 28 70 29 71 32 72 30 73 56 74 57 75 65 76 58 77
REMARK SMILES IDX 59 78 63 79 66 80 60 81 61 82 64 83 62 84 41 85 42 86 50 87
REMARK SMILES IDX 43 88 44 89 48 90 51 91 45 92 46 93 49 94 47 95
REMARK H PARENT 7 6 12 29 71 48 39 59
REMARK Flexibility Score: inf
ROOT
ATOM      1  C   UNL A   1      31.333  31.166  25.778  1.00  0.00     0.023 C 
ENDROOT
BRANCH   1   2
ATOM      2  C   UNL A   1      32.221  29.930  25.806  1.00  0.00     0.116 C 
BRANCH   2   3
ATOM      3  N   UNL A   1      32.905  29.713  24.544  1.00  0.00    -0.356 N 
ATOM      4  C   UNL A   1      32.627  28.894  23.491  1.00  0.00     0.228 C 
ATOM      5  O   UNL A   1      33.416  28.963  22.542  1.00  0.00    -0.274 OA
ATOM      6  H   UNL A   1      33.719  30.256  24.428  1.00  0.00     0.163 HD
BRANCH   4   7
ATOM      7  C   UNL A   1      31.427  27.919  23.479  1.00  0.00     0.068 C 
ATOM      8  C   UNL A   1      31.553  26.952  22.279  1.00  0.00     0.040 C 
ATOM      9  C   UNL A   1      31.456  27.033  24.741  1.00  0.00     0.135 C 
ATOM     10  C   UNL A   1      31.155  25.581  22.805  1.00  0.00     0.119 C 
ATOM     11  N   UNL A   1      31.361  25.675  24.233  1.00  0.00    -0.354 N 
BRANCH   7  12
ATOM     12  C   UNL A   1      30.117  28.757  23.354  1.00  0.00     0.018 C 
BRANCH  12  13
ATOM     13  C   UNL A   1      29.892  29.633  22.112  1.00  0.00    -0.002 C 
ATOM     14  C   UNL A   1      29.110  30.915  22.365  1.00  0.00     0.004 C 
ENDBRANCH  12  13
ENDBRANCH   7  12
BRANCH  11  15
ATOM     15  C   UNL A   1      31.506  24.584  25.045  1.00  0.00     0.148 A 
ATOM     16  C   UNL A   1      31.250  24.674  26.421  1.00  0.00     0.157 A 
ATOM     17  N   UNL A   1      31.874  23.402  24.507  1.00  0.00    -0.221 NA
ATOM     18  N   UNL A   1      31.346  23.643  27.293  1.00  0.00    -0.258 NA
ATOM     19  C   UNL A   1      32.031  22.364  25.382  1.00  0.00     0.169 A 
ATOM     20  C   UNL A   1      31.755  22.482  26.737  1.00  0.00     0.147 A 
BRANCH  19  21
ATOM     21  C   UNL A   1      32.573  21.065  24.909  1.00  0.00     0.358 C 
ATOM     22  O   UNL A   1      31.991  20.004  25.071  1.00  0.00    -0.244 OA
BRANCH  21  23
ATOM     23  O   UNL A   1      33.793  21.214  24.329  1.00  0.00    -0.464 OA
ATOM     24  C   UNL A   1      34.825  20.466  24.974  1.00  0.00     0.282 C 
ENDBRANCH  21  23
ENDBRANCH  19  21
ENDBRANCH  11  15
ENDBRANCH   4   7
ENDBRANCH   2   3
ENDBRANCH   1   2
BRANCH   1  25
ATOM     25  C   UNL A   1      31.391  32.018  27.043  1.00  0.00     0.023 C 
BRANCH  25  26
ATOM     26  C   UNL A   1      32.667  32.831  27.213  1.00  0.00     0.116 C 
BRANCH  26  27
ATOM     27  N   UNL A   1      32.415  34.211  27.606  1.00  0.00    -0.352 N 
ATOM     28  C   UNL A   1      33.020  34.957  28.587  1.00  0.00     0.251 C 
ATOM     29  H   UNL A   1      31.710  34.673  27.097  1.00  0.00     0.163 HD
ATOM     30  O   UNL A   1      32.580  36.060  28.889  1.00  0.00    -0.269 OA
BRANCH  28  31
ATOM     31  C   UNL A   1      34.189  34.405  29.302  1.00  0.00     0.039 A 
ATOM     32  C   UNL A   1      33.977  33.633  30.445  1.00  0.00     0.014 A 
ATOM     33  C   UNL A   1      35.485  34.623  28.825  1.00  0.00     0.014 A 
ATOM     34  C   UNL A   1      35.064  33.018  31.069  1.00  0.00     0.010 A 
ATOM     35  C   UNL A   1      36.551  33.935  29.392  1.00  0.00     0.010 A 
ATOM     36  C   UNL A   1      36.353  33.130  30.522  1.00  0.00    -0.014 A 
BRANCH  36  37
ATOM     37  C   UNL A   1      37.502  32.405  31.122  1.00  0.00     0.031 A 
ATOM     38  C   UNL A   1      37.999  32.776  32.491  1.00  0.00     0.074 A 
ATOM     39  C   UNL A   1      38.128  31.448  30.411  1.00  0.00     0.049 A 
ATOM     40  N   UNL A   1      39.006  32.283  33.169  1.00  0.00    -0.248 NA
ATOM     41  C   UNL A   1      37.289  33.864  33.183  1.00  0.00     0.031 C 
ATOM     42  C   UNL A   1      37.774  31.035  29.051  1.00  0.00     0.029 A 
ATOM     43  N   UNL A   1      39.198  30.648  30.731  1.00  0.00    -0.354 N 
ATOM     44  C   UNL A   1      39.051  33.003  34.354  1.00  0.00     0.074 A 
ATOM     45  C   UNL A   1      38.016  34.010  34.279  1.00  0.00     0.031 C 
ATOM     46  C   UNL A   1      38.586  30.037  28.669  1.00  0.00     0.029 A 
ATOM     47  C   UNL A   1      39.545  29.768  29.736  1.00  0.00     0.049 A 
ATOM     48  H   UNL A   1      39.670  30.701  31.593  1.00  0.00     0.167 HD
ATOM     49  C   UNL A   1      39.863  32.821  35.424  1.00  0.00     0.037 A 
ATOM     50  C   UNL A   1      40.529  28.850  29.688  1.00  0.00     0.037 A 
ATOM     51  C   UNL A   1      40.882  31.807  35.499  1.00  0.00     0.049 A 
ATOM     52  C   UNL A   1      41.431  28.682  30.882  1.00  0.00     0.074 A 
ATOM     53  C   UNL A   1      41.723  31.508  36.556  1.00  0.00     0.029 A 
ATOM     54  N   UNL A   1      41.204  30.932  34.472  1.00  0.00    -0.354 N 
ATOM     55  N   UNL A   1      41.415  29.318  32.028  1.00  0.00    -0.248 NA
ATOM     56  C   UNL A   1      42.482  27.662  30.776  1.00  0.00     0.031 C 
ATOM     57  C   UNL A   1      42.593  30.491  36.148  1.00  0.00     0.029 A 
ATOM     58  C   UNL A   1      42.250  30.110  34.860  1.00  0.00     0.049 A 
ATOM     59  H   UNL A   1      40.756  30.899  33.596  1.00  0.00     0.167 HD
ATOM     60  C   UNL A   1      42.430  28.754  32.792  1.00  0.00     0.074 A 
ATOM     61  C   UNL A   1      43.027  27.712  31.983  1.00  0.00     0.031 C 
ATOM     62  C   UNL A   1      42.831  29.072  34.047  1.00  0.00     0.037 A 
BRANCH  49  63
ATOM     63  C   UNL A   1      39.678  33.738  36.600  1.00  0.00     0.064 A 
ATOM     64  C   UNL A   1      38.866  33.385  37.689  1.00  0.00     0.173 A 
ATOM     65  C   UNL A   1      40.347  34.970  36.656  1.00  0.00     0.173 A 
ATOM     66  F   UNL A   1      38.193  32.224  37.683  1.00  0.00    -0.203 F 
ATOM     67  C   UNL A   1      38.703  34.244  38.773  1.00  0.00     0.198 A 
ATOM     68  C   UNL A   1      40.212  35.810  37.758  1.00  0.00     0.198 A 
ATOM     69  F   UNL A   1      41.141  35.355  35.646  1.00  0.00    -0.203 F 
ATOM     70  F   UNL A   1      37.878  33.909  39.775  1.00  0.00    -0.200 F 
ATOM     71  C   UNL A   1      39.383  35.453  38.810  1.00  0.00     0.200 A 
ATOM     72  F   UNL A   1      40.881  36.970  37.799  1.00  0.00    -0.200 F 
ATOM     73  F   UNL A   1      39.234  36.274  39.858  1.00  0.00    -0.200 F 
ENDBRANCH  49  63
BRANCH  50  74
ATOM     74  C   UNL A   1      40.700  28.000  28.478  1.00  0.00     0.064 A 
ATOM     75  C   UNL A   1      41.487  28.430  27.401  1.00  0.00     0.173 A 
ATOM     76  C   UNL A   1      40.070  26.753  28.367  1.00  0.00     0.173 A 
ATOM     77  F   UNL A   1      42.096  29.625  27.450  1.00  0.00    -0.203 F 
ATOM     78  C   UNL A   1      41.617  27.657  26.249  1.00  0.00     0.198 A 
ATOM     79  C   UNL A   1      40.227  25.965  27.229  1.00  0.00     0.198 A 
ATOM     80  F   UNL A   1      39.310  26.291  29.371  1.00  0.00    -0.203 F 
ATOM     81  F   UNL A   1      42.331  28.117  25.213  1.00  0.00    -0.200 F 
ATOM     82  C   UNL A   1      40.991  26.422  26.166  1.00  0.00     0.200 A 
ATOM     83  F   UNL A   1      39.635  24.765  27.160  1.00  0.00    -0.200 F 
ATOM     84  F   UNL A   1      41.118  25.677  25.060  1.00  0.00    -0.200 F 
ENDBRANCH  50  74
BRANCH  62  85
ATOM     85  C   UNL A   1      43.944  28.254  34.641  1.00  0.00     0.064 A 
ATOM     86  C   UNL A   1      43.698  27.058  35.330  1.00  0.00     0.173 A 
ATOM     87  C   UNL A   1      45.279  28.664  34.493  1.00  0.00     0.173 A 
ATOM     88  F   UNL A   1      42.440  26.629  35.511  1.00  0.00    -0.203 F 
ATOM     89  C   UNL A   1      44.744  26.320  35.881  1.00  0.00     0.198 A 
ATOM     90  C   UNL A   1      46.324  27.905  35.013  1.00  0.00     0.198 A 
ATOM     91  F   UNL A   1      45.572  29.795  33.836  1.00  0.00    -0.203 F 
ATOM     92  F   UNL A   1      44.480  25.213  36.588  1.00  0.00    -0.200 F 
ATOM     93  C   UNL A   1      46.055  26.740  35.716  1.00  0.00     0.200 A 
ATOM     94  F   UNL A   1      47.591  28.303  34.836  1.00  0.00    -0.200 F 
ATOM     95  F   UNL A   1      47.060  26.026  36.241  1.00  0.00    -0.200 F 
ENDBRANCH  62  85
ENDBRANCH  36  37
ENDBRANCH  28  31
ENDBRANCH  26  27
ENDBRANCH  25  26
ENDBRANCH   1  25
TORSDOF 16
ENDMDL
MODEL 2
REMARK VINA RESULT:     -12.0      3.535      8.884
REMARK SMILES CCC[C@]1(C(=O)NCCCCNC(=O)c2ccc(-c3c4nc(c(-c5c(F)c(F)c(F)c(F)c5F)c5ccc([nH]5)c(-c5c(F)c(F)c(F)c(F)c5F)c5nc(c(-c6c(F)c(F)c(F)c(F)c6F)c6ccc3[nH]6)C=C5)C=C4)cc2)CCN(c2cncc(C(=O)OC)n2)C1
REMARK SMILES IDX 9 1 8 2 7 3 5 4 6 5 4 7 78 8 91 9 79 10 80 11 3 12 2 13 1 14
REMARK SMILES IDX 81 15 82 16 90 17 83 18 85 19 84 20 86 21 87 22 88 23 89 24
REMARK SMILES IDX 10 25 11 26 12 27 13 28 14 30 15 31 16 32 77 33 17 34 76 35
REMARK SMILES IDX 18 36 19 37 20 38 70 39 21 40 75 41 69 42 71 43 22 44 74 45
REMARK SMILES IDX 68 46 67 47 23 49 55 50 35 51 54 52 36 53 39 54 53 55 72 56
REMARK SMILES IDX 37 57 38 58 52 60 73 61 40 62 24 63 25 64 33 65 26 66 27 67
REMARK SMILES IDX 31 68 34 69 28 70 29 71 32 72 30 73 56 74 57 75 65 76 58 77
REMARK SMILES IDX 59 78 63 79 66 80 60 81 61 82 64 83 62 84 41 85 42 86 50 87
REMARK SMILES IDX 43 88 44 89 48 90 51 91 45 92 46 93 49 94 47 95
REMARK H PARENT 7 6 12 29 71 48 39 59
REMARK Flexibility Score: inf
ROOT
ATOM      1  C   UNL A   1      34.684  23.340  26.136  1.00  0.00     0.023 C 
ENDROOT
BRANCH   1   2
ATOM      2  C   UNL A   1      33.464  23.955  25.464  1.00  0.00     0.116 C 
BRANCH   2   3
ATOM      3  N   UNL A   1      33.698  24.256  24.063  1.00  0.00    -0.356 N 
ATOM      4  C   UNL A   1      33.666  25.429  23.370  1.00  0.00     0.228 C 
ATOM      5  O   UNL A   1      33.936  25.343  22.167  1.00  0.00    -0.274 OA
ATOM      6  H   UNL A   1      33.921  23.470  23.513  1.00  0.00     0.163 HD
BRANCH   4   7
ATOM      7  C   UNL A   1      33.291  26.779  24.022  1.00  0.00     0.068 C 
ATOM      8  C   UNL A   1      33.672  27.940  23.073  1.00  0.00     0.040 C 
ATOM      9  C   UNL A   1      31.763  26.869  24.206  1.00  0.00     0.135 C 
ATOM     10  C   UNL A   1      32.516  28.927  23.137  1.00  0.00     0.119 C 
ATOM     11  N   UNL A   1      31.396  28.134  23.592  1.00  0.00    -0.354 N 
BRANCH   7  12
ATOM     12  C   UNL A   1      34.074  26.909  25.365  1.00  0.00     0.018 C 
BRANCH  12  13
ATOM     13  C   UNL A   1      33.421  27.626  26.557  1.00  0.00    -0.002 C 
ATOM     14  C   UNL A   1      34.157  28.869  27.039  1.00  0.00     0.004 C 
ENDBRANCH  12  13
ENDBRANCH   7  12
BRANCH  11  15
ATOM     15  C   UNL A   1      30.092  28.507  23.419  1.00  0.00     0.148 A 
ATOM     16  C   UNL A   1      29.073  27.545  23.360  1.00  0.00     0.157 A 
ATOM     17  N   UNL A   1      29.783  29.818  23.329  1.00  0.00    -0.221 NA
ATOM     18  N   UNL A   1      27.755  27.825  23.214  1.00  0.00    -0.258 NA
ATOM     19  C   UNL A   1      28.466  30.115  23.125  1.00  0.00     0.169 A 
ATOM     20  C   UNL A   1      27.478  29.140  23.087  1.00  0.00     0.147 A 
BRANCH  19  21
ATOM     21  C   UNL A   1      28.048  31.517  22.867  1.00  0.00     0.358 C 
ATOM     22  O   UNL A   1      27.138  32.060  23.474  1.00  0.00    -0.244 OA
BRANCH  21  23
ATOM     23  O   UNL A   1      28.769  32.077  21.862  1.00  0.00    -0.464 OA
ATOM     24  C   UNL A   1      28.059  32.147  20.623  1.00  0.00     0.282 C 
ENDBRANCH  21  23
ENDBRANCH  19  21
ENDBRANCH  11  15
ENDBRANCH   4   7
ENDBRANCH   2   3
ENDBRANCH   1   2
BRANCH   1  25
ATOM     25  C   UNL A   1      35.803  22.943  25.178  1.00  0.00     0.023 C 
BRANCH  25  26
ATOM     26  C   UNL A   1      37.114  23.693  25.376  1.00  0.00     0.116 C 
BRANCH  26  27
ATOM     27  N   UNL A   1      38.249  22.808  25.599  1.00  0.00    -0.352 N 
ATOM     28  C   UNL A   1      39.450  23.074  26.208  1.00  0.00     0.251 C 
ATOM     29  H   UNL A   1      38.140  21.888  25.263  1.00  0.00     0.163 HD
ATOM     30  O   UNL A   1      40.359  22.253  26.176  1.00  0.00    -0.269 OA
BRANCH  28  31
ATOM     31  C   UNL A   1      39.652  24.375  26.877  1.00  0.00     0.039 A 
ATOM     32  C   UNL A   1      39.215  24.532  28.194  1.00  0.00     0.014 A 
ATOM     33  C   UNL A   1      40.298  25.424  26.217  1.00  0.00     0.014 A 
ATOM     34  C   UNL A   1      39.494  25.719  28.873  1.00  0.00     0.010 A 
ATOM     35  C   UNL A   1      40.655  26.567  26.924  1.00  0.00     0.010 A 
ATOM     36  C   UNL A   1      40.253  26.728  28.257  1.00  0.00    -0.014 A 
BRANCH  36  37
ATOM     37  C   UNL A   1      40.636  27.956  28.999  1.00  0.00     0.031 A 
ATOM     38  C   UNL A   1      42.028  28.107  29.544  1.00  0.00     0.074 A 
ATOM     39  C   UNL A   1      39.713  28.911  29.224  1.00  0.00     0.049 A 
ATOM     40  N   UNL A   1      42.542  29.088  30.244  1.00  0.00    -0.248 NA
ATOM     41  C   UNL A   1      42.963  26.998  29.294  1.00  0.00     0.031 C 
ATOM     42  C   UNL A   1      38.315  28.856  28.793  1.00  0.00     0.029 A 
ATOM     43  N   UNL A   1      39.811  30.117  29.875  1.00  0.00    -0.354 N 
ATOM     44  C   UNL A   1      43.849  28.710  30.520  1.00  0.00     0.074 A 
ATOM     45  C   UNL A   1      44.031  27.384  29.974  1.00  0.00     0.031 C 
ATOM     46  C   UNL A   1      37.697  29.989  29.158  1.00  0.00     0.029 A 
ATOM     47  C   UNL A   1      38.639  30.833  29.886  1.00  0.00     0.049 A 
ATOM     48  H   UNL A   1      40.643  30.436  30.293  1.00  0.00     0.167 HD
ATOM     49  C   UNL A   1      44.819  29.418  31.148  1.00  0.00     0.037 A 
ATOM     50  C   UNL A   1      38.357  32.033  30.428  1.00  0.00     0.037 A 
ATOM     51  C   UNL A   1      44.635  30.744  31.679  1.00  0.00     0.049 A 
ATOM     52  C   UNL A   1      39.448  32.790  31.138  1.00  0.00     0.074 A 
ATOM     53  C   UNL A   1      45.568  31.566  32.287  1.00  0.00     0.029 A 
ATOM     54  N   UNL A   1      43.435  31.439  31.670  1.00  0.00    -0.354 N 
ATOM     55  N   UNL A   1      40.701  32.455  31.327  1.00  0.00    -0.248 NA
ATOM     56  C   UNL A   1      39.084  34.096  31.703  1.00  0.00     0.031 C 
ATOM     57  C   UNL A   1      44.918  32.734  32.699  1.00  0.00     0.029 A 
ATOM     58  C   UNL A   1      43.595  32.669  32.287  1.00  0.00     0.049 A 
ATOM     59  H   UNL A   1      42.593  31.108  31.283  1.00  0.00     0.167 HD
ATOM     60  C   UNL A   1      41.284  33.520  32.002  1.00  0.00     0.074 A 
ATOM     61  C   UNL A   1      40.250  34.519  32.171  1.00  0.00     0.031 C 
ATOM     62  C   UNL A   1      42.558  33.657  32.443  1.00  0.00     0.037 A 
BRANCH  49  63
ATOM     63  C   UNL A   1      46.167  28.771  31.292  1.00  0.00     0.064 A 
ATOM     64  C   UNL A   1      47.162  28.914  30.312  1.00  0.00     0.173 A 
ATOM     65  C   UNL A   1      46.483  28.026  32.439  1.00  0.00     0.173 A 
ATOM     66  F   UNL A   1      46.911  29.606  29.190  1.00  0.00    -0.203 F 
ATOM     67  C   UNL A   1      48.408  28.309  30.458  1.00  0.00     0.198 A 
ATOM     68  C   UNL A   1      47.741  27.454  32.599  1.00  0.00     0.198 A 
ATOM     69  F   UNL A   1      45.572  27.862  33.410  1.00  0.00    -0.203 F 
ATOM     70  F   UNL A   1      49.321  28.414  29.482  1.00  0.00    -0.200 F 
ATOM     71  C   UNL A   1      48.699  27.587  31.606  1.00  0.00     0.200 A 
ATOM     72  F   UNL A   1      48.027  26.769  33.715  1.00  0.00    -0.200 F 
ATOM     73  F   UNL A   1      49.902  27.013  31.750  1.00  0.00    -0.200 F 
ENDBRANCH  49  63
BRANCH  50  74
ATOM     74  C   UNL A   1      36.990  32.607  30.299  1.00  0.00     0.064 A 
ATOM     75  C   UNL A   1      36.624  33.346  29.164  1.00  0.00     0.173 A 
ATOM     76  C   UNL A   1      36.030  32.444  31.307  1.00  0.00     0.173 A 
ATOM     77  F   UNL A   1      37.513  33.547  28.180  1.00  0.00    -0.203 F 
ATOM     78  C   UNL A   1      35.360  33.921  29.056  1.00  0.00     0.198 A 
ATOM     79  C   UNL A   1      34.755  32.991  31.183  1.00  0.00     0.198 A 
ATOM     80  F   UNL A   1      36.327  31.742  32.410  1.00  0.00    -0.203 F 
ATOM     81  F   UNL A   1      35.054  34.667  27.986  1.00  0.00    -0.200 F 
ATOM     82  C   UNL A   1      34.424  33.738  30.063  1.00  0.00     0.200 A 
ATOM     83  F   UNL A   1      33.848  32.798  32.150  1.00  0.00    -0.200 F 
ATOM     84  F   UNL A   1      33.207  34.288  29.958  1.00  0.00    -0.200 F 
ENDBRANCH  50  74
BRANCH  62  85
ATOM     85  C   UNL A   1      42.918  34.953  33.116  1.00  0.00     0.064 A 
ATOM     86  C   UNL A   1      42.807  35.123  34.503  1.00  0.00     0.173 A 
ATOM     87  C   UNL A   1      43.405  36.031  32.360  1.00  0.00     0.173 A 
ATOM     88  F   UNL A   1      42.334  34.129  35.270  1.00  0.00    -0.203 F 
ATOM     89  C   UNL A   1      43.137  36.336  35.105  1.00  0.00     0.198 A 
ATOM     90  C   UNL A   1      43.769  37.229  32.969  1.00  0.00     0.198 A 
ATOM     91  F   UNL A   1      43.539  35.920  31.030  1.00  0.00    -0.203 F 
ATOM     92  F   UNL A   1      42.965  36.494  36.424  1.00  0.00    -0.200 F 
ATOM     93  C   UNL A   1      43.624  37.384  34.339  1.00  0.00     0.200 A 
ATOM     94  F   UNL A   1      44.256  38.234  32.229  1.00  0.00    -0.200 F 
ATOM     95  F   UNL A   1      43.946  38.547  34.921  1.00  0.00    -0.200 F 
ENDBRANCH  62  85
ENDBRANCH  36  37
ENDBRANCH  28  31
ENDBRANCH  26  27
ENDBRANCH  25  26
ENDBRANCH   1  25
TORSDOF 16
ENDMDL
MODEL 3
REMARK VINA RESULT:     -11.9      5.311     10.146
REMARK SMILES CCC[C@]1(C(=O)NCCCCNC(=O)c2ccc(-c3c4nc(c(-c5c(F)c(F)c(F)c(F)c5F)c5ccc([nH]5)c(-c5c(F)c(F)c(F)c(F)c5F)c5nc(c(-c6c(F)c(F)c(F)c(F)c6F)c6ccc3[nH]6)C=C5)C=C4)cc2)CCN(c2cncc(C(=O)OC)n2)C1
REMARK SMILES IDX 9 1 8 2 7 3 5 4 6 5 4 7 78 8 91 9 79 10 80 11 3 12 2 13 1 14
REMARK SMILES IDX 81 15 82 16 90 17 83 18 85 19 84 20 86 21 87 22 88 23 89 24
REMARK SMILES IDX 10 25 11 26 12 27 13 28 14 30 15 31 16 32 77 33 17 34 76 35
REMARK SMILES IDX 18 36 19 37 20 38 70 39 21 40 75 41 69 42 71 43 22 44 74 45
REMARK SMILES IDX 68 46 67 47 23 49 55 50 35 51 54 52 36 53 39 54 53 55 72 56
REMARK SMILES IDX 37 57 38 58 52 60 73 61 40 62 24 63 25 64 33 65 26 66 27 67
REMARK SMILES IDX 31 68 34 69 28 70 29 71 32 72 30 73 56 74 57 75 65 76 58 77
REMARK SMILES IDX 59 78 63 79 66 80 60 81 61 82 64 83 62 84 41 85 42 86 50 87
REMARK SMILES IDX 43 88 44 89 48 90 51 91 45 92 46 93 49 94 47 95
REMARK H PARENT 7 6 12 29 71 48 39 59
REMARK Flexibility Score: inf
ROOT
ATOM      1  C   UNL A   1      37.439  21.088  24.740  1.00  0.00     0.023 C 
ENDROOT
BRANCH   1   2
ATOM      2  C   UNL A   1      35.940  20.835  24.662  1.00  0.00     0.116 C 
BRANCH   2   3
ATOM      3  N   UNL A   1      35.285  20.994  25.949  1.00  0.00    -0.356 N 
ATOM      4  C   UNL A   1      33.985  21.227  26.282  1.00  0.00     0.228 C 
ATOM      5  O   UNL A   1      33.749  21.293  27.493  1.00  0.00    -0.274 OA
ATOM      6  H   UNL A   1      35.891  20.919  26.722  1.00  0.00     0.163 HD
BRANCH   4   7
ATOM      7  C   UNL A   1      32.871  21.428  25.228  1.00  0.00     0.068 C 
ATOM      8  C   UNL A   1      31.628  22.061  25.896  1.00  0.00     0.040 C 
ATOM      9  C   UNL A   1      33.335  22.436  24.157  1.00  0.00     0.135 C 
ATOM     10  C   UNL A   1      31.119  23.110  24.919  1.00  0.00     0.119 C 
ATOM     11  N   UNL A   1      32.269  23.422  24.100  1.00  0.00    -0.354 N 
BRANCH   7  12
ATOM     12  C   UNL A   1      32.504  20.034  24.631  1.00  0.00     0.018 C 
BRANCH  12  13
ATOM     13  C   UNL A   1      32.801  18.761  25.439  1.00  0.00    -0.002 C 
ATOM     14  C   UNL A   1      33.492  17.652  24.657  1.00  0.00     0.004 C 
ENDBRANCH  12  13
ENDBRANCH   7  12
BRANCH  11  15
ATOM     15  C   UNL A   1      32.379  24.571  23.367  1.00  0.00     0.148 A 
ATOM     16  C   UNL A   1      33.458  24.762  22.491  1.00  0.00     0.157 A 
ATOM     17  N   UNL A   1      31.424  25.519  23.471  1.00  0.00    -0.221 NA
ATOM     18  N   UNL A   1      33.635  25.855  21.711  1.00  0.00    -0.258 NA
ATOM     19  C   UNL A   1      31.616  26.653  22.734  1.00  0.00     0.169 A 
ATOM     20  C   UNL A   1      32.687  26.805  21.864  1.00  0.00     0.147 A 
BRANCH  19  21
ATOM     21  C   UNL A   1      30.699  27.811  22.893  1.00  0.00     0.358 C 
ATOM     22  O   UNL A   1      30.198  28.395  21.944  1.00  0.00    -0.244 OA
BRANCH  21  23
ATOM     23  O   UNL A   1      30.538  28.146  24.199  1.00  0.00    -0.464 OA
ATOM     24  C   UNL A   1      31.114  29.408  24.538  1.00  0.00     0.282 C 
ENDBRANCH  21  23
ENDBRANCH  19  21
ENDBRANCH  11  15
ENDBRANCH   4   7
ENDBRANCH   2   3
ENDBRANCH   1   2
BRANCH   1  25
ATOM     25  C   UNL A   1      38.274  19.857  25.077  1.00  0.00     0.023 C 
BRANCH  25  26
ATOM     26  C   UNL A   1      39.429  20.107  26.038  1.00  0.00     0.116 C 
BRANCH  26  27
ATOM     27  N   UNL A   1      40.437  19.057  26.004  1.00  0.00    -0.352 N 
ATOM     28  C   UNL A   1      41.804  19.163  26.084  1.00  0.00     0.251 C 
ATOM     29  H   UNL A   1      40.089  18.140  25.908  1.00  0.00     0.163 HD
ATOM     30  O   UNL A   1      42.516  18.185  25.885  1.00  0.00    -0.269 OA
BRANCH  28  31
ATOM     31  C   UNL A   1      42.413  20.475  26.380  1.00  0.00     0.039 A 
ATOM     32  C   UNL A   1      42.891  21.250  25.323  1.00  0.00     0.014 A 
ATOM     33  C   UNL A   1      42.482  20.950  27.693  1.00  0.00     0.014 A 
ATOM     34  C   UNL A   1      43.372  22.536  25.576  1.00  0.00     0.010 A 
ATOM     35  C   UNL A   1      42.875  22.261  27.931  1.00  0.00     0.010 A 
ATOM     36  C   UNL A   1      43.328  23.067  26.876  1.00  0.00    -0.014 A 
BRANCH  36  37
ATOM     37  C   UNL A   1      43.750  24.465  27.145  1.00  0.00     0.031 A 
ATOM     38  C   UNL A   1      42.754  25.471  27.652  1.00  0.00     0.074 A 
ATOM     39  C   UNL A   1      45.017  24.838  26.885  1.00  0.00     0.049 A 
ATOM     40  N   UNL A   1      42.923  26.744  27.914  1.00  0.00    -0.248 NA
ATOM     41  C   UNL A   1      41.379  24.994  27.866  1.00  0.00     0.031 C 
ATOM     42  C   UNL A   1      46.061  23.968  26.342  1.00  0.00     0.029 A 
ATOM     43  N   UNL A   1      45.645  26.050  27.041  1.00  0.00    -0.354 N 
ATOM     44  C   UNL A   1      41.680  27.213  28.315  1.00  0.00     0.074 A 
ATOM     45  C   UNL A   1      40.752  26.112  28.198  1.00  0.00     0.031 C 
ATOM     46  C   UNL A   1      47.206  24.662  26.243  1.00  0.00     0.029 A 
ATOM     47  C   UNL A   1      46.968  26.035  26.674  1.00  0.00     0.049 A 
ATOM     48  H   UNL A   1      45.188  26.852  27.383  1.00  0.00     0.167 HD
ATOM     49  C   UNL A   1      41.349  28.446  28.769  1.00  0.00     0.037 A 
ATOM     50  C   UNL A   1      47.885  27.022  26.680  1.00  0.00     0.037 A 
ATOM     51  C   UNL A   1      42.281  29.536  28.897  1.00  0.00     0.049 A 
ATOM     52  C   UNL A   1      47.486  28.389  27.170  1.00  0.00     0.074 A 
ATOM     53  C   UNL A   1      42.057  30.808  29.394  1.00  0.00     0.029 A 
ATOM     54  N   UNL A   1      43.614  29.485  28.518  1.00  0.00    -0.354 N 
ATOM     55  N   UNL A   1      46.325  28.801  27.619  1.00  0.00    -0.248 NA
ATOM     56  C   UNL A   1      48.528  29.423  27.162  1.00  0.00     0.031 C 
ATOM     57  C   UNL A   1      43.239  31.544  29.260  1.00  0.00     0.029 A 
ATOM     58  C   UNL A   1      44.219  30.711  28.743  1.00  0.00     0.049 A 
ATOM     59  H   UNL A   1      44.065  28.694  28.143  1.00  0.00     0.167 HD
ATOM     60  C   UNL A   1      46.505  30.132  27.976  1.00  0.00     0.074 A 
ATOM     61  C   UNL A   1      47.892  30.449  27.709  1.00  0.00     0.031 C 
ATOM     62  C   UNL A   1      45.603  31.011  28.478  1.00  0.00     0.037 A 
BRANCH  49  63
ATOM     63  C   UNL A   1      39.918  28.679  29.164  1.00  0.00     0.064 A 
ATOM     64  C   UNL A   1      39.465  28.438  30.470  1.00  0.00     0.173 A 
ATOM     65  C   UNL A   1      38.994  29.184  28.235  1.00  0.00     0.173 A 
ATOM     66  F   UNL A   1      40.302  27.944  31.396  1.00  0.00    -0.203 F 
ATOM     67  C   UNL A   1      38.135  28.658  30.823  1.00  0.00     0.198 A 
ATOM     68  C   UNL A   1      37.675  29.438  28.600  1.00  0.00     0.198 A 
ATOM     69  F   UNL A   1      39.374  29.439  26.974  1.00  0.00    -0.203 F 
ATOM     70  F   UNL A   1      37.715  28.366  32.062  1.00  0.00    -0.200 F 
ATOM     71  C   UNL A   1      37.244  29.166  29.890  1.00  0.00     0.200 A 
ATOM     72  F   UNL A   1      36.819  29.943  27.702  1.00  0.00    -0.200 F 
ATOM     73  F   UNL A   1      35.967  29.388  30.233  1.00  0.00    -0.200 F 
ENDBRANCH  49  63
BRANCH  50  74
ATOM     74  C   UNL A   1      49.278  26.750  26.233  1.00  0.00     0.064 A 
ATOM     75  C   UNL A   1      49.664  26.975  24.904  1.00  0.00     0.173 A 
ATOM     76  C   UNL A   1      50.243  26.246  27.115  1.00  0.00     0.173 A 
ATOM     77  F   UNL A   1      48.772  27.438  24.015  1.00  0.00    -0.203 F 
ATOM     78  C   UNL A   1      50.955  26.683  24.469  1.00  0.00     0.198 A 
ATOM     79  C   UNL A   1      51.544  25.986  26.688  1.00  0.00     0.198 A 
ATOM     80  F   UNL A   1      49.928  26.018  28.398  1.00  0.00    -0.203 F 
ATOM     81  F   UNL A   1      51.282  26.857  23.182  1.00  0.00    -0.200 F 
ATOM     82  C   UNL A   1      51.896  26.194  25.363  1.00  0.00     0.200 A 
ATOM     83  F   UNL A   1      52.454  25.530  27.559  1.00  0.00    -0.200 F 
ATOM     84  F   UNL A   1      53.139  25.916  24.946  1.00  0.00    -0.200 F 
ENDBRANCH  50  74
BRANCH  62  85
ATOM     85  C   UNL A   1      46.099  32.391  28.811  1.00  0.00     0.064 A 
ATOM     86  C   UNL A   1      46.048  33.440  27.882  1.00  0.00     0.173 A 
ATOM     87  C   UNL A   1      46.609  32.670  30.089  1.00  0.00     0.173 A 
ATOM     88  F   UNL A   1      45.582  33.224  26.643  1.00  0.00    -0.203 F 
ATOM     89  C   UNL A   1      46.522  34.709  28.209  1.00  0.00     0.198 A 
ATOM     90  C   UNL A   1      47.047  33.948  30.423  1.00  0.00     0.198 A 
ATOM     91  F   UNL A   1      46.673  31.705  31.019  1.00  0.00    -0.203 F 
ATOM     92  F   UNL A   1      46.519  35.680  27.285  1.00  0.00    -0.200 F 
ATOM     93  C   UNL A   1      47.014  34.964  29.480  1.00  0.00     0.200 A 
ATOM     94  F   UNL A   1      47.505  34.196  31.658  1.00  0.00    -0.200 F 
ATOM     95  F   UNL A   1      47.464  36.186  29.793  1.00  0.00    -0.200 F 
ENDBRANCH  62  85
ENDBRANCH  36  37
ENDBRANCH  28  31
ENDBRANCH  26  27
ENDBRANCH  25  26
ENDBRANCH   1  25
TORSDOF 16
ENDMDL
