MODEL 1
REMARK VINA RESULT:     -13.0      0.000      0.000
REMARK SMILES CC[C@](C)(C(=O)NCCCCNC(=O)c1ccc(-c2c3nc(c(-c4c(F)c(F)c(F)c(F)c4F)c4ccc([nH]4)c(-c4c(F)c(F)c(F)c(F)c4F)c4nc(c(-c5c(F)c(F)c(F)c(F)c5F)c5ccc2[nH]5)C=C4)C=C3)cc1)n1nnnc1-c1ccc(C)cc1C
REMARK SMILES IDX 9 1 8 2 7 3 5 4 6 5 3 7 4 8 2 9 1 10 78 11 79 12 82 13 80 14
REMARK SMILES IDX 81 15 83 16 84 17 89 18 85 19 88 20 90 21 86 22 87 23 10 24
REMARK SMILES IDX 11 25 12 26 13 27 14 29 15 30 16 31 77 32 17 33 76 34 18 35
REMARK SMILES IDX 19 36 20 37 70 38 21 39 75 40 69 41 71 42 22 43 74 44 68 45
REMARK SMILES IDX 67 46 23 48 55 49 35 50 54 51 36 52 39 53 53 54 72 55 37 56
REMARK SMILES IDX 38 57 52 59 73 60 40 61 24 62 25 63 33 64 26 65 27 66 31 67
REMARK SMILES IDX 34 68 28 69 29 70 32 71 30 72 56 73 57 74 65 75 58 76 59 77
REMARK SMILES IDX 63 78 66 79 60 80 61 81 64 82 62 83 41 84 42 85 50 86 43 87
REMARK SMILES IDX 44 88 48 89 51 90 45 91 46 92 49 93 47 94
REMARK H PARENT 7 6 12 28 71 47 39 58
REMARK Flexibility Score: inf
ROOT
ATOM      1  C   UNL A   1      32.066  30.352  26.867  1.00  0.00     0.023 C 
ENDROOT
BRANCH   1   2
ATOM      2  C   UNL A   1      32.563  29.812  25.527  1.00  0.00     0.116 C 
BRANCH   2   3
ATOM      3  N   UNL A   1      31.487  29.682  24.556  1.00  0.00    -0.354 N 
ATOM      4  C   UNL A   1      31.164  28.687  23.666  1.00  0.00     0.247 C 
ATOM      5  O   UNL A   1      30.236  28.949  22.897  1.00  0.00    -0.272 OA
ATOM      6  H   UNL A   1      30.875  30.453  24.533  1.00  0.00     0.163 HD
BRANCH   4   7
ATOM      7  C   UNL A   1      31.945  27.347  23.606  1.00  0.00     0.142 C 
ATOM      8  C   UNL A   1      31.509  26.636  22.310  1.00  0.00     0.048 C 
BRANCH   7   9
ATOM      9  C   UNL A   1      33.494  27.639  23.594  1.00  0.00     0.037 C 
ATOM     10  C   UNL A   1      34.021  28.285  22.317  1.00  0.00     0.007 C 
ENDBRANCH   7   9
BRANCH   7  11
ATOM     11  N   UNL A   1      31.611  26.543  24.810  1.00  0.00    -0.210 N 
ATOM     12  N   UNL A   1      30.526  26.891  25.548  1.00  0.00    -0.044 NA
ATOM     13  C   UNL A   1      32.198  25.440  25.412  1.00  0.00     0.183 A 
ATOM     14  N   UNL A   1      30.490  26.062  26.574  1.00  0.00    -0.023 NA
ATOM     15  N   UNL A   1      31.514  25.165  26.508  1.00  0.00    -0.108 NA
BRANCH  13  16
ATOM     16  C   UNL A   1      33.308  24.630  24.928  1.00  0.00     0.024 A 
ATOM     17  C   UNL A   1      34.590  24.938  25.412  1.00  0.00     0.012 A 
ATOM     18  C   UNL A   1      33.157  23.587  23.992  1.00  0.00    -0.040 A 
ATOM     19  C   UNL A   1      35.695  24.167  25.053  1.00  0.00     0.004 A 
ATOM     20  C   UNL A   1      34.276  22.798  23.669  1.00  0.00     0.007 A 
ATOM     21  C   UNL A   1      31.856  23.271  23.300  1.00  0.00     0.045 C 
ATOM     22  C   UNL A   1      35.536  23.059  24.220  1.00  0.00    -0.051 A 
ATOM     23  C   UNL A   1      36.717  22.202  23.873  1.00  0.00     0.044 C 
ENDBRANCH  13  16
ENDBRANCH   7  11
ENDBRANCH   4   7
ENDBRANCH   2   3
ENDBRANCH   1   2
BRANCH   1  24
ATOM     24  C   UNL A   1      31.751  31.844  26.874  1.00  0.00     0.023 C 
BRANCH  24  25
ATOM     25  C   UNL A   1      32.872  32.733  27.395  1.00  0.00     0.116 C 
BRANCH  25  26
ATOM     26  N   UNL A   1      32.457  34.101  27.671  1.00  0.00    -0.352 N 
ATOM     27  C   UNL A   1      32.982  34.976  28.592  1.00  0.00     0.251 C 
ATOM     28  H   UNL A   1      31.707  34.442  27.130  1.00  0.00     0.163 HD
ATOM     29  O   UNL A   1      32.468  36.074  28.779  1.00  0.00    -0.269 OA
BRANCH  27  30
ATOM     30  C   UNL A   1      34.149  34.552  29.386  1.00  0.00     0.039 A 
ATOM     31  C   UNL A   1      33.943  34.009  30.654  1.00  0.00     0.014 A 
ATOM     32  C   UNL A   1      35.433  34.617  28.837  1.00  0.00     0.014 A 
ATOM     33  C   UNL A   1      35.021  33.456  31.346  1.00  0.00     0.010 A 
ATOM     34  C   UNL A   1      36.489  33.992  29.490  1.00  0.00     0.010 A 
ATOM     35  C   UNL A   1      36.293  33.406  30.750  1.00  0.00    -0.014 A 
BRANCH  35  36
ATOM     36  C   UNL A   1      37.437  32.748  31.426  1.00  0.00     0.031 A 
ATOM     37  C   UNL A   1      38.128  31.590  30.766  1.00  0.00     0.074 A 
ATOM     38  C   UNL A   1      37.796  33.140  32.663  1.00  0.00     0.049 A 
ATOM     39  N   UNL A   1      39.085  30.824  31.226  1.00  0.00    -0.248 NA
ATOM     40  C   UNL A   1      37.655  31.218  29.423  1.00  0.00     0.031 C 
ATOM     41  C   UNL A   1      37.160  34.211  33.432  1.00  0.00     0.029 A 
ATOM     42  N   UNL A   1      38.778  32.670  33.500  1.00  0.00    -0.354 N 
ATOM     43  C   UNL A   1      39.311  29.873  30.241  1.00  0.00     0.074 A 
ATOM     44  C   UNL A   1      38.356  30.119  29.183  1.00  0.00     0.031 C 
ATOM     45  C   UNL A   1      37.780  34.331  34.617  1.00  0.00     0.029 A 
ATOM     46  C   UNL A   1      38.834  33.325  34.706  1.00  0.00     0.049 A 
ATOM     47  H   UNL A   1      39.384  31.933  33.258  1.00  0.00     0.167 HD
ATOM     48  C   UNL A   1      40.248  28.896  30.212  1.00  0.00     0.037 A 
ATOM     49  C   UNL A   1      39.644  33.132  35.764  1.00  0.00     0.037 A 
ATOM     50  C   UNL A   1      41.220  28.681  31.249  1.00  0.00     0.049 A 
ATOM     51  C   UNL A   1      40.693  32.056  35.696  1.00  0.00     0.074 A 
ATOM     52  C   UNL A   1      42.260  27.769  31.281  1.00  0.00     0.029 A 
ATOM     53  N   UNL A   1      41.271  29.389  32.441  1.00  0.00    -0.354 N 
ATOM     54  N   UNL A   1      40.948  31.210  34.727  1.00  0.00    -0.248 NA
ATOM     55  C   UNL A   1      41.572  31.912  36.865  1.00  0.00     0.031 C 
ATOM     56  C   UNL A   1      42.917  27.900  32.509  1.00  0.00     0.029 A 
ATOM     57  C   UNL A   1      42.315  28.923  33.222  1.00  0.00     0.049 A 
ATOM     58  H   UNL A   1      40.657  30.117  32.693  1.00  0.00     0.167 HD
ATOM     59  C   UNL A   1      42.030  30.453  35.156  1.00  0.00     0.074 A 
ATOM     60  C   UNL A   1      42.393  30.950  36.467  1.00  0.00     0.031 C 
ATOM     61  C   UNL A   1      42.665  29.437  34.521  1.00  0.00     0.037 A 
BRANCH  48  62
ATOM     62  C   UNL A   1      40.270  27.993  29.013  1.00  0.00     0.064 A 
ATOM     63  C   UNL A   1      41.007  28.316  27.864  1.00  0.00     0.173 A 
ATOM     64  C   UNL A   1      39.569  26.778  29.025  1.00  0.00     0.173 A 
ATOM     65  F   UNL A   1      41.682  29.473  27.796  1.00  0.00    -0.203 F 
ATOM     66  C   UNL A   1      41.018  27.468  26.759  1.00  0.00     0.198 A 
ATOM     67  C   UNL A   1      39.608  25.918  27.930  1.00  0.00     0.198 A 
ATOM     68  F   UNL A   1      38.852  26.421  30.101  1.00  0.00    -0.203 F 
ATOM     69  F   UNL A   1      41.688  27.821  25.653  1.00  0.00    -0.200 F 
ATOM     70  C   UNL A   1      40.326  26.267  26.796  1.00  0.00     0.200 A 
ATOM     71  F   UNL A   1      38.947  24.754  27.971  1.00  0.00    -0.200 F 
ATOM     72  F   UNL A   1      40.342  25.450  25.734  1.00  0.00    -0.200 F 
ENDBRANCH  48  62
BRANCH  49  73
ATOM     73  C   UNL A   1      39.515  33.996  36.965  1.00  0.00     0.064 A 
ATOM     74  C   UNL A   1      40.145  35.247  37.020  1.00  0.00     0.173 A 
ATOM     75  C   UNL A   1      38.760  33.595  38.078  1.00  0.00     0.173 A 
ATOM     76  F   UNL A   1      40.892  35.665  35.989  1.00  0.00    -0.203 F 
ATOM     77  C   UNL A   1      40.041  36.056  38.150  1.00  0.00     0.198 A 
ATOM     78  C   UNL A   1      38.636  34.417  39.196  1.00  0.00     0.198 A 
ATOM     79  F   UNL A   1      38.132  32.411  38.072  1.00  0.00    -0.203 F 
ATOM     80  F   UNL A   1      40.688  37.230  38.192  1.00  0.00    -0.200 F 
ATOM     81  C   UNL A   1      39.282  35.644  39.235  1.00  0.00     0.200 A 
ATOM     82  F   UNL A   1      37.889  34.022  40.236  1.00  0.00    -0.200 F 
ATOM     83  F   UNL A   1      39.179  36.425  40.318  1.00  0.00    -0.200 F 
ENDBRANCH  49  73
BRANCH  61  84
ATOM     84  C   UNL A   1      43.838  28.817  35.222  1.00  0.00     0.064 A 
ATOM     85  C   UNL A   1      45.143  29.290  35.029  1.00  0.00     0.173 A 
ATOM     86  C   UNL A   1      43.645  27.766  36.133  1.00  0.00     0.173 A 
ATOM     87  F   UNL A   1      45.379  30.283  34.159  1.00  0.00    -0.203 F 
ATOM     88  C   UNL A   1      46.216  28.720  35.707  1.00  0.00     0.198 A 
ATOM     89  C   UNL A   1      44.717  27.217  36.829  1.00  0.00     0.198 A 
ATOM     90  F   UNL A   1      42.414  27.282  36.356  1.00  0.00    -0.203 F 
ATOM     91  F   UNL A   1      47.462  29.159  35.476  1.00  0.00    -0.200 F 
ATOM     92  C   UNL A   1      46.002  27.689  36.612  1.00  0.00     0.200 A 
ATOM     93  F   UNL A   1      44.507  26.232  37.712  1.00  0.00    -0.200 F 
ATOM     94  F   UNL A   1      47.036  27.147  37.269  1.00  0.00    -0.200 F 
ENDBRANCH  61  84
ENDBRANCH  35  36
ENDBRANCH  27  30
ENDBRANCH  25  26
ENDBRANCH  24  25
ENDBRANCH   1  24
TORSDOF 14
ENDMDL
MODEL 2
REMARK VINA RESULT:     -13.0      0.636      7.295
REMARK SMILES CC[C@](C)(C(=O)NCCCCNC(=O)c1ccc(-c2c3nc(c(-c4c(F)c(F)c(F)c(F)c4F)c4ccc([nH]4)c(-c4c(F)c(F)c(F)c(F)c4F)c4nc(c(-c5c(F)c(F)c(F)c(F)c5F)c5ccc2[nH]5)C=C4)C=C3)cc1)n1nnnc1-c1ccc(C)cc1C
REMARK SMILES IDX 9 1 8 2 7 3 5 4 6 5 3 7 4 8 2 9 1 10 78 11 79 12 82 13 80 14
REMARK SMILES IDX 81 15 83 16 84 17 89 18 85 19 88 20 90 21 86 22 87 23 10 24
REMARK SMILES IDX 11 25 12 26 13 27 14 29 15 30 16 31 77 32 17 33 76 34 18 35
REMARK SMILES IDX 19 36 20 37 70 38 21 39 75 40 69 41 71 42 22 43 74 44 68 45
REMARK SMILES IDX 67 46 23 48 55 49 35 50 54 51 36 52 39 53 53 54 72 55 37 56
REMARK SMILES IDX 38 57 52 59 73 60 40 61 24 62 25 63 33 64 26 65 27 66 31 67
REMARK SMILES IDX 34 68 28 69 29 70 32 71 30 72 56 73 57 74 65 75 58 76 59 77
REMARK SMILES IDX 63 78 66 79 60 80 61 81 64 82 62 83 41 84 42 85 50 86 43 87
REMARK SMILES IDX 44 88 48 89 51 90 45 91 46 92 49 93 47 94
REMARK H PARENT 7 6 12 28 71 47 39 58
REMARK Flexibility Score: inf
ROOT
ATOM      1  C   UNL A   1      31.767  30.490  26.808  1.00  0.00     0.023 C 
ENDROOT
BRANCH   1   2
ATOM      2  C   UNL A   1      32.333  29.869  25.531  1.00  0.00     0.116 C 
BRANCH   2   3
ATOM      3  N   UNL A   1      31.310  29.683  24.513  1.00  0.00    -0.354 N 
ATOM      4  C   UNL A   1      31.078  28.671  23.615  1.00  0.00     0.247 C 
ATOM      5  O   UNL A   1      30.174  28.884  22.802  1.00  0.00    -0.272 OA
ATOM      6  H   UNL A   1      30.664  30.423  24.457  1.00  0.00     0.163 HD
BRANCH   4   7
ATOM      7  C   UNL A   1      31.926  27.370  23.598  1.00  0.00     0.142 C 
ATOM      8  C   UNL A   1      31.606  26.648  22.275  1.00  0.00     0.048 C 
BRANCH   7   9
ATOM      9  C   UNL A   1      33.456  27.736  23.684  1.00  0.00     0.037 C 
ATOM     10  C   UNL A   1      34.027  28.429  22.450  1.00  0.00     0.007 C 
ENDBRANCH   7   9
BRANCH   7  11
ATOM     11  N   UNL A   1      31.557  26.542  24.776  1.00  0.00    -0.210 N 
ATOM     12  N   UNL A   1      30.455  26.881  25.494  1.00  0.00    -0.044 NA
ATOM     13  C   UNL A   1      32.123  25.423  25.369  1.00  0.00     0.183 A 
ATOM     14  N   UNL A   1      30.389  26.030  26.500  1.00  0.00    -0.023 NA
ATOM     15  N   UNL A   1      31.410  25.129  26.441  1.00  0.00    -0.108 NA
BRANCH  13  16
ATOM     16  C   UNL A   1      33.241  24.617  24.895  1.00  0.00     0.024 A 
ATOM     17  C   UNL A   1      34.516  24.931  25.392  1.00  0.00     0.012 A 
ATOM     18  C   UNL A   1      33.103  23.574  23.959  1.00  0.00    -0.040 A 
ATOM     19  C   UNL A   1      35.628  24.165  25.044  1.00  0.00     0.004 A 
ATOM     20  C   UNL A   1      34.228  22.789  23.647  1.00  0.00     0.007 A 
ATOM     21  C   UNL A   1      31.810  23.252  23.254  1.00  0.00     0.045 C 
ATOM     22  C   UNL A   1      35.482  23.055  24.209  1.00  0.00    -0.051 A 
ATOM     23  C   UNL A   1      36.669  22.203  23.875  1.00  0.00     0.044 C 
ENDBRANCH  13  16
ENDBRANCH   7  11
ENDBRANCH   4   7
ENDBRANCH   2   3
ENDBRANCH   1   2
BRANCH   1  24
ATOM     24  C   UNL A   1      31.585  32.002  26.752  1.00  0.00     0.023 C 
BRANCH  24  25
ATOM     25  C   UNL A   1      32.779  32.810  27.241  1.00  0.00     0.116 C 
BRANCH  25  26
ATOM     26  N   UNL A   1      32.447  34.175  27.627  1.00  0.00    -0.352 N 
ATOM     27  C   UNL A   1      33.023  34.940  28.613  1.00  0.00     0.251 C 
ATOM     28  H   UNL A   1      31.720  34.602  27.117  1.00  0.00     0.163 HD
ATOM     29  O   UNL A   1      32.577  36.049  28.889  1.00  0.00    -0.269 OA
BRANCH  27  30
ATOM     30  C   UNL A   1      34.162  34.384  29.365  1.00  0.00     0.039 A 
ATOM     31  C   UNL A   1      33.910  33.611  30.499  1.00  0.00     0.014 A 
ATOM     32  C   UNL A   1      35.467  34.561  28.898  1.00  0.00     0.014 A 
ATOM     33  C   UNL A   1      34.966  32.947  31.124  1.00  0.00     0.010 A 
ATOM     34  C   UNL A   1      36.504  33.833  29.470  1.00  0.00     0.010 A 
ATOM     35  C   UNL A   1      36.263  33.021  30.588  1.00  0.00    -0.014 A 
BRANCH  35  36
ATOM     36  C   UNL A   1      37.388  32.257  31.181  1.00  0.00     0.031 A 
ATOM     37  C   UNL A   1      37.886  32.606  32.553  1.00  0.00     0.074 A 
ATOM     38  C   UNL A   1      38.010  31.310  30.452  1.00  0.00     0.049 A 
ATOM     39  N   UNL A   1      38.908  32.123  33.212  1.00  0.00    -0.248 NA
ATOM     40  C   UNL A   1      37.159  33.668  33.268  1.00  0.00     0.031 C 
ATOM     41  C   UNL A   1      37.657  30.925  29.084  1.00  0.00     0.029 A 
ATOM     42  N   UNL A   1      39.081  30.507  30.756  1.00  0.00    -0.354 N 
ATOM     43  C   UNL A   1      38.958  32.835  34.402  1.00  0.00     0.074 A 
ATOM     44  C   UNL A   1      37.901  33.820  34.355  1.00  0.00     0.031 C 
ATOM     45  C   UNL A   1      38.482  29.947  28.676  1.00  0.00     0.029 A 
ATOM     46  C   UNL A   1      39.441  29.659  29.737  1.00  0.00     0.049 A 
ATOM     47  H   UNL A   1      39.546  30.537  31.623  1.00  0.00     0.167 HD
ATOM     48  C   UNL A   1      39.796  32.664  35.452  1.00  0.00     0.037 A 
ATOM     49  C   UNL A   1      40.435  28.755  29.669  1.00  0.00     0.037 A 
ATOM     50  C   UNL A   1      40.821  31.656  35.510  1.00  0.00     0.049 A 
ATOM     51  C   UNL A   1      41.337  28.567  30.859  1.00  0.00     0.074 A 
ATOM     52  C   UNL A   1      41.671  31.349  36.557  1.00  0.00     0.029 A 
ATOM     53  N   UNL A   1      41.132  30.788  34.473  1.00  0.00    -0.354 N 
ATOM     54  N   UNL A   1      41.327  29.194  32.011  1.00  0.00    -0.248 NA
ATOM     55  C   UNL A   1      42.384  27.541  30.743  1.00  0.00     0.031 C 
ATOM     56  C   UNL A   1      42.523  30.322  36.140  1.00  0.00     0.029 A 
ATOM     57  C   UNL A   1      42.173  29.958  34.850  1.00  0.00     0.049 A 
ATOM     58  H   UNL A   1      40.678  30.766  33.599  1.00  0.00     0.167 HD
ATOM     59  C   UNL A   1      42.344  28.623  32.764  1.00  0.00     0.074 A 
ATOM     60  C   UNL A   1      42.941  27.589  31.944  1.00  0.00     0.031 C 
ATOM     61  C   UNL A   1      42.748  28.929  34.022  1.00  0.00     0.037 A 
BRANCH  48  62
ATOM     62  C   UNL A   1      39.632  33.583  36.627  1.00  0.00     0.064 A 
ATOM     63  C   UNL A   1      40.279  34.827  36.683  1.00  0.00     0.173 A 
ATOM     64  C   UNL A   1      38.797  33.229  37.697  1.00  0.00     0.173 A 
ATOM     65  F   UNL A   1      41.101  35.207  35.693  1.00  0.00    -0.203 F 
ATOM     66  C   UNL A   1      40.118  35.670  37.780  1.00  0.00     0.198 A 
ATOM     67  C   UNL A   1      38.614  34.088  38.778  1.00  0.00     0.198 A 
ATOM     68  F   UNL A   1      38.153  32.052  37.691  1.00  0.00    -0.203 F 
ATOM     69  F   UNL A   1      40.786  36.831  37.834  1.00  0.00    -0.200 F 
ATOM     70  C   UNL A   1      39.280  35.303  38.822  1.00  0.00     0.200 A 
ATOM     71  F   UNL A   1      37.796  33.736  39.779  1.00  0.00    -0.200 F 
ATOM     72  F   UNL A   1      39.122  36.118  39.873  1.00  0.00    -0.200 F 
ENDBRANCH  48  62
BRANCH  49  73
ATOM     73  C   UNL A   1      40.611  27.936  28.443  1.00  0.00     0.064 A 
ATOM     74  C   UNL A   1      39.993  26.683  28.321  1.00  0.00     0.173 A 
ATOM     75  C   UNL A   1      41.393  28.385  27.368  1.00  0.00     0.173 A 
ATOM     76  F   UNL A   1      39.251  26.203  29.329  1.00  0.00    -0.203 F 
ATOM     77  C   UNL A   1      40.167  25.903  27.180  1.00  0.00     0.198 A 
ATOM     78  C   UNL A   1      41.544  27.614  26.217  1.00  0.00     0.198 A 
ATOM     79  F   UNL A   1      41.999  29.579  27.432  1.00  0.00    -0.203 F 
ATOM     80  F   UNL A   1      39.597  24.691  27.108  1.00  0.00    -0.200 F 
ATOM     81  C   UNL A   1      40.937  26.371  26.126  1.00  0.00     0.200 A 
ATOM     82  F   UNL A   1      42.276  28.077  25.195  1.00  0.00    -0.200 F 
ATOM     83  F   UNL A   1      41.098  25.622  25.027  1.00  0.00    -0.200 F 
ENDBRANCH  49  73
BRANCH  61  84
ATOM     84  C   UNL A   1      43.867  28.114  34.601  1.00  0.00     0.064 A 
ATOM     85  C   UNL A   1      45.202  28.533  34.515  1.00  0.00     0.173 A 
ATOM     86  C   UNL A   1      43.593  26.923  35.291  1.00  0.00     0.173 A 
ATOM     87  F   UNL A   1      45.515  29.657  33.853  1.00  0.00    -0.203 F 
ATOM     88  C   UNL A   1      46.225  27.778  35.080  1.00  0.00     0.198 A 
ATOM     89  C   UNL A   1      44.615  26.185  35.878  1.00  0.00     0.198 A 
ATOM     90  F   UNL A   1      42.330  26.483  35.405  1.00  0.00    -0.203 F 
ATOM     91  F   UNL A   1      47.498  28.174  34.949  1.00  0.00    -0.200 F 
ATOM     92  C   UNL A   1      45.931  26.609  35.768  1.00  0.00     0.200 A 
ATOM     93  F   UNL A   1      44.328  25.064  36.554  1.00  0.00    -0.200 F 
ATOM     94  F   UNL A   1      46.916  25.887  36.318  1.00  0.00    -0.200 F 
ENDBRANCH  61  84
ENDBRANCH  35  36
ENDBRANCH  27  30
ENDBRANCH  25  26
ENDBRANCH  24  25
ENDBRANCH   1  24
TORSDOF 14
ENDMDL
MODEL 3
REMARK VINA RESULT:     -13.0      0.067      1.585
REMARK SMILES CC[C@](C)(C(=O)NCCCCNC(=O)c1ccc(-c2c3nc(c(-c4c(F)c(F)c(F)c(F)c4F)c4ccc([nH]4)c(-c4c(F)c(F)c(F)c(F)c4F)c4nc(c(-c5c(F)c(F)c(F)c(F)c5F)c5ccc2[nH]5)C=C4)C=C3)cc1)n1nnnc1-c1ccc(C)cc1C
REMARK SMILES IDX 9 1 8 2 7 3 5 4 6 5 3 7 4 8 2 9 1 10 78 11 79 12 82 13 80 14
REMARK SMILES IDX 81 15 83 16 84 17 89 18 85 19 88 20 90 21 86 22 87 23 10 24
REMARK SMILES IDX 11 25 12 26 13 27 14 29 15 30 16 31 77 32 17 33 76 34 18 35
REMARK SMILES IDX 19 36 20 37 70 38 21 39 75 40 69 41 71 42 22 43 74 44 68 45
REMARK SMILES IDX 67 46 23 48 55 49 35 50 54 51 36 52 39 53 53 54 72 55 37 56
REMARK SMILES IDX 38 57 52 59 73 60 40 61 24 62 25 63 33 64 26 65 27 66 31 67
REMARK SMILES IDX 34 68 28 69 29 70 32 71 30 72 56 73 57 74 65 75 58 76 59 77
REMARK SMILES IDX 63 78 66 79 60 80 61 81 64 82 62 83 41 84 42 85 50 86 43 87
REMARK SMILES IDX 44 88 48 89 51 90 45 91 46 92 49 93 47 94
REMARK H PARENT 7 6 12 28 71 47 39 58
REMARK Flexibility Score: inf
ROOT
ATOM      1  C   UNL A   1      32.069  30.369  26.921  1.00  0.00     0.023 C 
ENDROOT
BRANCH   1   2
ATOM      2  C   UNL A   1      32.557  29.742  25.616  1.00  0.00     0.116 C 
BRANCH   2   3
ATOM      3  N   UNL A   1      31.504  29.677  24.613  1.00  0.00    -0.354 N 
ATOM      4  C   UNL A   1      31.182  28.725  23.677  1.00  0.00     0.247 C 
ATOM      5  O   UNL A   1      30.281  29.040  22.894  1.00  0.00    -0.272 OA
ATOM      6  H   UNL A   1      30.913  30.463  24.603  1.00  0.00     0.163 HD
BRANCH   4   7
ATOM      7  C   UNL A   1      31.931  27.369  23.585  1.00  0.00     0.142 C 
ATOM      8  C   UNL A   1      31.458  26.686  22.287  1.00  0.00     0.048 C 
BRANCH   7   9
ATOM      9  C   UNL A   1      33.486  27.626  23.551  1.00  0.00     0.037 C 
ATOM     10  C   UNL A   1      34.008  28.269  22.270  1.00  0.00     0.007 C 
ENDBRANCH   7   9
BRANCH   7  11
ATOM     11  N   UNL A   1      31.599  26.556  24.784  1.00  0.00    -0.210 N 
ATOM     12  N   UNL A   1      30.508  26.891  25.519  1.00  0.00    -0.044 NA
ATOM     13  C   UNL A   1      32.193  25.454  25.382  1.00  0.00     0.183 A 
ATOM     14  N   UNL A   1      30.475  26.055  26.541  1.00  0.00    -0.023 NA
ATOM     15  N   UNL A   1      31.507  25.168  26.474  1.00  0.00    -0.108 NA
BRANCH  13  16
ATOM     16  C   UNL A   1      33.312  24.656  24.898  1.00  0.00     0.024 A 
ATOM     17  C   UNL A   1      34.587  24.964  25.398  1.00  0.00     0.012 A 
ATOM     18  C   UNL A   1      33.175  23.625  23.948  1.00  0.00    -0.040 A 
ATOM     19  C   UNL A   1      35.699  24.204  25.040  1.00  0.00     0.004 A 
ATOM     20  C   UNL A   1      34.300  22.844  23.625  1.00  0.00     0.007 A 
ATOM     21  C   UNL A   1      31.882  23.310  23.239  1.00  0.00     0.045 C 
ATOM     22  C   UNL A   1      35.554  23.105  24.191  1.00  0.00    -0.051 A 
ATOM     23  C   UNL A   1      36.742  22.258  23.845  1.00  0.00     0.044 C 
ENDBRANCH  13  16
ENDBRANCH   7  11
ENDBRANCH   4   7
ENDBRANCH   2   3
ENDBRANCH   1   2
BRANCH   1  24
ATOM     24  C   UNL A   1      31.799  31.868  26.845  1.00  0.00     0.023 C 
BRANCH  24  25
ATOM     25  C   UNL A   1      32.908  32.747  27.405  1.00  0.00     0.116 C 
BRANCH  25  26
ATOM     26  N   UNL A   1      32.491  34.115  27.680  1.00  0.00    -0.352 N 
ATOM     27  C   UNL A   1      33.011  34.990  28.605  1.00  0.00     0.251 C 
ATOM     28  H   UNL A   1      31.745  34.456  27.136  1.00  0.00     0.163 HD
ATOM     29  O   UNL A   1      32.496  36.087  28.791  1.00  0.00    -0.269 OA
BRANCH  27  30
ATOM     30  C   UNL A   1      34.175  34.564  29.404  1.00  0.00     0.039 A 
ATOM     31  C   UNL A   1      33.961  34.000  30.662  1.00  0.00     0.014 A 
ATOM     32  C   UNL A   1      35.464  34.650  28.871  1.00  0.00     0.014 A 
ATOM     33  C   UNL A   1      35.038  33.448  31.357  1.00  0.00     0.010 A 
ATOM     34  C   UNL A   1      36.519  34.026  29.525  1.00  0.00     0.010 A 
ATOM     35  C   UNL A   1      36.316  33.420  30.773  1.00  0.00    -0.014 A 
BRANCH  35  36
ATOM     36  C   UNL A   1      37.459  32.763  31.452  1.00  0.00     0.031 A 
ATOM     37  C   UNL A   1      38.154  31.607  30.792  1.00  0.00     0.074 A 
ATOM     38  C   UNL A   1      37.814  33.152  32.691  1.00  0.00     0.049 A 
ATOM     39  N   UNL A   1      39.111  30.842  31.253  1.00  0.00    -0.248 NA
ATOM     40  C   UNL A   1      37.686  31.236  29.446  1.00  0.00     0.031 C 
ATOM     41  C   UNL A   1      37.173  34.222  33.460  1.00  0.00     0.029 A 
ATOM     42  N   UNL A   1      38.794  32.683  33.530  1.00  0.00    -0.354 N 
ATOM     43  C   UNL A   1      39.342  29.893  30.267  1.00  0.00     0.074 A 
ATOM     44  C   UNL A   1      38.389  30.139  29.207  1.00  0.00     0.031 C 
ATOM     45  C   UNL A   1      37.790  34.340  34.646  1.00  0.00     0.029 A 
ATOM     46  C   UNL A   1      38.846  33.336  34.737  1.00  0.00     0.049 A 
ATOM     47  H   UNL A   1      39.402  31.948  33.288  1.00  0.00     0.167 HD
ATOM     48  C   UNL A   1      40.280  28.918  30.239  1.00  0.00     0.037 A 
ATOM     49  C   UNL A   1      39.653  33.143  35.797  1.00  0.00     0.037 A 
ATOM     50  C   UNL A   1      41.250  28.703  31.279  1.00  0.00     0.049 A 
ATOM     51  C   UNL A   1      40.704  32.069  35.730  1.00  0.00     0.074 A 
ATOM     52  C   UNL A   1      42.292  27.793  31.312  1.00  0.00     0.029 A 
ATOM     53  N   UNL A   1      41.297  29.409  32.472  1.00  0.00    -0.354 N 
ATOM     54  N   UNL A   1      40.963  31.225  34.760  1.00  0.00    -0.248 NA
ATOM     55  C   UNL A   1      41.581  31.925  36.901  1.00  0.00     0.031 C 
ATOM     56  C   UNL A   1      42.945  27.923  32.541  1.00  0.00     0.029 A 
ATOM     57  C   UNL A   1      42.339  28.944  33.255  1.00  0.00     0.049 A 
ATOM     58  H   UNL A   1      40.680  30.135  32.723  1.00  0.00     0.167 HD
ATOM     59  C   UNL A   1      42.045  30.470  35.191  1.00  0.00     0.074 A 
ATOM     60  C   UNL A   1      42.404  30.965  36.504  1.00  0.00     0.031 C 
ATOM     61  C   UNL A   1      42.684  29.456  34.556  1.00  0.00     0.037 A 
BRANCH  48  62
ATOM     62  C   UNL A   1      40.308  28.017  29.039  1.00  0.00     0.064 A 
ATOM     63  C   UNL A   1      39.591  26.811  29.009  1.00  0.00     0.173 A 
ATOM     64  C   UNL A   1      41.038  28.376  27.896  1.00  0.00     0.173 A 
ATOM     65  F   UNL A   1      38.890  26.414  30.082  1.00  0.00    -0.203 F 
ATOM     66  C   UNL A   1      39.626  25.985  27.889  1.00  0.00     0.198 A 
ATOM     67  C   UNL A   1      41.046  27.562  26.766  1.00  0.00     0.198 A 
ATOM     68  F   UNL A   1      41.738  29.520  27.872  1.00  0.00    -0.203 F 
ATOM     69  F   UNL A   1      38.975  24.813  27.902  1.00  0.00    -0.200 F 
ATOM     70  C   UNL A   1      40.347  26.364  26.767  1.00  0.00     0.200 A 
ATOM     71  F   UNL A   1      41.734  27.935  25.679  1.00  0.00    -0.200 F 
ATOM     72  F   UNL A   1      40.375  25.570  25.688  1.00  0.00    -0.200 F 
ENDBRANCH  48  62
BRANCH  49  73
ATOM     73  C   UNL A   1      39.518  34.005  36.999  1.00  0.00     0.064 A 
ATOM     74  C   UNL A   1      40.143  35.258  37.057  1.00  0.00     0.173 A 
ATOM     75  C   UNL A   1      38.765  33.599  38.110  1.00  0.00     0.173 A 
ATOM     76  F   UNL A   1      40.889  35.681  36.027  1.00  0.00    -0.203 F 
ATOM     77  C   UNL A   1      40.034  36.065  38.188  1.00  0.00     0.198 A 
ATOM     78  C   UNL A   1      38.636  34.419  39.230  1.00  0.00     0.198 A 
ATOM     79  F   UNL A   1      38.143  32.411  38.102  1.00  0.00    -0.203 F 
ATOM     80  F   UNL A   1      40.676  37.242  38.231  1.00  0.00    -0.200 F 
ATOM     81  C   UNL A   1      39.276  35.648  39.271  1.00  0.00     0.200 A 
ATOM     82  F   UNL A   1      37.890  34.018  40.269  1.00  0.00    -0.200 F 
ATOM     83  F   UNL A   1      39.168  36.427  40.355  1.00  0.00    -0.200 F 
ENDBRANCH  49  73
BRANCH  61  84
ATOM     84  C   UNL A   1      43.857  28.837  35.259  1.00  0.00     0.064 A 
ATOM     85  C   UNL A   1      43.703  27.739  36.118  1.00  0.00     0.173 A 
ATOM     86  C   UNL A   1      45.155  29.319  35.031  1.00  0.00     0.173 A 
ATOM     87  F   UNL A   1      42.481  27.252  36.377  1.00  0.00    -0.203 F 
ATOM     88  C   UNL A   1      44.805  27.161  36.741  1.00  0.00     0.198 A 
ATOM     89  C   UNL A   1      46.257  28.722  35.635  1.00  0.00     0.198 A 
ATOM     90  F   UNL A   1      45.354  30.364  34.213  1.00  0.00    -0.203 F 
ATOM     91  F   UNL A   1      44.631  26.140  37.592  1.00  0.00    -0.200 F 
ATOM     92  C   UNL A   1      46.081  27.647  36.494  1.00  0.00     0.200 A 
ATOM     93  F   UNL A   1      47.489  29.183  35.385  1.00  0.00    -0.200 F 
ATOM     94  F   UNL A   1      47.141  27.083  37.089  1.00  0.00    -0.200 F 
ENDBRANCH  61  84
ENDBRANCH  35  36
ENDBRANCH  27  30
ENDBRANCH  25  26
ENDBRANCH  24  25
ENDBRANCH   1  24
TORSDOF 14
ENDMDL
