MODEL 1
REMARK VINA RESULT:     -12.5      0.000      0.000
REMARK SMILES O=C(NCCCCNC(=O)[C@@]1(C(F)(F)F)CCN(C(=O)Cc2ccn[nH]2)C1)c1ccc(-c2c3nc(c(-c4c(F)c(F)c(F)c(F)c4F)c4ccc([nH]4)c(-c4c(F)c(F)c(F)c(F)c4F)c4nc(c(-c5c(F)c(F)c(F)c(F)c5F)c5ccc2[nH]5)C=C4)C=C3)cc1
REMARK SMILES IDX 6 1 5 2 4 3 3 4 1 5 2 6 28 8 29 9 90 10 30 11 89 12 31 13
REMARK SMILES IDX 32 14 33 15 83 16 34 17 88 18 82 19 84 20 35 21 87 22 81 23
REMARK SMILES IDX 80 24 36 26 68 27 48 28 67 29 49 30 52 31 66 32 85 33 50 34
REMARK SMILES IDX 51 35 65 37 86 38 53 39 37 40 38 41 46 42 39 43 40 44 44 45
REMARK SMILES IDX 47 46 41 47 42 48 45 49 43 50 69 51 70 52 78 53 71 54 72 55
REMARK SMILES IDX 76 56 79 57 73 58 74 59 77 60 75 61 54 62 55 63 63 64 56 65
REMARK SMILES IDX 57 66 61 67 64 68 58 69 59 70 62 71 60 72 7 73 8 74 9 75
REMARK SMILES IDX 10 77 11 78 16 79 27 80 17 81 18 82 12 83 13 84 14 85 15 86
REMARK SMILES IDX 19 87 20 88 21 89 22 90 23 91 26 92 24 93 25 94
REMARK H PARENT 3 7 84 25 52 36 8 76 26 95
REMARK Flexibility Score: inf
ROOT
ATOM      1  C   UNL A   1      31.406  31.221  25.636  1.00  0.00     0.023 C 
ENDROOT
BRANCH   1   2
ATOM      2  C   UNL A   1      31.271  32.168  26.826  1.00  0.00     0.023 C 
BRANCH   2   3
ATOM      3  C   UNL A   1      32.553  32.880  27.239  1.00  0.00     0.116 C 
BRANCH   3   4
ATOM      4  N   UNL A   1      32.337  34.272  27.603  1.00  0.00    -0.352 N 
ATOM      5  O   UNL A   1      32.522  36.159  28.827  1.00  0.00    -0.269 OA
ATOM      6  C   UNL A   1      32.961  35.049  28.553  1.00  0.00     0.251 C 
ATOM      7  H   UNL A   1      31.633  34.732  27.088  1.00  0.00     0.163 HD
BRANCH   6   8
ATOM      8  C   UNL A   1      34.145  34.529  29.274  1.00  0.00     0.039 A 
ATOM      9  C   UNL A   1      35.426  34.661  28.739  1.00  0.00     0.014 A 
ATOM     10  C   UNL A   1      33.967  33.897  30.509  1.00  0.00     0.014 A 
ATOM     11  C   UNL A   1      36.493  33.996  29.331  1.00  0.00     0.010 A 
ATOM     12  C   UNL A   1      35.061  33.314  31.156  1.00  0.00     0.010 A 
ATOM     13  C   UNL A   1      36.324  33.312  30.545  1.00  0.00    -0.014 A 
BRANCH  13  14
ATOM     14  C   UNL A   1      37.487  32.618  31.157  1.00  0.00     0.031 A 
ATOM     15  C   UNL A   1      37.934  32.941  32.558  1.00  0.00     0.074 A 
ATOM     16  C   UNL A   1      38.115  31.654  30.458  1.00  0.00     0.049 A 
ATOM     17  N   UNL A   1      38.901  32.404  33.262  1.00  0.00    -0.248 NA
ATOM     18  C   UNL A   1      37.210  34.012  33.259  1.00  0.00     0.031 C 
ATOM     19  C   UNL A   1      37.779  31.255  29.090  1.00  0.00     0.029 A 
ATOM     20  N   UNL A   1      39.145  30.818  30.805  1.00  0.00    -0.354 N 
ATOM     21  C   UNL A   1      38.919  33.088  34.470  1.00  0.00     0.074 A 
ATOM     22  C   UNL A   1      37.881  34.095  34.399  1.00  0.00     0.031 C 
ATOM     23  C   UNL A   1      38.544  30.213  28.735  1.00  0.00     0.029 A 
ATOM     24  C   UNL A   1      39.464  29.909  29.826  1.00  0.00     0.049 A 
ATOM     25  H   UNL A   1      39.608  30.864  31.672  1.00  0.00     0.167 HD
ATOM     26  C   UNL A   1      39.724  32.890  35.542  1.00  0.00     0.037 A 
ATOM     27  C   UNL A   1      40.397  28.940  29.806  1.00  0.00     0.037 A 
ATOM     28  C   UNL A   1      40.734  31.865  35.623  1.00  0.00     0.049 A 
ATOM     29  C   UNL A   1      41.276  28.744  31.007  1.00  0.00     0.074 A 
ATOM     30  C   UNL A   1      41.567  31.555  36.684  1.00  0.00     0.029 A 
ATOM     31  N   UNL A   1      41.048  30.983  34.599  1.00  0.00    -0.354 N 
ATOM     32  N   UNL A   1      41.261  29.376  32.155  1.00  0.00    -0.248 NA
ATOM     33  C   UNL A   1      42.303  27.699  30.907  1.00  0.00     0.031 C 
ATOM     34  C   UNL A   1      42.414  30.513  36.288  1.00  0.00     0.029 A 
ATOM     35  C   UNL A   1      42.077  30.142  34.996  1.00  0.00     0.049 A 
ATOM     36  H   UNL A   1      40.606  30.958  33.720  1.00  0.00     0.167 HD
ATOM     37  C   UNL A   1      42.259  28.793  32.922  1.00  0.00     0.074 A 
ATOM     38  C   UNL A   1      42.850  27.746  32.114  1.00  0.00     0.031 C 
ATOM     39  C   UNL A   1      42.650  29.100  34.184  1.00  0.00     0.037 A 
BRANCH  26  40
ATOM     40  C   UNL A   1      39.563  33.816  36.714  1.00  0.00     0.064 A 
ATOM     41  C   UNL A   1      38.775  33.477  37.824  1.00  0.00     0.173 A 
ATOM     42  C   UNL A   1      40.236  35.047  36.739  1.00  0.00     0.173 A 
ATOM     43  F   UNL A   1      38.101  32.318  37.845  1.00  0.00    -0.203 F 
ATOM     44  C   UNL A   1      38.644  34.350  38.902  1.00  0.00     0.198 A 
ATOM     45  C   UNL A   1      40.124  35.905  37.831  1.00  0.00     0.198 A 
ATOM     46  F   UNL A   1      41.008  35.417  35.707  1.00  0.00    -0.203 F 
ATOM     47  F   UNL A   1      37.847  34.026  39.931  1.00  0.00    -0.200 F 
ATOM     48  C   UNL A   1      39.323  35.559  38.908  1.00  0.00     0.200 A 
ATOM     49  F   UNL A   1      40.790  37.069  37.839  1.00  0.00    -0.200 F 
ATOM     50  F   UNL A   1      39.197  36.395  39.947  1.00  0.00    -0.200 F 
ENDBRANCH  26  40
BRANCH  27  51
ATOM     51  C   UNL A   1      40.526  28.071  28.609  1.00  0.00     0.064 A 
ATOM     52  C   UNL A   1      39.847  26.848  28.535  1.00  0.00     0.173 A 
ATOM     53  C   UNL A   1      41.304  28.457  27.509  1.00  0.00     0.173 A 
ATOM     54  F   UNL A   1      39.106  26.430  29.571  1.00  0.00    -0.203 F 
ATOM     55  C   UNL A   1      39.949  26.038  27.406  1.00  0.00     0.198 A 
ATOM     56  C   UNL A   1      41.384  27.660  26.370  1.00  0.00     0.198 A 
ATOM     57  F   UNL A   1      41.969  29.622  27.531  1.00  0.00    -0.203 F 
ATOM     58  F   UNL A   1      39.316  24.858  27.372  1.00  0.00    -0.200 F 
ATOM     59  C   UNL A   1      40.711  26.448  26.322  1.00  0.00     0.200 A 
ATOM     60  F   UNL A   1      42.108  28.067  25.318  1.00  0.00    -0.200 F 
ATOM     61  F   UNL A   1      40.799  25.674  25.232  1.00  0.00    -0.200 F 
ENDBRANCH  27  51
BRANCH  39  62
ATOM     62  C   UNL A   1      43.744  28.264  34.780  1.00  0.00     0.064 A 
ATOM     63  C   UNL A   1      45.092  28.640  34.685  1.00  0.00     0.173 A 
ATOM     64  C   UNL A   1      43.436  27.084  35.471  1.00  0.00     0.173 A 
ATOM     65  F   UNL A   1      45.438  29.752  34.019  1.00  0.00    -0.203 F 
ATOM     66  C   UNL A   1      46.094  27.847  35.237  1.00  0.00     0.198 A 
ATOM     67  C   UNL A   1      44.438  26.308  36.046  1.00  0.00     0.198 A 
ATOM     68  F   UNL A   1      42.161  26.685  35.593  1.00  0.00    -0.203 F 
ATOM     69  F   UNL A   1      47.379  28.199  35.092  1.00  0.00    -0.200 F 
ATOM     70  C   UNL A   1      45.767  26.686  35.922  1.00  0.00     0.200 A 
ATOM     71  F   UNL A   1      44.120  25.191  36.715  1.00  0.00    -0.200 F 
ATOM     72  F   UNL A   1      46.733  25.925  36.452  1.00  0.00    -0.200 F 
ENDBRANCH  39  62
ENDBRANCH  13  14
ENDBRANCH   6   8
ENDBRANCH   3   4
ENDBRANCH   2   3
ENDBRANCH   1   2
BRANCH   1  73
ATOM     73  C   UNL A   1      32.272  29.986  25.873  1.00  0.00     0.116 C 
BRANCH  73  74
ATOM     74  N   UNL A   1      31.803  29.143  26.962  1.00  0.00    -0.355 N 
ATOM     75  C   UNL A   1      31.610  27.792  27.037  1.00  0.00     0.237 C 
ATOM     76  H   UNL A   1      31.586  29.632  27.789  1.00  0.00     0.163 HD
ATOM     77  O   UNL A   1      31.355  27.355  28.160  1.00  0.00    -0.274 OA
BRANCH  75  78
ATOM     78  C   UNL A   1      31.653  26.895  25.812  1.00  0.00     0.163 C 
ATOM     79  C   UNL A   1      30.435  25.946  25.759  1.00  0.00     0.050 C 
ATOM     80  C   UNL A   1      31.616  27.694  24.510  1.00  0.00     0.146 C 
ATOM     81  C   UNL A   1      29.986  25.958  24.305  1.00  0.00     0.121 C 
ATOM     82  N   UNL A   1      30.408  27.259  23.819  1.00  0.00    -0.341 N 
BRANCH  78  83
ATOM     83  C   UNL A   1      32.940  26.093  25.841  1.00  0.00     0.404 C 
ATOM     84  F   UNL A   1      32.837  24.961  26.569  1.00  0.00    -0.170 F 
ATOM     85  F   UNL A   1      33.262  25.699  24.578  1.00  0.00    -0.170 F 
ATOM     86  F   UNL A   1      33.988  26.810  26.298  1.00  0.00    -0.170 F 
ENDBRANCH  78  83
BRANCH  82  87
ATOM     87  C   UNL A   1      29.789  28.082  22.897  1.00  0.00     0.228 C 
ATOM     88  O   UNL A   1      30.320  28.327  21.813  1.00  0.00    -0.274 OA
BRANCH  87  89
ATOM     89  C   UNL A   1      28.421  28.651  23.241  1.00  0.00     0.155 C 
BRANCH  89  90
ATOM     90  C   UNL A   1      28.235  30.007  22.651  1.00  0.00     0.044 A 
ATOM     91  C   UNL A   1      28.278  31.259  23.227  1.00  0.00     0.045 A 
ATOM     92  N   UNL A   1      27.978  30.230  21.322  1.00  0.00    -0.282 N 
ATOM     93  C   UNL A   1      28.009  32.152  22.176  1.00  0.00     0.135 A 
ATOM     94  N   UNL A   1      27.803  31.523  21.018  1.00  0.00    -0.184 NA
ATOM     95  H   UNL A   1      27.927  29.507  20.655  1.00  0.00     0.190 HD
ENDBRANCH  89  90
ENDBRANCH  87  89
ENDBRANCH  82  87
ENDBRANCH  75  78
ENDBRANCH  73  74
ENDBRANCH   1  73
TORSDOF 15
ENDMDL
MODEL 2
REMARK VINA RESULT:     -12.4      1.718      3.214
REMARK SMILES O=C(NCCCCNC(=O)[C@@]1(C(F)(F)F)CCN(C(=O)Cc2ccn[nH]2)C1)c1ccc(-c2c3nc(c(-c4c(F)c(F)c(F)c(F)c4F)c4ccc([nH]4)c(-c4c(F)c(F)c(F)c(F)c4F)c4nc(c(-c5c(F)c(F)c(F)c(F)c5F)c5ccc2[nH]5)C=C4)C=C3)cc1
REMARK SMILES IDX 6 1 5 2 4 3 3 4 1 5 2 6 28 8 29 9 90 10 30 11 89 12 31 13
REMARK SMILES IDX 32 14 33 15 83 16 34 17 88 18 82 19 84 20 35 21 87 22 81 23
REMARK SMILES IDX 80 24 36 26 68 27 48 28 67 29 49 30 52 31 66 32 85 33 50 34
REMARK SMILES IDX 51 35 65 37 86 38 53 39 37 40 38 41 46 42 39 43 40 44 44 45
REMARK SMILES IDX 47 46 41 47 42 48 45 49 43 50 69 51 70 52 78 53 71 54 72 55
REMARK SMILES IDX 76 56 79 57 73 58 74 59 77 60 75 61 54 62 55 63 63 64 56 65
REMARK SMILES IDX 57 66 61 67 64 68 58 69 59 70 62 71 60 72 7 73 8 74 9 75
REMARK SMILES IDX 10 77 11 78 16 79 27 80 17 81 18 82 12 83 13 84 14 85 15 86
REMARK SMILES IDX 19 87 20 88 21 89 22 90 23 91 26 92 24 93 25 94
REMARK H PARENT 3 7 84 25 52 36 8 76 26 95
REMARK Flexibility Score: inf
ROOT
ATOM      1  C   UNL A   1      31.531  30.567  26.612  1.00  0.00     0.023 C 
ENDROOT
BRANCH   1   2
ATOM      2  C   UNL A   1      31.487  32.093  26.609  1.00  0.00     0.023 C 
BRANCH   2   3
ATOM      3  C   UNL A   1      32.710  32.779  27.207  1.00  0.00     0.116 C 
BRANCH   3   4
ATOM      4  N   UNL A   1      32.446  34.148  27.622  1.00  0.00    -0.352 N 
ATOM      5  O   UNL A   1      32.550  35.987  28.925  1.00  0.00    -0.269 OA
ATOM      6  C   UNL A   1      33.027  34.902  28.617  1.00  0.00     0.251 C 
ATOM      7  H   UNL A   1      31.740  34.608  27.111  1.00  0.00     0.163 HD
BRANCH   6   8
ATOM      8  C   UNL A   1      34.209  34.386  29.344  1.00  0.00     0.039 A 
ATOM      9  C   UNL A   1      35.501  34.697  28.923  1.00  0.00     0.014 A 
ATOM     10  C   UNL A   1      34.017  33.575  30.466  1.00  0.00     0.014 A 
ATOM     11  C   UNL A   1      36.589  34.047  29.495  1.00  0.00     0.010 A 
ATOM     12  C   UNL A   1      35.121  33.000  31.105  1.00  0.00     0.010 A 
ATOM     13  C   UNL A   1      36.412  33.188  30.591  1.00  0.00    -0.014 A 
BRANCH  13  14
ATOM     14  C   UNL A   1      37.596  32.514  31.184  1.00  0.00     0.031 A 
ATOM     15  C   UNL A   1      38.064  32.850  32.575  1.00  0.00     0.074 A 
ATOM     16  C   UNL A   1      38.225  31.555  30.478  1.00  0.00     0.049 A 
ATOM     17  N   UNL A   1      39.051  32.330  33.264  1.00  0.00    -0.248 NA
ATOM     18  C   UNL A   1      37.337  33.914  33.285  1.00  0.00     0.031 C 
ATOM     19  C   UNL A   1      37.870  31.145  29.118  1.00  0.00     0.029 A 
ATOM     20  N   UNL A   1      39.273  30.736  30.810  1.00  0.00    -0.354 N 
ATOM     21  C   UNL A   1      39.082  33.021  34.468  1.00  0.00     0.074 A 
ATOM     22  C   UNL A   1      38.028  34.012  34.411  1.00  0.00     0.031 C 
ATOM     23  C   UNL A   1      38.644  30.113  28.754  1.00  0.00     0.029 A 
ATOM     24  C   UNL A   1      39.588  29.827  29.830  1.00  0.00     0.049 A 
ATOM     25  H   UNL A   1      39.752  30.793  31.668  1.00  0.00     0.167 HD
ATOM     26  C   UNL A   1      39.909  32.839  35.526  1.00  0.00     0.037 A 
ATOM     27  C   UNL A   1      40.534  28.872  29.797  1.00  0.00     0.037 A 
ATOM     28  C   UNL A   1      40.935  31.830  35.593  1.00  0.00     0.049 A 
ATOM     29  C   UNL A   1      41.438  28.694  30.983  1.00  0.00     0.074 A 
ATOM     30  C   UNL A   1      41.792  31.537  36.641  1.00  0.00     0.029 A 
ATOM     31  N   UNL A   1      41.243  30.947  34.568  1.00  0.00    -0.354 N 
ATOM     32  N   UNL A   1      41.435  29.332  32.127  1.00  0.00    -0.248 NA
ATOM     33  C   UNL A   1      42.478  27.664  30.869  1.00  0.00     0.031 C 
ATOM     34  C   UNL A   1      42.647  30.505  36.234  1.00  0.00     0.029 A 
ATOM     35  C   UNL A   1      42.291  30.123  34.950  1.00  0.00     0.049 A 
ATOM     36  H   UNL A   1      40.785  30.911  33.697  1.00  0.00     0.167 HD
ATOM     37  C   UNL A   1      42.455  28.767  32.880  1.00  0.00     0.074 A 
ATOM     38  C   UNL A   1      43.046  27.725  32.065  1.00  0.00     0.031 C 
ATOM     39  C   UNL A   1      42.864  29.086  34.132  1.00  0.00     0.037 A 
BRANCH  26  40
ATOM     40  C   UNL A   1      39.756  33.769  36.696  1.00  0.00     0.064 A 
ATOM     41  C   UNL A   1      40.412  35.008  36.749  1.00  0.00     0.173 A 
ATOM     42  C   UNL A   1      38.914  33.428  37.765  1.00  0.00     0.173 A 
ATOM     43  F   UNL A   1      41.239  35.377  35.758  1.00  0.00    -0.203 F 
ATOM     44  C   UNL A   1      40.254  35.857  37.842  1.00  0.00     0.198 A 
ATOM     45  C   UNL A   1      38.736  34.292  38.844  1.00  0.00     0.198 A 
ATOM     46  F   UNL A   1      38.257  32.259  37.763  1.00  0.00    -0.203 F 
ATOM     47  F   UNL A   1      40.928  37.015  37.892  1.00  0.00    -0.200 F 
ATOM     48  C   UNL A   1      39.411  35.501  38.884  1.00  0.00     0.200 A 
ATOM     49  F   UNL A   1      37.913  33.951  39.846  1.00  0.00    -0.200 F 
ATOM     50  F   UNL A   1      39.258  36.322  39.933  1.00  0.00    -0.200 F 
ENDBRANCH  26  40
BRANCH  27  51
ATOM     51  C   UNL A   1      40.654  27.999  28.602  1.00  0.00     0.064 A 
ATOM     52  C   UNL A   1      39.974  26.775  28.536  1.00  0.00     0.173 A 
ATOM     53  C   UNL A   1      41.425  28.380  27.495  1.00  0.00     0.173 A 
ATOM     54  F   UNL A   1      39.239  26.361  29.579  1.00  0.00    -0.203 F 
ATOM     55  C   UNL A   1      40.067  25.962  27.410  1.00  0.00     0.198 A 
ATOM     56  C   UNL A   1      41.496  27.579  26.358  1.00  0.00     0.198 A 
ATOM     57  F   UNL A   1      42.090  29.545  27.508  1.00  0.00    -0.203 F 
ATOM     58  F   UNL A   1      39.433  24.782  27.384  1.00  0.00    -0.200 F 
ATOM     59  C   UNL A   1      40.821  26.368  26.319  1.00  0.00     0.200 A 
ATOM     60  F   UNL A   1      42.212  27.982  25.300  1.00  0.00    -0.200 F 
ATOM     61  F   UNL A   1      40.901  25.590  25.230  1.00  0.00    -0.200 F 
ENDBRANCH  27  51
BRANCH  39  62
ATOM     62  C   UNL A   1      43.981  28.269  34.712  1.00  0.00     0.064 A 
ATOM     63  C   UNL A   1      45.321  28.661  34.587  1.00  0.00     0.173 A 
ATOM     64  C   UNL A   1      43.703  27.089  35.417  1.00  0.00     0.173 A 
ATOM     65  F   UNL A   1      45.640  29.773  33.906  1.00  0.00    -0.203 F 
ATOM     66  C   UNL A   1      46.345  27.886  35.125  1.00  0.00     0.198 A 
ATOM     67  C   UNL A   1      44.726  26.331  35.977  1.00  0.00     0.198 A 
ATOM     68  F   UNL A   1      42.435  26.674  35.568  1.00  0.00    -0.203 F 
ATOM     69  F   UNL A   1      47.622  28.253  34.951  1.00  0.00    -0.200 F 
ATOM     70  C   UNL A   1      46.047  26.725  35.824  1.00  0.00     0.200 A 
ATOM     71  F   UNL A   1      44.436  25.215  36.660  1.00  0.00    -0.200 F 
ATOM     72  F   UNL A   1      47.034  25.982  36.340  1.00  0.00    -0.200 F 
ENDBRANCH  39  62
ENDBRANCH  13  14
ENDBRANCH   6   8
ENDBRANCH   3   4
ENDBRANCH   2   3
ENDBRANCH   1   2
BRANCH   1  73
ATOM     73  C   UNL A   1      31.387  29.902  25.246  1.00  0.00     0.116 C 
BRANCH  73  74
ATOM     74  N   UNL A   1      32.641  29.783  24.518  1.00  0.00    -0.355 N 
ATOM     75  C   UNL A   1      33.332  28.686  24.087  1.00  0.00     0.237 C 
ATOM     76  H   UNL A   1      33.066  30.644  24.299  1.00  0.00     0.163 HD
ATOM     77  O   UNL A   1      34.291  28.920  23.350  1.00  0.00    -0.274 OA
BRANCH  75  78
ATOM     78  C   UNL A   1      32.979  27.276  24.530  1.00  0.00     0.163 C 
ATOM     79  C   UNL A   1      31.483  26.967  24.302  1.00  0.00     0.050 C 
ATOM     80  C   UNL A   1      33.749  26.215  23.745  1.00  0.00     0.146 C 
ATOM     81  C   UNL A   1      31.452  25.554  23.737  1.00  0.00     0.121 C 
ATOM     82  N   UNL A   1      32.734  25.417  23.068  1.00  0.00    -0.341 N 
BRANCH  78  83
ATOM     83  C   UNL A   1      33.327  27.126  25.998  1.00  0.00     0.404 C 
ATOM     84  F   UNL A   1      32.247  27.202  26.804  1.00  0.00    -0.170 F 
ATOM     85  F   UNL A   1      33.872  25.898  26.217  1.00  0.00    -0.170 F 
ATOM     86  F   UNL A   1      34.241  28.029  26.410  1.00  0.00    -0.170 F 
ENDBRANCH  78  83
BRANCH  82  87
ATOM     87  C   UNL A   1      33.038  24.719  21.915  1.00  0.00     0.228 C 
ATOM     88  O   UNL A   1      33.167  25.303  20.839  1.00  0.00    -0.274 OA
BRANCH  87  89
ATOM     89  C   UNL A   1      33.244  23.215  22.014  1.00  0.00     0.155 C 
BRANCH  89  90
ATOM     90  C   UNL A   1      34.125  22.863  23.163  1.00  0.00     0.044 A 
ATOM     91  C   UNL A   1      35.492  22.959  23.319  1.00  0.00     0.045 A 
ATOM     92  N   UNL A   1      33.662  22.353  24.349  1.00  0.00    -0.282 N 
ATOM     93  C   UNL A   1      35.746  22.459  24.608  1.00  0.00     0.135 A 
ATOM     94  N   UNL A   1      34.632  22.068  25.227  1.00  0.00    -0.184 NA
ATOM     95  H   UNL A   1      32.706  22.209  24.536  1.00  0.00     0.190 HD
ENDBRANCH  89  90
ENDBRANCH  87  89
ENDBRANCH  82  87
ENDBRANCH  75  78
ENDBRANCH  73  74
ENDBRANCH   1  73
TORSDOF 15
ENDMDL
MODEL 3
REMARK VINA RESULT:     -12.3      3.190      4.917
REMARK SMILES O=C(NCCCCNC(=O)[C@@]1(C(F)(F)F)CCN(C(=O)Cc2ccn[nH]2)C1)c1ccc(-c2c3nc(c(-c4c(F)c(F)c(F)c(F)c4F)c4ccc([nH]4)c(-c4c(F)c(F)c(F)c(F)c4F)c4nc(c(-c5c(F)c(F)c(F)c(F)c5F)c5ccc2[nH]5)C=C4)C=C3)cc1
REMARK SMILES IDX 6 1 5 2 4 3 3 4 1 5 2 6 28 8 29 9 90 10 30 11 89 12 31 13
REMARK SMILES IDX 32 14 33 15 83 16 34 17 88 18 82 19 84 20 35 21 87 22 81 23
REMARK SMILES IDX 80 24 36 26 68 27 48 28 67 29 49 30 52 31 66 32 85 33 50 34
REMARK SMILES IDX 51 35 65 37 86 38 53 39 37 40 38 41 46 42 39 43 40 44 44 45
REMARK SMILES IDX 47 46 41 47 42 48 45 49 43 50 69 51 70 52 78 53 71 54 72 55
REMARK SMILES IDX 76 56 79 57 73 58 74 59 77 60 75 61 54 62 55 63 63 64 56 65
REMARK SMILES IDX 57 66 61 67 64 68 58 69 59 70 62 71 60 72 7 73 8 74 9 75
REMARK SMILES IDX 10 77 11 78 16 79 27 80 17 81 18 82 12 83 13 84 14 85 15 86
REMARK SMILES IDX 19 87 20 88 21 89 22 90 23 91 26 92 24 93 25 94
REMARK H PARENT 3 7 84 25 52 36 8 76 26 95
REMARK Flexibility Score: inf
ROOT
ATOM      1  C   UNL A   1      31.441  27.789  26.655  1.00  0.00     0.023 C 
ENDROOT
BRANCH   1   2
ATOM      2  C   UNL A   1      31.855  28.527  25.385  1.00  0.00     0.023 C 
BRANCH   2   3
ATOM      3  C   UNL A   1      33.028  29.486  25.543  1.00  0.00     0.116 C 
BRANCH   3   4
ATOM      4  N   UNL A   1      32.636  30.776  26.091  1.00  0.00    -0.352 N 
ATOM      5  O   UNL A   1      32.640  32.519  27.523  1.00  0.00    -0.269 OA
ATOM      6  C   UNL A   1      33.217  31.532  27.085  1.00  0.00     0.251 C 
ATOM      7  H   UNL A   1      31.829  31.170  25.687  1.00  0.00     0.163 HD
BRANCH   6   8
ATOM      8  C   UNL A   1      34.524  31.132  27.653  1.00  0.00     0.039 A 
ATOM      9  C   UNL A   1      34.774  29.808  28.013  1.00  0.00     0.014 A 
ATOM     10  C   UNL A   1      35.516  32.101  27.826  1.00  0.00     0.014 A 
ATOM     11  C   UNL A   1      35.927  29.492  28.722  1.00  0.00     0.010 A 
ATOM     12  C   UNL A   1      36.720  31.760  28.450  1.00  0.00     0.010 A 
ATOM     13  C   UNL A   1      36.913  30.464  28.952  1.00  0.00    -0.014 A 
BRANCH  13  14
ATOM     14  C   UNL A   1      38.138  30.092  29.706  1.00  0.00     0.031 A 
ATOM     15  C   UNL A   1      38.344  30.548  31.126  1.00  0.00     0.074 A 
ATOM     16  C   UNL A   1      39.052  29.295  29.119  1.00  0.00     0.049 A 
ATOM     17  N   UNL A   1      39.333  30.282  31.945  1.00  0.00    -0.248 NA
ATOM     18  C   UNL A   1      37.313  31.424  31.701  1.00  0.00     0.031 C 
ATOM     19  C   UNL A   1      38.968  28.794  27.746  1.00  0.00     0.029 A 
ATOM     20  N   UNL A   1      40.211  28.747  29.604  1.00  0.00    -0.354 N 
ATOM     21  C   UNL A   1      39.058  30.979  33.115  1.00  0.00     0.074 A 
ATOM     22  C   UNL A   1      37.820  31.697  32.894  1.00  0.00     0.031 C 
ATOM     23  C   UNL A   1      39.996  27.964  27.517  1.00  0.00     0.029 A 
ATOM     24  C   UNL A   1      40.842  27.921  28.706  1.00  0.00     0.049 A 
ATOM     25  H   UNL A   1      40.556  28.926  30.508  1.00  0.00     0.167 HD
ATOM     26  C   UNL A   1      39.769  31.010  34.268  1.00  0.00     0.037 A 
ATOM     27  C   UNL A   1      41.979  27.212  28.823  1.00  0.00     0.037 A 
ATOM     28  C   UNL A   1      40.983  30.267  34.495  1.00  0.00     0.049 A 
ATOM     29  C   UNL A   1      42.748  27.266  30.111  1.00  0.00     0.074 A 
ATOM     30  C   UNL A   1      41.750  30.197  35.646  1.00  0.00     0.029 A 
ATOM     31  N   UNL A   1      41.607  29.466  33.551  1.00  0.00    -0.354 N 
ATOM     32  N   UNL A   1      42.460  27.903  31.220  1.00  0.00    -0.248 NA
ATOM     33  C   UNL A   1      44.002  26.504  30.162  1.00  0.00     0.031 C 
ATOM     34  C   UNL A   1      42.861  29.387  35.384  1.00  0.00     0.029 A 
ATOM     35  C   UNL A   1      42.761  28.914  34.086  1.00  0.00     0.049 A 
ATOM     36  H   UNL A   1      41.280  29.311  32.636  1.00  0.00     0.167 HD
ATOM     37  C   UNL A   1      43.483  27.602  32.107  1.00  0.00     0.074 A 
ATOM     38  C   UNL A   1      44.391  26.713  31.412  1.00  0.00     0.031 C 
ATOM     39  C   UNL A   1      43.652  28.025  33.384  1.00  0.00     0.037 A 
BRANCH  26  40
ATOM     40  C   UNL A   1      39.266  31.896  35.372  1.00  0.00     0.064 A 
ATOM     41  C   UNL A   1      38.444  31.407  36.398  1.00  0.00     0.173 A 
ATOM     42  C   UNL A   1      39.642  33.247  35.421  1.00  0.00     0.173 A 
ATOM     43  F   UNL A   1      38.045  30.126  36.392  1.00  0.00    -0.203 F 
ATOM     44  C   UNL A   1      37.992  32.246  37.415  1.00  0.00     0.198 A 
ATOM     45  C   UNL A   1      39.211  34.076  36.454  1.00  0.00     0.198 A 
ATOM     46  F   UNL A   1      40.433  33.764  34.468  1.00  0.00    -0.203 F 
ATOM     47  F   UNL A   1      37.168  31.768  38.359  1.00  0.00    -0.200 F 
ATOM     48  C   UNL A   1      38.381  33.576  37.445  1.00  0.00     0.200 A 
ATOM     49  F   UNL A   1      39.597  35.359  36.487  1.00  0.00    -0.200 F 
ATOM     50  F   UNL A   1      37.948  34.381  38.427  1.00  0.00    -0.200 F 
ENDBRANCH  26  40
BRANCH  27  51
ATOM     51  C   UNL A   1      42.440  26.373  27.688  1.00  0.00     0.064 A 
ATOM     52  C   UNL A   1      43.404  26.849  26.789  1.00  0.00     0.173 A 
ATOM     53  C   UNL A   1      41.950  25.074  27.495  1.00  0.00     0.173 A 
ATOM     54  F   UNL A   1      43.889  28.093  26.925  1.00  0.00    -0.203 F 
ATOM     55  C   UNL A   1      43.855  26.060  25.735  1.00  0.00     0.198 A 
ATOM     56  C   UNL A   1      42.420  24.275  26.456  1.00  0.00     0.198 A 
ATOM     57  F   UNL A   1      41.029  24.572  28.332  1.00  0.00    -0.203 F 
ATOM     58  F   UNL A   1      44.754  26.549  24.870  1.00  0.00    -0.200 F 
ATOM     59  C   UNL A   1      43.369  24.771  25.573  1.00  0.00     0.200 A 
ATOM     60  F   UNL A   1      41.960  23.025  26.313  1.00  0.00    -0.200 F 
ATOM     61  F   UNL A   1      43.811  24.007  24.565  1.00  0.00    -0.200 F 
ENDBRANCH  27  51
BRANCH  39  62
ATOM     62  C   UNL A   1      44.847  27.499  34.122  1.00  0.00     0.064 A 
ATOM     63  C   UNL A   1      46.069  28.186  34.129  1.00  0.00     0.173 A 
ATOM     64  C   UNL A   1      44.760  26.302  34.848  1.00  0.00     0.173 A 
ATOM     65  F   UNL A   1      46.208  29.326  33.436  1.00  0.00    -0.203 F 
ATOM     66  C   UNL A   1      47.170  27.677  34.814  1.00  0.00     0.198 A 
ATOM     67  C   UNL A   1      45.854  25.811  35.554  1.00  0.00     0.198 A 
ATOM     68  F   UNL A   1      43.610  25.611  34.876  1.00  0.00    -0.203 F 
ATOM     69  F   UNL A   1      48.343  28.324  34.766  1.00  0.00    -0.200 F 
ATOM     70  C   UNL A   1      47.061  26.494  35.530  1.00  0.00     0.200 A 
ATOM     71  F   UNL A   1      45.743  24.673  36.253  1.00  0.00    -0.200 F 
ATOM     72  F   UNL A   1      48.120  26.008  36.188  1.00  0.00    -0.200 F 
ENDBRANCH  39  62
ENDBRANCH  13  14
ENDBRANCH   6   8
ENDBRANCH   3   4
ENDBRANCH   2   3
ENDBRANCH   1   2
BRANCH   1  73
ATOM     73  C   UNL A   1      30.959  26.354  26.456  1.00  0.00     0.116 C 
BRANCH  73  74
ATOM     74  N   UNL A   1      31.069  25.886  25.083  1.00  0.00    -0.355 N 
ATOM     75  C   UNL A   1      31.957  25.032  24.491  1.00  0.00     0.237 C 
ATOM     76  H   UNL A   1      30.385  26.248  24.475  1.00  0.00     0.163 HD
ATOM     77  O   UNL A   1      31.688  24.705  23.335  1.00  0.00    -0.274 OA
BRANCH  75  78
ATOM     78  C   UNL A   1      33.222  24.560  25.190  1.00  0.00     0.163 C 
ATOM     79  C   UNL A   1      32.948  24.170  26.659  1.00  0.00     0.050 C 
ATOM     80  C   UNL A   1      33.814  23.315  24.531  1.00  0.00     0.146 C 
ATOM     81  C   UNL A   1      33.732  22.884  26.881  1.00  0.00     0.121 C 
ATOM     82  N   UNL A   1      33.797  22.283  25.561  1.00  0.00    -0.341 N 
BRANCH  78  83
ATOM     83  C   UNL A   1      34.255  25.668  25.126  1.00  0.00     0.404 C 
ATOM     84  F   UNL A   1      34.244  26.459  26.220  1.00  0.00    -0.170 F 
ATOM     85  F   UNL A   1      35.503  25.128  25.066  1.00  0.00    -0.170 F 
ATOM     86  F   UNL A   1      34.119  26.442  24.029  1.00  0.00    -0.170 F 
ENDBRANCH  78  83
BRANCH  82  87
ATOM     87  C   UNL A   1      33.777  20.945  25.217  1.00  0.00     0.228 C 
ATOM     88  O   UNL A   1      34.824  20.317  25.058  1.00  0.00    -0.274 OA
BRANCH  87  89
ATOM     89  C   UNL A   1      32.428  20.257  25.073  1.00  0.00     0.155 C 
BRANCH  89  90
ATOM     90  C   UNL A   1      32.573  18.773  25.082  1.00  0.00     0.044 A 
ATOM     91  C   UNL A   1      32.462  17.846  24.067  1.00  0.00     0.045 A 
ATOM     92  N   UNL A   1      32.875  18.046  26.204  1.00  0.00    -0.282 N 
ATOM     93  C   UNL A   1      32.685  16.604  24.685  1.00  0.00     0.135 A 
ATOM     94  N   UNL A   1      32.914  16.723  25.993  1.00  0.00    -0.184 NA
ATOM     95  H   UNL A   1      33.047  18.457  27.082  1.00  0.00     0.190 HD
ENDBRANCH  89  90
ENDBRANCH  87  89
ENDBRANCH  82  87
ENDBRANCH  75  78
ENDBRANCH  73  74
ENDBRANCH   1  73
TORSDOF 15
ENDMDL
