MODEL 1
REMARK VINA RESULT:     -13.0      0.000      0.000
REMARK SMILES C[NH+](C)Cc1ccccc1[C@H]1[NH2+][C@@H](C(=O)NCCCCNC(=O)c2ccc(-c3c4nc(c(-c5c(F)c(F)c(F)c(F)c5F)c5ccc([nH]5)c(-c5c(F)c(F)c(F)c(F)c5F)c5nc(c(-c6c(F)c(F)c(F)c(F)c6F)c6ccc3[nH]6)C=C5)C=C4)cc2)C(C)(C)S1
REMARK SMILES IDX 18 1 17 2 16 3 14 4 15 5 13 7 11 8 12 9 90 10 87 13 88 14
REMARK SMILES IDX 89 15 10 16 5 17 6 18 7 19 9 20 8 21 4 22 2 23 1 24 3 25
REMARK SMILES IDX 19 27 20 28 21 29 22 30 23 32 24 33 25 34 86 35 26 36 85 37
REMARK SMILES IDX 27 38 28 39 29 40 79 41 30 42 84 43 78 44 80 45 31 46 83 47
REMARK SMILES IDX 77 48 76 49 32 51 64 52 44 53 63 54 45 55 48 56 62 57 81 58
REMARK SMILES IDX 46 59 47 60 61 62 82 63 49 64 33 65 34 66 42 67 35 68 36 69
REMARK SMILES IDX 40 70 43 71 37 72 38 73 41 74 39 75 65 76 66 77 74 78 67 79
REMARK SMILES IDX 68 80 72 81 75 82 69 83 70 84 73 85 71 86 50 87 51 88 59 89
REMARK SMILES IDX 52 90 53 91 57 92 60 93 54 94 55 95 58 96 56 97
REMARK H PARENT 16 6 12 11 12 12 2 26 21 31 80 50 48 61
REMARK Flexibility Score: inf
ROOT
ATOM      1  C   UNL A   1      32.306  29.038  23.614  1.00  0.00     0.023 C 
ENDROOT
BRANCH   1   2
ATOM      2  C   UNL A   1      33.547  28.158  23.777  1.00  0.00     0.116 C 
BRANCH   2   3
ATOM      3  N   UNL A   1      33.737  27.158  22.745  1.00  0.00    -0.351 N 
ATOM      4  C   UNL A   1      33.275  25.874  22.681  1.00  0.00     0.279 C 
ATOM      5  O   UNL A   1      33.127  25.416  21.539  1.00  0.00    -0.268 OA
ATOM      6  H   UNL A   1      34.278  27.446  21.975  1.00  0.00     0.163 HD
BRANCH   4   7
ATOM      7  C   UNL A   1      32.918  24.973  23.901  1.00  0.00     0.289 C 
ATOM      8  C   UNL A   1      33.129  22.829  24.927  1.00  0.00     0.275 C 
ATOM      9  N   UNL A   1      33.589  23.662  23.826  1.00  0.00    -0.320 N 
ATOM     10  S   UNL A   1      31.393  23.231  25.241  1.00  0.00    -0.081 SA
ATOM     11  H   UNL A   1      33.362  23.212  22.939  1.00  0.00     0.348 HD
ATOM     12  H   UNL A   1      34.599  23.789  23.889  1.00  0.00     0.348 HD
ATOM     13  C   UNL A   1      31.433  24.828  24.306  1.00  0.00     0.077 C 
ATOM     14  C   UNL A   1      30.369  24.712  23.217  1.00  0.00     0.030 C 
ATOM     15  C   UNL A   1      31.053  25.997  25.228  1.00  0.00     0.030 C 
BRANCH   8  16
ATOM     16  C   UNL A   1      33.453  21.342  24.754  1.00  0.00     0.029 A 
ATOM     17  C   UNL A   1      34.657  20.687  25.132  1.00  0.00     0.016 A 
ATOM     18  C   UNL A   1      34.833  19.320  24.802  1.00  0.00     0.010 A 
ATOM     19  C   UNL A   1      33.821  18.569  24.215  1.00  0.00     0.001 A 
ATOM     20  C   UNL A   1      32.441  20.541  24.163  1.00  0.00     0.011 A 
ATOM     21  C   UNL A   1      32.613  19.176  23.919  1.00  0.00     0.001 A 
BRANCH  17  22
ATOM     22  C   UNL A   1      35.793  21.338  25.903  1.00  0.00     0.299 C 
BRANCH  22  23
ATOM     23  N   UNL A   1      36.849  22.036  25.123  1.00  0.00    -0.336 N 
ATOM     24  C   UNL A   1      36.920  23.473  25.365  1.00  0.00     0.332 C 
ATOM     25  C   UNL A   1      38.186  21.479  25.299  1.00  0.00     0.332 C 
ATOM     26  H   UNL A   1      36.546  21.878  24.162  1.00  0.00     0.347 HD
ENDBRANCH  22  23
ENDBRANCH  17  22
ENDBRANCH   8  16
ENDBRANCH   4   7
ENDBRANCH   2   3
ENDBRANCH   1   2
BRANCH   1  27
ATOM     27  C   UNL A   1      31.676  29.531  24.921  1.00  0.00     0.023 C 
BRANCH  27  28
ATOM     28  C   UNL A   1      32.623  29.914  26.063  1.00  0.00     0.116 C 
BRANCH  28  29
ATOM     29  N   UNL A   1      32.381  31.221  26.659  1.00  0.00    -0.352 N 
ATOM     30  C   UNL A   1      33.215  32.002  27.431  1.00  0.00     0.251 C 
ATOM     31  H   UNL A   1      31.490  31.603  26.484  1.00  0.00     0.163 HD
ATOM     32  O   UNL A   1      32.831  33.081  27.877  1.00  0.00    -0.269 OA
BRANCH  30  33
ATOM     33  C   UNL A   1      34.570  31.516  27.776  1.00  0.00     0.039 A 
ATOM     34  C   UNL A   1      35.617  32.438  27.867  1.00  0.00     0.014 A 
ATOM     35  C   UNL A   1      34.795  30.173  28.082  1.00  0.00     0.014 A 
ATOM     36  C   UNL A   1      36.846  32.039  28.404  1.00  0.00     0.010 A 
ATOM     37  C   UNL A   1      35.988  29.797  28.695  1.00  0.00     0.010 A 
ATOM     38  C   UNL A   1      37.013  30.735  28.898  1.00  0.00    -0.014 A 
BRANCH  38  39
ATOM     39  C   UNL A   1      38.205  30.355  29.704  1.00  0.00     0.031 A 
ATOM     40  C   UNL A   1      39.204  29.361  29.181  1.00  0.00     0.074 A 
ATOM     41  C   UNL A   1      38.330  30.824  30.964  1.00  0.00     0.049 A 
ATOM     42  N   UNL A   1      40.232  28.822  29.787  1.00  0.00    -0.248 NA
ATOM     43  C   UNL A   1      39.002  28.886  27.804  1.00  0.00     0.031 C 
ATOM     44  C   UNL A   1      37.399  31.744  31.620  1.00  0.00     0.029 A 
ATOM     45  N   UNL A   1      39.279  30.576  31.926  1.00  0.00    -0.354 N 
ATOM     46  C   UNL A   1      40.786  27.933  28.875  1.00  0.00     0.074 A 
ATOM     47  C   UNL A   1      39.953  27.970  27.692  1.00  0.00     0.031 C 
ATOM     48  C   UNL A   1      37.832  32.001  32.864  1.00  0.00     0.029 A 
ATOM     49  C   UNL A   1      39.046  31.228  33.113  1.00  0.00     0.049 A 
ATOM     50  H   UNL A   1      40.054  29.986  31.780  1.00  0.00     0.167 HD
ATOM     51  C   UNL A   1      41.900  27.173  29.005  1.00  0.00     0.037 A 
ATOM     52  C   UNL A   1      39.720  31.199  34.279  1.00  0.00     0.037 A 
ATOM     53  C   UNL A   1      42.746  27.160  30.169  1.00  0.00     0.049 A 
ATOM     54  C   UNL A   1      40.948  30.340  34.399  1.00  0.00     0.074 A 
ATOM     55  C   UNL A   1      43.943  26.491  30.358  1.00  0.00     0.029 A 
ATOM     56  N   UNL A   1      42.484  27.846  31.346  1.00  0.00    -0.354 N 
ATOM     57  N   UNL A   1      41.507  29.566  33.501  1.00  0.00    -0.248 NA
ATOM     58  C   UNL A   1      41.639  30.347  35.697  1.00  0.00     0.031 C 
ATOM     59  C   UNL A   1      44.381  26.733  31.664  1.00  0.00     0.029 A 
ATOM     60  C   UNL A   1      43.480  27.589  32.275  1.00  0.00     0.049 A 
ATOM     61  H   UNL A   1      41.704  28.428  31.499  1.00  0.00     0.167 HD
ATOM     62  C   UNL A   1      42.620  29.010  34.115  1.00  0.00     0.074 A 
ATOM     63  C   UNL A   1      42.671  29.549  35.458  1.00  0.00     0.031 C 
ATOM     64  C   UNL A   1      43.517  28.129  33.610  1.00  0.00     0.037 A 
BRANCH  51  65
ATOM     65  C   UNL A   1      42.276  26.292  27.849  1.00  0.00     0.064 A 
ATOM     66  C   UNL A   1      41.677  25.037  27.658  1.00  0.00     0.173 A 
ATOM     67  C   UNL A   1      43.213  26.723  26.899  1.00  0.00     0.173 A 
ATOM     68  F   UNL A   1      40.782  24.576  28.544  1.00  0.00    -0.203 F 
ATOM     69  C   UNL A   1      42.027  24.234  26.576  1.00  0.00     0.198 A 
ATOM     70  C   UNL A   1      43.538  25.930  25.802  1.00  0.00     0.198 A 
ATOM     71  F   UNL A   1      43.809  27.919  27.029  1.00  0.00    -0.203 F 
ATOM     72  F   UNL A   1      41.478  23.020  26.441  1.00  0.00    -0.200 F 
ATOM     73  C   UNL A   1      42.952  24.684  25.645  1.00  0.00     0.200 A 
ATOM     74  F   UNL A   1      44.422  26.371  24.896  1.00  0.00    -0.200 F 
ATOM     75  F   UNL A   1      43.281  23.912  24.600  1.00  0.00    -0.200 F 
ENDBRANCH  51  65
BRANCH  52  76
ATOM     76  C   UNL A   1      39.254  32.019  35.428  1.00  0.00     0.064 A 
ATOM     77  C   UNL A   1      39.614  33.370  35.537  1.00  0.00     0.173 A 
ATOM     78  C   UNL A   1      38.446  31.475  36.437  1.00  0.00     0.173 A 
ATOM     79  F   UNL A   1      40.404  33.928  34.610  1.00  0.00    -0.203 F 
ATOM     80  C   UNL A   1      39.196  34.141  36.620  1.00  0.00     0.198 A 
ATOM     81  C   UNL A   1      38.007  32.254  37.505  1.00  0.00     0.198 A 
ATOM     82  F   UNL A   1      38.072  30.188  36.378  1.00  0.00    -0.203 F 
ATOM     83  F   UNL A   1      39.589  35.417  36.721  1.00  0.00    -0.200 F 
ATOM     84  C   UNL A   1      38.387  33.584  37.599  1.00  0.00     0.200 A 
ATOM     85  F   UNL A   1      37.215  31.716  38.443  1.00  0.00    -0.200 F 
ATOM     86  F   UNL A   1      37.982  34.328  38.638  1.00  0.00    -0.200 F 
ENDBRANCH  52  76
BRANCH  64  87
ATOM     87  C   UNL A   1      44.639  27.698  34.508  1.00  0.00     0.064 A 
ATOM     88  C   UNL A   1      45.832  28.431  34.592  1.00  0.00     0.173 A 
ATOM     89  C   UNL A   1      44.502  26.569  35.330  1.00  0.00     0.173 A 
ATOM     90  F   UNL A   1      46.018  29.507  33.813  1.00  0.00    -0.203 F 
ATOM     91  C   UNL A   1      46.853  28.040  35.454  1.00  0.00     0.198 A 
ATOM     92  C   UNL A   1      45.514  26.196  36.210  1.00  0.00     0.198 A 
ATOM     93  F   UNL A   1      43.379  25.836  35.290  1.00  0.00    -0.203 F 
ATOM     94  F   UNL A   1      47.999  28.733  35.489  1.00  0.00    -0.200 F 
ATOM     95  C   UNL A   1      46.689  26.929  36.268  1.00  0.00     0.200 A 
ATOM     96  F   UNL A   1      45.350  25.130  37.005  1.00  0.00    -0.200 F 
ATOM     97  F   UNL A   1      47.669  26.561  37.105  1.00  0.00    -0.200 F 
ENDBRANCH  64  87
ENDBRANCH  38  39
ENDBRANCH  30  33
ENDBRANCH  28  29
ENDBRANCH  27  28
ENDBRANCH   1  27
TORSDOF 14
ENDMDL
MODEL 2
REMARK VINA RESULT:     -13.0      1.201      1.830
REMARK SMILES C[NH+](C)Cc1ccccc1[C@H]1[NH2+][C@@H](C(=O)NCCCCNC(=O)c2ccc(-c3c4nc(c(-c5c(F)c(F)c(F)c(F)c5F)c5ccc([nH]5)c(-c5c(F)c(F)c(F)c(F)c5F)c5nc(c(-c6c(F)c(F)c(F)c(F)c6F)c6ccc3[nH]6)C=C5)C=C4)cc2)C(C)(C)S1
REMARK SMILES IDX 18 1 17 2 16 3 14 4 15 5 13 7 11 8 12 9 90 10 87 13 88 14
REMARK SMILES IDX 89 15 10 16 5 17 6 18 7 19 9 20 8 21 4 22 2 23 1 24 3 25
REMARK SMILES IDX 19 27 20 28 21 29 22 30 23 32 24 33 25 34 86 35 26 36 85 37
REMARK SMILES IDX 27 38 28 39 29 40 79 41 30 42 84 43 78 44 80 45 31 46 83 47
REMARK SMILES IDX 77 48 76 49 32 51 64 52 44 53 63 54 45 55 48 56 62 57 81 58
REMARK SMILES IDX 46 59 47 60 61 62 82 63 49 64 33 65 34 66 42 67 35 68 36 69
REMARK SMILES IDX 40 70 43 71 37 72 38 73 41 74 39 75 65 76 66 77 74 78 67 79
REMARK SMILES IDX 68 80 72 81 75 82 69 83 70 84 73 85 71 86 50 87 51 88 59 89
REMARK SMILES IDX 52 90 53 91 57 92 60 93 54 94 55 95 58 96 56 97
REMARK H PARENT 16 6 12 11 12 12 2 26 21 31 80 50 48 61
REMARK Flexibility Score: inf
ROOT
ATOM      1  C   UNL A   1      32.203  27.657  26.514  1.00  0.00     0.023 C 
ENDROOT
BRANCH   1   2
ATOM      2  C   UNL A   1      31.084  26.728  26.036  1.00  0.00     0.116 C 
BRANCH   2   3
ATOM      3  N   UNL A   1      30.938  25.497  26.788  1.00  0.00    -0.351 N 
ATOM      4  C   UNL A   1      31.481  24.266  26.555  1.00  0.00     0.279 C 
ATOM      5  O   UNL A   1      31.634  23.552  27.557  1.00  0.00    -0.268 OA
ATOM      6  H   UNL A   1      30.364  25.558  27.585  1.00  0.00     0.163 HD
BRANCH   4   7
ATOM      7  C   UNL A   1      31.921  23.711  25.168  1.00  0.00     0.289 C 
ATOM      8  C   UNL A   1      32.500  21.788  23.880  1.00  0.00     0.275 C 
ATOM      9  N   UNL A   1      31.977  22.238  25.162  1.00  0.00    -0.320 N 
ATOM     10  S   UNL A   1      33.720  23.001  23.321  1.00  0.00    -0.081 SA
ATOM     11  H   UNL A   1      32.587  21.916  25.912  1.00  0.00     0.348 HD
ATOM     12  H   UNL A   1      31.041  21.858  25.304  1.00  0.00     0.348 HD
ATOM     13  C   UNL A   1      33.160  24.329  24.481  1.00  0.00     0.077 C 
ATOM     14  C   UNL A   1      34.376  24.698  25.328  1.00  0.00     0.030 C 
ATOM     15  C   UNL A   1      32.723  25.576  23.696  1.00  0.00     0.030 C 
BRANCH   8  16
ATOM     16  C   UNL A   1      32.958  20.326  23.879  1.00  0.00     0.029 A 
ATOM     17  C   UNL A   1      34.101  19.795  24.537  1.00  0.00     0.016 A 
ATOM     18  C   UNL A   1      34.439  18.432  24.345  1.00  0.00     0.010 A 
ATOM     19  C   UNL A   1      33.627  17.569  23.618  1.00  0.00     0.001 A 
ATOM     20  C   UNL A   1      32.150  19.413  23.152  1.00  0.00     0.011 A 
ATOM     21  C   UNL A   1      32.467  18.056  23.042  1.00  0.00     0.001 A 
BRANCH  17  22
ATOM     22  C   UNL A   1      35.004  20.579  25.476  1.00  0.00     0.299 C 
BRANCH  22  23
ATOM     23  N   UNL A   1      36.328  21.015  24.959  1.00  0.00    -0.336 N 
ATOM     24  C   UNL A   1      36.879  22.184  25.637  1.00  0.00     0.332 C 
ATOM     25  C   UNL A   1      37.343  19.967  24.962  1.00  0.00     0.332 C 
ATOM     26  H   UNL A   1      36.110  21.266  23.995  1.00  0.00     0.347 HD
ENDBRANCH  22  23
ENDBRANCH  17  22
ENDBRANCH   8  16
ENDBRANCH   4   7
ENDBRANCH   2   3
ENDBRANCH   1   2
BRANCH   1  27
ATOM     27  C   UNL A   1      31.773  29.094  26.829  1.00  0.00     0.023 C 
BRANCH  27  28
ATOM     28  C   UNL A   1      32.549  30.228  26.151  1.00  0.00     0.116 C 
BRANCH  28  29
ATOM     29  N   UNL A   1      32.354  31.548  26.734  1.00  0.00    -0.352 N 
ATOM     30  C   UNL A   1      33.220  32.312  27.488  1.00  0.00     0.251 C 
ATOM     31  H   UNL A   1      31.474  31.957  26.564  1.00  0.00     0.163 HD
ATOM     32  O   UNL A   1      32.876  33.408  27.925  1.00  0.00    -0.269 OA
BRANCH  30  33
ATOM     33  C   UNL A   1      34.564  31.788  27.824  1.00  0.00     0.039 A 
ATOM     34  C   UNL A   1      35.637  32.680  27.909  1.00  0.00     0.014 A 
ATOM     35  C   UNL A   1      34.752  30.439  28.128  1.00  0.00     0.014 A 
ATOM     36  C   UNL A   1      36.857  32.247  28.437  1.00  0.00     0.010 A 
ATOM     37  C   UNL A   1      35.939  30.029  28.734  1.00  0.00     0.010 A 
ATOM     38  C   UNL A   1      36.991  30.938  28.930  1.00  0.00    -0.014 A 
BRANCH  38  39
ATOM     39  C   UNL A   1      38.177  30.524  29.729  1.00  0.00     0.031 A 
ATOM     40  C   UNL A   1      39.159  29.524  29.187  1.00  0.00     0.074 A 
ATOM     41  C   UNL A   1      38.310  30.969  30.997  1.00  0.00     0.049 A 
ATOM     42  N   UNL A   1      40.179  28.957  29.784  1.00  0.00    -0.248 NA
ATOM     43  C   UNL A   1      38.949  29.077  27.802  1.00  0.00     0.031 C 
ATOM     44  C   UNL A   1      37.394  31.893  31.669  1.00  0.00     0.029 A 
ATOM     45  N   UNL A   1      39.255  30.689  31.954  1.00  0.00    -0.354 N 
ATOM     46  C   UNL A   1      40.717  28.076  28.856  1.00  0.00     0.074 A 
ATOM     47  C   UNL A   1      39.885  28.147  27.674  1.00  0.00     0.031 C 
ATOM     48  C   UNL A   1      37.832  32.120  32.918  1.00  0.00     0.029 A 
ATOM     49  C   UNL A   1      39.033  31.324  33.153  1.00  0.00     0.049 A 
ATOM     50  H   UNL A   1      40.020  30.089  31.796  1.00  0.00     0.167 HD
ATOM     51  C   UNL A   1      41.819  27.296  28.971  1.00  0.00     0.037 A 
ATOM     52  C   UNL A   1      39.707  31.263  34.317  1.00  0.00     0.037 A 
ATOM     53  C   UNL A   1      42.665  27.248  30.135  1.00  0.00     0.049 A 
ATOM     54  C   UNL A   1      40.921  30.381  34.421  1.00  0.00     0.074 A 
ATOM     55  C   UNL A   1      43.851  26.556  30.311  1.00  0.00     0.029 A 
ATOM     56  N   UNL A   1      42.414  27.917  31.324  1.00  0.00    -0.354 N 
ATOM     57  N   UNL A   1      41.467  29.615  33.509  1.00  0.00    -0.248 NA
ATOM     58  C   UNL A   1      41.613  30.355  35.718  1.00  0.00     0.031 C 
ATOM     59  C   UNL A   1      44.293  26.768  31.621  1.00  0.00     0.029 A 
ATOM     60  C   UNL A   1      43.406  27.627  32.248  1.00  0.00     0.049 A 
ATOM     61  H   UNL A   1      41.644  28.509  31.487  1.00  0.00     0.167 HD
ATOM     62  C   UNL A   1      42.570  29.030  34.113  1.00  0.00     0.074 A 
ATOM     63  C   UNL A   1      42.631  29.544  35.465  1.00  0.00     0.031 C 
ATOM     64  C   UNL A   1      43.453  28.143  33.592  1.00  0.00     0.037 A 
BRANCH  51  65
ATOM     65  C   UNL A   1      42.180  26.428  27.800  1.00  0.00     0.064 A 
ATOM     66  C   UNL A   1      43.139  26.830  26.858  1.00  0.00     0.173 A 
ATOM     67  C   UNL A   1      41.593  25.165  27.641  1.00  0.00     0.173 A 
ATOM     68  F   UNL A   1      43.723  28.033  26.961  1.00  0.00    -0.203 F 
ATOM     69  C   UNL A   1      43.473  26.012  25.782  1.00  0.00     0.198 A 
ATOM     70  C   UNL A   1      41.951  24.337  26.581  1.00  0.00     0.198 A 
ATOM     71  F   UNL A   1      40.676  24.728  28.519  1.00  0.00    -0.203 F 
ATOM     72  F   UNL A   1      44.356  26.436  24.869  1.00  0.00    -0.200 F 
ATOM     73  C   UNL A   1      42.884  24.763  25.649  1.00  0.00     0.200 A 
ATOM     74  F   UNL A   1      41.390  23.125  26.460  1.00  0.00    -0.200 F 
ATOM     75  F   UNL A   1      43.212  23.973  24.616  1.00  0.00    -0.200 F 
ENDBRANCH  51  65
BRANCH  52  76
ATOM     76  C   UNL A   1      39.255  32.070  35.481  1.00  0.00     0.064 A 
ATOM     77  C   UNL A   1      39.668  33.401  35.633  1.00  0.00     0.173 A 
ATOM     78  C   UNL A   1      38.407  31.533  36.460  1.00  0.00     0.173 A 
ATOM     79  F   UNL A   1      40.498  33.951  34.735  1.00  0.00    -0.203 F 
ATOM     80  C   UNL A   1      39.263  34.159  36.730  1.00  0.00     0.198 A 
ATOM     81  C   UNL A   1      37.982  32.301  37.543  1.00  0.00     0.198 A 
ATOM     82  F   UNL A   1      37.981  30.265  36.359  1.00  0.00    -0.203 F 
ATOM     83  F   UNL A   1      39.707  35.415  36.873  1.00  0.00    -0.200 F 
ATOM     84  C   UNL A   1      38.415  33.611  37.680  1.00  0.00     0.200 A 
ATOM     85  F   UNL A   1      37.152  31.771  38.452  1.00  0.00    -0.200 F 
ATOM     86  F   UNL A   1      38.023  34.342  38.733  1.00  0.00    -0.200 F 
ENDBRANCH  52  76
BRANCH  64  87
ATOM     87  C   UNL A   1      44.568  27.678  34.481  1.00  0.00     0.064 A 
ATOM     88  C   UNL A   1      45.732  28.441  34.655  1.00  0.00     0.173 A 
ATOM     89  C   UNL A   1      44.451  26.482  35.206  1.00  0.00     0.173 A 
ATOM     90  F   UNL A   1      45.898  29.583  33.970  1.00  0.00    -0.203 F 
ATOM     91  C   UNL A   1      46.746  28.015  35.509  1.00  0.00     0.198 A 
ATOM     92  C   UNL A   1      45.455  26.073  36.079  1.00  0.00     0.198 A 
ATOM     93  F   UNL A   1      43.356  25.718  35.077  1.00  0.00    -0.203 F 
ATOM     94  F   UNL A   1      47.865  28.741  35.630  1.00  0.00    -0.200 F 
ATOM     95  C   UNL A   1      46.602  26.837  36.227  1.00  0.00     0.200 A 
ATOM     96  F   UNL A   1      45.311  24.940  36.781  1.00  0.00    -0.200 F 
ATOM     97  F   UNL A   1      47.575  26.435  37.057  1.00  0.00    -0.200 F 
ENDBRANCH  64  87
ENDBRANCH  38  39
ENDBRANCH  30  33
ENDBRANCH  28  29
ENDBRANCH  27  28
ENDBRANCH   1  27
TORSDOF 14
ENDMDL
MODEL 3
REMARK VINA RESULT:     -12.9      0.756      2.535
REMARK SMILES C[NH+](C)Cc1ccccc1[C@H]1[NH2+][C@@H](C(=O)NCCCCNC(=O)c2ccc(-c3c4nc(c(-c5c(F)c(F)c(F)c(F)c5F)c5ccc([nH]5)c(-c5c(F)c(F)c(F)c(F)c5F)c5nc(c(-c6c(F)c(F)c(F)c(F)c6F)c6ccc3[nH]6)C=C5)C=C4)cc2)C(C)(C)S1
REMARK SMILES IDX 18 1 17 2 16 3 14 4 15 5 13 7 11 8 12 9 90 10 87 13 88 14
REMARK SMILES IDX 89 15 10 16 5 17 6 18 7 19 9 20 8 21 4 22 2 23 1 24 3 25
REMARK SMILES IDX 19 27 20 28 21 29 22 30 23 32 24 33 25 34 86 35 26 36 85 37
REMARK SMILES IDX 27 38 28 39 29 40 79 41 30 42 84 43 78 44 80 45 31 46 83 47
REMARK SMILES IDX 77 48 76 49 32 51 64 52 44 53 63 54 45 55 48 56 62 57 81 58
REMARK SMILES IDX 46 59 47 60 61 62 82 63 49 64 33 65 34 66 42 67 35 68 36 69
REMARK SMILES IDX 40 70 43 71 37 72 38 73 41 74 39 75 65 76 66 77 74 78 67 79
REMARK SMILES IDX 68 80 72 81 75 82 69 83 70 84 73 85 71 86 50 87 51 88 59 89
REMARK SMILES IDX 52 90 53 91 57 92 60 93 54 94 55 95 58 96 56 97
REMARK H PARENT 16 6 12 11 12 12 2 26 21 31 80 50 48 61
REMARK Flexibility Score: inf
ROOT
ATOM      1  C   UNL A   1      32.310  29.275  24.293  1.00  0.00     0.023 C 
ENDROOT
BRANCH   1   2
ATOM      2  C   UNL A   1      31.403  28.581  23.274  1.00  0.00     0.116 C 
BRANCH   2   3
ATOM      3  N   UNL A   1      32.060  27.609  22.422  1.00  0.00    -0.351 N 
ATOM      4  C   UNL A   1      32.510  26.355  22.719  1.00  0.00     0.279 C 
ATOM      5  O   UNL A   1      32.553  25.563  21.766  1.00  0.00    -0.268 OA
ATOM      6  H   UNL A   1      32.203  27.896  21.491  1.00  0.00     0.163 HD
BRANCH   4   7
ATOM      7  C   UNL A   1      32.948  25.852  24.127  1.00  0.00     0.289 C 
ATOM      8  C   UNL A   1      34.550  24.624  25.398  1.00  0.00     0.275 C 
ATOM      9  N   UNL A   1      34.251  25.166  24.081  1.00  0.00    -0.320 N 
ATOM     10  S   UNL A   1      32.989  24.107  26.154  1.00  0.00    -0.081 SA
ATOM     11  H   UNL A   1      34.214  24.407  23.400  1.00  0.00     0.348 HD
ATOM     12  H   UNL A   1      34.978  25.826  23.808  1.00  0.00     0.348 HD
ATOM     13  C   UNL A   1      31.926  25.074  24.987  1.00  0.00     0.077 C 
ATOM     14  C   UNL A   1      31.001  24.062  24.315  1.00  0.00     0.030 C 
ATOM     15  C   UNL A   1      31.059  26.079  25.762  1.00  0.00     0.030 C 
BRANCH   8  16
ATOM     16  C   UNL A   1      35.672  23.581  25.398  1.00  0.00     0.029 A 
ATOM     17  C   UNL A   1      35.575  22.230  24.964  1.00  0.00     0.016 A 
ATOM     18  C   UNL A   1      36.687  21.368  25.131  1.00  0.00     0.010 A 
ATOM     19  C   UNL A   1      37.909  21.829  25.608  1.00  0.00     0.001 A 
ATOM     20  C   UNL A   1      36.937  24.017  25.872  1.00  0.00     0.011 A 
ATOM     21  C   UNL A   1      38.040  23.163  25.955  1.00  0.00     0.001 A 
BRANCH  17  22
ATOM     22  C   UNL A   1      34.354  21.620  24.294  1.00  0.00     0.299 C 
BRANCH  22  23
ATOM     23  N   UNL A   1      33.640  20.534  25.015  1.00  0.00    -0.336 N 
ATOM     24  C   UNL A   1      32.185  20.640  24.969  1.00  0.00     0.332 C 
ATOM     25  C   UNL A   1      34.011  19.190  24.585  1.00  0.00     0.332 C 
ATOM     26  H   UNL A   1      33.949  20.674  25.977  1.00  0.00     0.347 HD
ENDBRANCH  22  23
ENDBRANCH  17  22
ENDBRANCH   8  16
ENDBRANCH   4   7
ENDBRANCH   2   3
ENDBRANCH   1   2
BRANCH   1  27
ATOM     27  C   UNL A   1      31.583  30.061  25.390  1.00  0.00     0.023 C 
BRANCH  27  28
ATOM     28  C   UNL A   1      32.381  30.428  26.644  1.00  0.00     0.116 C 
BRANCH  28  29
ATOM     29  N   UNL A   1      32.329  31.833  27.025  1.00  0.00    -0.352 N 
ATOM     30  C   UNL A   1      33.303  32.625  27.597  1.00  0.00     0.251 C 
ATOM     31  H   UNL A   1      31.472  32.284  26.848  1.00  0.00     0.163 HD
ATOM     32  O   UNL A   1      33.074  33.799  27.878  1.00  0.00    -0.269 OA
BRANCH  30  33
ATOM     33  C   UNL A   1      34.625  32.045  27.927  1.00  0.00     0.039 A 
ATOM     34  C   UNL A   1      35.742  32.885  27.971  1.00  0.00     0.014 A 
ATOM     35  C   UNL A   1      34.752  30.696  28.267  1.00  0.00     0.014 A 
ATOM     36  C   UNL A   1      36.947  32.406  28.493  1.00  0.00     0.010 A 
ATOM     37  C   UNL A   1      35.927  30.246  28.866  1.00  0.00     0.010 A 
ATOM     38  C   UNL A   1      37.025  31.107  29.021  1.00  0.00    -0.014 A 
BRANCH  38  39
ATOM     39  C   UNL A   1      38.203  30.658  29.813  1.00  0.00     0.031 A 
ATOM     40  C   UNL A   1      39.166  29.647  29.256  1.00  0.00     0.074 A 
ATOM     41  C   UNL A   1      38.343  31.078  31.089  1.00  0.00     0.049 A 
ATOM     42  N   UNL A   1      40.174  29.052  29.843  1.00  0.00    -0.248 NA
ATOM     43  C   UNL A   1      38.949  29.228  27.863  1.00  0.00     0.031 C 
ATOM     44  C   UNL A   1      37.444  32.008  31.776  1.00  0.00     0.029 A 
ATOM     45  N   UNL A   1      39.281  30.764  32.041  1.00  0.00    -0.354 N 
ATOM     46  C   UNL A   1      40.697  28.176  28.901  1.00  0.00     0.074 A 
ATOM     47  C   UNL A   1      39.867  28.283  27.720  1.00  0.00     0.031 C 
ATOM     48  C   UNL A   1      37.885  32.206  33.028  1.00  0.00     0.029 A 
ATOM     49  C   UNL A   1      39.070  31.383  33.250  1.00  0.00     0.049 A 
ATOM     50  H   UNL A   1      40.035  30.153  31.874  1.00  0.00     0.167 HD
ATOM     51  C   UNL A   1      41.783  27.373  29.004  1.00  0.00     0.037 A 
ATOM     52  C   UNL A   1      39.742  31.290  34.414  1.00  0.00     0.037 A 
ATOM     53  C   UNL A   1      42.628  27.290  30.167  1.00  0.00     0.049 A 
ATOM     54  C   UNL A   1      40.940  30.384  34.504  1.00  0.00     0.074 A 
ATOM     55  C   UNL A   1      43.800  26.573  30.332  1.00  0.00     0.029 A 
ATOM     56  N   UNL A   1      42.388  27.944  31.366  1.00  0.00    -0.354 N 
ATOM     57  N   UNL A   1      41.471  29.623  33.579  1.00  0.00    -0.248 NA
ATOM     58  C   UNL A   1      41.629  30.322  35.801  1.00  0.00     0.031 C 
ATOM     59  C   UNL A   1      44.245  26.754  31.645  1.00  0.00     0.029 A 
ATOM     60  C   UNL A   1      43.374  27.620  32.286  1.00  0.00     0.049 A 
ATOM     61  H   UNL A   1      41.629  28.548  31.539  1.00  0.00     0.167 HD
ATOM     62  C   UNL A   1      42.563  29.007  34.174  1.00  0.00     0.074 A 
ATOM     63  C   UNL A   1      42.632  29.497  35.534  1.00  0.00     0.031 C 
ATOM     64  C   UNL A   1      43.429  28.112  33.639  1.00  0.00     0.037 A 
BRANCH  51  65
ATOM     65  C   UNL A   1      42.129  26.519  27.819  1.00  0.00     0.064 A 
ATOM     66  C   UNL A   1      43.091  26.922  26.879  1.00  0.00     0.173 A 
ATOM     67  C   UNL A   1      41.524  25.266  27.642  1.00  0.00     0.173 A 
ATOM     68  F   UNL A   1      43.691  28.115  26.998  1.00  0.00    -0.203 F 
ATOM     69  C   UNL A   1      43.409  26.115  25.790  1.00  0.00     0.198 A 
ATOM     70  C   UNL A   1      41.867  24.449  26.569  1.00  0.00     0.198 A 
ATOM     71  F   UNL A   1      40.604  24.829  28.517  1.00  0.00    -0.203 F 
ATOM     72  F   UNL A   1      44.295  26.541  24.880  1.00  0.00    -0.200 F 
ATOM     73  C   UNL A   1      42.803  24.877  25.640  1.00  0.00     0.200 A 
ATOM     74  F   UNL A   1      41.290  23.247  26.431  1.00  0.00    -0.200 F 
ATOM     75  F   UNL A   1      43.117  24.098  24.595  1.00  0.00    -0.200 F 
ENDBRANCH  51  65
BRANCH  52  76
ATOM     76  C   UNL A   1      39.304  32.086  35.591  1.00  0.00     0.064 A 
ATOM     77  C   UNL A   1      38.446  31.532  36.551  1.00  0.00     0.173 A 
ATOM     78  C   UNL A   1      39.729  33.408  35.780  1.00  0.00     0.173 A 
ATOM     79  F   UNL A   1      37.994  30.279  36.401  1.00  0.00    -0.203 F 
ATOM     80  C   UNL A   1      38.017  32.277  37.648  1.00  0.00     0.198 A 
ATOM     81  C   UNL A   1      39.320  34.143  36.891  1.00  0.00     0.198 A 
ATOM     82  F   UNL A   1      40.553  33.984  34.891  1.00  0.00    -0.203 F 
ATOM     83  F   UNL A   1      37.164  31.737  38.528  1.00  0.00    -0.200 F 
ATOM     84  C   UNL A   1      38.460  33.579  37.820  1.00  0.00     0.200 A 
ATOM     85  F   UNL A   1      39.761  35.398  37.061  1.00  0.00    -0.200 F 
ATOM     86  F   UNL A   1      38.050  34.294  38.878  1.00  0.00    -0.200 F 
ENDBRANCH  52  76
BRANCH  64  87
ATOM     87  C   UNL A   1      44.534  27.611  34.521  1.00  0.00     0.064 A 
ATOM     88  C   UNL A   1      44.399  26.429  35.263  1.00  0.00     0.173 A 
ATOM     89  C   UNL A   1      45.759  28.293  34.587  1.00  0.00     0.173 A 
ATOM     90  F   UNL A   1      43.242  25.751  35.247  1.00  0.00    -0.203 F 
ATOM     91  C   UNL A   1      45.444  25.956  36.052  1.00  0.00     0.198 A 
ATOM     92  C   UNL A   1      46.811  27.804  35.357  1.00  0.00     0.198 A 
ATOM     93  F   UNL A   1      45.939  29.427  33.894  1.00  0.00    -0.203 F 
ATOM     94  F   UNL A   1      45.280  24.845  36.783  1.00  0.00    -0.200 F 
ATOM     95  C   UNL A   1      46.651  26.639  36.091  1.00  0.00     0.200 A 
ATOM     96  F   UNL A   1      47.980  28.457  35.384  1.00  0.00    -0.200 F 
ATOM     97  F   UNL A   1      47.660  26.176  36.843  1.00  0.00    -0.200 F 
ENDBRANCH  64  87
ENDBRANCH  38  39
ENDBRANCH  30  33
ENDBRANCH  28  29
ENDBRANCH  27  28
ENDBRANCH   1  27
TORSDOF 14
ENDMDL
