MODEL 1
REMARK VINA RESULT:     -11.5      0.000      0.000
REMARK SMILES COCCCC(=O)N[C@H]1CC[C@@H](C(=O)NCCCCNC(=O)c2ccc(-c3c4nc(c(-c5c(F)c(F)c(F)c(F)c5F)c5ccc([nH]5)c(-c5c(F)c(F)c(F)c(F)c5F)c5nc(c(-c6c(F)c(F)c(F)c(F)c6F)c6ccc3[nH]6)C=C5)C=C4)cc2)CC1
REMARK SMILES IDX 16 1 15 2 13 3 14 4 12 6 9 7 10 8 87 9 11 10 86 11 8 12 6 13
REMARK SMILES IDX 7 14 5 16 4 17 3 18 2 19 1 20 17 21 18 22 19 23 20 24 21 25
REMARK SMILES IDX 22 27 23 28 24 29 85 30 25 31 84 32 26 33 27 34 28 35 78 36
REMARK SMILES IDX 29 37 83 38 77 39 79 40 30 41 82 42 76 43 75 44 31 46 63 47
REMARK SMILES IDX 43 48 62 49 44 50 47 51 61 52 80 53 45 54 46 55 60 57 81 58
REMARK SMILES IDX 48 59 32 60 33 61 41 62 34 63 35 64 39 65 42 66 36 67 37 68
REMARK SMILES IDX 40 69 38 70 64 71 65 72 73 73 66 74 67 75 71 76 74 77 68 78
REMARK SMILES IDX 69 79 72 80 70 81 49 82 50 83 58 84 51 85 52 86 56 87 59 88
REMARK SMILES IDX 53 89 54 90 57 91 55 92
REMARK H PARENT 15 5 8 15 20 26 79 45 47 56
REMARK Flexibility Score: inf
ROOT
ATOM      1  C   UNL A   1      33.698  29.121  26.708  1.00  0.00     0.116 C 
ENDROOT
BRANCH   1   2
ATOM      2  N   UNL A   1      33.904  29.337  25.292  1.00  0.00    -0.356 N 
ATOM      3  C   UNL A   1      33.432  28.745  24.171  1.00  0.00     0.223 C 
ATOM      4  O   UNL A   1      33.633  29.371  23.121  1.00  0.00    -0.275 OA
ATOM      5  H   UNL A   1      34.524  30.079  25.104  1.00  0.00     0.163 HD
BRANCH   3   6
ATOM      6  C   UNL A   1      32.720  27.388  24.095  1.00  0.00     0.078 C 
ATOM      7  C   UNL A   1      29.793  27.125  23.501  1.00  0.00     0.082 C 
ATOM      8  C   UNL A   1      30.816  27.188  22.356  1.00  0.00     0.026 C 
ATOM      9  C   UNL A   1      30.286  27.535  24.887  1.00  0.00     0.026 C 
ATOM     10  C   UNL A   1      32.262  26.907  22.724  1.00  0.00     0.015 C 
ATOM     11  C   UNL A   1      31.709  27.117  25.204  1.00  0.00     0.015 C 
BRANCH   7  12
ATOM     12  N   UNL A   1      28.635  27.916  23.087  1.00  0.00    -0.353 N 
ATOM     13  C   UNL A   1      28.362  29.242  23.158  1.00  0.00     0.220 C 
ATOM     14  O   UNL A   1      27.197  29.589  22.961  1.00  0.00    -0.275 OA
ATOM     15  H   UNL A   1      27.916  27.384  22.675  1.00  0.00     0.163 HD
BRANCH  13  16
ATOM     16  C   UNL A   1      29.449  30.259  23.400  1.00  0.00     0.102 C 
BRANCH  16  17
ATOM     17  C   UNL A   1      28.980  31.644  23.850  1.00  0.00     0.038 C 
BRANCH  17  18
ATOM     18  C   UNL A   1      28.825  32.740  22.793  1.00  0.00     0.160 C 
BRANCH  18  19
ATOM     19  O   UNL A   1      27.716  32.649  21.902  1.00  0.00    -0.385 OA
ATOM     20  C   UNL A   1      27.972  32.446  20.526  1.00  0.00     0.194 C 
ENDBRANCH  18  19
ENDBRANCH  17  18
ENDBRANCH  16  17
ENDBRANCH  13  16
ENDBRANCH   7  12
ENDBRANCH   3   6
ENDBRANCH   1   2
BRANCH   1  21
ATOM     21  C   UNL A   1      32.422  29.772  27.252  1.00  0.00     0.023 C 
BRANCH  21  22
ATOM     22  C   UNL A   1      32.193  31.204  26.790  1.00  0.00     0.023 C 
BRANCH  22  23
ATOM     23  C   UNL A   1      33.132  32.232  27.409  1.00  0.00     0.116 C 
BRANCH  23  24
ATOM     24  N   UNL A   1      32.578  33.570  27.572  1.00  0.00    -0.352 N 
ATOM     25  C   UNL A   1      33.037  34.563  28.419  1.00  0.00     0.251 C 
ATOM     26  H   UNL A   1      31.794  33.791  27.020  1.00  0.00     0.163 HD
ATOM     27  O   UNL A   1      32.465  35.638  28.520  1.00  0.00    -0.269 OA
BRANCH  25  28
ATOM     28  C   UNL A   1      34.198  34.257  29.282  1.00  0.00     0.039 A 
ATOM     29  C   UNL A   1      33.976  33.538  30.458  1.00  0.00     0.014 A 
ATOM     30  C   UNL A   1      35.494  34.516  28.834  1.00  0.00     0.014 A 
ATOM     31  C   UNL A   1      35.061  32.966  31.121  1.00  0.00     0.010 A 
ATOM     32  C   UNL A   1      36.561  33.863  29.440  1.00  0.00     0.010 A 
ATOM     33  C   UNL A   1      36.353  33.064  30.576  1.00  0.00    -0.014 A 
BRANCH  33  34
ATOM     34  C   UNL A   1      37.492  32.313  31.161  1.00  0.00     0.031 A 
ATOM     35  C   UNL A   1      37.986  32.653  32.536  1.00  0.00     0.074 A 
ATOM     36  C   UNL A   1      38.135  31.388  30.420  1.00  0.00     0.049 A 
ATOM     37  N   UNL A   1      39.018  32.179  33.187  1.00  0.00    -0.248 NA
ATOM     38  C   UNL A   1      37.245  33.695  33.264  1.00  0.00     0.031 C 
ATOM     39  C   UNL A   1      37.804  31.019  29.042  1.00  0.00     0.029 A 
ATOM     40  N   UNL A   1      39.213  30.592  30.721  1.00  0.00    -0.354 N 
ATOM     41  C   UNL A   1      39.064  32.884  34.382  1.00  0.00     0.074 A 
ATOM     42  C   UNL A   1      37.993  33.856  34.344  1.00  0.00     0.031 C 
ATOM     43  C   UNL A   1      38.636  30.049  28.631  1.00  0.00     0.029 A 
ATOM     44  C   UNL A   1      39.580  29.748  29.701  1.00  0.00     0.049 A 
ATOM     45  H   UNL A   1      39.680  30.623  31.588  1.00  0.00     0.167 HD
ATOM     46  C   UNL A   1      39.904  32.716  35.429  1.00  0.00     0.037 A 
ATOM     47  C   UNL A   1      40.565  28.832  29.641  1.00  0.00     0.037 A 
ATOM     48  C   UNL A   1      40.933  31.714  35.487  1.00  0.00     0.049 A 
ATOM     49  C   UNL A   1      41.452  28.627  30.839  1.00  0.00     0.074 A 
ATOM     50  C   UNL A   1      41.790  31.415  36.532  1.00  0.00     0.029 A 
ATOM     51  N   UNL A   1      41.239  30.840  34.455  1.00  0.00    -0.354 N 
ATOM     52  N   UNL A   1      41.441  29.252  31.990  1.00  0.00    -0.248 NA
ATOM     53  C   UNL A   1      42.482  27.583  30.731  1.00  0.00     0.031 C 
ATOM     54  C   UNL A   1      42.631  30.374  36.122  1.00  0.00     0.029 A 
ATOM     55  C   UNL A   1      42.275  30.003  34.835  1.00  0.00     0.049 A 
ATOM     56  H   UNL A   1      40.786  30.816  33.580  1.00  0.00     0.167 HD
ATOM     57  C   UNL A   1      42.441  28.665  32.752  1.00  0.00     0.074 A 
ATOM     58  C   UNL A   1      43.032  27.624  31.938  1.00  0.00     0.031 C 
ATOM     59  C   UNL A   1      42.837  28.965  34.013  1.00  0.00     0.037 A 
BRANCH  46  60
ATOM     60  C   UNL A   1      39.726  33.629  36.605  1.00  0.00     0.064 A 
ATOM     61  C   UNL A   1      40.411  34.850  36.695  1.00  0.00     0.173 A 
ATOM     62  C   UNL A   1      38.855  33.285  37.648  1.00  0.00     0.173 A 
ATOM     63  F   UNL A   1      41.268  35.215  35.729  1.00  0.00    -0.203 F 
ATOM     64  C   UNL A   1      40.256  35.679  37.802  1.00  0.00     0.198 A 
ATOM     65  C   UNL A   1      38.681  34.129  38.742  1.00  0.00     0.198 A 
ATOM     66  F   UNL A   1      38.174  32.129  37.610  1.00  0.00    -0.203 F 
ATOM     67  F   UNL A   1      40.964  36.813  37.892  1.00  0.00    -0.200 F 
ATOM     68  C   UNL A   1      39.387  35.321  38.822  1.00  0.00     0.200 A 
ATOM     69  F   UNL A   1      37.835  33.787  39.723  1.00  0.00    -0.200 F 
ATOM     70  F   UNL A   1      39.239  36.119  39.888  1.00  0.00    -0.200 F 
ENDBRANCH  46  60
BRANCH  47  71
ATOM     71  C   UNL A   1      40.739  28.006  28.417  1.00  0.00     0.064 A 
ATOM     72  C   UNL A   1      40.108  26.759  28.299  1.00  0.00     0.173 A 
ATOM     73  C   UNL A   1      41.537  28.437  27.349  1.00  0.00     0.173 A 
ATOM     74  F   UNL A   1      39.351  26.296  29.305  1.00  0.00    -0.203 F 
ATOM     75  C   UNL A   1      40.284  25.967  27.167  1.00  0.00     0.198 A 
ATOM     76  C   UNL A   1      41.694  27.654  26.207  1.00  0.00     0.198 A 
ATOM     77  F   UNL A   1      42.158  29.624  27.411  1.00  0.00    -0.203 F 
ATOM     78  F   UNL A   1      39.701  24.762  27.099  1.00  0.00    -0.200 F 
ATOM     79  C   UNL A   1      41.073  26.417  26.120  1.00  0.00     0.200 A 
ATOM     80  F   UNL A   1      42.448  28.096  25.191  1.00  0.00    -0.200 F 
ATOM     81  F   UNL A   1      41.241  25.655  25.031  1.00  0.00    -0.200 F 
ENDBRANCH  47  71
BRANCH  59  82
ATOM     82  C   UNL A   1      43.939  28.136  34.601  1.00  0.00     0.064 A 
ATOM     83  C   UNL A   1      45.280  28.539  34.522  1.00  0.00     0.173 A 
ATOM     84  C   UNL A   1      43.644  26.950  35.291  1.00  0.00     0.173 A 
ATOM     85  F   UNL A   1      45.611  29.656  33.859  1.00  0.00    -0.203 F 
ATOM     86  C   UNL A   1      46.289  27.775  35.102  1.00  0.00     0.198 A 
ATOM     87  C   UNL A   1      44.653  26.202  35.888  1.00  0.00     0.198 A 
ATOM     88  F   UNL A   1      42.375  26.528  35.395  1.00  0.00    -0.203 F 
ATOM     89  F   UNL A   1      47.568  28.158  34.986  1.00  0.00    -0.200 F 
ATOM     90  C   UNL A   1      45.974  26.612  35.790  1.00  0.00     0.200 A 
ATOM     91  F   UNL A   1      44.346  25.084  36.562  1.00  0.00    -0.200 F 
ATOM     92  F   UNL A   1      46.946  25.882  36.354  1.00  0.00    -0.200 F 
ENDBRANCH  59  82
ENDBRANCH  33  34
ENDBRANCH  25  28
ENDBRANCH  23  24
ENDBRANCH  22  23
ENDBRANCH  21  22
ENDBRANCH   1  21
TORSDOF 16
ENDMDL
MODEL 2
REMARK VINA RESULT:     -11.5      3.839      5.477
REMARK SMILES COCCCC(=O)N[C@H]1CC[C@@H](C(=O)NCCCCNC(=O)c2ccc(-c3c4nc(c(-c5c(F)c(F)c(F)c(F)c5F)c5ccc([nH]5)c(-c5c(F)c(F)c(F)c(F)c5F)c5nc(c(-c6c(F)c(F)c(F)c(F)c6F)c6ccc3[nH]6)C=C5)C=C4)cc2)CC1
REMARK SMILES IDX 16 1 15 2 13 3 14 4 12 6 9 7 10 8 87 9 11 10 86 11 8 12 6 13
REMARK SMILES IDX 7 14 5 16 4 17 3 18 2 19 1 20 17 21 18 22 19 23 20 24 21 25
REMARK SMILES IDX 22 27 23 28 24 29 85 30 25 31 84 32 26 33 27 34 28 35 78 36
REMARK SMILES IDX 29 37 83 38 77 39 79 40 30 41 82 42 76 43 75 44 31 46 63 47
REMARK SMILES IDX 43 48 62 49 44 50 47 51 61 52 80 53 45 54 46 55 60 57 81 58
REMARK SMILES IDX 48 59 32 60 33 61 41 62 34 63 35 64 39 65 42 66 36 67 37 68
REMARK SMILES IDX 40 69 38 70 64 71 65 72 73 73 66 74 67 75 71 76 74 77 68 78
REMARK SMILES IDX 69 79 72 80 70 81 49 82 50 83 58 84 51 85 52 86 56 87 59 88
REMARK SMILES IDX 53 89 54 90 57 91 55 92
REMARK H PARENT 15 5 8 15 20 26 79 45 47 56
REMARK Flexibility Score: inf
ROOT
ATOM      1  C   UNL A   1      32.591  27.783  23.486  1.00  0.00     0.116 C 
ENDROOT
BRANCH   1   2
ATOM      2  N   UNL A   1      31.825  26.702  24.068  1.00  0.00    -0.356 N 
ATOM      3  C   UNL A   1      32.117  25.433  24.437  1.00  0.00     0.223 C 
ATOM      4  O   UNL A   1      31.262  24.881  25.141  1.00  0.00    -0.275 OA
ATOM      5  H   UNL A   1      30.885  26.943  24.231  1.00  0.00     0.163 HD
BRANCH   3   6
ATOM      6  C   UNL A   1      33.369  24.640  24.037  1.00  0.00     0.078 C 
ATOM      7  C   UNL A   1      33.666  21.705  24.572  1.00  0.00     0.082 C 
ATOM      8  C   UNL A   1      32.985  22.196  23.285  1.00  0.00     0.026 C 
ATOM      9  C   UNL A   1      33.864  22.736  25.681  1.00  0.00     0.026 C 
ATOM     10  C   UNL A   1      33.236  23.641  22.894  1.00  0.00     0.015 C 
ATOM     11  C   UNL A   1      34.218  24.130  25.196  1.00  0.00     0.015 C 
BRANCH   7  12
ATOM     12  N   UNL A   1      32.909  20.547  25.045  1.00  0.00    -0.353 N 
ATOM     13  C   UNL A   1      33.095  19.212  24.899  1.00  0.00     0.220 C 
ATOM     14  O   UNL A   1      32.152  18.476  25.192  1.00  0.00    -0.275 OA
ATOM     15  H   UNL A   1      32.110  20.782  25.571  1.00  0.00     0.163 HD
BRANCH  13  16
ATOM     16  C   UNL A   1      34.423  18.644  24.464  1.00  0.00     0.102 C 
BRANCH  16  17
ATOM     17  C   UNL A   1      34.425  17.161  24.092  1.00  0.00     0.038 C 
BRANCH  17  18
ATOM     18  C   UNL A   1      34.650  16.131  25.201  1.00  0.00     0.160 C 
BRANCH  18  19
ATOM     19  O   UNL A   1      33.853  14.949  25.179  1.00  0.00    -0.385 OA
ATOM     20  C   UNL A   1      32.559  14.997  25.745  1.00  0.00     0.194 C 
ENDBRANCH  18  19
ENDBRANCH  17  18
ENDBRANCH  16  17
ENDBRANCH  13  16
ENDBRANCH   7  12
ENDBRANCH   3   6
ENDBRANCH   1   2
BRANCH   1  21
ATOM     21  C   UNL A   1      33.150  28.768  24.518  1.00  0.00     0.023 C 
BRANCH  21  22
ATOM     22  C   UNL A   1      32.098  29.602  25.235  1.00  0.00     0.023 C 
BRANCH  22  23
ATOM     23  C   UNL A   1      32.454  29.984  26.667  1.00  0.00     0.116 C 
BRANCH  23  24
ATOM     24  N   UNL A   1      32.350  31.402  26.983  1.00  0.00    -0.352 N 
ATOM     25  C   UNL A   1      33.345  32.218  27.492  1.00  0.00     0.251 C 
ATOM     26  H   UNL A   1      31.477  31.826  26.816  1.00  0.00     0.163 HD
ATOM     27  O   UNL A   1      33.137  33.388  27.773  1.00  0.00    -0.269 OA
BRANCH  25  28
ATOM     28  C   UNL A   1      34.661  31.608  27.779  1.00  0.00     0.039 A 
ATOM     29  C   UNL A   1      35.751  32.455  27.987  1.00  0.00     0.014 A 
ATOM     30  C   UNL A   1      34.763  30.237  28.020  1.00  0.00     0.014 A 
ATOM     31  C   UNL A   1      36.912  31.942  28.563  1.00  0.00     0.010 A 
ATOM     32  C   UNL A   1      35.883  29.749  28.683  1.00  0.00     0.010 A 
ATOM     33  C   UNL A   1      36.958  30.601  28.982  1.00  0.00    -0.014 A 
BRANCH  33  34
ATOM     34  C   UNL A   1      38.110  30.079  29.760  1.00  0.00     0.031 A 
ATOM     35  C   UNL A   1      38.320  30.524  31.177  1.00  0.00     0.074 A 
ATOM     36  C   UNL A   1      39.013  29.276  29.162  1.00  0.00     0.049 A 
ATOM     37  N   UNL A   1      39.308  30.256  31.993  1.00  0.00    -0.248 NA
ATOM     38  C   UNL A   1      37.304  31.425  31.742  1.00  0.00     0.031 C 
ATOM     39  C   UNL A   1      38.967  28.832  27.767  1.00  0.00     0.029 A 
ATOM     40  N   UNL A   1      40.157  28.694  29.652  1.00  0.00    -0.354 N 
ATOM     41  C   UNL A   1      39.046  30.976  33.150  1.00  0.00     0.074 A 
ATOM     42  C   UNL A   1      37.837  31.736  32.913  1.00  0.00     0.031 C 
ATOM     43  C   UNL A   1      40.010  28.023  27.525  1.00  0.00     0.029 A 
ATOM     44  C   UNL A   1      40.819  27.915  28.735  1.00  0.00     0.049 A 
ATOM     45  H   UNL A   1      40.473  28.823  30.576  1.00  0.00     0.167 HD
ATOM     46  C   UNL A   1      39.732  30.980  34.316  1.00  0.00     0.037 A 
ATOM     47  C   UNL A   1      41.948  27.193  28.859  1.00  0.00     0.037 A 
ATOM     48  C   UNL A   1      40.902  30.183  34.567  1.00  0.00     0.049 A 
ATOM     49  C   UNL A   1      42.664  27.171  30.182  1.00  0.00     0.074 A 
ATOM     50  C   UNL A   1      41.628  30.060  35.739  1.00  0.00     0.029 A 
ATOM     51  N   UNL A   1      41.512  29.363  33.629  1.00  0.00    -0.354 N 
ATOM     52  N   UNL A   1      42.366  27.802  31.291  1.00  0.00    -0.248 NA
ATOM     53  C   UNL A   1      43.867  26.331  30.272  1.00  0.00     0.031 C 
ATOM     54  C   UNL A   1      42.693  29.184  35.502  1.00  0.00     0.029 A 
ATOM     55  C   UNL A   1      42.610  28.735  34.193  1.00  0.00     0.049 A 
ATOM     56  H   UNL A   1      41.209  29.244  32.700  1.00  0.00     0.167 HD
ATOM     57  C   UNL A   1      43.327  27.418  32.217  1.00  0.00     0.074 A 
ATOM     58  C   UNL A   1      44.210  26.489  31.543  1.00  0.00     0.031 C 
ATOM     59  C   UNL A   1      43.466  27.804  33.508  1.00  0.00     0.037 A 
BRANCH  46  60
ATOM     60  C   UNL A   1      39.217  31.863  35.412  1.00  0.00     0.064 A 
ATOM     61  C   UNL A   1      38.376  31.366  36.419  1.00  0.00     0.173 A 
ATOM     62  C   UNL A   1      39.575  33.218  35.463  1.00  0.00     0.173 A 
ATOM     63  F   UNL A   1      37.993  30.080  36.403  1.00  0.00    -0.203 F 
ATOM     64  C   UNL A   1      37.885  32.200  37.419  1.00  0.00     0.198 A 
ATOM     65  C   UNL A   1      39.105  34.044  36.481  1.00  0.00     0.198 A 
ATOM     66  F   UNL A   1      40.379  33.743  34.525  1.00  0.00    -0.203 F 
ATOM     67  F   UNL A   1      37.038  31.715  38.337  1.00  0.00    -0.200 F 
ATOM     68  C   UNL A   1      38.254  33.537  37.452  1.00  0.00     0.200 A 
ATOM     69  F   UNL A   1      39.468  35.333  36.518  1.00  0.00    -0.200 F 
ATOM     70  F   UNL A   1      37.780  34.340  38.415  1.00  0.00    -0.200 F 
ENDBRANCH  46  60
BRANCH  47  71
ATOM     71  C   UNL A   1      42.451  26.394  27.711  1.00  0.00     0.064 A 
ATOM     72  C   UNL A   1      42.015  25.076  27.510  1.00  0.00     0.173 A 
ATOM     73  C   UNL A   1      43.375  26.922  26.798  1.00  0.00     0.173 A 
ATOM     74  F   UNL A   1      41.146  24.522  28.368  1.00  0.00    -0.203 F 
ATOM     75  C   UNL A   1      42.497  24.311  26.450  1.00  0.00     0.198 A 
ATOM     76  C   UNL A   1      43.840  26.163  25.726  1.00  0.00     0.198 A 
ATOM     77  F   UNL A   1      43.819  28.178  26.944  1.00  0.00    -0.203 F 
ATOM     78  F   UNL A   1      42.094  23.041  26.306  1.00  0.00    -0.200 F 
ATOM     79  C   UNL A   1      43.407  24.856  25.557  1.00  0.00     0.200 A 
ATOM     80  F   UNL A   1      44.710  26.697  24.857  1.00  0.00    -0.200 F 
ATOM     81  F   UNL A   1      43.870  24.121  24.538  1.00  0.00    -0.200 F 
ENDBRANCH  47  71
BRANCH  59  82
ATOM     82  C   UNL A   1      44.595  27.198  34.287  1.00  0.00     0.064 A 
ATOM     83  C   UNL A   1      44.442  25.985  34.973  1.00  0.00     0.173 A 
ATOM     84  C   UNL A   1      45.856  27.814  34.304  1.00  0.00     0.173 A 
ATOM     85  F   UNL A   1      43.251  25.369  34.998  1.00  0.00    -0.203 F 
ATOM     86  C   UNL A   1      45.510  25.419  35.664  1.00  0.00     0.198 A 
ATOM     87  C   UNL A   1      46.925  27.232  34.975  1.00  0.00     0.198 A 
ATOM     88  F   UNL A   1      46.050  28.973  33.657  1.00  0.00    -0.203 F 
ATOM     89  F   UNL A   1      45.334  24.277  36.344  1.00  0.00    -0.200 F 
ATOM     90  C   UNL A   1      46.751  26.037  35.659  1.00  0.00     0.200 A 
ATOM     91  F   UNL A   1      48.127  27.826  34.961  1.00  0.00    -0.200 F 
ATOM     92  F   UNL A   1      47.779  25.486  36.318  1.00  0.00    -0.200 F 
ENDBRANCH  59  82
ENDBRANCH  33  34
ENDBRANCH  25  28
ENDBRANCH  23  24
ENDBRANCH  22  23
ENDBRANCH  21  22
ENDBRANCH   1  21
TORSDOF 16
ENDMDL
MODEL 3
REMARK VINA RESULT:     -11.4      5.367     10.695
REMARK SMILES COCCCC(=O)N[C@H]1CC[C@@H](C(=O)NCCCCNC(=O)c2ccc(-c3c4nc(c(-c5c(F)c(F)c(F)c(F)c5F)c5ccc([nH]5)c(-c5c(F)c(F)c(F)c(F)c5F)c5nc(c(-c6c(F)c(F)c(F)c(F)c6F)c6ccc3[nH]6)C=C5)C=C4)cc2)CC1
REMARK SMILES IDX 16 1 15 2 13 3 14 4 12 6 9 7 10 8 87 9 11 10 86 11 8 12 6 13
REMARK SMILES IDX 7 14 5 16 4 17 3 18 2 19 1 20 17 21 18 22 19 23 20 24 21 25
REMARK SMILES IDX 22 27 23 28 24 29 85 30 25 31 84 32 26 33 27 34 28 35 78 36
REMARK SMILES IDX 29 37 83 38 77 39 79 40 30 41 82 42 76 43 75 44 31 46 63 47
REMARK SMILES IDX 43 48 62 49 44 50 47 51 61 52 80 53 45 54 46 55 60 57 81 58
REMARK SMILES IDX 48 59 32 60 33 61 41 62 34 63 35 64 39 65 42 66 36 67 37 68
REMARK SMILES IDX 40 69 38 70 64 71 65 72 73 73 66 74 67 75 71 76 74 77 68 78
REMARK SMILES IDX 69 79 72 80 70 81 49 82 50 83 58 84 51 85 52 86 56 87 59 88
REMARK SMILES IDX 53 89 54 90 57 91 55 92
REMARK H PARENT 15 5 8 15 20 26 79 45 47 56
REMARK Flexibility Score: inf
ROOT
ATOM      1  C   UNL A   1      42.643  19.718  26.285  1.00  0.00     0.116 C 
ENDROOT
BRANCH   1   2
ATOM      2  N   UNL A   1      43.252  20.332  25.125  1.00  0.00    -0.356 N 
ATOM      3  C   UNL A   1      44.212  21.271  24.952  1.00  0.00     0.223 C 
ATOM      4  O   UNL A   1      44.658  21.360  23.800  1.00  0.00    -0.275 OA
ATOM      5  H   UNL A   1      42.890  19.992  24.275  1.00  0.00     0.163 HD
BRANCH   3   6
ATOM      6  C   UNL A   1      44.750  22.224  26.028  1.00  0.00     0.078 C 
ATOM      7  C   UNL A   1      44.495  25.205  25.825  1.00  0.00     0.082 C 
ATOM      8  C   UNL A   1      43.368  24.369  26.451  1.00  0.00     0.026 C 
ATOM      9  C   UNL A   1      45.553  24.444  25.029  1.00  0.00     0.026 C 
ATOM     10  C   UNL A   1      43.731  22.962  26.889  1.00  0.00     0.015 C 
ATOM     11  C   UNL A   1      45.929  23.091  25.603  1.00  0.00     0.015 C 
BRANCH   7  12
ATOM     12  N   UNL A   1      43.860  26.245  25.017  1.00  0.00    -0.353 N 
ATOM     13  C   UNL A   1      43.358  27.465  25.329  1.00  0.00     0.220 C 
ATOM     14  O   UNL A   1      42.652  28.017  24.484  1.00  0.00    -0.275 OA
ATOM     15  H   UNL A   1      43.785  26.016  24.062  1.00  0.00     0.163 HD
BRANCH  13  16
ATOM     16  C   UNL A   1      43.702  28.151  26.627  1.00  0.00     0.102 C 
BRANCH  16  17
ATOM     17  C   UNL A   1      43.043  29.512  26.859  1.00  0.00     0.038 C 
BRANCH  17  18
ATOM     18  C   UNL A   1      43.928  30.760  26.852  1.00  0.00     0.160 C 
BRANCH  18  19
ATOM     19  O   UNL A   1      45.268  30.626  27.318  1.00  0.00    -0.385 OA
ATOM     20  C   UNL A   1      46.325  30.933  26.431  1.00  0.00     0.194 C 
ENDBRANCH  18  19
ENDBRANCH  17  18
ENDBRANCH  16  17
ENDBRANCH  13  16
ENDBRANCH   7  12
ENDBRANCH   3   6
ENDBRANCH   1   2
BRANCH   1  21
ATOM     21  C   UNL A   1      41.116  19.622  26.200  1.00  0.00     0.023 C 
BRANCH  21  22
ATOM     22  C   UNL A   1      40.369  20.760  26.880  1.00  0.00     0.023 C 
BRANCH  22  23
ATOM     23  C   UNL A   1      40.298  22.049  26.072  1.00  0.00     0.116 C 
BRANCH  23  24
ATOM     24  N   UNL A   1      38.955  22.521  25.758  1.00  0.00    -0.352 N 
ATOM     25  C   UNL A   1      38.383  23.720  26.140  1.00  0.00     0.251 C 
ATOM     26  H   UNL A   1      38.395  21.920  25.214  1.00  0.00     0.163 HD
ATOM     27  O   UNL A   1      37.225  23.997  25.868  1.00  0.00    -0.269 OA
BRANCH  25  28
ATOM     28  C   UNL A   1      39.187  24.635  26.980  1.00  0.00     0.039 A 
ATOM     29  C   UNL A   1      39.918  25.642  26.348  1.00  0.00     0.014 A 
ATOM     30  C   UNL A   1      39.062  24.605  28.370  1.00  0.00     0.014 A 
ATOM     31  C   UNL A   1      40.421  26.697  27.107  1.00  0.00     0.010 A 
ATOM     32  C   UNL A   1      39.478  25.706  29.109  1.00  0.00     0.010 A 
ATOM     33  C   UNL A   1      40.141  26.773  28.482  1.00  0.00    -0.014 A 
BRANCH  33  34
ATOM     34  C   UNL A   1      40.507  27.974  29.275  1.00  0.00     0.031 A 
ATOM     35  C   UNL A   1      41.857  28.059  29.925  1.00  0.00     0.074 A 
ATOM     36  C   UNL A   1      39.594  28.943  29.483  1.00  0.00     0.049 A 
ATOM     37  N   UNL A   1      42.334  28.977  30.727  1.00  0.00    -0.248 NA
ATOM     38  C   UNL A   1      42.783  26.944  29.671  1.00  0.00     0.031 C 
ATOM     39  C   UNL A   1      38.221  28.943  28.972  1.00  0.00     0.029 A 
ATOM     40  N   UNL A   1      39.680  30.118  30.189  1.00  0.00    -0.354 N 
ATOM     41  C   UNL A   1      43.598  28.535  31.093  1.00  0.00     0.074 A 
ATOM     42  C   UNL A   1      43.793  27.242  30.473  1.00  0.00     0.031 C 
ATOM     43  C   UNL A   1      37.607  30.075  29.352  1.00  0.00     0.029 A 
ATOM     44  C   UNL A   1      38.529  30.868  30.159  1.00  0.00     0.049 A 
ATOM     45  H   UNL A   1      40.492  30.397  30.672  1.00  0.00     0.167 HD
ATOM     46  C   UNL A   1      44.524  29.163  31.854  1.00  0.00     0.037 A 
ATOM     47  C   UNL A   1      38.253  32.062  30.716  1.00  0.00     0.037 A 
ATOM     48  C   UNL A   1      44.350  30.470  32.425  1.00  0.00     0.049 A 
ATOM     49  C   UNL A   1      39.318  32.764  31.513  1.00  0.00     0.074 A 
ATOM     50  C   UNL A   1      45.255  31.224  33.150  1.00  0.00     0.029 A 
ATOM     51  N   UNL A   1      43.189  31.223  32.327  1.00  0.00    -0.354 N 
ATOM     52  N   UNL A   1      40.535  32.367  31.794  1.00  0.00    -0.248 NA
ATOM     53  C   UNL A   1      38.975  34.084  32.061  1.00  0.00     0.031 C 
ATOM     54  C   UNL A   1      44.633  32.425  33.511  1.00  0.00     0.029 A 
ATOM     55  C   UNL A   1      43.352  32.431  32.982  1.00  0.00     0.049 A 
ATOM     56  H   UNL A   1      42.369  30.940  31.859  1.00  0.00     0.167 HD
ATOM     57  C   UNL A   1      41.110  33.394  32.529  1.00  0.00     0.074 A 
ATOM     58  C   UNL A   1      40.114  34.439  32.640  1.00  0.00     0.031 C 
ATOM     59  C   UNL A   1      42.352  33.462  33.068  1.00  0.00     0.037 A 
BRANCH  46  60
ATOM     60  C   UNL A   1      45.818  28.444  32.092  1.00  0.00     0.064 A 
ATOM     61  C   UNL A   1      46.898  28.567  31.205  1.00  0.00     0.173 A 
ATOM     62  C   UNL A   1      45.985  27.631  33.222  1.00  0.00     0.173 A 
ATOM     63  F   UNL A   1      46.781  29.320  30.100  1.00  0.00    -0.203 F 
ATOM     64  C   UNL A   1      48.087  27.876  31.422  1.00  0.00     0.198 A 
ATOM     65  C   UNL A   1      47.185  26.963  33.452  1.00  0.00     0.198 A 
ATOM     66  F   UNL A   1      44.983  27.481  34.103  1.00  0.00    -0.203 F 
ATOM     67  F   UNL A   1      49.083  27.965  30.532  1.00  0.00    -0.200 F 
ATOM     68  C   UNL A   1      48.231  27.080  32.548  1.00  0.00     0.200 A 
ATOM     69  F   UNL A   1      47.327  26.200  34.544  1.00  0.00    -0.200 F 
ATOM     70  F   UNL A   1      49.376  26.415  32.757  1.00  0.00    -0.200 F 
ENDBRANCH  46  60
BRANCH  47  71
ATOM     71  C   UNL A   1      36.923  32.691  30.506  1.00  0.00     0.064 A 
ATOM     72  C   UNL A   1      36.635  33.374  29.315  1.00  0.00     0.173 A 
ATOM     73  C   UNL A   1      35.920  32.631  31.483  1.00  0.00     0.173 A 
ATOM     74  F   UNL A   1      37.570  33.475  28.360  1.00  0.00    -0.203 F 
ATOM     75  C   UNL A   1      35.400  33.987  29.118  1.00  0.00     0.198 A 
ATOM     76  C   UNL A   1      34.677  33.226  31.275  1.00  0.00     0.198 A 
ATOM     77  F   UNL A   1      36.145  31.987  32.637  1.00  0.00    -0.203 F 
ATOM     78  F   UNL A   1      35.166  34.668  27.987  1.00  0.00    -0.200 F 
ATOM     79  C   UNL A   1      34.421  33.910  30.096  1.00  0.00     0.200 A 
ATOM     80  F   UNL A   1      33.729  33.140  32.218  1.00  0.00    -0.200 F 
ATOM     81  F   UNL A   1      33.233  34.500  29.906  1.00  0.00    -0.200 F 
ENDBRANCH  47  71
BRANCH  59  82
ATOM     82  C   UNL A   1      42.714  34.721  33.797  1.00  0.00     0.064 A 
ATOM     83  C   UNL A   1      42.551  34.836  35.185  1.00  0.00     0.173 A 
ATOM     84  C   UNL A   1      43.276  35.805  33.104  1.00  0.00     0.173 A 
ATOM     85  F   UNL A   1      42.003  33.832  35.885  1.00  0.00    -0.203 F 
ATOM     86  C   UNL A   1      42.923  36.000  35.852  1.00  0.00     0.198 A 
ATOM     87  C   UNL A   1      43.668  36.956  33.779  1.00  0.00     0.198 A 
ATOM     88  F   UNL A   1      43.456  35.738  31.777  1.00  0.00    -0.203 F 
ATOM     89  F   UNL A   1      42.726  36.104  37.173  1.00  0.00    -0.200 F 
ATOM     90  C   UNL A   1      43.488  37.055  35.151  1.00  0.00     0.200 A 
ATOM     91  F   UNL A   1      44.223  37.971  33.101  1.00  0.00    -0.200 F 
ATOM     92  F   UNL A   1      43.852  38.172  35.796  1.00  0.00    -0.200 F 
ENDBRANCH  59  82
ENDBRANCH  33  34
ENDBRANCH  25  28
ENDBRANCH  23  24
ENDBRANCH  22  23
ENDBRANCH  21  22
ENDBRANCH   1  21
TORSDOF 16
ENDMDL
