MODEL 1
REMARK VINA RESULT:     -12.6      0.000      0.000
REMARK SMILES CC(=O)C1=C(NCCCCNC(=O)c2ccc(-c3c4nc(c(-c5c(F)c(F)c(F)c(F)c5F)c5ccc([nH]5)c(-c5c(F)c(F)c(F)c(F)c5F)c5nc(c(-c6c(F)c(F)c(F)c(F)c6F)c6ccc3[nH]6)C=C5)C=C4)cc2)C(=O)N(c2cccc(C(=O)[O-])c2)[C@@H]1c1ccc([N+](=O)[O-])cc1
REMARK SMILES IDX 8 1 7 2 6 3 5 5 4 6 89 7 77 8 79 9 78 10 2 11 1 12 3 13
REMARK SMILES IDX 90 14 91 15 98 16 92 17 97 18 93 19 94 20 95 21 96 22 80 23
REMARK SMILES IDX 81 24 88 25 82 26 84 27 83 28 85 29 86 30 87 31 9 32 10 33
REMARK SMILES IDX 11 34 12 35 13 37 14 38 15 39 76 40 16 41 75 42 17 43 18 44
REMARK SMILES IDX 19 45 69 46 20 47 74 48 68 49 70 50 21 51 73 52 67 53 66 54
REMARK SMILES IDX 22 56 54 57 34 58 53 59 35 60 38 61 52 62 71 63 36 64 37 65
REMARK SMILES IDX 51 67 72 68 39 69 23 70 24 71 32 72 25 73 26 74 30 75 33 76
REMARK SMILES IDX 27 77 28 78 31 79 29 80 55 81 56 82 64 83 57 84 58 85 62 86
REMARK SMILES IDX 65 87 59 88 60 89 63 90 61 91 40 92 41 93 49 94 42 95 43 96
REMARK SMILES IDX 47 97 50 98 44 99 45 100 48 101 46 102
REMARK H PARENT 6 4 11 36 70 55 38 66
REMARK Flexibility Score: inf
ROOT
ATOM      1  C   UNL A   1      31.410  26.732  26.686  1.00  0.00     0.023 C 
ENDROOT
BRANCH   1   2
ATOM      2  C   UNL A   1      30.690  26.751  25.343  1.00  0.00     0.113 C 
BRANCH   2   3
ATOM      3  N   UNL A   1      30.568  25.412  24.810  1.00  0.00    -0.380 N 
ATOM      4  H   UNL A   1      29.653  25.120  24.592  1.00  0.00     0.160 HD
BRANCH   3   5
ATOM      5  C   UNL A   1      31.559  24.496  24.570  1.00  0.00     0.110 C 
ATOM      6  C   UNL A   1      32.803  24.540  24.081  1.00  0.00     0.051 C 
ATOM      7  C   UNL A   1      33.487  23.212  24.011  1.00  0.00     0.157 C 
ATOM      8  C   UNL A   1      31.325  23.042  24.882  1.00  0.00     0.275 C 
ATOM      9  N   UNL A   1      32.525  22.368  24.693  1.00  0.00    -0.295 N 
ATOM     10  O   UNL A   1      30.250  22.611  25.272  1.00  0.00    -0.267 OA
BRANCH   6  11
ATOM     11  C   UNL A   1      33.494  25.774  23.666  1.00  0.00     0.160 C 
ATOM     12  C   UNL A   1      33.566  26.078  22.199  1.00  0.00     0.093 C 
ATOM     13  O   UNL A   1      34.033  26.495  24.503  1.00  0.00    -0.295 OA
ENDBRANCH   6  11
BRANCH   7  14
ATOM     14  C   UNL A   1      34.926  23.163  24.499  1.00  0.00    -0.020 A 
ATOM     15  C   UNL A   1      35.999  22.774  23.676  1.00  0.00     0.013 A 
ATOM     16  C   UNL A   1      35.205  23.508  25.837  1.00  0.00     0.013 A 
ATOM     17  C   UNL A   1      37.295  22.668  24.183  1.00  0.00     0.086 A 
ATOM     18  C   UNL A   1      36.510  23.471  26.336  1.00  0.00     0.086 A 
ATOM     19  C   UNL A   1      37.546  23.029  25.509  1.00  0.00     0.269 A 
BRANCH  19  20
ATOM     20  N   UNL A   1      38.909  22.947  26.034  1.00  0.00     0.062 N 
ATOM     21  O   UNL A   1      39.419  23.988  26.473  1.00  0.00    -0.258 OA
ATOM     22  O   UNL A   1      39.468  21.842  26.003  1.00  0.00    -0.258 OA
ENDBRANCH  19  20
ENDBRANCH   7  14
BRANCH   9  23
ATOM     23  C   UNL A   1      32.661  20.970  24.825  1.00  0.00     0.046 A 
ATOM     24  C   UNL A   1      32.794  20.368  26.080  1.00  0.00     0.026 A 
ATOM     25  C   UNL A   1      32.677  20.166  23.682  1.00  0.00     0.036 A 
ATOM     26  C   UNL A   1      32.864  18.975  26.192  1.00  0.00     0.003 A 
ATOM     27  C   UNL A   1      32.744  18.772  23.785  1.00  0.00    -0.001 A 
ATOM     28  C   UNL A   1      32.829  18.176  25.047  1.00  0.00     0.010 A 
BRANCH  27  29
ATOM     29  C   UNL A   1      32.719  17.909  22.582  1.00  0.00     0.072 C 
ATOM     30  O   UNL A   1      32.051  18.099  21.579  1.00  0.00    -0.545 OA
ATOM     31  O   UNL A   1      33.556  16.861  22.678  1.00  0.00    -0.545 OA
ENDBRANCH  27  29
ENDBRANCH   9  23
ENDBRANCH   3   5
ENDBRANCH   2   3
ENDBRANCH   1   2
BRANCH   1  32
ATOM     32  C   UNL A   1      31.568  28.096  27.345  1.00  0.00     0.023 C 
BRANCH  32  33
ATOM     33  C   UNL A   1      32.747  28.914  26.835  1.00  0.00     0.116 C 
BRANCH  33  34
ATOM     34  N   UNL A   1      32.463  30.343  26.770  1.00  0.00    -0.352 N 
ATOM     35  C   UNL A   1      33.218  31.395  27.234  1.00  0.00     0.251 C 
ATOM     36  H   UNL A   1      31.616  30.588  26.333  1.00  0.00     0.163 HD
ATOM     37  O   UNL A   1      32.776  32.537  27.236  1.00  0.00    -0.269 OA
BRANCH  35  38
ATOM     38  C   UNL A   1      34.567  31.117  27.764  1.00  0.00     0.039 A 
ATOM     39  C   UNL A   1      35.490  32.160  27.861  1.00  0.00     0.014 A 
ATOM     40  C   UNL A   1      34.880  29.841  28.236  1.00  0.00     0.014 A 
ATOM     41  C   UNL A   1      36.702  31.942  28.519  1.00  0.00     0.010 A 
ATOM     42  C   UNL A   1      36.043  29.653  28.971  1.00  0.00     0.010 A 
ATOM     43  C   UNL A   1      36.964  30.701  29.122  1.00  0.00    -0.014 A 
BRANCH  43  44
ATOM     44  C   UNL A   1      38.197  30.456  29.914  1.00  0.00     0.031 A 
ATOM     45  C   UNL A   1      39.281  29.589  29.342  1.00  0.00     0.074 A 
ATOM     46  C   UNL A   1      38.295  30.925  31.174  1.00  0.00     0.049 A 
ATOM     47  N   UNL A   1      40.362  29.124  29.915  1.00  0.00    -0.248 NA
ATOM     48  C   UNL A   1      39.111  29.161  27.944  1.00  0.00     0.031 C 
ATOM     49  C   UNL A   1      37.295  31.749  31.854  1.00  0.00     0.029 A 
ATOM     50  N   UNL A   1      39.280  30.755  32.117  1.00  0.00    -0.354 N 
ATOM     51  C   UNL A   1      40.984  28.334  28.958  1.00  0.00     0.074 A 
ATOM     52  C   UNL A   1      40.133  28.334  27.788  1.00  0.00     0.031 C 
ATOM     53  C   UNL A   1      37.722  32.024  33.096  1.00  0.00     0.029 A 
ATOM     54  C   UNL A   1      38.999  31.352  33.321  1.00  0.00     0.049 A 
ATOM     55  H   UNL A   1      40.109  30.252  31.945  1.00  0.00     0.167 HD
ATOM     56  C   UNL A   1      42.171  27.689  29.038  1.00  0.00     0.037 A 
ATOM     57  C   UNL A   1      39.682  31.339  34.482  1.00  0.00     0.037 A 
ATOM     58  C   UNL A   1      43.020  27.710  30.198  1.00  0.00     0.049 A 
ATOM     59  C   UNL A   1      40.982  30.582  34.560  1.00  0.00     0.074 A 
ATOM     60  C   UNL A   1      44.265  27.129  30.365  1.00  0.00     0.029 A 
ATOM     61  N   UNL A   1      42.709  28.343  31.393  1.00  0.00    -0.354 N 
ATOM     62  N   UNL A   1      41.592  29.886  33.631  1.00  0.00    -0.248 NA
ATOM     63  C   UNL A   1      41.693  30.608  35.847  1.00  0.00     0.031 C 
ATOM     64  C   UNL A   1      44.680  27.358  31.679  1.00  0.00     0.029 A 
ATOM     65  C   UNL A   1      43.727  28.144  32.310  1.00  0.00     0.049 A 
ATOM     66  H   UNL A   1      41.886  28.857  31.563  1.00  0.00     0.167 HD
ATOM     67  C   UNL A   1      42.771  29.429  34.205  1.00  0.00     0.074 A 
ATOM     68  C   UNL A   1      42.794  29.926  35.564  1.00  0.00     0.031 C 
ATOM     69  C   UNL A   1      43.748  28.669  33.653  1.00  0.00     0.037 A 
BRANCH  56  70
ATOM     70  C   UNL A   1      42.618  26.902  27.839  1.00  0.00     0.064 A 
ATOM     71  C   UNL A   1      43.353  27.495  26.800  1.00  0.00     0.173 A 
ATOM     72  C   UNL A   1      42.334  25.532  27.742  1.00  0.00     0.173 A 
ATOM     73  F   UNL A   1      43.642  28.804  26.838  1.00  0.00    -0.203 F 
ATOM     74  C   UNL A   1      43.758  26.752  25.694  1.00  0.00     0.198 A 
ATOM     75  C   UNL A   1      42.772  24.784  26.651  1.00  0.00     0.198 A 
ATOM     76  F   UNL A   1      41.640  24.912  28.708  1.00  0.00    -0.203 F 
ATOM     77  F   UNL A   1      44.408  27.353  24.689  1.00  0.00    -0.200 F 
ATOM     78  C   UNL A   1      43.474  25.397  25.625  1.00  0.00     0.200 A 
ATOM     79  F   UNL A   1      42.512  23.471  26.594  1.00  0.00    -0.200 F 
ATOM     80  F   UNL A   1      43.871  24.681  24.563  1.00  0.00    -0.200 F 
ENDBRANCH  56  70
BRANCH  57  81
ATOM     81  C   UNL A   1      39.157  32.072  35.667  1.00  0.00     0.064 A 
ATOM     82  C   UNL A   1      39.492  33.416  35.890  1.00  0.00     0.173 A 
ATOM     83  C   UNL A   1      38.320  31.447  36.603  1.00  0.00     0.173 A 
ATOM     84  F   UNL A   1      40.305  34.052  35.034  1.00  0.00    -0.203 F 
ATOM     85  C   UNL A   1      39.033  34.096  37.015  1.00  0.00     0.198 A 
ATOM     86  C   UNL A   1      37.835  32.139  37.711  1.00  0.00     0.198 A 
ATOM     87  F   UNL A   1      37.963  30.166  36.435  1.00  0.00    -0.203 F 
ATOM     88  F   UNL A   1      39.413  35.364  37.230  1.00  0.00    -0.200 F 
ATOM     89  C   UNL A   1      38.200  33.459  37.922  1.00  0.00     0.200 A 
ATOM     90  F   UNL A   1      37.015  31.525  38.576  1.00  0.00    -0.200 F 
ATOM     91  F   UNL A   1      37.756  34.115  39.003  1.00  0.00    -0.200 F 
ENDBRANCH  57  81
BRANCH  69  92
ATOM     92  C   UNL A   1      44.961  28.373  34.485  1.00  0.00     0.064 A 
ATOM     93  C   UNL A   1      45.061  27.213  35.264  1.00  0.00     0.173 A 
ATOM     94  C   UNL A   1      46.076  29.225  34.428  1.00  0.00     0.173 A 
ATOM     95  F   UNL A   1      44.020  26.373  35.365  1.00  0.00    -0.203 F 
ATOM     96  C   UNL A   1      46.230  26.921  35.964  1.00  0.00     0.198 A 
ATOM     97  C   UNL A   1      47.253  28.914  35.101  1.00  0.00     0.198 A 
ATOM     98  F   UNL A   1      46.033  30.346  33.690  1.00  0.00    -0.203 F 
ATOM     99  F   UNL A   1      46.294  25.823  36.729  1.00  0.00    -0.200 F 
ATOM    100  C   UNL A   1      47.328  27.765  35.871  1.00  0.00     0.200 A 
ATOM    101  F   UNL A   1      48.318  29.721  34.994  1.00  0.00    -0.200 F 
ATOM    102  F   UNL A   1      48.459  27.469  36.525  1.00  0.00    -0.200 F 
ENDBRANCH  69  92
ENDBRANCH  43  44
ENDBRANCH  35  38
ENDBRANCH  33  34
ENDBRANCH  32  33
ENDBRANCH   1  32
TORSDOF 16
ENDMDL
MODEL 2
REMARK VINA RESULT:     -12.5      0.503      7.073
REMARK SMILES CC(=O)C1=C(NCCCCNC(=O)c2ccc(-c3c4nc(c(-c5c(F)c(F)c(F)c(F)c5F)c5ccc([nH]5)c(-c5c(F)c(F)c(F)c(F)c5F)c5nc(c(-c6c(F)c(F)c(F)c(F)c6F)c6ccc3[nH]6)C=C5)C=C4)cc2)C(=O)N(c2cccc(C(=O)[O-])c2)[C@@H]1c1ccc([N+](=O)[O-])cc1
REMARK SMILES IDX 8 1 7 2 6 3 5 5 4 6 89 7 77 8 79 9 78 10 2 11 1 12 3 13
REMARK SMILES IDX 90 14 91 15 98 16 92 17 97 18 93 19 94 20 95 21 96 22 80 23
REMARK SMILES IDX 81 24 88 25 82 26 84 27 83 28 85 29 86 30 87 31 9 32 10 33
REMARK SMILES IDX 11 34 12 35 13 37 14 38 15 39 76 40 16 41 75 42 17 43 18 44
REMARK SMILES IDX 19 45 69 46 20 47 74 48 68 49 70 50 21 51 73 52 67 53 66 54
REMARK SMILES IDX 22 56 54 57 34 58 53 59 35 60 38 61 52 62 71 63 36 64 37 65
REMARK SMILES IDX 51 67 72 68 39 69 23 70 24 71 32 72 25 73 26 74 30 75 33 76
REMARK SMILES IDX 27 77 28 78 31 79 29 80 55 81 56 82 64 83 57 84 58 85 62 86
REMARK SMILES IDX 65 87 59 88 60 89 63 90 61 91 40 92 41 93 49 94 42 95 43 96
REMARK SMILES IDX 47 97 50 98 44 99 45 100 48 101 46 102
REMARK H PARENT 6 4 11 36 70 55 38 66
REMARK Flexibility Score: inf
ROOT
ATOM      1  C   UNL A   1      31.224  26.883  26.622  1.00  0.00     0.023 C 
ENDROOT
BRANCH   1   2
ATOM      2  C   UNL A   1      30.636  26.828  25.217  1.00  0.00     0.113 C 
BRANCH   2   3
ATOM      3  N   UNL A   1      30.543  25.459  24.755  1.00  0.00    -0.380 N 
ATOM      4  H   UNL A   1      29.632  25.130  24.577  1.00  0.00     0.160 HD
BRANCH   3   5
ATOM      5  C   UNL A   1      31.556  24.563  24.536  1.00  0.00     0.110 C 
ATOM      6  C   UNL A   1      32.807  24.630  24.068  1.00  0.00     0.051 C 
ATOM      7  C   UNL A   1      33.518  23.316  24.015  1.00  0.00     0.157 C 
ATOM      8  C   UNL A   1      31.345  23.105  24.851  1.00  0.00     0.275 C 
ATOM      9  N   UNL A   1      32.562  22.455  24.686  1.00  0.00    -0.295 N 
ATOM     10  O   UNL A   1      30.273  22.655  25.225  1.00  0.00    -0.267 OA
BRANCH   6  11
ATOM     11  C   UNL A   1      33.480  25.875  23.659  1.00  0.00     0.160 C 
ATOM     12  C   UNL A   1      33.427  26.257  22.209  1.00  0.00     0.093 C 
ATOM     13  O   UNL A   1      34.103  26.544  24.481  1.00  0.00    -0.295 OA
ENDBRANCH   6  11
BRANCH   7  14
ATOM     14  C   UNL A   1      34.950  23.297  24.527  1.00  0.00    -0.020 A 
ATOM     15  C   UNL A   1      36.040  22.897  23.733  1.00  0.00     0.013 A 
ATOM     16  C   UNL A   1      35.203  23.685  25.860  1.00  0.00     0.013 A 
ATOM     17  C   UNL A   1      37.328  22.821  24.264  1.00  0.00     0.086 A 
ATOM     18  C   UNL A   1      36.500  23.678  26.379  1.00  0.00     0.086 A 
ATOM     19  C   UNL A   1      37.554  23.224  25.583  1.00  0.00     0.269 A 
BRANCH  19  20
ATOM     20  N   UNL A   1      38.910  23.173  26.132  1.00  0.00     0.062 N 
ATOM     21  O   UNL A   1      39.496  22.081  26.113  1.00  0.00    -0.258 OA
ATOM     22  O   UNL A   1      39.383  24.225  26.583  1.00  0.00    -0.258 OA
ENDBRANCH  19  20
ENDBRANCH   7  14
BRANCH   9  23
ATOM     23  C   UNL A   1      32.724  21.061  24.826  1.00  0.00     0.046 A 
ATOM     24  C   UNL A   1      32.903  20.474  26.083  1.00  0.00     0.026 A 
ATOM     25  C   UNL A   1      32.719  20.246  23.691  1.00  0.00     0.036 A 
ATOM     26  C   UNL A   1      32.998  19.082  26.205  1.00  0.00     0.003 A 
ATOM     27  C   UNL A   1      32.810  18.855  23.805  1.00  0.00    -0.001 A 
ATOM     28  C   UNL A   1      32.942  18.273  25.069  1.00  0.00     0.010 A 
BRANCH  27  29
ATOM     29  C   UNL A   1      32.763  17.979  22.611  1.00  0.00     0.072 C 
ATOM     30  O   UNL A   1      32.137  18.199  21.588  1.00  0.00    -0.545 OA
ATOM     31  O   UNL A   1      33.527  16.881  22.743  1.00  0.00    -0.545 OA
ENDBRANCH  27  29
ENDBRANCH   9  23
ENDBRANCH   3   5
ENDBRANCH   2   3
ENDBRANCH   1   2
BRANCH   1  32
ATOM     32  C   UNL A   1      31.442  28.288  27.167  1.00  0.00     0.023 C 
BRANCH  32  33
ATOM     33  C   UNL A   1      32.631  29.026  26.565  1.00  0.00     0.116 C 
BRANCH  33  34
ATOM     34  N   UNL A   1      32.493  30.476  26.628  1.00  0.00    -0.352 N 
ATOM     35  C   UNL A   1      33.333  31.398  27.207  1.00  0.00     0.251 C 
ATOM     36  H   UNL A   1      31.689  30.845  26.197  1.00  0.00     0.163 HD
ATOM     37  O   UNL A   1      33.008  32.575  27.306  1.00  0.00    -0.269 OA
BRANCH  35  38
ATOM     38  C   UNL A   1      34.630  30.937  27.740  1.00  0.00     0.039 A 
ATOM     39  C   UNL A   1      35.625  31.875  28.020  1.00  0.00     0.014 A 
ATOM     40  C   UNL A   1      34.820  29.586  28.034  1.00  0.00     0.014 A 
ATOM     41  C   UNL A   1      36.784  31.465  28.684  1.00  0.00     0.010 A 
ATOM     42  C   UNL A   1      35.928  29.199  28.776  1.00  0.00     0.010 A 
ATOM     43  C   UNL A   1      36.919  30.135  29.111  1.00  0.00    -0.014 A 
BRANCH  43  44
ATOM     44  C   UNL A   1      38.090  29.678  29.902  1.00  0.00     0.031 A 
ATOM     45  C   UNL A   1      38.308  30.228  31.282  1.00  0.00     0.074 A 
ATOM     46  C   UNL A   1      39.003  28.856  29.347  1.00  0.00     0.049 A 
ATOM     47  N   UNL A   1      39.335  30.087  32.081  1.00  0.00    -0.248 NA
ATOM     48  C   UNL A   1      37.238  31.082  31.826  1.00  0.00     0.031 C 
ATOM     49  C   UNL A   1      38.921  28.281  28.003  1.00  0.00     0.029 A 
ATOM     50  N   UNL A   1      40.192  28.377  29.840  1.00  0.00    -0.354 N 
ATOM     51  C   UNL A   1      39.044  30.847  33.205  1.00  0.00     0.074 A 
ATOM     52  C   UNL A   1      37.774  31.496  32.963  1.00  0.00     0.031 C 
ATOM     53  C   UNL A   1      40.004  27.520  27.784  1.00  0.00     0.029 A 
ATOM     54  C   UNL A   1      40.883  27.593  28.948  1.00  0.00     0.049 A 
ATOM     55  H   UNL A   1      40.519  28.578  30.747  1.00  0.00     0.167 HD
ATOM     56  C   UNL A   1      39.760  30.971  34.348  1.00  0.00     0.037 A 
ATOM     57  C   UNL A   1      42.097  27.018  29.050  1.00  0.00     0.037 A 
ATOM     58  C   UNL A   1      41.013  30.308  34.588  1.00  0.00     0.049 A 
ATOM     59  C   UNL A   1      42.892  27.202  30.316  1.00  0.00     0.074 A 
ATOM     60  C   UNL A   1      41.793  30.329  35.730  1.00  0.00     0.029 A 
ATOM     61  N   UNL A   1      41.670  29.505  33.667  1.00  0.00    -0.354 N 
ATOM     62  N   UNL A   1      42.583  27.875  31.397  1.00  0.00    -0.248 NA
ATOM     63  C   UNL A   1      44.207  26.546  30.379  1.00  0.00     0.031 C 
ATOM     64  C   UNL A   1      42.952  29.590  35.479  1.00  0.00     0.029 A 
ATOM     65  C   UNL A   1      42.861  29.047  34.207  1.00  0.00     0.049 A 
ATOM     66  H   UNL A   1      41.339  29.293  32.764  1.00  0.00     0.167 HD
ATOM     67  C   UNL A   1      43.638  27.691  32.280  1.00  0.00     0.074 A 
ATOM     68  C   UNL A   1      44.600  26.841  31.611  1.00  0.00     0.031 C 
ATOM     69  C   UNL A   1      43.795  28.178  33.535  1.00  0.00     0.037 A 
BRANCH  56  70
ATOM     70  C   UNL A   1      39.206  31.863  35.422  1.00  0.00     0.064 A 
ATOM     71  C   UNL A   1      38.401  31.359  36.456  1.00  0.00     0.173 A 
ATOM     72  C   UNL A   1      39.507  33.233  35.435  1.00  0.00     0.173 A 
ATOM     73  F   UNL A   1      38.073  30.059  36.486  1.00  0.00    -0.203 F 
ATOM     74  C   UNL A   1      37.893  32.200  37.443  1.00  0.00     0.198 A 
ATOM     75  C   UNL A   1      39.027  34.064  36.444  1.00  0.00     0.198 A 
ATOM     76  F   UNL A   1      40.276  33.767  34.474  1.00  0.00    -0.203 F 
ATOM     77  F   UNL A   1      37.081  31.706  38.387  1.00  0.00    -0.200 F 
ATOM     78  C   UNL A   1      38.213  33.549  37.441  1.00  0.00     0.200 A 
ATOM     79  F   UNL A   1      39.352  35.364  36.450  1.00  0.00    -0.200 F 
ATOM     80  F   UNL A   1      37.729  34.355  38.397  1.00  0.00    -0.200 F 
ENDBRANCH  56  70
BRANCH  57  81
ATOM     81  C   UNL A   1      42.635  26.206  27.924  1.00  0.00     0.064 A 
ATOM     82  C   UNL A   1      43.421  26.795  26.923  1.00  0.00     0.173 A 
ATOM     83  C   UNL A   1      42.368  24.833  27.818  1.00  0.00     0.173 A 
ATOM     84  F   UNL A   1      43.687  28.108  26.968  1.00  0.00    -0.203 F 
ATOM     85  C   UNL A   1      43.896  26.048  25.848  1.00  0.00     0.198 A 
ATOM     86  C   UNL A   1      42.874  24.080  26.759  1.00  0.00     0.198 A 
ATOM     87  F   UNL A   1      41.628  24.218  28.751  1.00  0.00    -0.203 F 
ATOM     88  F   UNL A   1      44.601  26.649  24.877  1.00  0.00    -0.200 F 
ATOM     89  C   UNL A   1      43.628  24.690  25.769  1.00  0.00     0.200 A 
ATOM     90  F   UNL A   1      42.626  22.764  26.697  1.00  0.00    -0.200 F 
ATOM     91  F   UNL A   1      44.088  23.971  24.736  1.00  0.00    -0.200 F 
ENDBRANCH  57  81
BRANCH  69  92
ATOM     92  C   UNL A   1      45.015  27.762  34.303  1.00  0.00     0.064 A 
ATOM     93  C   UNL A   1      46.187  28.531  34.307  1.00  0.00     0.173 A 
ATOM     94  C   UNL A   1      44.975  26.620  35.118  1.00  0.00     0.173 A 
ATOM     95  F   UNL A   1      46.282  29.624  33.534  1.00  0.00    -0.203 F 
ATOM     96  C   UNL A   1      47.278  28.166  35.092  1.00  0.00     0.198 A 
ATOM     97  C   UNL A   1      46.054  26.276  35.926  1.00  0.00     0.198 A 
ATOM     98  F   UNL A   1      43.874  25.853  35.155  1.00  0.00    -0.203 F 
ATOM     99  F   UNL A   1      48.401  28.896  35.057  1.00  0.00    -0.200 F 
ATOM    100  C   UNL A   1      47.206  27.046  35.909  1.00  0.00     0.200 A 
ATOM    101  F   UNL A   1      45.975  25.205  36.728  1.00  0.00    -0.200 F 
ATOM    102  F   UNL A   1      48.248  26.711  36.682  1.00  0.00    -0.200 F 
ENDBRANCH  69  92
ENDBRANCH  43  44
ENDBRANCH  35  38
ENDBRANCH  33  34
ENDBRANCH  32  33
ENDBRANCH   1  32
TORSDOF 16
ENDMDL
MODEL 3
REMARK VINA RESULT:     -12.1      1.191      3.370
REMARK SMILES CC(=O)C1=C(NCCCCNC(=O)c2ccc(-c3c4nc(c(-c5c(F)c(F)c(F)c(F)c5F)c5ccc([nH]5)c(-c5c(F)c(F)c(F)c(F)c5F)c5nc(c(-c6c(F)c(F)c(F)c(F)c6F)c6ccc3[nH]6)C=C5)C=C4)cc2)C(=O)N(c2cccc(C(=O)[O-])c2)[C@@H]1c1ccc([N+](=O)[O-])cc1
REMARK SMILES IDX 8 1 7 2 6 3 5 5 4 6 89 7 77 8 79 9 78 10 2 11 1 12 3 13
REMARK SMILES IDX 90 14 91 15 98 16 92 17 97 18 93 19 94 20 95 21 96 22 80 23
REMARK SMILES IDX 81 24 88 25 82 26 84 27 83 28 85 29 86 30 87 31 9 32 10 33
REMARK SMILES IDX 11 34 12 35 13 37 14 38 15 39 76 40 16 41 75 42 17 43 18 44
REMARK SMILES IDX 19 45 69 46 20 47 74 48 68 49 70 50 21 51 73 52 67 53 66 54
REMARK SMILES IDX 22 56 54 57 34 58 53 59 35 60 38 61 52 62 71 63 36 64 37 65
REMARK SMILES IDX 51 67 72 68 39 69 23 70 24 71 32 72 25 73 26 74 30 75 33 76
REMARK SMILES IDX 27 77 28 78 31 79 29 80 55 81 56 82 64 83 57 84 58 85 62 86
REMARK SMILES IDX 65 87 59 88 60 89 63 90 61 91 40 92 41 93 49 94 42 95 43 96
REMARK SMILES IDX 47 97 50 98 44 99 45 100 48 101 46 102
REMARK H PARENT 6 4 11 36 70 55 38 66
REMARK Flexibility Score: inf
ROOT
ATOM      1  C   UNL A   1      31.689  28.511  24.309  1.00  0.00     0.023 C 
ENDROOT
BRANCH   1   2
ATOM      2  C   UNL A   1      32.437  27.204  24.077  1.00  0.00     0.113 C 
BRANCH   2   3
ATOM      3  N   UNL A   1      32.249  26.303  25.193  1.00  0.00    -0.380 N 
ATOM      4  H   UNL A   1      31.634  26.615  25.896  1.00  0.00     0.160 HD
BRANCH   3   5
ATOM      5  C   UNL A   1      32.817  25.073  25.400  1.00  0.00     0.110 C 
ATOM      6  C   UNL A   1      32.361  23.835  25.621  1.00  0.00     0.051 C 
ATOM      7  C   UNL A   1      33.431  22.805  25.800  1.00  0.00     0.157 C 
ATOM      8  C   UNL A   1      34.316  24.934  25.413  1.00  0.00     0.275 C 
ATOM      9  N   UNL A   1      34.617  23.579  25.485  1.00  0.00    -0.295 N 
ATOM     10  O   UNL A   1      35.072  25.889  25.325  1.00  0.00    -0.267 OA
BRANCH   6  11
ATOM     11  C   UNL A   1      30.935  23.464  25.659  1.00  0.00     0.160 C 
ATOM     12  C   UNL A   1      30.411  22.821  26.909  1.00  0.00     0.093 C 
ATOM     13  O   UNL A   1      30.222  23.636  24.673  1.00  0.00    -0.295 OA
ENDBRANCH   6  11
BRANCH   7  14
ATOM     14  C   UNL A   1      33.240  21.491  25.059  1.00  0.00    -0.020 A 
ATOM     15  C   UNL A   1      32.918  21.425  23.691  1.00  0.00     0.013 A 
ATOM     16  C   UNL A   1      33.377  20.281  25.770  1.00  0.00     0.013 A 
ATOM     17  C   UNL A   1      32.676  20.201  23.066  1.00  0.00     0.086 A 
ATOM     18  C   UNL A   1      33.203  19.048  25.136  1.00  0.00     0.086 A 
ATOM     19  C   UNL A   1      32.831  19.017  23.790  1.00  0.00     0.269 A 
BRANCH  19  20
ATOM     20  N   UNL A   1      32.607  17.731  23.128  1.00  0.00     0.062 N 
ATOM     21  O   UNL A   1      32.835  16.702  23.780  1.00  0.00    -0.258 OA
ATOM     22  O   UNL A   1      32.205  17.754  21.957  1.00  0.00    -0.258 OA
ENDBRANCH  19  20
ENDBRANCH   7  14
BRANCH   9  23
ATOM     23  C   UNL A   1      35.932  23.079  25.589  1.00  0.00     0.046 A 
ATOM     24  C   UNL A   1      36.983  23.888  26.030  1.00  0.00     0.026 A 
ATOM     25  C   UNL A   1      36.197  21.754  25.233  1.00  0.00     0.036 A 
ATOM     26  C   UNL A   1      38.268  23.354  26.186  1.00  0.00     0.003 A 
ATOM     27  C   UNL A   1      37.477  21.212  25.389  1.00  0.00    -0.001 A 
ATOM     28  C   UNL A   1      38.513  22.015  25.876  1.00  0.00     0.010 A 
BRANCH  27  29
ATOM     29  C   UNL A   1      37.760  19.796  25.056  1.00  0.00     0.072 C 
ATOM     30  O   UNL A   1      38.858  19.266  25.064  1.00  0.00    -0.545 OA
ATOM     31  O   UNL A   1      36.648  19.102  24.757  1.00  0.00    -0.545 OA
ENDBRANCH  27  29
ENDBRANCH   9  23
ENDBRANCH   3   5
ENDBRANCH   2   3
ENDBRANCH   1   2
BRANCH   1  32
ATOM     32  C   UNL A   1      31.752  29.038  25.737  1.00  0.00     0.023 C 
BRANCH  32  33
ATOM     33  C   UNL A   1      32.980  29.885  26.047  1.00  0.00     0.116 C 
BRANCH  33  34
ATOM     34  N   UNL A   1      32.647  31.250  26.438  1.00  0.00    -0.352 N 
ATOM     35  C   UNL A   1      33.316  32.089  27.297  1.00  0.00     0.251 C 
ATOM     36  H   UNL A   1      31.831  31.621  26.031  1.00  0.00     0.163 HD
ATOM     37  O   UNL A   1      32.832  33.160  27.641  1.00  0.00    -0.269 OA
BRANCH  35  38
ATOM     38  C   UNL A   1      34.625  31.660  27.828  1.00  0.00     0.039 A 
ATOM     39  C   UNL A   1      35.666  32.585  27.909  1.00  0.00     0.014 A 
ATOM     40  C   UNL A   1      34.784  30.362  28.319  1.00  0.00     0.014 A 
ATOM     41  C   UNL A   1      36.846  32.233  28.568  1.00  0.00     0.010 A 
ATOM     42  C   UNL A   1      35.919  30.046  29.054  1.00  0.00     0.010 A 
ATOM     43  C   UNL A   1      36.959  30.979  29.189  1.00  0.00    -0.014 A 
BRANCH  43  44
ATOM     44  C   UNL A   1      38.157  30.599  29.981  1.00  0.00     0.031 A 
ATOM     45  C   UNL A   1      39.147  29.628  29.405  1.00  0.00     0.074 A 
ATOM     46  C   UNL A   1      38.299  31.044  31.246  1.00  0.00     0.049 A 
ATOM     47  N   UNL A   1      40.170  29.047  29.976  1.00  0.00    -0.248 NA
ATOM     48  C   UNL A   1      38.937  29.232  28.002  1.00  0.00     0.031 C 
ATOM     49  C   UNL A   1      37.389  31.963  31.930  1.00  0.00     0.029 A 
ATOM     50  N   UNL A   1      39.258  30.764  32.190  1.00  0.00    -0.354 N 
ATOM     51  C   UNL A   1      40.710  28.205  29.014  1.00  0.00     0.074 A 
ATOM     52  C   UNL A   1      39.868  28.304  27.842  1.00  0.00     0.031 C 
ATOM     53  C   UNL A   1      37.837  32.180  33.176  1.00  0.00     0.029 A 
ATOM     54  C   UNL A   1      39.036  31.377  33.398  1.00  0.00     0.049 A 
ATOM     55  H   UNL A   1      40.030  30.178  32.015  1.00  0.00     0.167 HD
ATOM     56  C   UNL A   1      41.822  27.438  29.092  1.00  0.00     0.037 A 
ATOM     57  C   UNL A   1      39.710  31.282  34.561  1.00  0.00     0.037 A 
ATOM     58  C   UNL A   1      42.665  27.359  30.254  1.00  0.00     0.049 A 
ATOM     59  C   UNL A   1      40.924  30.393  34.636  1.00  0.00     0.074 A 
ATOM     60  C   UNL A   1      43.841  26.650  30.420  1.00  0.00     0.029 A 
ATOM     61  N   UNL A   1      42.417  28.012  31.453  1.00  0.00    -0.354 N 
ATOM     62  N   UNL A   1      41.460  29.645  33.702  1.00  0.00    -0.248 NA
ATOM     63  C   UNL A   1      41.628  30.332  35.925  1.00  0.00     0.031 C 
ATOM     64  C   UNL A   1      44.273  26.824  31.737  1.00  0.00     0.029 A 
ATOM     65  C   UNL A   1      43.406  27.699  32.372  1.00  0.00     0.049 A 
ATOM     66  H   UNL A   1      41.653  28.607  31.626  1.00  0.00     0.167 HD
ATOM     67  C   UNL A   1      42.582  29.062  34.275  1.00  0.00     0.074 A 
ATOM     68  C   UNL A   1      42.653  29.541  35.638  1.00  0.00     0.031 C 
ATOM     69  C   UNL A   1      43.476  28.208  33.719  1.00  0.00     0.037 A 
BRANCH  56  70
ATOM     70  C   UNL A   1      42.188  26.619  27.887  1.00  0.00     0.064 A 
ATOM     71  C   UNL A   1      41.664  25.332  27.683  1.00  0.00     0.173 A 
ATOM     72  C   UNL A   1      43.049  27.138  26.909  1.00  0.00     0.173 A 
ATOM     73  F   UNL A   1      40.846  24.784  28.592  1.00  0.00    -0.203 F 
ATOM     74  C   UNL A   1      42.016  24.585  26.561  1.00  0.00     0.198 A 
ATOM     75  C   UNL A   1      43.369  26.402  25.771  1.00  0.00     0.198 A 
ATOM     76  F   UNL A   1      43.574  28.365  27.049  1.00  0.00    -0.203 F 
ATOM     77  F   UNL A   1      41.548  23.338  26.418  1.00  0.00    -0.200 F 
ATOM     78  C   UNL A   1      42.861  25.124  25.603  1.00  0.00     0.200 A 
ATOM     79  F   UNL A   1      44.171  26.931  24.837  1.00  0.00    -0.200 F 
ATOM     80  F   UNL A   1      43.191  24.406  24.520  1.00  0.00    -0.200 F 
ENDBRANCH  56  70
BRANCH  57  81
ATOM     81  C   UNL A   1      39.260  32.057  35.750  1.00  0.00     0.064 A 
ATOM     82  C   UNL A   1      39.745  33.349  35.995  1.00  0.00     0.173 A 
ATOM     83  C   UNL A   1      38.348  31.519  36.671  1.00  0.00     0.173 A 
ATOM     84  F   UNL A   1      40.634  33.899  35.155  1.00  0.00    -0.203 F 
ATOM     85  C   UNL A   1      39.356  34.064  37.125  1.00  0.00     0.198 A 
ATOM     86  C   UNL A   1      37.933  32.249  37.784  1.00  0.00     0.198 A 
ATOM     87  F   UNL A   1      37.847  30.290  36.483  1.00  0.00    -0.203 F 
ATOM     88  F   UNL A   1      39.876  35.277  37.360  1.00  0.00    -0.200 F 
ATOM     89  C   UNL A   1      38.445  33.516  38.016  1.00  0.00     0.200 A 
ATOM     90  F   UNL A   1      37.040  31.722  38.633  1.00  0.00    -0.200 F 
ATOM     91  F   UNL A   1      38.068  34.205  39.101  1.00  0.00    -0.200 F 
ENDBRANCH  57  81
BRANCH  69  92
ATOM     92  C   UNL A   1      44.649  27.779  34.552  1.00  0.00     0.064 A 
ATOM     93  C   UNL A   1      45.821  28.544  34.633  1.00  0.00     0.173 A 
ATOM     94  C   UNL A   1      44.559  26.627  35.350  1.00  0.00     0.173 A 
ATOM     95  F   UNL A   1      45.964  29.645  33.880  1.00  0.00    -0.203 F 
ATOM     96  C   UNL A   1      46.863  28.165  35.476  1.00  0.00     0.198 A 
ATOM     97  C   UNL A   1      45.588  26.270  36.214  1.00  0.00     0.198 A 
ATOM     98  F   UNL A   1      43.455  25.864  35.313  1.00  0.00    -0.203 F 
ATOM     99  F   UNL A   1      47.989  28.892  35.514  1.00  0.00    -0.200 F 
ATOM    100  C   UNL A   1      46.741  27.037  36.274  1.00  0.00     0.200 A 
ATOM    101  F   UNL A   1      45.459  25.191  36.998  1.00  0.00    -0.200 F 
ATOM    102  F   UNL A   1      47.735  26.689  37.102  1.00  0.00    -0.200 F 
ENDBRANCH  69  92
ENDBRANCH  43  44
ENDBRANCH  35  38
ENDBRANCH  33  34
ENDBRANCH  32  33
ENDBRANCH   1  32
TORSDOF 16
ENDMDL
