MODEL 1
REMARK VINA RESULT:     -12.2      0.000      0.000
REMARK SMILES CC(C)CC1(CNc2ccnc(C(=O)NCCCCNC(=O)c3ccc(-c4c5nc(c(-c6c(F)c(F)c(F)c(F)c6F)c6ccc([nH]6)c(-c6c(F)c(F)c(F)c(F)c6F)c6nc(c(-c7c(F)c(F)c(F)c(F)c7F)c7ccc4[nH]7)C=C6)C=C5)cc3)c2)CCCC1
REMARK SMILES IDX 16 1 15 2 13 3 14 4 12 6 8 7 9 8 86 9 10 10 11 11 7 12 6 14
REMARK SMILES IDX 5 15 87 16 90 17 88 18 89 19 4 20 2 21 1 22 3 23 17 24 18 25
REMARK SMILES IDX 19 26 20 27 21 28 22 30 23 31 24 32 85 33 25 34 84 35 26 36
REMARK SMILES IDX 27 37 28 38 78 39 29 40 83 41 77 42 79 43 30 44 82 45 76 46
REMARK SMILES IDX 75 47 31 49 63 50 43 51 62 52 44 53 47 54 61 55 80 56 45 57
REMARK SMILES IDX 46 58 60 60 81 61 48 62 32 63 33 64 41 65 34 66 35 67 39 68
REMARK SMILES IDX 42 69 36 70 37 71 40 72 38 73 64 74 65 75 73 76 66 77 67 78
REMARK SMILES IDX 71 79 74 80 68 81 69 82 72 83 70 84 49 85 50 86 58 87 51 88
REMARK SMILES IDX 52 89 56 90 59 91 53 92 54 93 57 94 55 95
REMARK H PARENT 15 5 7 13 20 29 79 48 47 59
REMARK Flexibility Score: inf
ROOT
ATOM      1  C   UNL A   1      32.827  29.887  25.703  1.00  0.00     0.116 C 
ENDROOT
BRANCH   1   2
ATOM      2  N   UNL A   1      32.089  29.449  24.538  1.00  0.00    -0.351 N 
ATOM      3  C   UNL A   1      31.621  28.197  24.179  1.00  0.00     0.269 C 
ATOM      4  O   UNL A   1      31.032  28.115  23.098  1.00  0.00    -0.268 OA
ATOM      5  H   UNL A   1      31.886  30.163  23.892  1.00  0.00     0.163 HD
BRANCH   3   6
ATOM      6  C   UNL A   1      31.839  26.959  25.013  1.00  0.00     0.130 A 
ATOM      7  C   UNL A   1      33.206  25.161  25.873  1.00  0.00     0.038 A 
ATOM      8  C   UNL A   1      32.035  24.581  26.352  1.00  0.00     0.046 A 
ATOM      9  C   UNL A   1      33.099  26.424  25.271  1.00  0.00     0.060 A 
ATOM     10  C   UNL A   1      30.827  25.231  26.155  1.00  0.00     0.114 A 
ATOM     11  N   UNL A   1      30.700  26.382  25.471  1.00  0.00    -0.251 NA
BRANCH   7  12
ATOM     12  N   UNL A   1      34.424  24.494  25.827  1.00  0.00    -0.384 N 
ATOM     13  H   UNL A   1      35.241  25.032  25.716  1.00  0.00     0.160 HD
BRANCH  12  14
ATOM     14  C   UNL A   1      34.569  23.044  25.933  1.00  0.00     0.119 C 
BRANCH  14  15
ATOM     15  C   UNL A   1      34.617  22.299  24.558  1.00  0.00    -0.012 C 
ATOM     16  C   UNL A   1      35.650  21.140  24.662  1.00  0.00     0.009 C 
ATOM     17  C   UNL A   1      35.247  23.149  23.440  1.00  0.00     0.009 C 
ATOM     18  C   UNL A   1      37.009  21.782  24.458  1.00  0.00     0.001 C 
ATOM     19  C   UNL A   1      36.762  22.941  23.505  1.00  0.00     0.001 C 
BRANCH  15  20
ATOM     20  C   UNL A   1      33.269  21.624  24.166  1.00  0.00     0.012 C 
BRANCH  20  21
ATOM     21  C   UNL A   1      32.552  22.000  22.863  1.00  0.00    -0.017 C 
ATOM     22  C   UNL A   1      31.927  20.808  22.140  1.00  0.00     0.007 C 
ATOM     23  C   UNL A   1      31.491  23.071  23.151  1.00  0.00     0.007 C 
ENDBRANCH  20  21
ENDBRANCH  15  20
ENDBRANCH  14  15
ENDBRANCH  12  14
ENDBRANCH   7  12
ENDBRANCH   3   6
ENDBRANCH   1   2
BRANCH   1  24
ATOM     24  C   UNL A   1      31.962  30.468  26.817  1.00  0.00     0.023 C 
BRANCH  24  25
ATOM     25  C   UNL A   1      31.710  31.966  26.793  1.00  0.00     0.023 C 
BRANCH  25  26
ATOM     26  C   UNL A   1      32.826  32.849  27.334  1.00  0.00     0.116 C 
BRANCH  26  27
ATOM     27  N   UNL A   1      32.425  34.197  27.720  1.00  0.00    -0.352 N 
ATOM     28  C   UNL A   1      33.000  35.067  28.625  1.00  0.00     0.251 C 
ATOM     29  H   UNL A   1      31.622  34.539  27.265  1.00  0.00     0.163 HD
ATOM     30  O   UNL A   1      32.513  36.174  28.811  1.00  0.00    -0.269 OA
BRANCH  28  31
ATOM     31  C   UNL A   1      34.167  34.630  29.422  1.00  0.00     0.039 A 
ATOM     32  C   UNL A   1      33.950  34.088  30.692  1.00  0.00     0.014 A 
ATOM     33  C   UNL A   1      35.455  34.670  28.890  1.00  0.00     0.014 A 
ATOM     34  C   UNL A   1      35.003  33.466  31.368  1.00  0.00     0.010 A 
ATOM     35  C   UNL A   1      36.474  33.957  29.511  1.00  0.00     0.010 A 
ATOM     36  C   UNL A   1      36.256  33.332  30.749  1.00  0.00    -0.014 A 
BRANCH  36  37
ATOM     37  C   UNL A   1      37.351  32.529  31.356  1.00  0.00     0.031 A 
ATOM     38  C   UNL A   1      37.856  32.866  32.731  1.00  0.00     0.074 A 
ATOM     39  C   UNL A   1      37.962  31.570  30.632  1.00  0.00     0.049 A 
ATOM     40  N   UNL A   1      38.886  32.385  33.378  1.00  0.00    -0.248 NA
ATOM     41  C   UNL A   1      37.126  33.917  33.459  1.00  0.00     0.031 C 
ATOM     42  C   UNL A   1      37.612  31.184  29.264  1.00  0.00     0.029 A 
ATOM     43  N   UNL A   1      39.019  30.750  30.945  1.00  0.00    -0.354 N 
ATOM     44  C   UNL A   1      38.948  33.098  34.568  1.00  0.00     0.074 A 
ATOM     45  C   UNL A   1      37.887  34.080  34.530  1.00  0.00     0.031 C 
ATOM     46  C   UNL A   1      38.413  30.181  28.869  1.00  0.00     0.029 A 
ATOM     47  C   UNL A   1      39.360  29.881  29.938  1.00  0.00     0.049 A 
ATOM     48  H   UNL A   1      39.488  30.783  31.810  1.00  0.00     0.167 HD
ATOM     49  C   UNL A   1      39.794  32.930  35.612  1.00  0.00     0.037 A 
ATOM     50  C   UNL A   1      40.330  28.949  29.882  1.00  0.00     0.037 A 
ATOM     51  C   UNL A   1      40.817  31.920  35.671  1.00  0.00     0.049 A 
ATOM     52  C   UNL A   1      41.243  28.765  31.063  1.00  0.00     0.074 A 
ATOM     53  C   UNL A   1      41.680  31.624  36.711  1.00  0.00     0.029 A 
ATOM     54  N   UNL A   1      41.108  31.035  34.644  1.00  0.00    -0.354 N 
ATOM     55  N   UNL A   1      41.256  29.407  32.206  1.00  0.00    -0.248 NA
ATOM     56  C   UNL A   1      42.275  27.725  30.946  1.00  0.00     0.031 C 
ATOM     57  C   UNL A   1      42.512  30.575  36.304  1.00  0.00     0.029 A 
ATOM     58  C   UNL A   1      42.143  30.195  35.022  1.00  0.00     0.049 A 
ATOM     59  H   UNL A   1      40.646  31.006  33.775  1.00  0.00     0.167 HD
ATOM     60  C   UNL A   1      42.275  28.833  32.953  1.00  0.00     0.074 A 
ATOM     61  C   UNL A   1      42.852  27.783  32.139  1.00  0.00     0.031 C 
ATOM     62  C   UNL A   1      42.694  29.147  34.203  1.00  0.00     0.037 A 
BRANCH  49  63
ATOM     63  C   UNL A   1      39.632  33.858  36.780  1.00  0.00     0.064 A 
ATOM     64  C   UNL A   1      40.269  35.108  36.816  1.00  0.00     0.173 A 
ATOM     65  C   UNL A   1      38.835  33.496  37.875  1.00  0.00     0.173 A 
ATOM     66  F   UNL A   1      41.056  35.495  35.801  1.00  0.00    -0.203 F 
ATOM     67  C   UNL A   1      40.146  35.943  37.923  1.00  0.00     0.198 A 
ATOM     68  C   UNL A   1      38.688  34.348  38.967  1.00  0.00     0.198 A 
ATOM     69  F   UNL A   1      38.200  32.314  37.888  1.00  0.00    -0.203 F 
ATOM     70  F   UNL A   1      40.814  37.104  37.962  1.00  0.00    -0.200 F 
ATOM     71  C   UNL A   1      39.352  35.565  38.994  1.00  0.00     0.200 A 
ATOM     72  F   UNL A   1      37.913  33.985  39.998  1.00  0.00    -0.200 F 
ATOM     73  F   UNL A   1      39.236  36.369  40.061  1.00  0.00    -0.200 F 
ENDBRANCH  49  63
BRANCH  50  74
ATOM     74  C   UNL A   1      40.460  28.083  28.682  1.00  0.00     0.064 A 
ATOM     75  C   UNL A   1      41.242  28.492  27.593  1.00  0.00     0.173 A 
ATOM     76  C   UNL A   1      39.818  26.840  28.597  1.00  0.00     0.173 A 
ATOM     77  F   UNL A   1      41.858  29.683  27.622  1.00  0.00    -0.203 F 
ATOM     78  C   UNL A   1      41.366  27.696  26.456  1.00  0.00     0.198 A 
ATOM     79  C   UNL A   1      39.961  26.035  27.468  1.00  0.00     0.198 A 
ATOM     80  F   UNL A   1      39.062  26.404  29.614  1.00  0.00    -0.203 F 
ATOM     81  F   UNL A   1      42.091  28.128  25.415  1.00  0.00    -0.200 F 
ATOM     82  C   UNL A   1      40.731  26.466  26.397  1.00  0.00     0.200 A 
ATOM     83  F   UNL A   1      39.354  24.841  27.418  1.00  0.00    -0.200 F 
ATOM     84  F   UNL A   1      40.853  25.698  25.306  1.00  0.00    -0.200 F 
ENDBRANCH  50  74
BRANCH  62  85
ATOM     85  C   UNL A   1      43.803  28.322  34.782  1.00  0.00     0.064 A 
ATOM     86  C   UNL A   1      45.146  28.709  34.663  1.00  0.00     0.173 A 
ATOM     87  C   UNL A   1      43.515  27.154  35.505  1.00  0.00     0.173 A 
ATOM     88  F   UNL A   1      45.471  29.808  33.967  1.00  0.00    -0.203 F 
ATOM     89  C   UNL A   1      46.162  27.945  35.229  1.00  0.00     0.198 A 
ATOM     90  C   UNL A   1      44.531  26.407  36.091  1.00  0.00     0.198 A 
ATOM     91  F   UNL A   1      42.245  26.746  35.650  1.00  0.00    -0.203 F 
ATOM     92  F   UNL A   1      47.441  28.311  35.070  1.00  0.00    -0.200 F 
ATOM     93  C   UNL A   1      45.854  26.799  35.948  1.00  0.00     0.200 A 
ATOM     94  F   UNL A   1      44.231  25.305  36.793  1.00  0.00    -0.200 F 
ATOM     95  F   UNL A   1      46.833  26.070  36.499  1.00  0.00    -0.200 F 
ENDBRANCH  62  85
ENDBRANCH  36  37
ENDBRANCH  28  31
ENDBRANCH  26  27
ENDBRANCH  25  26
ENDBRANCH  24  25
ENDBRANCH   1  24
TORSDOF 16
ENDMDL
MODEL 2
REMARK VINA RESULT:     -12.1      0.824      7.418
REMARK SMILES CC(C)CC1(CNc2ccnc(C(=O)NCCCCNC(=O)c3ccc(-c4c5nc(c(-c6c(F)c(F)c(F)c(F)c6F)c6ccc([nH]6)c(-c6c(F)c(F)c(F)c(F)c6F)c6nc(c(-c7c(F)c(F)c(F)c(F)c7F)c7ccc4[nH]7)C=C6)C=C5)cc3)c2)CCCC1
REMARK SMILES IDX 16 1 15 2 13 3 14 4 12 6 8 7 9 8 86 9 10 10 11 11 7 12 6 14
REMARK SMILES IDX 5 15 87 16 90 17 88 18 89 19 4 20 2 21 1 22 3 23 17 24 18 25
REMARK SMILES IDX 19 26 20 27 21 28 22 30 23 31 24 32 85 33 25 34 84 35 26 36
REMARK SMILES IDX 27 37 28 38 78 39 29 40 83 41 77 42 79 43 30 44 82 45 76 46
REMARK SMILES IDX 75 47 31 49 63 50 43 51 62 52 44 53 47 54 61 55 80 56 45 57
REMARK SMILES IDX 46 58 60 60 81 61 48 62 32 63 33 64 41 65 34 66 35 67 39 68
REMARK SMILES IDX 42 69 36 70 37 71 40 72 38 73 64 74 65 75 73 76 66 77 67 78
REMARK SMILES IDX 71 79 74 80 68 81 69 82 72 83 70 84 49 85 50 86 58 87 51 88
REMARK SMILES IDX 52 89 56 90 59 91 53 92 54 93 57 94 55 95
REMARK H PARENT 15 5 7 13 20 29 79 48 47 59
REMARK Flexibility Score: inf
ROOT
ATOM      1  C   UNL A   1      33.744  29.265  26.961  1.00  0.00     0.116 C 
ENDROOT
BRANCH   1   2
ATOM      2  N   UNL A   1      34.003  28.971  25.568  1.00  0.00    -0.351 N 
ATOM      3  C   UNL A   1      33.616  27.901  24.780  1.00  0.00     0.269 C 
ATOM      4  O   UNL A   1      34.006  27.904  23.610  1.00  0.00    -0.268 OA
ATOM      5  H   UNL A   1      34.546  29.647  25.102  1.00  0.00     0.163 HD
BRANCH   3   6
ATOM      6  C   UNL A   1      32.797  26.744  25.297  1.00  0.00     0.130 A 
ATOM      7  C   UNL A   1      32.545  24.474  26.088  1.00  0.00     0.038 A 
ATOM      8  C   UNL A   1      31.169  24.652  25.974  1.00  0.00     0.046 A 
ATOM      9  C   UNL A   1      33.360  25.585  25.826  1.00  0.00     0.060 A 
ATOM     10  C   UNL A   1      30.676  25.874  25.548  1.00  0.00     0.114 A 
ATOM     11  N   UNL A   1      31.455  26.906  25.176  1.00  0.00    -0.251 NA
BRANCH   7  12
ATOM     12  N   UNL A   1      33.140  23.235  26.294  1.00  0.00    -0.384 N 
ATOM     13  H   UNL A   1      32.613  22.540  26.751  1.00  0.00     0.160 HD
BRANCH  12  14
ATOM     14  C   UNL A   1      34.498  22.899  25.874  1.00  0.00     0.119 C 
BRANCH  14  15
ATOM     15  C   UNL A   1      34.577  22.092  24.535  1.00  0.00    -0.012 C 
ATOM     16  C   UNL A   1      35.760  21.087  24.636  1.00  0.00     0.009 C 
ATOM     17  C   UNL A   1      35.032  22.955  23.343  1.00  0.00     0.009 C 
ATOM     18  C   UNL A   1      37.010  21.889  24.325  1.00  0.00     0.001 C 
ATOM     19  C   UNL A   1      36.562  22.951  23.333  1.00  0.00     0.001 C 
BRANCH  15  20
ATOM     20  C   UNL A   1      33.314  21.226  24.253  1.00  0.00     0.012 C 
BRANCH  20  21
ATOM     21  C   UNL A   1      33.360  19.699  24.395  1.00  0.00    -0.017 C 
ATOM     22  C   UNL A   1      32.908  19.194  25.763  1.00  0.00     0.007 C 
ATOM     23  C   UNL A   1      32.524  19.055  23.280  1.00  0.00     0.007 C 
ENDBRANCH  20  21
ENDBRANCH  15  20
ENDBRANCH  14  15
ENDBRANCH  12  14
ENDBRANCH   7  12
ENDBRANCH   3   6
ENDBRANCH   1   2
BRANCH   1  24
ATOM     24  C   UNL A   1      32.347  29.810  27.243  1.00  0.00     0.023 C 
BRANCH  24  25
ATOM     25  C   UNL A   1      32.077  31.258  26.873  1.00  0.00     0.023 C 
BRANCH  25  26
ATOM     26  C   UNL A   1      33.116  32.276  27.322  1.00  0.00     0.116 C 
BRANCH  26  27
ATOM     27  N   UNL A   1      32.607  33.623  27.561  1.00  0.00    -0.352 N 
ATOM     28  C   UNL A   1      33.085  34.613  28.395  1.00  0.00     0.251 C 
ATOM     29  H   UNL A   1      31.801  33.861  27.049  1.00  0.00     0.163 HD
ATOM     30  O   UNL A   1      32.516  35.696  28.457  1.00  0.00    -0.269 OA
BRANCH  28  31
ATOM     31  C   UNL A   1      34.247  34.340  29.269  1.00  0.00     0.039 A 
ATOM     32  C   UNL A   1      34.022  33.800  30.539  1.00  0.00     0.014 A 
ATOM     33  C   UNL A   1      35.550  34.528  28.811  1.00  0.00     0.014 A 
ATOM     34  C   UNL A   1      35.102  33.327  31.290  1.00  0.00     0.010 A 
ATOM     35  C   UNL A   1      36.609  33.959  29.507  1.00  0.00     0.010 A 
ATOM     36  C   UNL A   1      36.395  33.336  30.747  1.00  0.00    -0.014 A 
BRANCH  36  37
ATOM     37  C   UNL A   1      37.543  32.687  31.436  1.00  0.00     0.031 A 
ATOM     38  C   UNL A   1      38.262  31.542  30.781  1.00  0.00     0.074 A 
ATOM     39  C   UNL A   1      37.868  33.054  32.692  1.00  0.00     0.049 A 
ATOM     40  N   UNL A   1      39.187  30.754  31.267  1.00  0.00    -0.248 NA
ATOM     41  C   UNL A   1      37.854  31.212  29.405  1.00  0.00     0.031 C 
ATOM     42  C   UNL A   1      37.212  34.108  33.467  1.00  0.00     0.029 A 
ATOM     43  N   UNL A   1      38.830  32.569  33.545  1.00  0.00    -0.354 N 
ATOM     44  C   UNL A   1      39.444  29.819  30.273  1.00  0.00     0.074 A 
ATOM     45  C   UNL A   1      38.540  30.102  29.180  1.00  0.00     0.031 C 
ATOM     46  C   UNL A   1      37.811  34.215  34.664  1.00  0.00     0.029 A 
ATOM     47  C   UNL A   1      38.865  33.211  34.758  1.00  0.00     0.049 A 
ATOM     48  H   UNL A   1      39.436  31.831  33.307  1.00  0.00     0.167 HD
ATOM     49  C   UNL A   1      40.369  28.831  30.261  1.00  0.00     0.037 A 
ATOM     50  C   UNL A   1      39.657  33.009  35.829  1.00  0.00     0.037 A 
ATOM     51  C   UNL A   1      41.302  28.581  31.327  1.00  0.00     0.049 A 
ATOM     52  C   UNL A   1      40.694  31.920  35.782  1.00  0.00     0.074 A 
ATOM     53  C   UNL A   1      42.323  27.648  31.381  1.00  0.00     0.029 A 
ATOM     54  N   UNL A   1      41.329  29.276  32.526  1.00  0.00    -0.354 N 
ATOM     55  N   UNL A   1      40.966  31.078  34.815  1.00  0.00    -0.248 NA
ATOM     56  C   UNL A   1      41.536  31.756  36.976  1.00  0.00     0.031 C 
ATOM     57  C   UNL A   1      42.952  27.762  32.626  1.00  0.00     0.029 A 
ATOM     58  C   UNL A   1      42.346  28.789  33.332  1.00  0.00     0.049 A 
ATOM     59  H   UNL A   1      40.718  30.008  32.769  1.00  0.00     0.167 HD
ATOM     60  C   UNL A   1      42.024  30.304  35.270  1.00  0.00     0.074 A 
ATOM     61  C   UNL A   1      42.353  30.783  36.597  1.00  0.00     0.031 C 
ATOM     62  C   UNL A   1      42.666  29.288  34.644  1.00  0.00     0.037 A 
BRANCH  49  63
ATOM     63  C   UNL A   1      40.421  27.956  29.041  1.00  0.00     0.064 A 
ATOM     64  C   UNL A   1      41.212  28.293  27.932  1.00  0.00     0.173 A 
ATOM     65  C   UNL A   1      39.673  26.772  28.980  1.00  0.00     0.173 A 
ATOM     66  F   UNL A   1      41.934  29.423  27.935  1.00  0.00    -0.203 F 
ATOM     67  C   UNL A   1      41.221  27.496  26.790  1.00  0.00     0.198 A 
ATOM     68  C   UNL A   1      39.708  25.962  27.848  1.00  0.00     0.198 A 
ATOM     69  F   UNL A   1      38.904  26.403  30.015  1.00  0.00    -0.203 F 
ATOM     70  F   UNL A   1      41.934  27.871  25.720  1.00  0.00    -0.200 F 
ATOM     71  C   UNL A   1      40.473  26.330  26.751  1.00  0.00     0.200 A 
ATOM     72  F   UNL A   1      38.992  24.829  27.815  1.00  0.00    -0.200 F 
ATOM     73  F   UNL A   1      40.480  25.565  25.650  1.00  0.00    -0.200 F 
ENDBRANCH  49  63
BRANCH  50  74
ATOM     74  C   UNL A   1      39.535  33.888  37.020  1.00  0.00     0.064 A 
ATOM     75  C   UNL A   1      38.767  33.487  38.122  1.00  0.00     0.173 A 
ATOM     76  C   UNL A   1      40.176  35.132  37.087  1.00  0.00     0.173 A 
ATOM     77  F   UNL A   1      38.119  32.313  38.093  1.00  0.00    -0.203 F 
ATOM     78  C   UNL A   1      38.634  34.303  39.242  1.00  0.00     0.198 A 
ATOM     79  C   UNL A   1      40.060  35.939  38.218  1.00  0.00     0.198 A 
ATOM     80  F   UNL A   1      40.924  35.559  36.059  1.00  0.00    -0.203 F 
ATOM     81  F   UNL A   1      37.866  33.911  40.267  1.00  0.00    -0.200 F 
ATOM     82  C   UNL A   1      39.286  35.526  39.292  1.00  0.00     0.200 A 
ATOM     83  F   UNL A   1      40.700  37.116  38.268  1.00  0.00    -0.200 F 
ATOM     84  F   UNL A   1      39.161  36.310  40.371  1.00  0.00    -0.200 F 
ENDBRANCH  50  74
BRANCH  62  85
ATOM     85  C   UNL A   1      43.814  28.652  35.369  1.00  0.00     0.064 A 
ATOM     86  C   UNL A   1      43.623  27.565  36.234  1.00  0.00     0.173 A 
ATOM     87  C   UNL A   1      45.124  29.107  35.160  1.00  0.00     0.173 A 
ATOM     88  F   UNL A   1      42.387  27.106  36.479  1.00  0.00    -0.203 F 
ATOM     89  C   UNL A   1      44.704  26.969  36.880  1.00  0.00     0.198 A 
ATOM     90  C   UNL A   1      46.203  28.493  35.787  1.00  0.00     0.198 A 
ATOM     91  F   UNL A   1      45.357  30.141  34.337  1.00  0.00    -0.203 F 
ATOM     92  F   UNL A   1      44.496  25.957  37.732  1.00  0.00    -0.200 F 
ATOM     93  C   UNL A   1      45.992  27.428  36.650  1.00  0.00     0.200 A 
ATOM     94  F   UNL A   1      47.449  28.932  35.556  1.00  0.00    -0.200 F 
ATOM     95  F   UNL A   1      47.031  26.848  37.266  1.00  0.00    -0.200 F 
ENDBRANCH  62  85
ENDBRANCH  36  37
ENDBRANCH  28  31
ENDBRANCH  26  27
ENDBRANCH  25  26
ENDBRANCH  24  25
ENDBRANCH   1  24
TORSDOF 16
ENDMDL
MODEL 3
REMARK VINA RESULT:     -12.0      1.553      7.791
REMARK SMILES CC(C)CC1(CNc2ccnc(C(=O)NCCCCNC(=O)c3ccc(-c4c5nc(c(-c6c(F)c(F)c(F)c(F)c6F)c6ccc([nH]6)c(-c6c(F)c(F)c(F)c(F)c6F)c6nc(c(-c7c(F)c(F)c(F)c(F)c7F)c7ccc4[nH]7)C=C6)C=C5)cc3)c2)CCCC1
REMARK SMILES IDX 16 1 15 2 13 3 14 4 12 6 8 7 9 8 86 9 10 10 11 11 7 12 6 14
REMARK SMILES IDX 5 15 87 16 90 17 88 18 89 19 4 20 2 21 1 22 3 23 17 24 18 25
REMARK SMILES IDX 19 26 20 27 21 28 22 30 23 31 24 32 85 33 25 34 84 35 26 36
REMARK SMILES IDX 27 37 28 38 78 39 29 40 83 41 77 42 79 43 30 44 82 45 76 46
REMARK SMILES IDX 75 47 31 49 63 50 43 51 62 52 44 53 47 54 61 55 80 56 45 57
REMARK SMILES IDX 46 58 60 60 81 61 48 62 32 63 33 64 41 65 34 66 35 67 39 68
REMARK SMILES IDX 42 69 36 70 37 71 40 72 38 73 64 74 65 75 73 76 66 77 67 78
REMARK SMILES IDX 71 79 74 80 68 81 69 82 72 83 70 84 49 85 50 86 58 87 51 88
REMARK SMILES IDX 52 89 56 90 59 91 53 92 54 93 57 94 55 95
REMARK H PARENT 15 5 7 13 20 29 79 48 47 59
REMARK Flexibility Score: inf
ROOT
ATOM      1  C   UNL A   1      29.445  31.632  24.333  1.00  0.00     0.116 C 
ENDROOT
BRANCH   1   2
ATOM      2  N   UNL A   1      29.537  31.296  22.928  1.00  0.00    -0.351 N 
ATOM      3  C   UNL A   1      29.409  30.082  22.276  1.00  0.00     0.269 C 
ATOM      4  O   UNL A   1      29.560  30.092  21.052  1.00  0.00    -0.268 OA
ATOM      5  H   UNL A   1      29.723  32.061  22.337  1.00  0.00     0.163 HD
BRANCH   3   6
ATOM      6  C   UNL A   1      29.143  28.781  22.991  1.00  0.00     0.130 A 
ATOM      7  C   UNL A   1      29.834  26.657  23.914  1.00  0.00     0.038 A 
ATOM      8  C   UNL A   1      28.484  26.349  24.059  1.00  0.00     0.046 A 
ATOM      9  C   UNL A   1      30.154  27.942  23.452  1.00  0.00     0.060 A 
ATOM     10  C   UNL A   1      27.532  27.282  23.682  1.00  0.00     0.114 A 
ATOM     11  N   UNL A   1      27.828  28.470  23.122  1.00  0.00    -0.251 NA
BRANCH   7  12
ATOM     12  N   UNL A   1      30.849  25.719  24.057  1.00  0.00    -0.384 N 
ATOM     13  H   UNL A   1      30.597  24.798  24.296  1.00  0.00     0.160 HD
BRANCH  12  14
ATOM     14  C   UNL A   1      32.269  26.014  23.874  1.00  0.00     0.119 C 
BRANCH  14  15
ATOM     15  C   UNL A   1      33.076  26.150  25.208  1.00  0.00    -0.012 C 
ATOM     16  C   UNL A   1      34.428  25.399  25.043  1.00  0.00     0.009 C 
ATOM     17  C   UNL A   1      32.446  25.361  26.370  1.00  0.00     0.009 C 
ATOM     18  C   UNL A   1      34.117  23.934  25.282  1.00  0.00     0.001 C 
ATOM     19  C   UNL A   1      32.982  23.929  26.294  1.00  0.00     0.001 C 
BRANCH  15  20
ATOM     20  C   UNL A   1      33.452  27.619  25.562  1.00  0.00     0.012 C 
BRANCH  20  21
ATOM     21  C   UNL A   1      33.390  28.118  27.012  1.00  0.00    -0.017 C 
ATOM     22  C   UNL A   1      34.403  29.217  27.328  1.00  0.00     0.007 C 
ATOM     23  C   UNL A   1      31.965  28.593  27.330  1.00  0.00     0.007 C 
ENDBRANCH  20  21
ENDBRANCH  15  20
ENDBRANCH  14  15
ENDBRANCH  12  14
ENDBRANCH   7  12
ENDBRANCH   3   6
ENDBRANCH   1   2
BRANCH   1  24
ATOM     24  C   UNL A   1      30.687  31.285  25.148  1.00  0.00     0.023 C 
BRANCH  24  25
ATOM     25  C   UNL A   1      30.846  31.964  26.498  1.00  0.00     0.023 C 
BRANCH  25  26
ATOM     26  C   UNL A   1      32.205  32.586  26.786  1.00  0.00     0.116 C 
BRANCH  26  27
ATOM     27  N   UNL A   1      32.172  33.863  27.490  1.00  0.00    -0.352 N 
ATOM     28  C   UNL A   1      33.101  34.431  28.338  1.00  0.00     0.251 C 
ATOM     29  H   UNL A   1      31.363  34.402  27.336  1.00  0.00     0.163 HD
ATOM     30  O   UNL A   1      32.892  35.530  28.835  1.00  0.00    -0.269 OA
BRANCH  28  31
ATOM     31  C   UNL A   1      34.321  33.677  28.700  1.00  0.00     0.039 A 
ATOM     32  C   UNL A   1      35.565  34.299  28.558  1.00  0.00     0.014 A 
ATOM     33  C   UNL A   1      34.237  32.402  29.258  1.00  0.00     0.014 A 
ATOM     34  C   UNL A   1      36.705  33.697  29.099  1.00  0.00     0.010 A 
ATOM     35  C   UNL A   1      35.349  31.858  29.891  1.00  0.00     0.010 A 
ATOM     36  C   UNL A   1      36.592  32.507  29.833  1.00  0.00    -0.014 A 
BRANCH  36  37
ATOM     37  C   UNL A   1      37.745  31.926  30.571  1.00  0.00     0.031 A 
ATOM     38  C   UNL A   1      38.593  30.867  29.925  1.00  0.00     0.074 A 
ATOM     39  C   UNL A   1      37.965  32.271  31.856  1.00  0.00     0.049 A 
ATOM     40  N   UNL A   1      39.549  30.138  30.442  1.00  0.00    -0.248 NA
ATOM     41  C   UNL A   1      38.296  30.557  28.517  1.00  0.00     0.031 C 
ATOM     42  C   UNL A   1      37.179  33.240  32.623  1.00  0.00     0.029 A 
ATOM     43  N   UNL A   1      38.911  31.833  32.751  1.00  0.00    -0.354 N 
ATOM     44  C   UNL A   1      39.940  29.264  29.437  1.00  0.00     0.074 A 
ATOM     45  C   UNL A   1      39.083  29.514  28.299  1.00  0.00     0.031 C 
ATOM     46  C   UNL A   1      37.696  33.350  33.857  1.00  0.00     0.029 A 
ATOM     47  C   UNL A   1      38.821  32.430  33.984  1.00  0.00     0.049 A 
ATOM     48  H   UNL A   1      39.588  31.155  32.528  1.00  0.00     0.167 HD
ATOM     49  C   UNL A   1      40.943  28.354  29.449  1.00  0.00     0.037 A 
ATOM     50  C   UNL A   1      39.563  32.252  35.094  1.00  0.00     0.037 A 
ATOM     51  C   UNL A   1      41.828  28.139  30.563  1.00  0.00     0.049 A 
ATOM     52  C   UNL A   1      40.686  31.252  35.077  1.00  0.00     0.074 A 
ATOM     53  C   UNL A   1      42.916  27.290  30.651  1.00  0.00     0.029 A 
ATOM     54  N   UNL A   1      41.727  28.790  31.784  1.00  0.00    -0.354 N 
ATOM     55  N   UNL A   1      41.083  30.471  34.102  1.00  0.00    -0.248 NA
ATOM     56  C   UNL A   1      41.466  31.112  36.315  1.00  0.00     0.031 C 
ATOM     57  C   UNL A   1      43.460  27.408  31.935  1.00  0.00     0.029 A 
ATOM     58  C   UNL A   1      42.730  28.356  32.635  1.00  0.00     0.049 A 
ATOM     59  H   UNL A   1      41.044  29.461  32.011  1.00  0.00     0.167 HD
ATOM     60  C   UNL A   1      42.172  29.767  34.597  1.00  0.00     0.074 A 
ATOM     61  C   UNL A   1      42.381  30.221  35.957  1.00  0.00     0.031 C 
ATOM     62  C   UNL A   1      42.931  28.830  33.979  1.00  0.00     0.037 A 
BRANCH  49  63
ATOM     63  C   UNL A   1      41.137  27.532  28.208  1.00  0.00     0.064 A 
ATOM     64  C   UNL A   1      40.519  26.282  28.053  1.00  0.00     0.173 A 
ATOM     65  C   UNL A   1      41.949  27.997  27.164  1.00  0.00     0.173 A 
ATOM     66  F   UNL A   1      39.745  25.785  29.030  1.00  0.00    -0.203 F 
ATOM     67  C   UNL A   1      40.740  25.510  26.916  1.00  0.00     0.198 A 
ATOM     68  C   UNL A   1      42.142  27.236  26.014  1.00  0.00     0.198 A 
ATOM     69  F   UNL A   1      42.559  29.188  27.260  1.00  0.00    -0.203 F 
ATOM     70  F   UNL A   1      40.190  24.291  26.818  1.00  0.00    -0.200 F 
ATOM     71  C   UNL A   1      41.547  25.989  25.896  1.00  0.00     0.200 A 
ATOM     72  F   UNL A   1      42.915  27.705  25.024  1.00  0.00    -0.200 F 
ATOM     73  F   UNL A   1      41.761  25.244  24.803  1.00  0.00    -0.200 F 
ENDBRANCH  49  63
BRANCH  50  74
ATOM     74  C   UNL A   1      39.298  33.074  36.303  1.00  0.00     0.064 A 
ATOM     75  C   UNL A   1      38.432  32.608  37.302  1.00  0.00     0.173 A 
ATOM     76  C   UNL A   1      39.899  34.326  36.490  1.00  0.00     0.173 A 
ATOM     77  F   UNL A   1      37.818  31.424  37.157  1.00  0.00    -0.203 F 
ATOM     78  C   UNL A   1      38.166  33.370  38.437  1.00  0.00     0.198 A 
ATOM     79  C   UNL A   1      39.649  35.078  37.636  1.00  0.00     0.198 A 
ATOM     80  F   UNL A   1      40.737  34.813  35.564  1.00  0.00    -0.203 F 
ATOM     81  F   UNL A   1      37.307  32.917  39.360  1.00  0.00    -0.200 F 
ATOM     82  C   UNL A   1      38.780  34.602  38.607  1.00  0.00     0.200 A 
ATOM     83  F   UNL A   1      40.252  36.264  37.802  1.00  0.00    -0.200 F 
ATOM     84  F   UNL A   1      38.527  35.334  39.700  1.00  0.00    -0.200 F 
ENDBRANCH  50  74
BRANCH  62  85
ATOM     85  C   UNL A   1      44.082  28.260  34.754  1.00  0.00     0.064 A 
ATOM     86  C   UNL A   1      45.346  28.867  34.742  1.00  0.00     0.173 A 
ATOM     87  C   UNL A   1      43.903  27.122  35.553  1.00  0.00     0.173 A 
ATOM     88  F   UNL A   1      45.568  29.947  33.979  1.00  0.00    -0.203 F 
ATOM     89  C   UNL A   1      46.397  28.341  35.488  1.00  0.00     0.198 A 
ATOM     90  C   UNL A   1      44.949  26.613  36.317  1.00  0.00     0.198 A 
ATOM     91  F   UNL A   1      42.710  26.510  35.601  1.00  0.00    -0.203 F 
ATOM     92  F   UNL A   1      47.607  28.912  35.432  1.00  0.00    -0.200 F 
ATOM     93  C   UNL A   1      46.196  27.219  36.280  1.00  0.00     0.200 A 
ATOM     94  F   UNL A   1      44.750  25.536  37.089  1.00  0.00    -0.200 F 
ATOM     95  F   UNL A   1      47.206  26.720  37.003  1.00  0.00    -0.200 F 
ENDBRANCH  62  85
ENDBRANCH  36  37
ENDBRANCH  28  31
ENDBRANCH  26  27
ENDBRANCH  25  26
ENDBRANCH  24  25
ENDBRANCH   1  24
TORSDOF 16
ENDMDL
