MODEL 1
REMARK VINA RESULT:     -12.8      0.000      0.000
REMARK SMILES CCCc1cc(-n2ccc(C(=O)NCCCCNC(=O)c3ccc(-c4c5nc(c(-c6c(F)c(F)c(F)c(F)c6F)c6ccc([nH]6)c(-c6c(F)c(F)c(F)c(F)c6F)c6nc(c(-c7c(F)c(F)c(F)c(F)c7F)c7ccc4[nH]7)C=C6)C=C5)cc3)n2)nc(-c2ccc(C(F)(F)F)cc2)n1
REMARK SMILES IDX 15 1 14 2 13 3 11 4 12 5 10 7 7 8 8 9 84 10 9 11 6 12 4 13
REMARK SMILES IDX 5 14 97 15 86 16 85 17 3 18 2 19 1 20 87 21 88 22 96 23
REMARK SMILES IDX 89 24 95 25 90 26 91 27 92 28 93 29 94 30 16 31 17 32 18 33
REMARK SMILES IDX 19 34 20 36 21 37 22 38 83 39 23 40 82 41 24 42 25 43 26 44
REMARK SMILES IDX 76 45 27 46 81 47 75 48 77 49 28 50 80 51 74 52 73 53 29 55
REMARK SMILES IDX 61 56 41 57 60 58 42 59 45 60 59 61 78 62 43 63 44 64 58 66
REMARK SMILES IDX 79 67 46 68 30 69 31 70 39 71 32 72 33 73 37 74 40 75 34 76
REMARK SMILES IDX 35 77 38 78 36 79 62 80 63 81 71 82 64 83 65 84 69 85 72 86
REMARK SMILES IDX 66 87 67 88 70 89 68 90 47 91 48 92 56 93 49 94 50 95 54 96
REMARK SMILES IDX 57 97 51 98 52 99 55 100 53 101
REMARK H PARENT 13 6 18 35 77 54 45 65
REMARK Flexibility Score: inf
ROOT
ATOM      1  C   UNL A   1      32.955  29.597  26.027  1.00  0.00     0.023 C 
ENDROOT
BRANCH   1   2
ATOM      2  C   UNL A   1      33.061  29.388  24.511  1.00  0.00     0.116 C 
BRANCH   2   3
ATOM      3  N   UNL A   1      31.763  29.269  23.863  1.00  0.00    -0.351 N 
ATOM      4  C   UNL A   1      30.861  28.226  23.819  1.00  0.00     0.271 C 
ATOM      5  O   UNL A   1      29.862  28.377  23.111  1.00  0.00    -0.267 OA
ATOM      6  H   UNL A   1      31.480  30.073  23.370  1.00  0.00     0.163 HD
BRANCH   4   7
ATOM      7  C   UNL A   1      31.105  26.955  24.524  1.00  0.00     0.150 A 
ATOM      8  N   UNL A   1      31.878  25.007  24.971  1.00  0.00    -0.222 N 
ATOM      9  C   UNL A   1      30.778  25.152  25.787  1.00  0.00     0.118 A 
ATOM     10  N   UNL A   1      32.168  26.158  24.321  1.00  0.00    -0.161 NA
ATOM     11  C   UNL A   1      30.279  26.408  25.543  1.00  0.00     0.056 A 
BRANCH   8  12
ATOM     12  C   UNL A   1      32.583  23.806  24.665  1.00  0.00     0.157 A 
ATOM     13  C   UNL A   1      32.672  21.764  23.506  1.00  0.00     0.047 A 
ATOM     14  C   UNL A   1      31.901  22.791  24.017  1.00  0.00     0.073 A 
ATOM     15  N   UNL A   1      33.993  21.674  23.770  1.00  0.00    -0.233 NA
ATOM     16  C   UNL A   1      34.550  22.656  24.505  1.00  0.00     0.161 A 
ATOM     17  N   UNL A   1      33.908  23.757  24.919  1.00  0.00    -0.209 NA
BRANCH  13  18
ATOM     18  C   UNL A   1      32.103  20.668  22.637  1.00  0.00     0.056 C 
BRANCH  18  19
ATOM     19  C   UNL A   1      32.132  19.236  23.191  1.00  0.00     0.003 C 
ATOM     20  C   UNL A   1      32.446  18.176  22.143  1.00  0.00     0.004 C 
ENDBRANCH  18  19
ENDBRANCH  13  18
BRANCH  16  21
ATOM     21  C   UNL A   1      35.897  22.422  25.032  1.00  0.00     0.019 A 
ATOM     22  C   UNL A   1      36.621  23.426  25.696  1.00  0.00     0.012 A 
ATOM     23  C   UNL A   1      36.527  21.179  24.834  1.00  0.00     0.012 A 
ATOM     24  C   UNL A   1      37.928  23.195  26.142  1.00  0.00     0.014 A 
ATOM     25  C   UNL A   1      37.838  20.951  25.260  1.00  0.00     0.014 A 
ATOM     26  C   UNL A   1      38.554  21.957  25.918  1.00  0.00     0.056 A 
BRANCH  26  27
ATOM     27  C   UNL A   1      39.974  21.729  26.375  1.00  0.00     0.416 C 
ATOM     28  F   UNL A   1      40.889  22.260  25.517  1.00  0.00    -0.166 F 
ATOM     29  F   UNL A   1      40.229  22.290  27.588  1.00  0.00    -0.166 F 
ATOM     30  F   UNL A   1      40.302  20.412  26.496  1.00  0.00    -0.166 F 
ENDBRANCH  26  27
ENDBRANCH  16  21
ENDBRANCH   8  12
ENDBRANCH   4   7
ENDBRANCH   2   3
ENDBRANCH   1   2
BRANCH   1  31
ATOM     31  C   UNL A   1      33.692  28.583  26.914  1.00  0.00     0.023 C 
BRANCH  31  32
ATOM     32  C   UNL A   1      35.132  28.949  27.255  1.00  0.00     0.116 C 
BRANCH  32  33
ATOM     33  N   UNL A   1      35.242  29.890  28.364  1.00  0.00    -0.352 N 
ATOM     34  C   UNL A   1      36.234  29.957  29.325  1.00  0.00     0.251 C 
ATOM     35  H   UNL A   1      34.523  30.558  28.437  1.00  0.00     0.163 HD
ATOM     36  O   UNL A   1      36.023  30.494  30.401  1.00  0.00    -0.269 OA
BRANCH  34  37
ATOM     37  C   UNL A   1      37.558  29.368  29.037  1.00  0.00     0.039 A 
ATOM     38  C   UNL A   1      38.258  29.728  27.882  1.00  0.00     0.014 A 
ATOM     39  C   UNL A   1      38.095  28.438  29.927  1.00  0.00     0.014 A 
ATOM     40  C   UNL A   1      39.535  29.207  27.676  1.00  0.00     0.010 A 
ATOM     41  C   UNL A   1      39.395  28.007  29.782  1.00  0.00     0.010 A 
ATOM     42  C   UNL A   1      40.110  28.367  28.645  1.00  0.00    -0.014 A 
BRANCH  42  43
ATOM     43  C   UNL A   1      41.533  28.032  28.570  1.00  0.00     0.031 A 
ATOM     44  C   UNL A   1      41.782  26.740  27.870  1.00  0.00     0.074 A 
ATOM     45  C   UNL A   1      42.533  28.882  28.896  1.00  0.00     0.049 A 
ATOM     46  N   UNL A   1      42.232  25.646  28.385  1.00  0.00    -0.248 NA
ATOM     47  C   UNL A   1      41.315  26.590  26.481  1.00  0.00     0.031 C 
ATOM     48  C   UNL A   1      42.416  30.289  29.291  1.00  0.00     0.029 A 
ATOM     49  N   UNL A   1      43.888  28.701  28.852  1.00  0.00    -0.354 N 
ATOM     50  C   UNL A   1      42.315  24.732  27.336  1.00  0.00     0.074 A 
ATOM     51  C   UNL A   1      41.553  25.296  26.256  1.00  0.00     0.031 C 
ATOM     52  C   UNL A   1      43.627  30.886  29.223  1.00  0.00     0.029 A 
ATOM     53  C   UNL A   1      44.632  29.879  28.937  1.00  0.00     0.049 A 
ATOM     54  H   UNL A   1      44.303  27.812  28.767  1.00  0.00     0.167 HD
ATOM     55  C   UNL A   1      43.252  23.743  27.368  1.00  0.00     0.037 A 
ATOM     56  C   UNL A   1      45.972  30.017  28.763  1.00  0.00     0.037 A 
ATOM     57  C   UNL A   1      43.763  23.595  28.711  1.00  0.00     0.049 A 
ATOM     58  C   UNL A   1      46.571  28.675  28.932  1.00  0.00     0.074 A 
ATOM     59  C   UNL A   1      43.247  23.232  29.938  1.00  0.00     0.029 A 
ATOM     60  N   UNL A   1      44.939  24.253  28.958  1.00  0.00    -0.354 N 
ATOM     61  N   UNL A   1      46.631  28.042  30.068  1.00  0.00    -0.248 NA
ATOM     62  C   UNL A   1      46.764  27.856  27.746  1.00  0.00     0.031 C 
ATOM     63  C   UNL A   1      43.963  24.015  30.895  1.00  0.00     0.029 A 
ATOM     64  C   UNL A   1      44.936  24.758  30.225  1.00  0.00     0.049 A 
ATOM     65  H   UNL A   1      45.678  24.346  28.315  1.00  0.00     0.167 HD
ATOM     66  C   UNL A   1      46.395  26.720  29.735  1.00  0.00     0.074 A 
ATOM     67  C   UNL A   1      46.641  26.646  28.297  1.00  0.00     0.031 C 
ATOM     68  C   UNL A   1      45.725  25.909  30.604  1.00  0.00     0.037 A 
BRANCH  55  69
ATOM     69  C   UNL A   1      44.075  23.289  26.167  1.00  0.00     0.064 A 
ATOM     70  C   UNL A   1      44.141  21.903  25.888  1.00  0.00     0.173 A 
ATOM     71  C   UNL A   1      45.048  24.073  25.511  1.00  0.00     0.173 A 
ATOM     72  F   UNL A   1      43.268  21.050  26.446  1.00  0.00    -0.203 F 
ATOM     73  C   UNL A   1      45.169  21.344  25.123  1.00  0.00     0.198 A 
ATOM     74  C   UNL A   1      46.045  23.514  24.710  1.00  0.00     0.198 A 
ATOM     75  F   UNL A   1      45.153  25.392  25.687  1.00  0.00    -0.203 F 
ATOM     76  F   UNL A   1      45.270  20.012  25.017  1.00  0.00    -0.200 F 
ATOM     77  C   UNL A   1      46.130  22.149  24.546  1.00  0.00     0.200 A 
ATOM     78  F   UNL A   1      46.977  24.313  24.169  1.00  0.00    -0.200 F 
ATOM     79  F   UNL A   1      47.158  21.614  23.875  1.00  0.00    -0.200 F 
ENDBRANCH  55  69
BRANCH  56  80
ATOM     80  C   UNL A   1      46.774  31.150  28.233  1.00  0.00     0.064 A 
ATOM     81  C   UNL A   1      46.396  31.816  27.051  1.00  0.00     0.173 A 
ATOM     82  C   UNL A   1      47.731  31.801  29.033  1.00  0.00     0.173 A 
ATOM     83  F   UNL A   1      45.462  31.289  26.247  1.00  0.00    -0.203 F 
ATOM     84  C   UNL A   1      46.909  33.074  26.716  1.00  0.00     0.198 A 
ATOM     85  C   UNL A   1      48.247  33.055  28.694  1.00  0.00     0.198 A 
ATOM     86  F   UNL A   1      48.108  31.282  30.210  1.00  0.00    -0.203 F 
ATOM     87  F   UNL A   1      46.464  33.709  25.621  1.00  0.00    -0.200 F 
ATOM     88  C   UNL A   1      47.823  33.700  27.545  1.00  0.00     0.200 A 
ATOM     89  F   UNL A   1      49.103  33.668  29.524  1.00  0.00    -0.200 F 
ATOM     90  F   UNL A   1      48.258  34.936  27.266  1.00  0.00    -0.200 F 
ENDBRANCH  56  80
BRANCH  68  91
ATOM     91  C   UNL A   1      45.662  26.332  32.044  1.00  0.00     0.064 A 
ATOM     92  C   UNL A   1      44.604  27.048  32.631  1.00  0.00     0.173 A 
ATOM     93  C   UNL A   1      46.687  25.884  32.888  1.00  0.00     0.173 A 
ATOM     94  F   UNL A   1      43.543  27.436  31.911  1.00  0.00    -0.203 F 
ATOM     95  C   UNL A   1      44.602  27.335  33.996  1.00  0.00     0.198 A 
ATOM     96  C   UNL A   1      46.660  26.134  34.255  1.00  0.00     0.198 A 
ATOM     97  F   UNL A   1      47.701  25.161  32.388  1.00  0.00    -0.203 F 
ATOM     98  F   UNL A   1      43.596  28.039  34.533  1.00  0.00    -0.200 F 
ATOM     99  C   UNL A   1      45.625  26.870  34.807  1.00  0.00     0.200 A 
ATOM    100  F   UNL A   1      47.628  25.640  35.040  1.00  0.00    -0.200 F 
ATOM    101  F   UNL A   1      45.603  27.110  36.125  1.00  0.00    -0.200 F 
ENDBRANCH  68  91
ENDBRANCH  42  43
ENDBRANCH  34  37
ENDBRANCH  32  33
ENDBRANCH  31  32
ENDBRANCH   1  31
TORSDOF 16
ENDMDL
MODEL 2
REMARK VINA RESULT:     -12.5      3.818      7.919
REMARK SMILES CCCc1cc(-n2ccc(C(=O)NCCCCNC(=O)c3ccc(-c4c5nc(c(-c6c(F)c(F)c(F)c(F)c6F)c6ccc([nH]6)c(-c6c(F)c(F)c(F)c(F)c6F)c6nc(c(-c7c(F)c(F)c(F)c(F)c7F)c7ccc4[nH]7)C=C6)C=C5)cc3)n2)nc(-c2ccc(C(F)(F)F)cc2)n1
REMARK SMILES IDX 15 1 14 2 13 3 11 4 12 5 10 7 7 8 8 9 84 10 9 11 6 12 4 13
REMARK SMILES IDX 5 14 97 15 86 16 85 17 3 18 2 19 1 20 87 21 88 22 96 23
REMARK SMILES IDX 89 24 95 25 90 26 91 27 92 28 93 29 94 30 16 31 17 32 18 33
REMARK SMILES IDX 19 34 20 36 21 37 22 38 83 39 23 40 82 41 24 42 25 43 26 44
REMARK SMILES IDX 76 45 27 46 81 47 75 48 77 49 28 50 80 51 74 52 73 53 29 55
REMARK SMILES IDX 61 56 41 57 60 58 42 59 45 60 59 61 78 62 43 63 44 64 58 66
REMARK SMILES IDX 79 67 46 68 30 69 31 70 39 71 32 72 33 73 37 74 40 75 34 76
REMARK SMILES IDX 35 77 38 78 36 79 62 80 63 81 71 82 64 83 65 84 69 85 72 86
REMARK SMILES IDX 66 87 67 88 70 89 68 90 47 91 48 92 56 93 49 94 50 95 54 96
REMARK SMILES IDX 57 97 51 98 52 99 55 100 53 101
REMARK H PARENT 13 6 18 35 77 54 45 65
REMARK Flexibility Score: inf
ROOT
ATOM      1  C   UNL A   1      35.850  21.385  25.741  1.00  0.00     0.023 C 
ENDROOT
BRANCH   1   2
ATOM      2  C   UNL A   1      34.353  21.086  25.885  1.00  0.00     0.116 C 
BRANCH   2   3
ATOM      3  N   UNL A   1      33.732  20.689  24.630  1.00  0.00    -0.351 N 
ATOM      4  C   UNL A   1      32.596  21.146  23.994  1.00  0.00     0.271 C 
ATOM      5  O   UNL A   1      32.253  20.557  22.965  1.00  0.00    -0.267 OA
ATOM      6  H   UNL A   1      34.204  19.968  24.153  1.00  0.00     0.163 HD
BRANCH   4   7
ATOM      7  C   UNL A   1      31.780  22.241  24.548  1.00  0.00     0.150 A 
ATOM      8  N   UNL A   1      30.976  24.202  24.867  1.00  0.00    -0.222 N 
ATOM      9  C   UNL A   1      30.619  23.482  25.985  1.00  0.00     0.118 A 
ATOM     10  N   UNL A   1      31.542  23.409  23.927  1.00  0.00    -0.161 NA
ATOM     11  C   UNL A   1      31.097  22.208  25.794  1.00  0.00     0.056 A 
BRANCH   8  12
ATOM     12  C   UNL A   1      30.941  25.617  24.693  1.00  0.00     0.157 A 
ATOM     13  C   UNL A   1      29.909  27.503  23.747  1.00  0.00     0.047 A 
ATOM     14  C   UNL A   1      30.117  26.137  23.711  1.00  0.00     0.073 A 
ATOM     15  N   UNL A   1      30.602  28.301  24.587  1.00  0.00    -0.233 NA
ATOM     16  C   UNL A   1      31.467  27.712  25.435  1.00  0.00     0.161 A 
ATOM     17  N   UNL A   1      31.625  26.387  25.565  1.00  0.00    -0.209 NA
BRANCH  13  18
ATOM     18  C   UNL A   1      28.915  28.203  22.851  1.00  0.00     0.056 C 
BRANCH  18  19
ATOM     19  C   UNL A   1      28.860  29.737  22.915  1.00  0.00     0.003 C 
ATOM     20  C   UNL A   1      29.296  30.423  21.626  1.00  0.00     0.004 C 
ENDBRANCH  18  19
ENDBRANCH  13  18
BRANCH  16  21
ATOM     21  C   UNL A   1      32.418  28.578  26.137  1.00  0.00     0.019 A 
ATOM     22  C   UNL A   1      33.698  28.132  26.504  1.00  0.00     0.012 A 
ATOM     23  C   UNL A   1      32.043  29.881  26.513  1.00  0.00     0.012 A 
ATOM     24  C   UNL A   1      34.569  28.960  27.223  1.00  0.00     0.014 A 
ATOM     25  C   UNL A   1      32.902  30.703  27.247  1.00  0.00     0.014 A 
ATOM     26  C   UNL A   1      34.175  30.250  27.612  1.00  0.00     0.056 A 
BRANCH  26  27
ATOM     27  C   UNL A   1      35.109  31.122  28.413  1.00  0.00     0.416 C 
ATOM     28  F   UNL A   1      35.860  31.942  27.626  1.00  0.00    -0.166 F 
ATOM     29  F   UNL A   1      34.450  31.937  29.280  1.00  0.00    -0.166 F 
ATOM     30  F   UNL A   1      36.000  30.417  29.167  1.00  0.00    -0.166 F 
ENDBRANCH  26  27
ENDBRANCH  16  21
ENDBRANCH   8  12
ENDBRANCH   4   7
ENDBRANCH   2   3
ENDBRANCH   1   2
BRANCH   1  31
ATOM     31  C   UNL A   1      36.227  22.773  25.205  1.00  0.00     0.023 C 
BRANCH  31  32
ATOM     32  C   UNL A   1      37.679  23.179  25.424  1.00  0.00     0.116 C 
BRANCH  32  33
ATOM     33  N   UNL A   1      38.450  22.191  26.171  1.00  0.00    -0.352 N 
ATOM     34  C   UNL A   1      39.650  22.373  26.832  1.00  0.00     0.251 C 
ATOM     35  H   UNL A   1      38.069  21.284  26.208  1.00  0.00     0.163 HD
ATOM     36  O   UNL A   1      40.383  21.426  27.065  1.00  0.00    -0.269 OA
BRANCH  34  37
ATOM     37  C   UNL A   1      40.040  23.734  27.257  1.00  0.00     0.039 A 
ATOM     38  C   UNL A   1      39.162  24.808  27.089  1.00  0.00     0.014 A 
ATOM     39  C   UNL A   1      41.303  23.934  27.814  1.00  0.00     0.014 A 
ATOM     40  C   UNL A   1      39.534  26.065  27.564  1.00  0.00     0.010 A 
ATOM     41  C   UNL A   1      41.629  25.148  28.379  1.00  0.00     0.010 A 
ATOM     42  C   UNL A   1      40.760  26.223  28.234  1.00  0.00    -0.014 A 
BRANCH  42  43
ATOM     43  C   UNL A   1      41.041  27.461  28.962  1.00  0.00     0.031 A 
ATOM     44  C   UNL A   1      42.257  28.159  28.458  1.00  0.00     0.074 A 
ATOM     45  C   UNL A   1      40.191  28.034  29.845  1.00  0.00     0.049 A 
ATOM     46  N   UNL A   1      43.377  28.324  29.077  1.00  0.00    -0.248 NA
ATOM     47  C   UNL A   1      42.298  28.571  27.044  1.00  0.00     0.031 C 
ATOM     48  C   UNL A   1      38.830  27.607  30.179  1.00  0.00     0.029 A 
ATOM     49  N   UNL A   1      40.324  29.187  30.568  1.00  0.00    -0.354 N 
ATOM     50  C   UNL A   1      44.191  29.054  28.212  1.00  0.00     0.074 A 
ATOM     51  C   UNL A   1      43.559  28.993  26.924  1.00  0.00     0.031 C 
ATOM     52  C   UNL A   1      38.191  28.595  30.845  1.00  0.00     0.029 A 
ATOM     53  C   UNL A   1      39.135  29.660  31.125  1.00  0.00     0.049 A 
ATOM     54  H   UNL A   1      41.188  29.645  30.686  1.00  0.00     0.167 HD
ATOM     55  C   UNL A   1      45.148  29.882  28.716  1.00  0.00     0.037 A 
ATOM     56  C   UNL A   1      38.939  30.850  31.752  1.00  0.00     0.037 A 
ATOM     57  C   UNL A   1      45.399  29.557  30.101  1.00  0.00     0.049 A 
ATOM     58  C   UNL A   1      40.271  31.350  32.156  1.00  0.00     0.074 A 
ATOM     59  C   UNL A   1      45.886  28.469  30.796  1.00  0.00     0.029 A 
ATOM     60  N   UNL A   1      44.728  30.334  31.008  1.00  0.00    -0.354 N 
ATOM     61  N   UNL A   1      41.000  30.808  33.089  1.00  0.00    -0.248 NA
ATOM     62  C   UNL A   1      40.974  32.241  31.248  1.00  0.00     0.031 C 
ATOM     63  C   UNL A   1      45.169  28.458  32.032  1.00  0.00     0.029 A 
ATOM     64  C   UNL A   1      44.338  29.578  32.075  1.00  0.00     0.049 A 
ATOM     65  H   UNL A   1      44.554  31.297  30.906  1.00  0.00     0.167 HD
ATOM     66  C   UNL A   1      42.294  30.904  32.608  1.00  0.00     0.074 A 
ATOM     67  C   UNL A   1      42.232  31.923  31.564  1.00  0.00     0.031 C 
ATOM     68  C   UNL A   1      43.200  29.926  32.897  1.00  0.00     0.037 A 
BRANCH  55  69
ATOM     69  C   UNL A   1      45.468  31.271  28.173  1.00  0.00     0.064 A 
ATOM     70  C   UNL A   1      44.393  32.162  27.941  1.00  0.00     0.173 A 
ATOM     71  C   UNL A   1      46.685  31.639  27.560  1.00  0.00     0.173 A 
ATOM     72  F   UNL A   1      43.183  31.928  28.471  1.00  0.00    -0.203 F 
ATOM     73  C   UNL A   1      44.500  33.250  27.068  1.00  0.00     0.198 A 
ATOM     74  C   UNL A   1      46.799  32.753  26.727  1.00  0.00     0.198 A 
ATOM     75  F   UNL A   1      47.791  30.896  27.645  1.00  0.00    -0.203 F 
ATOM     76  F   UNL A   1      43.411  33.970  26.768  1.00  0.00    -0.200 F 
ATOM     77  C   UNL A   1      45.700  33.536  26.451  1.00  0.00     0.200 A 
ATOM     78  F   UNL A   1      47.971  33.006  26.126  1.00  0.00    -0.200 F 
ATOM     79  F   UNL A   1      45.790  34.531  25.559  1.00  0.00    -0.200 F 
ENDBRANCH  55  69
BRANCH  56  80
ATOM     80  C   UNL A   1      37.738  31.721  31.834  1.00  0.00     0.064 A 
ATOM     81  C   UNL A   1      37.091  31.948  33.064  1.00  0.00     0.173 A 
ATOM     82  C   UNL A   1      37.394  32.589  30.782  1.00  0.00     0.173 A 
ATOM     83  F   UNL A   1      37.384  31.195  34.134  1.00  0.00    -0.203 F 
ATOM     84  C   UNL A   1      36.193  33.008  33.242  1.00  0.00     0.198 A 
ATOM     85  C   UNL A   1      36.493  33.643  30.959  1.00  0.00     0.198 A 
ATOM     86  F   UNL A   1      38.003  32.497  29.591  1.00  0.00    -0.203 F 
ATOM     87  F   UNL A   1      35.659  33.238  34.450  1.00  0.00    -0.200 F 
ATOM     88  C   UNL A   1      35.907  33.864  32.193  1.00  0.00     0.200 A 
ATOM     89  F   UNL A   1      36.252  34.488  29.947  1.00  0.00    -0.200 F 
ATOM     90  F   UNL A   1      35.107  34.923  32.380  1.00  0.00    -0.200 F 
ENDBRANCH  56  80
BRANCH  68  91
ATOM     91  C   UNL A   1      42.910  29.029  34.067  1.00  0.00     0.064 A 
ATOM     92  C   UNL A   1      42.108  27.875  34.022  1.00  0.00     0.173 A 
ATOM     93  C   UNL A   1      43.576  29.308  35.268  1.00  0.00     0.173 A 
ATOM     94  F   UNL A   1      41.507  27.489  32.888  1.00  0.00    -0.203 F 
ATOM     95  C   UNL A   1      41.953  27.065  35.147  1.00  0.00     0.198 A 
ATOM     96  C   UNL A   1      43.454  28.475  36.374  1.00  0.00     0.198 A 
ATOM     97  F   UNL A   1      44.385  30.374  35.355  1.00  0.00    -0.203 F 
ATOM     98  F   UNL A   1      41.167  25.981  35.091  1.00  0.00    -0.200 F 
ATOM     99  C   UNL A   1      42.633  27.361  36.317  1.00  0.00     0.200 A 
ATOM    100  F   UNL A   1      44.152  28.741  37.487  1.00  0.00    -0.200 F 
ATOM    101  F   UNL A   1      42.517  26.560  37.386  1.00  0.00    -0.200 F 
ENDBRANCH  68  91
ENDBRANCH  42  43
ENDBRANCH  34  37
ENDBRANCH  32  33
ENDBRANCH  31  32
ENDBRANCH   1  31
TORSDOF 16
ENDMDL
MODEL 3
REMARK VINA RESULT:     -12.4      2.416      7.172
REMARK SMILES CCCc1cc(-n2ccc(C(=O)NCCCCNC(=O)c3ccc(-c4c5nc(c(-c6c(F)c(F)c(F)c(F)c6F)c6ccc([nH]6)c(-c6c(F)c(F)c(F)c(F)c6F)c6nc(c(-c7c(F)c(F)c(F)c(F)c7F)c7ccc4[nH]7)C=C6)C=C5)cc3)n2)nc(-c2ccc(C(F)(F)F)cc2)n1
REMARK SMILES IDX 15 1 14 2 13 3 11 4 12 5 10 7 7 8 8 9 84 10 9 11 6 12 4 13
REMARK SMILES IDX 5 14 97 15 86 16 85 17 3 18 2 19 1 20 87 21 88 22 96 23
REMARK SMILES IDX 89 24 95 25 90 26 91 27 92 28 93 29 94 30 16 31 17 32 18 33
REMARK SMILES IDX 19 34 20 36 21 37 22 38 83 39 23 40 82 41 24 42 25 43 26 44
REMARK SMILES IDX 76 45 27 46 81 47 75 48 77 49 28 50 80 51 74 52 73 53 29 55
REMARK SMILES IDX 61 56 41 57 60 58 42 59 45 60 59 61 78 62 43 63 44 64 58 66
REMARK SMILES IDX 79 67 46 68 30 69 31 70 39 71 32 72 33 73 37 74 40 75 34 76
REMARK SMILES IDX 35 77 38 78 36 79 62 80 63 81 71 82 64 83 65 84 69 85 72 86
REMARK SMILES IDX 66 87 67 88 70 89 68 90 47 91 48 92 56 93 49 94 50 95 54 96
REMARK SMILES IDX 57 97 51 98 52 99 55 100 53 101
REMARK H PARENT 13 6 18 35 77 54 45 65
REMARK Flexibility Score: inf
ROOT
ATOM      1  C   UNL A   1      32.904  29.676  25.404  1.00  0.00     0.023 C 
ENDROOT
BRANCH   1   2
ATOM      2  C   UNL A   1      31.386  29.704  25.190  1.00  0.00     0.116 C 
BRANCH   2   3
ATOM      3  N   UNL A   1      30.996  29.312  23.844  1.00  0.00    -0.351 N 
ATOM      4  C   UNL A   1      30.878  28.068  23.258  1.00  0.00     0.271 C 
ATOM      5  O   UNL A   1      30.606  28.038  22.055  1.00  0.00    -0.267 OA
ATOM      6  H   UNL A   1      30.780  30.065  23.248  1.00  0.00     0.163 HD
BRANCH   4   7
ATOM      7  C   UNL A   1      31.133  26.826  24.009  1.00  0.00     0.150 A 
ATOM      8  N   UNL A   1      32.162  25.136  24.832  1.00  0.00    -0.222 N 
ATOM      9  C   UNL A   1      30.825  24.829  24.942  1.00  0.00     0.118 A 
ATOM     10  N   UNL A   1      32.346  26.410  24.412  1.00  0.00    -0.161 NA
ATOM     11  C   UNL A   1      30.138  25.912  24.448  1.00  0.00     0.056 A 
BRANCH   8  12
ATOM     12  C   UNL A   1      33.274  24.252  24.965  1.00  0.00     0.157 A 
ATOM     13  C   UNL A   1      35.537  23.933  25.505  1.00  0.00     0.047 A 
ATOM     14  C   UNL A   1      34.534  24.801  25.118  1.00  0.00     0.073 A 
ATOM     15  N   UNL A   1      35.333  22.600  25.566  1.00  0.00    -0.233 NA
ATOM     16  C   UNL A   1      34.095  22.146  25.292  1.00  0.00     0.161 A 
ATOM     17  N   UNL A   1      33.033  22.927  25.048  1.00  0.00    -0.209 NA
BRANCH  13  18
ATOM     18  C   UNL A   1      36.927  24.398  25.870  1.00  0.00     0.056 C 
BRANCH  18  19
ATOM     19  C   UNL A   1      37.961  23.324  26.237  1.00  0.00     0.003 C 
ATOM     20  C   UNL A   1      39.199  23.873  26.936  1.00  0.00     0.004 C 
ENDBRANCH  18  19
ENDBRANCH  13  18
BRANCH  16  21
ATOM     21  C   UNL A   1      33.937  20.705  25.075  1.00  0.00     0.019 A 
ATOM     22  C   UNL A   1      32.716  20.049  25.299  1.00  0.00     0.012 A 
ATOM     23  C   UNL A   1      35.041  19.925  24.683  1.00  0.00     0.012 A 
ATOM     24  C   UNL A   1      32.605  18.662  25.138  1.00  0.00     0.014 A 
ATOM     25  C   UNL A   1      34.939  18.539  24.541  1.00  0.00     0.014 A 
ATOM     26  C   UNL A   1      33.720  17.891  24.768  1.00  0.00     0.056 A 
BRANCH  26  27
ATOM     27  C   UNL A   1      33.597  16.394  24.629  1.00  0.00     0.416 C 
ATOM     28  F   UNL A   1      34.337  15.722  25.554  1.00  0.00    -0.166 F 
ATOM     29  F   UNL A   1      32.318  15.958  24.784  1.00  0.00    -0.166 F 
ATOM     30  F   UNL A   1      34.007  15.925  23.416  1.00  0.00    -0.166 F 
ENDBRANCH  26  27
ENDBRANCH  16  21
ENDBRANCH   8  12
ENDBRANCH   4   7
ENDBRANCH   2   3
ENDBRANCH   1   2
BRANCH   1  31
ATOM     31  C   UNL A   1      33.395  29.244  26.793  1.00  0.00     0.023 C 
BRANCH  31  32
ATOM     32  C   UNL A   1      34.689  29.903  27.256  1.00  0.00     0.116 C 
BRANCH  32  33
ATOM     33  N   UNL A   1      34.472  31.112  28.045  1.00  0.00    -0.352 N 
ATOM     34  C   UNL A   1      35.078  31.469  29.235  1.00  0.00     0.251 C 
ATOM     35  H   UNL A   1      33.813  31.749  27.687  1.00  0.00     0.163 HD
ATOM     36  O   UNL A   1      34.547  32.268  29.989  1.00  0.00    -0.269 OA
BRANCH  34  37
ATOM     37  C   UNL A   1      36.383  30.872  29.587  1.00  0.00     0.039 A 
ATOM     38  C   UNL A   1      36.455  29.564  30.076  1.00  0.00     0.014 A 
ATOM     39  C   UNL A   1      37.541  31.635  29.440  1.00  0.00     0.014 A 
ATOM     40  C   UNL A   1      37.708  29.007  30.334  1.00  0.00     0.010 A 
ATOM     41  C   UNL A   1      38.781  31.054  29.590  1.00  0.00     0.010 A 
ATOM     42  C   UNL A   1      38.870  29.749  30.062  1.00  0.00    -0.014 A 
BRANCH  42  43
ATOM     43  C   UNL A   1      40.177  29.091  30.075  1.00  0.00     0.031 A 
ATOM     44  C   UNL A   1      40.744  28.970  31.447  1.00  0.00     0.074 A 
ATOM     45  C   UNL A   1      40.725  28.465  29.008  1.00  0.00     0.049 A 
ATOM     46  N   UNL A   1      41.784  29.571  31.920  1.00  0.00    -0.248 NA
ATOM     47  C   UNL A   1      39.974  28.235  32.466  1.00  0.00     0.031 C 
ATOM     48  C   UNL A   1      40.114  28.242  27.694  1.00  0.00     0.029 A 
ATOM     49  N   UNL A   1      41.915  27.802  28.896  1.00  0.00    -0.354 N 
ATOM     50  C   UNL A   1      41.928  29.119  33.230  1.00  0.00     0.074 A 
ATOM     51  C   UNL A   1      40.688  28.476  33.568  1.00  0.00     0.031 C 
ATOM     52  C   UNL A   1      40.824  27.316  27.012  1.00  0.00     0.029 A 
ATOM     53  C   UNL A   1      42.022  26.993  27.764  1.00  0.00     0.049 A 
ATOM     54  H   UNL A   1      42.637  27.888  29.561  1.00  0.00     0.167 HD
ATOM     55  C   UNL A   1      43.165  29.063  33.799  1.00  0.00     0.037 A 
ATOM     56  C   UNL A   1      43.014  26.109  27.478  1.00  0.00     0.037 A 
ATOM     57  C   UNL A   1      44.092  29.864  33.034  1.00  0.00     0.049 A 
ATOM     58  C   UNL A   1      44.176  26.477  28.316  1.00  0.00     0.074 A 
ATOM     59  C   UNL A   1      44.230  31.199  32.717  1.00  0.00     0.029 A 
ATOM     60  N   UNL A   1      44.847  29.166  32.128  1.00  0.00    -0.354 N 
ATOM     61  N   UNL A   1      44.884  27.556  28.146  1.00  0.00    -0.248 NA
ATOM     62  C   UNL A   1      44.323  25.826  29.607  1.00  0.00     0.031 C 
ATOM     63  C   UNL A   1      44.778  31.221  31.398  1.00  0.00     0.029 A 
ATOM     64  C   UNL A   1      45.027  29.907  30.997  1.00  0.00     0.049 A 
ATOM     65  H   UNL A   1      45.209  28.262  32.273  1.00  0.00     0.167 HD
ATOM     66  C   UNL A   1      45.182  27.974  29.430  1.00  0.00     0.074 A 
ATOM     67  C   UNL A   1      44.953  26.800  30.269  1.00  0.00     0.031 C 
ATOM     68  C   UNL A   1      45.280  29.306  29.707  1.00  0.00     0.037 A 
BRANCH  55  69
ATOM     69  C   UNL A   1      43.663  27.924  34.681  1.00  0.00     0.064 A 
ATOM     70  C   UNL A   1      43.526  26.599  34.204  1.00  0.00     0.173 A 
ATOM     71  C   UNL A   1      43.935  28.031  36.062  1.00  0.00     0.173 A 
ATOM     72  F   UNL A   1      43.271  26.361  32.908  1.00  0.00    -0.203 F 
ATOM     73  C   UNL A   1      43.533  25.493  35.059  1.00  0.00     0.198 A 
ATOM     74  C   UNL A   1      43.987  26.920  36.905  1.00  0.00     0.198 A 
ATOM     75  F   UNL A   1      44.059  29.205  36.686  1.00  0.00    -0.203 F 
ATOM     76  F   UNL A   1      43.247  24.277  34.575  1.00  0.00    -0.200 F 
ATOM     77  C   UNL A   1      43.749  25.656  36.412  1.00  0.00     0.200 A 
ATOM     78  F   UNL A   1      44.186  27.101  38.219  1.00  0.00    -0.200 F 
ATOM     79  F   UNL A   1      43.684  24.609  37.246  1.00  0.00    -0.200 F 
ENDBRANCH  55  69
BRANCH  56  80
ATOM     80  C   UNL A   1      42.989  24.829  26.723  1.00  0.00     0.064 A 
ATOM     81  C   UNL A   1      43.653  24.703  25.488  1.00  0.00     0.173 A 
ATOM     82  C   UNL A   1      42.591  23.629  27.339  1.00  0.00     0.173 A 
ATOM     83  F   UNL A   1      44.104  25.791  24.847  1.00  0.00    -0.203 F 
ATOM     84  C   UNL A   1      43.942  23.452  24.929  1.00  0.00     0.198 A 
ATOM     85  C   UNL A   1      42.874  22.381  26.777  1.00  0.00     0.198 A 
ATOM     86  F   UNL A   1      42.010  23.639  28.548  1.00  0.00    -0.203 F 
ATOM     87  F   UNL A   1      44.645  23.374  23.790  1.00  0.00    -0.200 F 
ATOM     88  C   UNL A   1      43.565  22.291  25.582  1.00  0.00     0.200 A 
ATOM     89  F   UNL A   1      42.537  21.263  27.436  1.00  0.00    -0.200 F 
ATOM     90  F   UNL A   1      43.905  21.093  25.087  1.00  0.00    -0.200 F 
ENDBRANCH  56  80
BRANCH  68  91
ATOM     91  C   UNL A   1      45.503  30.243  28.554  1.00  0.00     0.064 A 
ATOM     92  C   UNL A   1      44.487  30.834  27.783  1.00  0.00     0.173 A 
ATOM     93  C   UNL A   1      46.823  30.639  28.297  1.00  0.00     0.173 A 
ATOM     94  F   UNL A   1      43.194  30.576  28.022  1.00  0.00    -0.203 F 
ATOM     95  C   UNL A   1      44.790  31.748  26.774  1.00  0.00     0.198 A 
ATOM     96  C   UNL A   1      47.118  31.582  27.321  1.00  0.00     0.198 A 
ATOM     97  F   UNL A   1      47.829  30.137  29.029  1.00  0.00    -0.203 F 
ATOM     98  F   UNL A   1      43.809  32.284  26.035  1.00  0.00    -0.200 F 
ATOM     99  C   UNL A   1      46.105  32.127  26.551  1.00  0.00     0.200 A 
ATOM    100  F   UNL A   1      48.386  31.980  27.143  1.00  0.00    -0.200 F 
ATOM    101  F   UNL A   1      46.393  33.037  25.610  1.00  0.00    -0.200 F 
ENDBRANCH  68  91
ENDBRANCH  42  43
ENDBRANCH  34  37
ENDBRANCH  32  33
ENDBRANCH  31  32
ENDBRANCH   1  31
TORSDOF 16
ENDMDL
