MODEL 1
REMARK VINA RESULT:     -12.9      0.000      0.000
REMARK SMILES N#C/C(=C\c1ccc(Oc2ccccc2Cl)c([N+](=O)[O-])c1)C(=O)NCCCCNC(=O)c1ccc(-c2c3nc(c(-c4c(F)c(F)c(F)c(F)c4F)c4ccc([nH]4)c(-c4c(F)c(F)c(F)c(F)c4F)c4nc(c(-c5c(F)c(F)c(F)c(F)c5F)c5ccc2[nH]5)C=C4)C=C3)cc1
REMARK SMILES IDX 26 1 25 2 24 3 22 4 23 5 3 7 4 8 2 9 1 10 5 11 6 12 21 13
REMARK SMILES IDX 7 14 17 15 8 16 18 17 19 18 20 19 9 20 10 21 11 22 15 23
REMARK SMILES IDX 12 24 14 25 16 26 13 27 27 28 28 29 29 30 30 31 31 33 32 34
REMARK SMILES IDX 33 35 94 36 34 37 93 38 35 39 36 40 37 41 87 42 38 43 92 44
REMARK SMILES IDX 86 45 88 46 39 47 91 48 85 49 84 50 40 52 72 53 52 54 71 55
REMARK SMILES IDX 53 56 56 57 70 58 89 59 54 60 55 61 69 63 90 64 57 65 41 66
REMARK SMILES IDX 42 67 50 68 43 69 44 70 48 71 51 72 45 73 46 74 49 75 47 76
REMARK SMILES IDX 73 77 74 78 82 79 75 80 76 81 80 82 83 83 77 84 78 85 81 86
REMARK SMILES IDX 79 87 58 88 59 89 67 90 60 91 61 92 65 93 68 94 62 95 63 96
REMARK SMILES IDX 66 97 64 98
REMARK H PARENT 24 6 29 32 88 51 56 62
REMARK Flexibility Score: inf
ROOT
ATOM      1  C   UNL A   1      32.123  30.397  26.749  1.00  0.00     0.023 C 
ENDROOT
BRANCH   1   2
ATOM      2  C   UNL A   1      31.798  29.696  25.426  1.00  0.00     0.116 C 
BRANCH   2   3
ATOM      3  N   UNL A   1      32.938  29.695  24.531  1.00  0.00    -0.351 N 
ATOM      4  C   UNL A   1      33.621  28.694  23.909  1.00  0.00     0.261 C 
ATOM      5  O   UNL A   1      34.538  29.031  23.159  1.00  0.00    -0.268 OA
ATOM      6  H   UNL A   1      33.287  30.594  24.335  1.00  0.00     0.163 HD
BRANCH   4   7
ATOM      7  C   UNL A   1      33.311  27.248  24.090  1.00  0.00     0.117 C 
ATOM      8  C   UNL A   1      33.668  26.443  25.122  1.00  0.00     0.033 C 
BRANCH   7   9
ATOM      9  C   UNL A   1      32.720  26.512  22.899  1.00  0.00     0.105 C 
ATOM     10  N   UNL A   1      32.231  25.901  21.910  1.00  0.00    -0.192 NA
ENDBRANCH   7   9
BRANCH   8  11
ATOM     11  C   UNL A   1      33.384  24.991  25.232  1.00  0.00    -0.017 A 
ATOM     12  C   UNL A   1      34.403  24.071  24.967  1.00  0.00     0.012 A 
ATOM     13  C   UNL A   1      32.136  24.497  25.626  1.00  0.00     0.098 A 
ATOM     14  C   UNL A   1      34.182  22.694  25.125  1.00  0.00     0.055 A 
ATOM     15  C   UNL A   1      31.954  23.123  25.870  1.00  0.00     0.312 A 
ATOM     16  C   UNL A   1      32.954  22.190  25.584  1.00  0.00     0.204 A 
BRANCH  15  17
ATOM     17  N   UNL A   1      30.721  22.782  26.549  1.00  0.00     0.066 N 
ATOM     18  O   UNL A   1      30.433  23.434  27.560  1.00  0.00    -0.258 OA
ATOM     19  O   UNL A   1      30.014  21.911  26.023  1.00  0.00    -0.258 OA
ENDBRANCH  15  17
BRANCH  16  20
ATOM     20  O   UNL A   1      32.956  20.816  25.686  1.00  0.00    -0.449 OA
BRANCH  20  21
ATOM     21  C   UNL A   1      32.693  20.023  24.600  1.00  0.00     0.146 A 
ATOM     22  C   UNL A   1      32.392  20.698  23.412  1.00  0.00     0.049 A 
ATOM     23  C   UNL A   1      32.653  18.624  24.634  1.00  0.00     0.083 A 
ATOM     24  C   UNL A   1      32.155  19.984  22.239  1.00  0.00     0.004 A 
ATOM     25  C   UNL A   1      32.438  17.910  23.452  1.00  0.00     0.024 A 
ATOM     26  Cl  UNL A   1      32.879  17.738  26.098  1.00  0.00    -0.080 Cl
ATOM     27  C   UNL A   1      32.201  18.591  22.255  1.00  0.00     0.002 A 
ENDBRANCH  20  21
ENDBRANCH  16  20
ENDBRANCH   8  11
ENDBRANCH   4   7
ENDBRANCH   2   3
ENDBRANCH   1   2
BRANCH   1  28
ATOM     28  C   UNL A   1      31.820  31.896  26.768  1.00  0.00     0.023 C 
BRANCH  28  29
ATOM     29  C   UNL A   1      32.922  32.765  27.364  1.00  0.00     0.116 C 
BRANCH  29  30
ATOM     30  N   UNL A   1      32.494  34.119  27.677  1.00  0.00    -0.352 N 
ATOM     31  C   UNL A   1      33.014  34.973  28.622  1.00  0.00     0.251 C 
ATOM     32  H   UNL A   1      31.741  34.468  27.146  1.00  0.00     0.163 HD
ATOM     33  O   UNL A   1      32.497  36.058  28.840  1.00  0.00    -0.269 OA
BRANCH  31  34
ATOM     34  C   UNL A   1      34.182  34.529  29.411  1.00  0.00     0.039 A 
ATOM     35  C   UNL A   1      33.964  33.939  30.657  1.00  0.00     0.014 A 
ATOM     36  C   UNL A   1      35.473  34.637  28.890  1.00  0.00     0.014 A 
ATOM     37  C   UNL A   1      35.041  33.389  31.353  1.00  0.00     0.010 A 
ATOM     38  C   UNL A   1      36.533  34.028  29.551  1.00  0.00     0.010 A 
ATOM     39  C   UNL A   1      36.326  33.395  30.787  1.00  0.00    -0.014 A 
BRANCH  39  40
ATOM     40  C   UNL A   1      37.468  32.736  31.465  1.00  0.00     0.031 A 
ATOM     41  C   UNL A   1      38.163  31.575  30.811  1.00  0.00     0.074 A 
ATOM     42  C   UNL A   1      37.827  33.133  32.700  1.00  0.00     0.049 A 
ATOM     43  N   UNL A   1      39.128  30.821  31.273  1.00  0.00    -0.248 NA
ATOM     44  C   UNL A   1      37.689  31.192  29.472  1.00  0.00     0.031 C 
ATOM     45  C   UNL A   1      37.190  34.208  33.462  1.00  0.00     0.029 A 
ATOM     46  N   UNL A   1      38.809  32.668  33.540  1.00  0.00    -0.354 N 
ATOM     47  C   UNL A   1      39.361  29.867  30.293  1.00  0.00     0.074 A 
ATOM     48  C   UNL A   1      38.405  30.103  29.233  1.00  0.00     0.031 C 
ATOM     49  C   UNL A   1      37.807  34.334  34.647  1.00  0.00     0.029 A 
ATOM     50  C   UNL A   1      38.862  33.329  34.743  1.00  0.00     0.049 A 
ATOM     51  H   UNL A   1      39.416  31.932  33.303  1.00  0.00     0.167 HD
ATOM     52  C   UNL A   1      40.304  28.895  30.269  1.00  0.00     0.037 A 
ATOM     53  C   UNL A   1      39.668  33.140  35.804  1.00  0.00     0.037 A 
ATOM     54  C   UNL A   1      41.276  28.686  31.310  1.00  0.00     0.049 A 
ATOM     55  C   UNL A   1      40.720  32.066  35.744  1.00  0.00     0.074 A 
ATOM     56  C   UNL A   1      42.319  27.778  31.347  1.00  0.00     0.029 A 
ATOM     57  N   UNL A   1      41.320  29.397  32.500  1.00  0.00    -0.354 N 
ATOM     58  N   UNL A   1      40.983  31.219  34.780  1.00  0.00    -0.248 NA
ATOM     59  C   UNL A   1      41.595  31.930  36.917  1.00  0.00     0.031 C 
ATOM     60  C   UNL A   1      42.970  27.912  32.577  1.00  0.00     0.029 A 
ATOM     61  C   UNL A   1      42.362  28.935  33.287  1.00  0.00     0.049 A 
ATOM     62  H   UNL A   1      40.704  30.123  32.748  1.00  0.00     0.167 HD
ATOM     63  C   UNL A   1      42.065  30.467  35.216  1.00  0.00     0.074 A 
ATOM     64  C   UNL A   1      42.420  30.969  36.527  1.00  0.00     0.031 C 
ATOM     65  C   UNL A   1      42.706  29.452  34.587  1.00  0.00     0.037 A 
BRANCH  52  66
ATOM     66  C   UNL A   1      40.335  27.988  29.074  1.00  0.00     0.064 A 
ATOM     67  C   UNL A   1      39.606  26.790  29.041  1.00  0.00     0.173 A 
ATOM     68  C   UNL A   1      41.077  28.336  27.936  1.00  0.00     0.173 A 
ATOM     69  F   UNL A   1      38.891  26.405  30.109  1.00  0.00    -0.203 F 
ATOM     70  C   UNL A   1      39.640  25.960  27.924  1.00  0.00     0.198 A 
ATOM     71  C   UNL A   1      41.085  27.518  26.808  1.00  0.00     0.198 A 
ATOM     72  F   UNL A   1      41.790  29.472  27.913  1.00  0.00    -0.203 F 
ATOM     73  F   UNL A   1      38.975  24.797  27.935  1.00  0.00    -0.200 F 
ATOM     74  C   UNL A   1      40.373  26.328  26.806  1.00  0.00     0.200 A 
ATOM     75  F   UNL A   1      41.786  27.880  25.725  1.00  0.00    -0.200 F 
ATOM     76  F   UNL A   1      40.402  25.531  25.729  1.00  0.00    -0.200 F 
ENDBRANCH  52  66
BRANCH  53  77
ATOM     77  C   UNL A   1      39.532  34.008  37.002  1.00  0.00     0.064 A 
ATOM     78  C   UNL A   1      38.775  33.594  38.107  1.00  0.00     0.173 A 
ATOM     79  C   UNL A   1      40.155  35.263  37.071  1.00  0.00     0.173 A 
ATOM     80  F   UNL A   1      38.146  32.409  38.081  1.00  0.00    -0.203 F 
ATOM     81  C   UNL A   1      38.631  34.409  39.228  1.00  0.00     0.198 A 
ATOM     82  C   UNL A   1      40.030  36.066  38.203  1.00  0.00     0.198 A 
ATOM     83  F   UNL A   1      40.894  35.702  36.043  1.00  0.00    -0.203 F 
ATOM     84  F   UNL A   1      37.868  34.006  40.253  1.00  0.00    -0.200 F 
ATOM     85  C   UNL A   1      39.262  35.642  39.277  1.00  0.00     0.200 A 
ATOM     86  F   UNL A   1      40.654  37.251  38.252  1.00  0.00    -0.200 F 
ATOM     87  F   UNL A   1      39.127  36.423  40.357  1.00  0.00    -0.200 F 
ENDBRANCH  53  77
BRANCH  65  88
ATOM     88  C   UNL A   1      43.878  28.836  35.294  1.00  0.00     0.064 A 
ATOM     89  C   UNL A   1      43.716  27.782  36.204  1.00  0.00     0.173 A 
ATOM     90  C   UNL A   1      45.181  29.277  35.022  1.00  0.00     0.173 A 
ATOM     91  F   UNL A   1      42.488  27.336  36.508  1.00  0.00    -0.203 F 
ATOM     92  C   UNL A   1      44.816  27.207  36.835  1.00  0.00     0.198 A 
ATOM     93  C   UNL A   1      46.280  28.681  35.632  1.00  0.00     0.198 A 
ATOM     94  F   UNL A   1      45.389  30.278  34.154  1.00  0.00    -0.203 F 
ATOM     95  F   UNL A   1      44.635  26.230  37.734  1.00  0.00    -0.200 F 
ATOM     96  C   UNL A   1      46.097  27.652  36.542  1.00  0.00     0.200 A 
ATOM     97  F   UNL A   1      47.519  29.103  35.338  1.00  0.00    -0.200 F 
ATOM     98  F   UNL A   1      47.155  27.090  37.143  1.00  0.00    -0.200 F 
ENDBRANCH  65  88
ENDBRANCH  39  40
ENDBRANCH  31  34
ENDBRANCH  29  30
ENDBRANCH  28  29
ENDBRANCH   1  28
TORSDOF 16
ENDMDL
MODEL 2
REMARK VINA RESULT:     -12.8      5.776     11.310
REMARK SMILES N#C/C(=C\c1ccc(Oc2ccccc2Cl)c([N+](=O)[O-])c1)C(=O)NCCCCNC(=O)c1ccc(-c2c3nc(c(-c4c(F)c(F)c(F)c(F)c4F)c4ccc([nH]4)c(-c4c(F)c(F)c(F)c(F)c4F)c4nc(c(-c5c(F)c(F)c(F)c(F)c5F)c5ccc2[nH]5)C=C4)C=C3)cc1
REMARK SMILES IDX 26 1 25 2 24 3 22 4 23 5 3 7 4 8 2 9 1 10 5 11 6 12 21 13
REMARK SMILES IDX 7 14 17 15 8 16 18 17 19 18 20 19 9 20 10 21 11 22 15 23
REMARK SMILES IDX 12 24 14 25 16 26 13 27 27 28 28 29 29 30 30 31 31 33 32 34
REMARK SMILES IDX 33 35 94 36 34 37 93 38 35 39 36 40 37 41 87 42 38 43 92 44
REMARK SMILES IDX 86 45 88 46 39 47 91 48 85 49 84 50 40 52 72 53 52 54 71 55
REMARK SMILES IDX 53 56 56 57 70 58 89 59 54 60 55 61 69 63 90 64 57 65 41 66
REMARK SMILES IDX 42 67 50 68 43 69 44 70 48 71 51 72 45 73 46 74 49 75 47 76
REMARK SMILES IDX 73 77 74 78 82 79 75 80 76 81 80 82 83 83 77 84 78 85 81 86
REMARK SMILES IDX 79 87 58 88 59 89 67 90 60 91 61 92 65 93 68 94 62 95 63 96
REMARK SMILES IDX 66 97 64 98
REMARK H PARENT 24 6 29 32 88 51 56 62
REMARK Flexibility Score: inf
ROOT
ATOM      1  C   UNL A   1      37.363  21.219  24.522  1.00  0.00     0.023 C 
ENDROOT
BRANCH   1   2
ATOM      2  C   UNL A   1      37.081  22.286  25.586  1.00  0.00     0.116 C 
BRANCH   2   3
ATOM      3  N   UNL A   1      36.107  21.823  26.556  1.00  0.00    -0.351 N 
ATOM      4  C   UNL A   1      34.798  22.134  26.769  1.00  0.00     0.261 C 
ATOM      5  O   UNL A   1      34.221  21.519  27.667  1.00  0.00    -0.268 OA
ATOM      6  H   UNL A   1      36.463  21.153  27.183  1.00  0.00     0.163 HD
BRANCH   4   7
ATOM      7  C   UNL A   1      34.055  23.155  25.979  1.00  0.00     0.117 C 
ATOM      8  C   UNL A   1      34.295  24.489  25.907  1.00  0.00     0.033 C 
BRANCH   7   9
ATOM      9  C   UNL A   1      32.741  22.722  25.350  1.00  0.00     0.105 C 
ATOM     10  N   UNL A   1      31.650  22.363  24.828  1.00  0.00    -0.192 NA
ENDBRANCH   7   9
BRANCH   8  11
ATOM     11  C   UNL A   1      33.490  25.478  25.150  1.00  0.00    -0.017 A 
ATOM     12  C   UNL A   1      32.548  26.258  25.828  1.00  0.00     0.012 A 
ATOM     13  C   UNL A   1      33.657  25.692  23.777  1.00  0.00     0.098 A 
ATOM     14  C   UNL A   1      31.817  27.247  25.150  1.00  0.00     0.055 A 
ATOM     15  C   UNL A   1      32.988  26.746  23.129  1.00  0.00     0.312 A 
ATOM     16  C   UNL A   1      32.025  27.516  23.786  1.00  0.00     0.204 A 
BRANCH  15  17
ATOM     17  N   UNL A   1      33.466  27.043  21.794  1.00  0.00     0.066 N 
ATOM     18  O   UNL A   1      34.060  28.115  21.633  1.00  0.00    -0.258 OA
ATOM     19  O   UNL A   1      33.304  26.167  20.934  1.00  0.00    -0.258 OA
ENDBRANCH  15  17
BRANCH  16  20
ATOM     20  O   UNL A   1      31.220  28.534  23.325  1.00  0.00    -0.449 OA
BRANCH  20  21
ATOM     21  C   UNL A   1      29.856  28.411  23.310  1.00  0.00     0.146 A 
ATOM     22  C   UNL A   1      29.353  27.170  23.715  1.00  0.00     0.049 A 
ATOM     23  C   UNL A   1      28.977  29.407  22.869  1.00  0.00     0.083 A 
ATOM     24  C   UNL A   1      27.977  26.958  23.781  1.00  0.00     0.004 A 
ATOM     25  C   UNL A   1      27.598  29.200  22.957  1.00  0.00     0.024 A 
ATOM     26  Cl  UNL A   1      29.542  30.907  22.227  1.00  0.00    -0.080 Cl
ATOM     27  C   UNL A   1      27.100  27.981  23.424  1.00  0.00     0.002 A 
ENDBRANCH  20  21
ENDBRANCH  16  20
ENDBRANCH   8  11
ENDBRANCH   4   7
ENDBRANCH   2   3
ENDBRANCH   1   2
BRANCH   1  28
ATOM     28  C   UNL A   1      38.100  19.982  25.040  1.00  0.00     0.023 C 
BRANCH  28  29
ATOM     29  C   UNL A   1      39.397  20.274  25.784  1.00  0.00     0.116 C 
BRANCH  29  30
ATOM     30  N   UNL A   1      40.294  19.133  25.865  1.00  0.00    -0.352 N 
ATOM     31  C   UNL A   1      41.642  19.135  26.143  1.00  0.00     0.251 C 
ATOM     32  H   UNL A   1      39.888  18.251  25.702  1.00  0.00     0.163 HD
ATOM     33  O   UNL A   1      42.295  18.104  26.092  1.00  0.00    -0.269 OA
BRANCH  31  34
ATOM     34  C   UNL A   1      42.298  20.422  26.454  1.00  0.00     0.039 A 
ATOM     35  C   UNL A   1      42.871  21.152  25.411  1.00  0.00     0.014 A 
ATOM     36  C   UNL A   1      42.287  20.929  27.755  1.00  0.00     0.014 A 
ATOM     37  C   UNL A   1      43.371  22.429  25.662  1.00  0.00     0.010 A 
ATOM     38  C   UNL A   1      42.721  22.228  27.989  1.00  0.00     0.010 A 
ATOM     39  C   UNL A   1      43.264  22.992  26.944  1.00  0.00    -0.014 A 
BRANCH  39  40
ATOM     40  C   UNL A   1      43.704  24.382  27.213  1.00  0.00     0.031 A 
ATOM     41  C   UNL A   1      42.718  25.398  27.715  1.00  0.00     0.074 A 
ATOM     42  C   UNL A   1      44.970  24.745  26.932  1.00  0.00     0.049 A 
ATOM     43  N   UNL A   1      42.889  26.677  27.939  1.00  0.00    -0.248 NA
ATOM     44  C   UNL A   1      41.351  24.921  27.972  1.00  0.00     0.031 C 
ATOM     45  C   UNL A   1      46.001  23.863  26.384  1.00  0.00     0.029 A 
ATOM     46  N   UNL A   1      45.601  25.957  27.055  1.00  0.00    -0.354 N 
ATOM     47  C   UNL A   1      41.651  27.157  28.341  1.00  0.00     0.074 A 
ATOM     48  C   UNL A   1      40.725  26.046  28.284  1.00  0.00     0.031 C 
ATOM     49  C   UNL A   1      47.141  24.556  26.236  1.00  0.00     0.029 A 
ATOM     50  C   UNL A   1      46.912  25.939  26.647  1.00  0.00     0.049 A 
ATOM     51  H   UNL A   1      45.157  26.764  27.401  1.00  0.00     0.167 HD
ATOM     52  C   UNL A   1      41.321  28.407  28.746  1.00  0.00     0.037 A 
ATOM     53  C   UNL A   1      47.825  26.927  26.606  1.00  0.00     0.037 A 
ATOM     54  C   UNL A   1      42.254  29.500  28.834  1.00  0.00     0.049 A 
ATOM     55  C   UNL A   1      47.439  28.302  27.078  1.00  0.00     0.074 A 
ATOM     56  C   UNL A   1      42.036  30.784  29.301  1.00  0.00     0.029 A 
ATOM     57  N   UNL A   1      43.583  29.435  28.444  1.00  0.00    -0.354 N 
ATOM     58  N   UNL A   1      46.285  28.727  27.530  1.00  0.00    -0.248 NA
ATOM     59  C   UNL A   1      48.486  29.333  27.045  1.00  0.00     0.031 C 
ATOM     60  C   UNL A   1      43.224  31.507  29.157  1.00  0.00     0.029 A 
ATOM     61  C   UNL A   1      44.194  30.662  28.643  1.00  0.00     0.049 A 
ATOM     62  H   UNL A   1      44.028  28.634  28.081  1.00  0.00     0.167 HD
ATOM     63  C   UNL A   1      46.470  30.063  27.858  1.00  0.00     0.074 A 
ATOM     64  C   UNL A   1      47.854  30.375  27.566  1.00  0.00     0.031 C 
ATOM     65  C   UNL A   1      45.576  30.952  28.355  1.00  0.00     0.037 A 
BRANCH  52  66
ATOM     66  C   UNL A   1      39.893  28.658  29.130  1.00  0.00     0.064 A 
ATOM     67  C   UNL A   1      39.435  28.440  30.438  1.00  0.00     0.173 A 
ATOM     68  C   UNL A   1      38.979  29.152  28.188  1.00  0.00     0.173 A 
ATOM     69  F   UNL A   1      40.265  27.956  31.373  1.00  0.00    -0.203 F 
ATOM     70  C   UNL A   1      38.107  28.681  30.781  1.00  0.00     0.198 A 
ATOM     71  C   UNL A   1      37.659  29.421  28.542  1.00  0.00     0.198 A 
ATOM     72  F   UNL A   1      39.367  29.380  26.924  1.00  0.00    -0.203 F 
ATOM     73  F   UNL A   1      37.680  28.419  32.024  1.00  0.00    -0.200 F 
ATOM     74  C   UNL A   1      37.222  29.178  29.836  1.00  0.00     0.200 A 
ATOM     75  F   UNL A   1      36.808  29.910  27.630  1.00  0.00    -0.200 F 
ATOM     76  F   UNL A   1      35.947  29.415  30.169  1.00  0.00    -0.200 F 
ENDBRANCH  52  66
BRANCH  53  77
ATOM     77  C   UNL A   1      49.203  26.645  26.127  1.00  0.00     0.064 A 
ATOM     78  C   UNL A   1      49.575  26.924  24.804  1.00  0.00     0.173 A 
ATOM     79  C   UNL A   1      50.175  26.096  26.976  1.00  0.00     0.173 A 
ATOM     80  F   UNL A   1      48.675  27.432  23.949  1.00  0.00    -0.203 F 
ATOM     81  C   UNL A   1      50.861  26.647  24.344  1.00  0.00     0.198 A 
ATOM     82  C   UNL A   1      51.468  25.844  26.521  1.00  0.00     0.198 A 
ATOM     83  F   UNL A   1      49.870  25.818  28.252  1.00  0.00    -0.203 F 
ATOM     84  F   UNL A   1      51.177  26.885  23.064  1.00  0.00    -0.200 F 
ATOM     85  C   UNL A   1      51.807  26.113  25.204  1.00  0.00     0.200 A 
ATOM     86  F   UNL A   1      52.383  25.341  27.360  1.00  0.00    -0.200 F 
ATOM     87  F   UNL A   1      53.045  25.852  24.763  1.00  0.00    -0.200 F 
ENDBRANCH  53  77
BRANCH  65  88
ATOM     88  C   UNL A   1      46.072  32.338  28.644  1.00  0.00     0.064 A 
ATOM     89  C   UNL A   1      45.945  33.375  27.709  1.00  0.00     0.173 A 
ATOM     90  C   UNL A   1      46.640  32.641  29.891  1.00  0.00     0.173 A 
ATOM     91  F   UNL A   1      45.422  33.130  26.498  1.00  0.00    -0.203 F 
ATOM     92  C   UNL A   1      46.391  34.660  28.003  1.00  0.00     0.198 A 
ATOM     93  C   UNL A   1      47.057  33.933  30.192  1.00  0.00     0.198 A 
ATOM     94  F   UNL A   1      46.776  31.685  30.822  1.00  0.00    -0.203 F 
ATOM     95  F   UNL A   1      46.299  35.627  27.079  1.00  0.00    -0.200 F 
ATOM     96  C   UNL A   1      46.939  34.940  29.247  1.00  0.00     0.200 A 
ATOM     97  F   UNL A   1      47.574  34.205  31.399  1.00  0.00    -0.200 F 
ATOM     98  F   UNL A   1      47.358  36.181  29.531  1.00  0.00    -0.200 F 
ENDBRANCH  65  88
ENDBRANCH  39  40
ENDBRANCH  31  34
ENDBRANCH  29  30
ENDBRANCH  28  29
ENDBRANCH   1  28
TORSDOF 16
ENDMDL
MODEL 3
REMARK VINA RESULT:     -12.6      5.759     11.397
REMARK SMILES N#C/C(=C\c1ccc(Oc2ccccc2Cl)c([N+](=O)[O-])c1)C(=O)NCCCCNC(=O)c1ccc(-c2c3nc(c(-c4c(F)c(F)c(F)c(F)c4F)c4ccc([nH]4)c(-c4c(F)c(F)c(F)c(F)c4F)c4nc(c(-c5c(F)c(F)c(F)c(F)c5F)c5ccc2[nH]5)C=C4)C=C3)cc1
REMARK SMILES IDX 26 1 25 2 24 3 22 4 23 5 3 7 4 8 2 9 1 10 5 11 6 12 21 13
REMARK SMILES IDX 7 14 17 15 8 16 18 17 19 18 20 19 9 20 10 21 11 22 15 23
REMARK SMILES IDX 12 24 14 25 16 26 13 27 27 28 28 29 29 30 30 31 31 33 32 34
REMARK SMILES IDX 33 35 94 36 34 37 93 38 35 39 36 40 37 41 87 42 38 43 92 44
REMARK SMILES IDX 86 45 88 46 39 47 91 48 85 49 84 50 40 52 72 53 52 54 71 55
REMARK SMILES IDX 53 56 56 57 70 58 89 59 54 60 55 61 69 63 90 64 57 65 41 66
REMARK SMILES IDX 42 67 50 68 43 69 44 70 48 71 51 72 45 73 46 74 49 75 47 76
REMARK SMILES IDX 73 77 74 78 82 79 75 80 76 81 80 82 83 83 77 84 78 85 81 86
REMARK SMILES IDX 79 87 58 88 59 89 67 90 60 91 61 92 65 93 68 94 62 95 63 96
REMARK SMILES IDX 66 97 64 98
REMARK H PARENT 24 6 29 32 88 51 56 62
REMARK Flexibility Score: inf
ROOT
ATOM      1  C   UNL A   1      37.345  21.482  24.676  1.00  0.00     0.023 C 
ENDROOT
BRANCH   1   2
ATOM      2  C   UNL A   1      35.821  21.344  24.592  1.00  0.00     0.116 C 
BRANCH   2   3
ATOM      3  N   UNL A   1      35.227  21.210  25.908  1.00  0.00    -0.351 N 
ATOM      4  C   UNL A   1      34.295  21.943  26.577  1.00  0.00     0.261 C 
ATOM      5  O   UNL A   1      33.961  21.534  27.691  1.00  0.00    -0.268 OA
ATOM      6  H   UNL A   1      35.565  20.439  26.417  1.00  0.00     0.163 HD
BRANCH   4   7
ATOM      7  C   UNL A   1      33.674  23.183  26.033  1.00  0.00     0.117 C 
ATOM      8  C   UNL A   1      34.182  24.441  26.042  1.00  0.00     0.033 C 
BRANCH   7   9
ATOM      9  C   UNL A   1      32.216  23.101  25.612  1.00  0.00     0.105 C 
ATOM     10  N   UNL A   1      31.006  23.033  25.263  1.00  0.00    -0.192 NA
ENDBRANCH   7   9
BRANCH   8  11
ATOM     11  C   UNL A   1      33.500  25.659  25.537  1.00  0.00    -0.017 A 
ATOM     12  C   UNL A   1      32.668  26.384  26.395  1.00  0.00     0.012 A 
ATOM     13  C   UNL A   1      33.683  26.137  24.235  1.00  0.00     0.098 A 
ATOM     14  C   UNL A   1      32.062  27.575  25.965  1.00  0.00     0.055 A 
ATOM     15  C   UNL A   1      33.145  27.378  23.846  1.00  0.00     0.312 A 
ATOM     16  C   UNL A   1      32.290  28.100  24.682  1.00  0.00     0.204 A 
BRANCH  15  17
ATOM     17  N   UNL A   1      33.646  27.891  22.587  1.00  0.00     0.066 N 
ATOM     18  O   UNL A   1      33.654  27.116  21.624  1.00  0.00    -0.258 OA
ATOM     19  O   UNL A   1      33.962  29.089  22.557  1.00  0.00    -0.258 OA
ENDBRANCH  15  17
BRANCH  16  20
ATOM     20  O   UNL A   1      31.616  29.283  24.472  1.00  0.00    -0.449 OA
BRANCH  20  21
ATOM     21  C   UNL A   1      30.363  29.297  23.916  1.00  0.00     0.146 A 
ATOM     22  C   UNL A   1      29.956  28.107  23.303  1.00  0.00     0.049 A 
ATOM     23  C   UNL A   1      29.528  30.419  23.881  1.00  0.00     0.083 A 
ATOM     24  C   UNL A   1      28.681  28.004  22.751  1.00  0.00     0.004 A 
ATOM     25  C   UNL A   1      28.241  30.306  23.346  1.00  0.00     0.024 A 
ATOM     26  Cl  UNL A   1      30.028  31.953  24.497  1.00  0.00    -0.080 Cl
ATOM     27  C   UNL A   1      27.816  29.096  22.793  1.00  0.00     0.002 A 
ENDBRANCH  20  21
ENDBRANCH  16  20
ENDBRANCH   8  11
ENDBRANCH   4   7
ENDBRANCH   2   3
ENDBRANCH   1   2
BRANCH   1  28
ATOM     28  C   UNL A   1      38.086  20.183  24.997  1.00  0.00     0.023 C 
BRANCH  28  29
ATOM     29  C   UNL A   1      39.262  20.337  25.954  1.00  0.00     0.116 C 
BRANCH  29  30
ATOM     30  N   UNL A   1      40.168  19.199  25.955  1.00  0.00    -0.352 N 
ATOM     31  C   UNL A   1      41.533  19.205  26.135  1.00  0.00     0.251 C 
ATOM     32  H   UNL A   1      39.755  18.317  25.809  1.00  0.00     0.163 HD
ATOM     33  O   UNL A   1      42.184  18.178  26.023  1.00  0.00    -0.269 OA
BRANCH  31  34
ATOM     34  C   UNL A   1      42.203  20.491  26.415  1.00  0.00     0.039 A 
ATOM     35  C   UNL A   1      42.701  21.235  25.344  1.00  0.00     0.014 A 
ATOM     36  C   UNL A   1      42.279  20.983  27.720  1.00  0.00     0.014 A 
ATOM     37  C   UNL A   1      43.213  22.512  25.575  1.00  0.00     0.010 A 
ATOM     38  C   UNL A   1      42.724  22.282  27.939  1.00  0.00     0.010 A 
ATOM     39  C   UNL A   1      43.191  23.060  26.868  1.00  0.00    -0.014 A 
BRANCH  39  40
ATOM     40  C   UNL A   1      43.643  24.449  27.122  1.00  0.00     0.031 A 
ATOM     41  C   UNL A   1      42.667  25.478  27.617  1.00  0.00     0.074 A 
ATOM     42  C   UNL A   1      44.911  24.798  26.835  1.00  0.00     0.049 A 
ATOM     43  N   UNL A   1      42.850  26.757  27.828  1.00  0.00    -0.248 NA
ATOM     44  C   UNL A   1      41.296  25.015  27.881  1.00  0.00     0.031 C 
ATOM     45  C   UNL A   1      45.934  23.902  26.294  1.00  0.00     0.029 A 
ATOM     46  N   UNL A   1      45.553  26.006  26.944  1.00  0.00    -0.354 N 
ATOM     47  C   UNL A   1      41.616  27.251  28.228  1.00  0.00     0.074 A 
ATOM     48  C   UNL A   1      40.681  26.148  28.184  1.00  0.00     0.031 C 
ATOM     49  C   UNL A   1      47.079  24.584  26.136  1.00  0.00     0.029 A 
ATOM     50  C   UNL A   1      46.863  25.972  26.534  1.00  0.00     0.049 A 
ATOM     51  H   UNL A   1      45.116  26.820  27.284  1.00  0.00     0.167 HD
ATOM     52  C   UNL A   1      41.298  28.508  28.621  1.00  0.00     0.037 A 
ATOM     53  C   UNL A   1      47.784  26.953  26.481  1.00  0.00     0.037 A 
ATOM     54  C   UNL A   1      42.240  29.594  28.697  1.00  0.00     0.049 A 
ATOM     55  C   UNL A   1      47.411  28.336  26.941  1.00  0.00     0.074 A 
ATOM     56  C   UNL A   1      42.034  30.884  29.152  1.00  0.00     0.029 A 
ATOM     57  N   UNL A   1      43.568  29.514  28.305  1.00  0.00    -0.354 N 
ATOM     58  N   UNL A   1      46.261  28.775  27.391  1.00  0.00    -0.248 NA
ATOM     59  C   UNL A   1      48.466  29.357  26.895  1.00  0.00     0.031 C 
ATOM     60  C   UNL A   1      43.228  31.596  28.998  1.00  0.00     0.029 A 
ATOM     61  C   UNL A   1      44.189  30.737  28.490  1.00  0.00     0.049 A 
ATOM     62  H   UNL A   1      44.005  28.706  27.948  1.00  0.00     0.167 HD
ATOM     63  C   UNL A   1      46.459  30.112  27.705  1.00  0.00     0.074 A 
ATOM     64  C   UNL A   1      47.845  30.410  27.407  1.00  0.00     0.031 C 
ATOM     65  C   UNL A   1      45.573  31.013  28.196  1.00  0.00     0.037 A 
BRANCH  52  66
ATOM     66  C   UNL A   1      39.873  28.774  29.006  1.00  0.00     0.064 A 
ATOM     67  C   UNL A   1      38.926  29.206  28.065  1.00  0.00     0.173 A 
ATOM     68  C   UNL A   1      39.441  28.565  30.324  1.00  0.00     0.173 A 
ATOM     69  F   UNL A   1      39.291  29.434  26.795  1.00  0.00    -0.203 F 
ATOM     70  C   UNL A   1      37.605  29.445  28.436  1.00  0.00     0.198 A 
ATOM     71  C   UNL A   1      38.112  28.776  30.684  1.00  0.00     0.198 A 
ATOM     72  F   UNL A   1      40.305  28.150  31.261  1.00  0.00    -0.203 F 
ATOM     73  F   UNL A   1      36.730  29.904  27.530  1.00  0.00    -0.200 F 
ATOM     74  C   UNL A   1      37.197  29.222  29.742  1.00  0.00     0.200 A 
ATOM     75  F   UNL A   1      37.717  28.552  31.945  1.00  0.00    -0.200 F 
ATOM     76  F   UNL A   1      35.925  29.448  30.096  1.00  0.00    -0.200 F 
ENDBRANCH  52  66
BRANCH  53  77
ATOM     77  C   UNL A   1      49.158  26.654  26.001  1.00  0.00     0.064 A 
ATOM     78  C   UNL A   1      49.540  26.948  24.685  1.00  0.00     0.173 A 
ATOM     79  C   UNL A   1      50.118  26.076  26.845  1.00  0.00     0.173 A 
ATOM     80  F   UNL A   1      48.651  27.485  23.835  1.00  0.00    -0.203 F 
ATOM     81  C   UNL A   1      50.822  26.656  24.224  1.00  0.00     0.198 A 
ATOM     82  C   UNL A   1      51.408  25.808  26.390  1.00  0.00     0.198 A 
ATOM     83  F   UNL A   1      49.805  25.782  28.115  1.00  0.00    -0.203 F 
ATOM     84  F   UNL A   1      51.146  26.909  22.949  1.00  0.00    -0.200 F 
ATOM     85  C   UNL A   1      51.756  26.092  25.078  1.00  0.00     0.200 A 
ATOM     86  F   UNL A   1      52.312  25.277  27.224  1.00  0.00    -0.200 F 
ATOM     87  F   UNL A   1      52.991  25.817  24.636  1.00  0.00    -0.200 F 
ENDBRANCH  53  77
BRANCH  65  88
ATOM     88  C   UNL A   1      46.081  32.398  28.471  1.00  0.00     0.064 A 
ATOM     89  C   UNL A   1      46.661  32.738  29.701  1.00  0.00     0.173 A 
ATOM     90  C   UNL A   1      46.027  33.383  27.474  1.00  0.00     0.173 A 
ATOM     91  F   UNL A   1      46.721  31.833  30.691  1.00  0.00    -0.203 F 
ATOM     92  C   UNL A   1      47.147  34.021  29.932  1.00  0.00     0.198 A 
ATOM     93  C   UNL A   1      46.541  34.657  27.697  1.00  0.00     0.198 A 
ATOM     94  F   UNL A   1      45.489  33.106  26.277  1.00  0.00    -0.203 F 
ATOM     95  F   UNL A   1      47.658  34.336  31.130  1.00  0.00    -0.200 F 
ATOM     96  C   UNL A   1      47.094  34.977  28.927  1.00  0.00     0.200 A 
ATOM     97  F   UNL A   1      46.501  35.575  26.722  1.00  0.00    -0.200 F 
ATOM     98  F   UNL A   1      47.572  36.209  29.149  1.00  0.00    -0.200 F 
ENDBRANCH  65  88
ENDBRANCH  39  40
ENDBRANCH  31  34
ENDBRANCH  29  30
ENDBRANCH  28  29
ENDBRANCH   1  28
TORSDOF 16
ENDMDL
