MODEL 1
REMARK VINA RESULT:     -12.8      0.000      0.000
REMARK SMILES Cc1ccc2occ(/C=N/NC(=O)CCC(=O)Nc3ccc(C(=O)NCCCCNC(=O)c4ccc(-c5c6nc(c(-c7c(F)c(F)c(F)c(F)c7F)c7ccc([nH]7)c(-c7c(F)c(F)c(F)c(F)c7F)c7nc(c(-c8c(F)c(F)c(F)c(F)c8F)c8ccc5[nH]8)C=C7)C=C6)cc4)cc3)c(=O)c2c1
REMARK SMILES IDX 23 1 24 2 25 3 22 5 19 6 20 7 97 8 21 9 96 10 18 11 16 12
REMARK SMILES IDX 17 13 15 15 14 16 12 17 11 18 13 20 10 21 9 22 8 23 1 24
REMARK SMILES IDX 2 25 3 26 101 27 4 28 100 29 5 30 98 31 6 32 99 33 7 34
REMARK SMILES IDX 26 35 27 36 28 37 29 38 30 39 31 40 32 42 33 43 34 44 95 45
REMARK SMILES IDX 35 46 94 47 36 48 37 49 38 50 88 51 39 52 93 53 87 54 89 55
REMARK SMILES IDX 40 56 92 57 86 58 85 59 41 61 73 62 53 63 72 64 54 65 57 66
REMARK SMILES IDX 71 67 90 68 55 69 56 70 70 72 91 73 58 74 42 75 43 76 51 77
REMARK SMILES IDX 44 78 45 79 49 80 52 81 46 82 47 83 50 84 48 85 74 86 75 87
REMARK SMILES IDX 83 88 76 89 77 90 81 91 84 92 78 93 79 94 82 95 80 96 59 97
REMARK SMILES IDX 60 98 68 99 61 100 62 101 66 102 69 103 63 104 64 105 67 106
REMARK SMILES IDX 65 107
REMARK H PARENT 25 4 18 14 11 19 30 41 89 60 57 71
REMARK Flexibility Score: inf
ROOT
ATOM      1  C   UNL A   1      30.263  23.354  26.943  1.00  0.00     0.251 C 
ATOM      2  O   UNL A   1      29.424  22.716  27.577  1.00  0.00    -0.269 OA
ATOM      3  N   UNL A   1      29.974  24.665  26.610  1.00  0.00    -0.352 N 
ATOM      4  H   UNL A   1      29.065  24.943  26.868  1.00  0.00     0.163 HD
ENDROOT
BRANCH   1   5
ATOM      5  C   UNL A   1      31.555  22.701  26.602  1.00  0.00     0.039 A 
ATOM      6  C   UNL A   1      33.959  21.288  26.054  1.00  0.00     0.041 A 
ATOM      7  C   UNL A   1      33.024  21.510  25.040  1.00  0.00     0.027 A 
ATOM      8  C   UNL A   1      33.653  21.786  27.297  1.00  0.00     0.027 A 
ATOM      9  C   UNL A   1      31.807  22.176  25.324  1.00  0.00     0.016 A 
ATOM     10  C   UNL A   1      32.555  22.582  27.537  1.00  0.00     0.016 A 
BRANCH   6  11
ATOM     11  N   UNL A   1      35.209  20.698  25.788  1.00  0.00    -0.326 N 
ATOM     12  C   UNL A   1      36.425  21.244  25.447  1.00  0.00     0.224 C 
ATOM     13  O   UNL A   1      37.281  20.489  24.971  1.00  0.00    -0.275 OA
ATOM     14  H   UNL A   1      35.213  19.717  25.859  1.00  0.00     0.169 HD
BRANCH  12  15
ATOM     15  C   UNL A   1      36.797  22.692  25.765  1.00  0.00     0.110 C 
BRANCH  15  16
ATOM     16  C   UNL A   1      36.605  23.773  24.689  1.00  0.00     0.112 C 
BRANCH  16  17
ATOM     17  C   UNL A   1      35.911  23.408  23.371  1.00  0.00     0.240 C 
ATOM     18  N   UNL A   1      34.754  24.057  22.994  1.00  0.00    -0.247 N 
ATOM     19  H   UNL A   1      34.362  23.814  22.123  1.00  0.00     0.193 HD
ATOM     20  O   UNL A   1      36.421  22.594  22.595  1.00  0.00    -0.273 OA
BRANCH  18  21
ATOM     21  N   UNL A   1      34.110  25.005  23.725  1.00  0.00    -0.180 NA
ATOM     22  C   UNL A   1      33.921  26.099  23.060  1.00  0.00     0.148 C 
BRANCH  22  23
ATOM     23  C   UNL A   1      33.003  27.173  23.439  1.00  0.00     0.078 A 
ATOM     24  C   UNL A   1      27.231  29.303  22.468  1.00  0.00     0.044 C 
ATOM     25  C   UNL A   1      28.635  29.318  22.994  1.00  0.00    -0.050 A 
ATOM     26  C   UNL A   1      29.190  30.460  23.591  1.00  0.00     0.007 A 
ATOM     27  C   UNL A   1      29.410  28.164  22.888  1.00  0.00     0.019 A 
ATOM     28  C   UNL A   1      30.508  30.452  24.067  1.00  0.00     0.048 A 
ATOM     29  C   UNL A   1      30.732  28.178  23.332  1.00  0.00     0.066 A 
ATOM     30  C   UNL A   1      31.286  29.307  23.930  1.00  0.00     0.137 A 
ATOM     31  C   UNL A   1      31.583  27.018  23.087  1.00  0.00     0.201 A 
ATOM     32  O   UNL A   1      32.587  29.354  24.373  1.00  0.00    -0.463 OA
ATOM     33  O   UNL A   1      31.150  25.994  22.570  1.00  0.00    -0.288 OA
ATOM     34  C   UNL A   1      33.400  28.284  24.064  1.00  0.00     0.209 A 
ENDBRANCH  22  23
ENDBRANCH  18  21
ENDBRANCH  16  17
ENDBRANCH  15  16
ENDBRANCH  12  15
ENDBRANCH   6  11
ENDBRANCH   1   5
BRANCH   3  35
ATOM     35  C   UNL A   1      30.743  25.722  25.954  1.00  0.00     0.116 C 
BRANCH  35  36
ATOM     36  C   UNL A   1      31.918  26.198  26.827  1.00  0.00     0.023 C 
BRANCH  36  37
ATOM     37  C   UNL A   1      31.803  27.659  27.257  1.00  0.00     0.023 C 
BRANCH  37  38
ATOM     38  C   UNL A   1      33.150  28.332  27.491  1.00  0.00     0.116 C 
BRANCH  38  39
ATOM     39  N   UNL A   1      33.077  29.783  27.552  1.00  0.00    -0.352 N 
ATOM     40  C   UNL A   1      34.090  30.660  27.884  1.00  0.00     0.251 C 
ATOM     41  H   UNL A   1      32.206  30.186  27.332  1.00  0.00     0.163 HD
ATOM     42  O   UNL A   1      33.884  31.856  27.997  1.00  0.00    -0.269 OA
BRANCH  40  43
ATOM     43  C   UNL A   1      35.437  30.106  28.160  1.00  0.00     0.039 A 
ATOM     44  C   UNL A   1      36.387  30.107  27.137  1.00  0.00     0.014 A 
ATOM     45  C   UNL A   1      35.775  29.662  29.440  1.00  0.00     0.014 A 
ATOM     46  C   UNL A   1      37.704  29.739  27.421  1.00  0.00     0.010 A 
ATOM     47  C   UNL A   1      37.102  29.368  29.740  1.00  0.00     0.010 A 
ATOM     48  C   UNL A   1      38.081  29.412  28.735  1.00  0.00    -0.014 A 
BRANCH  48  49
ATOM     49  C   UNL A   1      39.496  29.129  29.086  1.00  0.00     0.031 A 
ATOM     50  C   UNL A   1      40.308  30.150  29.832  1.00  0.00     0.074 A 
ATOM     51  C   UNL A   1      40.073  27.988  28.659  1.00  0.00     0.049 A 
ATOM     52  N   UNL A   1      41.576  30.124  30.155  1.00  0.00    -0.248 NA
ATOM     53  C   UNL A   1      39.608  31.376  30.243  1.00  0.00     0.031 C 
ATOM     54  C   UNL A   1      39.408  26.943  27.880  1.00  0.00     0.029 A 
ATOM     55  N   UNL A   1      41.356  27.522  28.812  1.00  0.00    -0.354 N 
ATOM     56  C   UNL A   1      41.828  31.331  30.791  1.00  0.00     0.074 A 
ATOM     57  C   UNL A   1      40.596  32.091  30.762  1.00  0.00     0.031 C 
ATOM     58  C   UNL A   1      40.280  25.951  27.639  1.00  0.00     0.029 A 
ATOM     59  C   UNL A   1      41.574  26.304  28.215  1.00  0.00     0.049 A 
ATOM     60  H   UNL A   1      42.054  28.015  29.301  1.00  0.00     0.167 HD
ATOM     61  C   UNL A   1      42.976  31.760  31.367  1.00  0.00     0.037 A 
ATOM     62  C   UNL A   1      42.694  25.560  28.135  1.00  0.00     0.037 A 
ATOM     63  C   UNL A   1      44.192  30.990  31.421  1.00  0.00     0.049 A 
ATOM     64  C   UNL A   1      43.956  26.056  28.787  1.00  0.00     0.074 A 
ATOM     65  C   UNL A   1      45.387  31.310  32.039  1.00  0.00     0.029 A 
ATOM     66  N   UNL A   1      44.366  29.748  30.830  1.00  0.00    -0.354 N 
ATOM     67  N   UNL A   1      44.162  27.168  29.451  1.00  0.00    -0.248 NA
ATOM     68  C   UNL A   1      45.139  25.191  28.687  1.00  0.00     0.031 C 
ATOM     69  C   UNL A   1      46.299  30.279  31.788  1.00  0.00     0.029 A 
ATOM     70  C   UNL A   1      45.656  29.295  31.054  1.00  0.00     0.049 A 
ATOM     71  H   UNL A   1      43.675  29.259  30.327  1.00  0.00     0.167 HD
ATOM     72  C   UNL A   1      45.484  27.122  29.872  1.00  0.00     0.074 A 
ATOM     73  C   UNL A   1      46.031  25.868  29.397  1.00  0.00     0.031 C 
ATOM     74  C   UNL A   1      46.181  28.037  30.588  1.00  0.00     0.037 A 
BRANCH  61  75
ATOM     75  C   UNL A   1      42.971  33.123  31.994  1.00  0.00     0.064 A 
ATOM     76  C   UNL A   1      42.674  33.305  33.354  1.00  0.00     0.173 A 
ATOM     77  C   UNL A   1      43.300  34.257  31.239  1.00  0.00     0.173 A 
ATOM     78  F   UNL A   1      42.342  32.253  34.119  1.00  0.00    -0.203 F 
ATOM     79  C   UNL A   1      42.679  34.574  33.926  1.00  0.00     0.198 A 
ATOM     80  C   UNL A   1      43.334  35.522  31.821  1.00  0.00     0.198 A 
ATOM     81  F   UNL A   1      43.599  34.139  29.935  1.00  0.00    -0.203 F 
ATOM     82  F   UNL A   1      42.345  34.727  35.215  1.00  0.00    -0.200 F 
ATOM     83  C   UNL A   1      43.016  35.680  33.161  1.00  0.00     0.200 A 
ATOM     84  F   UNL A   1      43.672  36.589  31.083  1.00  0.00    -0.200 F 
ATOM     85  F   UNL A   1      43.027  36.901  33.714  1.00  0.00    -0.200 F 
ENDBRANCH  61  75
BRANCH  62  86
ATOM     86  C   UNL A   1      42.665  24.250  27.433  1.00  0.00     0.064 A 
ATOM     87  C   UNL A   1      43.002  24.155  26.077  1.00  0.00     0.173 A 
ATOM     88  C   UNL A   1      42.300  23.072  28.100  1.00  0.00     0.173 A 
ATOM     89  F   UNL A   1      43.337  25.259  25.391  1.00  0.00    -0.203 F 
ATOM     90  C   UNL A   1      42.956  22.934  25.406  1.00  0.00     0.198 A 
ATOM     91  C   UNL A   1      42.281  21.847  27.435  1.00  0.00     0.198 A 
ATOM     92  F   UNL A   1      41.973  23.108  29.400  1.00  0.00    -0.203 F 
ATOM     93  F   UNL A   1      43.241  22.880  24.098  1.00  0.00    -0.200 F 
ATOM     94  C   UNL A   1      42.602  21.781  26.087  1.00  0.00     0.200 A 
ATOM     95  F   UNL A   1      41.950  20.731  28.100  1.00  0.00    -0.200 F 
ATOM     96  F   UNL A   1      42.560  20.606  25.444  1.00  0.00    -0.200 F 
ENDBRANCH  62  86
BRANCH  74  97
ATOM     97  C   UNL A   1      47.600  27.702  30.943  1.00  0.00     0.064 A 
ATOM     98  C   UNL A   1      47.920  26.977  32.099  1.00  0.00     0.173 A 
ATOM     99  C   UNL A   1      48.648  28.066  30.083  1.00  0.00     0.173 A 
ATOM    100  F   UNL A   1      46.954  26.620  32.959  1.00  0.00    -0.203 F 
ATOM    101  C   UNL A   1      49.239  26.645  32.393  1.00  0.00     0.198 A 
ATOM    102  C   UNL A   1      49.963  27.708  30.366  1.00  0.00     0.198 A 
ATOM    103  F   UNL A   1      48.394  28.756  28.961  1.00  0.00    -0.203 F 
ATOM    104  F   UNL A   1      49.526  25.985  33.523  1.00  0.00    -0.200 F 
ATOM    105  C   UNL A   1      50.258  27.003  31.522  1.00  0.00     0.200 A 
ATOM    106  F   UNL A   1      50.944  28.044  29.517  1.00  0.00    -0.200 F 
ATOM    107  F   UNL A   1      51.527  26.672  31.801  1.00  0.00    -0.200 F 
ENDBRANCH  74  97
ENDBRANCH  48  49
ENDBRANCH  40  43
ENDBRANCH  38  39
ENDBRANCH  37  38
ENDBRANCH  36  37
ENDBRANCH  35  36
ENDBRANCH   3  35
TORSDOF 17
ENDMDL
MODEL 2
REMARK VINA RESULT:     -12.6      2.518      7.043
REMARK SMILES Cc1ccc2occ(/C=N/NC(=O)CCC(=O)Nc3ccc(C(=O)NCCCCNC(=O)c4ccc(-c5c6nc(c(-c7c(F)c(F)c(F)c(F)c7F)c7ccc([nH]7)c(-c7c(F)c(F)c(F)c(F)c7F)c7nc(c(-c8c(F)c(F)c(F)c(F)c8F)c8ccc5[nH]8)C=C7)C=C6)cc4)cc3)c(=O)c2c1
REMARK SMILES IDX 23 1 24 2 25 3 22 5 19 6 20 7 97 8 21 9 96 10 18 11 16 12
REMARK SMILES IDX 17 13 15 15 14 16 12 17 11 18 13 20 10 21 9 22 8 23 1 24
REMARK SMILES IDX 2 25 3 26 101 27 4 28 100 29 5 30 98 31 6 32 99 33 7 34
REMARK SMILES IDX 26 35 27 36 28 37 29 38 30 39 31 40 32 42 33 43 34 44 95 45
REMARK SMILES IDX 35 46 94 47 36 48 37 49 38 50 88 51 39 52 93 53 87 54 89 55
REMARK SMILES IDX 40 56 92 57 86 58 85 59 41 61 73 62 53 63 72 64 54 65 57 66
REMARK SMILES IDX 71 67 90 68 55 69 56 70 70 72 91 73 58 74 42 75 43 76 51 77
REMARK SMILES IDX 44 78 45 79 49 80 52 81 46 82 47 83 50 84 48 85 74 86 75 87
REMARK SMILES IDX 83 88 76 89 77 90 81 91 84 92 78 93 79 94 82 95 80 96 59 97
REMARK SMILES IDX 60 98 68 99 61 100 62 101 66 102 69 103 63 104 64 105 67 106
REMARK SMILES IDX 65 107
REMARK H PARENT 25 4 18 14 11 19 30 41 89 60 57 71
REMARK Flexibility Score: inf
ROOT
ATOM      1  C   UNL A   1      30.336  23.281  26.952  1.00  0.00     0.251 C 
ATOM      2  O   UNL A   1      29.525  22.657  27.633  1.00  0.00    -0.269 OA
ATOM      3  N   UNL A   1      30.029  24.581  26.596  1.00  0.00    -0.352 N 
ATOM      4  H   UNL A   1      29.129  24.863  26.880  1.00  0.00     0.163 HD
ENDROOT
BRANCH   1   5
ATOM      5  C   UNL A   1      31.618  22.624  26.581  1.00  0.00     0.039 A 
ATOM      6  C   UNL A   1      34.011  21.209  25.987  1.00  0.00     0.041 A 
ATOM      7  C   UNL A   1      33.020  21.359  25.014  1.00  0.00     0.027 A 
ATOM      8  C   UNL A   1      33.764  21.777  27.213  1.00  0.00     0.027 A 
ATOM      9  C   UNL A   1      31.809  22.026  25.324  1.00  0.00     0.016 A 
ATOM     10  C   UNL A   1      32.669  22.573  27.465  1.00  0.00     0.016 A 
BRANCH   6  11
ATOM     11  N   UNL A   1      35.253  20.619  25.688  1.00  0.00    -0.326 N 
ATOM     12  C   UNL A   1      36.468  21.167  25.347  1.00  0.00     0.224 C 
ATOM     13  O   UNL A   1      37.313  20.420  24.839  1.00  0.00    -0.275 OA
ATOM     14  H   UNL A   1      35.252  19.636  25.731  1.00  0.00     0.169 HD
BRANCH  12  15
ATOM     15  C   UNL A   1      36.854  22.603  25.700  1.00  0.00     0.110 C 
BRANCH  15  16
ATOM     16  C   UNL A   1      36.447  23.746  24.757  1.00  0.00     0.112 C 
BRANCH  16  17
ATOM     17  C   UNL A   1      35.824  23.413  23.396  1.00  0.00     0.240 C 
ATOM     18  N   UNL A   1      34.681  24.063  22.978  1.00  0.00    -0.247 N 
ATOM     19  H   UNL A   1      34.336  23.842  22.082  1.00  0.00     0.193 HD
ATOM     20  O   UNL A   1      36.380  22.626  22.623  1.00  0.00    -0.273 OA
BRANCH  18  21
ATOM     21  N   UNL A   1      33.992  24.984  23.702  1.00  0.00    -0.180 NA
ATOM     22  C   UNL A   1      33.876  26.114  23.083  1.00  0.00     0.148 C 
BRANCH  22  23
ATOM     23  C   UNL A   1      32.945  27.185  23.440  1.00  0.00     0.078 A 
ATOM     24  C   UNL A   1      27.164  29.251  22.389  1.00  0.00     0.044 C 
ATOM     25  C   UNL A   1      28.562  29.285  22.927  1.00  0.00    -0.050 A 
ATOM     26  C   UNL A   1      29.102  30.439  23.515  1.00  0.00     0.007 A 
ATOM     27  C   UNL A   1      29.349  28.137  22.843  1.00  0.00     0.019 A 
ATOM     28  C   UNL A   1      30.416  30.449  24.004  1.00  0.00     0.048 A 
ATOM     29  C   UNL A   1      30.666  28.168  23.299  1.00  0.00     0.066 A 
ATOM     30  C   UNL A   1      31.205  29.310  23.888  1.00  0.00     0.137 A 
ATOM     31  C   UNL A   1      31.529  27.012  23.077  1.00  0.00     0.201 A 
ATOM     32  O   UNL A   1      32.501  29.373  24.343  1.00  0.00    -0.463 OA
ATOM     33  O   UNL A   1      31.110  25.979  22.568  1.00  0.00    -0.288 OA
ATOM     34  C   UNL A   1      33.327  28.307  24.055  1.00  0.00     0.209 A 
ENDBRANCH  22  23
ENDBRANCH  18  21
ENDBRANCH  16  17
ENDBRANCH  15  16
ENDBRANCH  12  15
ENDBRANCH   6  11
ENDBRANCH   1   5
BRANCH   3  35
ATOM     35  C   UNL A   1      30.768  25.623  25.884  1.00  0.00     0.116 C 
BRANCH  35  36
ATOM     36  C   UNL A   1      31.729  26.381  26.818  1.00  0.00     0.023 C 
BRANCH  36  37
ATOM     37  C   UNL A   1      31.220  27.764  27.221  1.00  0.00     0.023 C 
BRANCH  37  38
ATOM     38  C   UNL A   1      32.331  28.729  27.615  1.00  0.00     0.116 C 
BRANCH  38  39
ATOM     39  N   UNL A   1      32.107  30.094  27.165  1.00  0.00    -0.352 N 
ATOM     40  C   UNL A   1      32.992  31.153  27.229  1.00  0.00     0.251 C 
ATOM     41  H   UNL A   1      31.226  30.285  26.771  1.00  0.00     0.163 HD
ATOM     42  O   UNL A   1      32.657  32.280  26.908  1.00  0.00    -0.269 OA
BRANCH  40  43
ATOM     43  C   UNL A   1      34.354  30.900  27.753  1.00  0.00     0.039 A 
ATOM     44  C   UNL A   1      35.076  31.966  28.294  1.00  0.00     0.014 A 
ATOM     45  C   UNL A   1      34.879  29.605  27.776  1.00  0.00     0.014 A 
ATOM     46  C   UNL A   1      36.291  31.718  28.936  1.00  0.00     0.010 A 
ATOM     47  C   UNL A   1      36.051  29.350  28.480  1.00  0.00     0.010 A 
ATOM     48  C   UNL A   1      36.765  30.402  29.074  1.00  0.00    -0.014 A 
BRANCH  48  49
ATOM     49  C   UNL A   1      37.995  30.101  29.851  1.00  0.00     0.031 A 
ATOM     50  C   UNL A   1      39.026  29.159  29.296  1.00  0.00     0.074 A 
ATOM     51  C   UNL A   1      38.143  30.612  31.089  1.00  0.00     0.049 A 
ATOM     52  N   UNL A   1      40.120  28.707  29.855  1.00  0.00    -0.248 NA
ATOM     53  C   UNL A   1      38.778  28.631  27.946  1.00  0.00     0.031 C 
ATOM     54  C   UNL A   1      37.187  31.494  31.761  1.00  0.00     0.029 A 
ATOM     55  N   UNL A   1      39.149  30.450  32.009  1.00  0.00    -0.354 N 
ATOM     56  C   UNL A   1      40.680  27.834  28.934  1.00  0.00     0.074 A 
ATOM     57  C   UNL A   1      39.781  27.776  27.802  1.00  0.00     0.031 C 
ATOM     58  C   UNL A   1      37.661  31.811  32.977  1.00  0.00     0.029 A 
ATOM     59  C   UNL A   1      38.935  31.129  33.185  1.00  0.00     0.049 A 
ATOM     60  H   UNL A   1      39.948  29.900  31.844  1.00  0.00     0.167 HD
ATOM     61  C   UNL A   1      41.851  27.157  29.014  1.00  0.00     0.037 A 
ATOM     62  C   UNL A   1      39.678  31.187  34.306  1.00  0.00     0.037 A 
ATOM     63  C   UNL A   1      42.759  27.239  30.129  1.00  0.00     0.049 A 
ATOM     64  C   UNL A   1      40.977  30.430  34.369  1.00  0.00     0.074 A 
ATOM     65  C   UNL A   1      43.999  26.645  30.275  1.00  0.00     0.029 A 
ATOM     66  N   UNL A   1      42.521  27.960  31.289  1.00  0.00    -0.354 N 
ATOM     67  N   UNL A   1      41.533  29.665  33.461  1.00  0.00    -0.248 NA
ATOM     68  C   UNL A   1      41.756  30.550  35.609  1.00  0.00     0.031 C 
ATOM     69  C   UNL A   1      44.495  26.972  31.542  1.00  0.00     0.029 A 
ATOM     70  C   UNL A   1      43.584  27.810  32.165  1.00  0.00     0.049 A 
ATOM     71  H   UNL A   1      41.716  28.500  31.465  1.00  0.00     0.167 HD
ATOM     72  C   UNL A   1      42.737  29.240  34.006  1.00  0.00     0.074 A 
ATOM     73  C   UNL A   1      42.836  29.838  35.320  1.00  0.00     0.031 C 
ATOM     74  C   UNL A   1      43.676  28.426  33.464  1.00  0.00     0.037 A 
BRANCH  61  75
ATOM     75  C   UNL A   1      42.222  26.273  27.861  1.00  0.00     0.064 A 
ATOM     76  C   UNL A   1      41.697  24.978  27.729  1.00  0.00     0.173 A 
ATOM     77  C   UNL A   1      43.084  26.736  26.856  1.00  0.00     0.173 A 
ATOM     78  F   UNL A   1      40.877  24.483  28.668  1.00  0.00    -0.203 F 
ATOM     79  C   UNL A   1      42.044  24.170  26.649  1.00  0.00     0.198 A 
ATOM     80  C   UNL A   1      43.405  25.937  25.762  1.00  0.00     0.198 A 
ATOM     81  F   UNL A   1      43.609  27.969  26.930  1.00  0.00    -0.203 F 
ATOM     82  F   UNL A   1      41.568  22.919  26.571  1.00  0.00    -0.200 F 
ATOM     83  C   UNL A   1      42.892  24.652  25.664  1.00  0.00     0.200 A 
ATOM     84  F   UNL A   1      44.215  26.409  24.804  1.00  0.00    -0.200 F 
ATOM     85  F   UNL A   1      43.221  23.876  24.622  1.00  0.00    -0.200 F 
ENDBRANCH  61  75
BRANCH  62  86
ATOM     86  C   UNL A   1      39.226  32.018  35.453  1.00  0.00     0.064 A 
ATOM     87  C   UNL A   1      39.594  33.367  35.551  1.00  0.00     0.173 A 
ATOM     88  C   UNL A   1      38.425  31.484  36.471  1.00  0.00     0.173 A 
ATOM     89  F   UNL A   1      40.378  33.917  34.611  1.00  0.00    -0.203 F 
ATOM     90  C   UNL A   1      39.193  34.146  36.634  1.00  0.00     0.198 A 
ATOM     91  C   UNL A   1      38.002  32.272  37.541  1.00  0.00     0.198 A 
ATOM     92  F   UNL A   1      38.042  30.200  36.423  1.00  0.00    -0.203 F 
ATOM     93  F   UNL A   1      39.596  35.421  36.724  1.00  0.00    -0.200 F 
ATOM     94  C   UNL A   1      38.393  33.600  37.625  1.00  0.00     0.200 A 
ATOM     95  F   UNL A   1      37.218  31.743  38.490  1.00  0.00    -0.200 F 
ATOM     96  F   UNL A   1      38.005  34.350  38.666  1.00  0.00    -0.200 F 
ENDBRANCH  62  86
BRANCH  74  97
ATOM     97  C   UNL A   1      44.914  28.167  34.270  1.00  0.00     0.064 A 
ATOM     98  C   UNL A   1      45.015  27.067  35.134  1.00  0.00     0.173 A 
ATOM     99  C   UNL A   1      46.034  29.001  34.134  1.00  0.00     0.173 A 
ATOM    100  F   UNL A   1      43.966  26.249  35.309  1.00  0.00    -0.203 F 
ATOM    101  C   UNL A   1      46.185  26.823  35.847  1.00  0.00     0.198 A 
ATOM    102  C   UNL A   1      47.211  28.739  34.828  1.00  0.00     0.198 A 
ATOM    103  F   UNL A   1      45.990  30.064  33.317  1.00  0.00    -0.203 F 
ATOM    104  F   UNL A   1      46.246  25.788  36.697  1.00  0.00    -0.200 F 
ATOM    105  C   UNL A   1      47.284  27.653  35.687  1.00  0.00     0.200 A 
ATOM    106  F   UNL A   1      48.277  29.535  34.662  1.00  0.00    -0.200 F 
ATOM    107  F   UNL A   1      48.414  27.410  36.367  1.00  0.00    -0.200 F 
ENDBRANCH  74  97
ENDBRANCH  48  49
ENDBRANCH  40  43
ENDBRANCH  38  39
ENDBRANCH  37  38
ENDBRANCH  36  37
ENDBRANCH  35  36
ENDBRANCH   3  35
TORSDOF 17
ENDMDL
MODEL 3
REMARK VINA RESULT:     -12.4      2.447      3.414
REMARK SMILES Cc1ccc2occ(/C=N/NC(=O)CCC(=O)Nc3ccc(C(=O)NCCCCNC(=O)c4ccc(-c5c6nc(c(-c7c(F)c(F)c(F)c(F)c7F)c7ccc([nH]7)c(-c7c(F)c(F)c(F)c(F)c7F)c7nc(c(-c8c(F)c(F)c(F)c(F)c8F)c8ccc5[nH]8)C=C7)C=C6)cc4)cc3)c(=O)c2c1
REMARK SMILES IDX 23 1 24 2 25 3 22 5 19 6 20 7 97 8 21 9 96 10 18 11 16 12
REMARK SMILES IDX 17 13 15 15 14 16 12 17 11 18 13 20 10 21 9 22 8 23 1 24
REMARK SMILES IDX 2 25 3 26 101 27 4 28 100 29 5 30 98 31 6 32 99 33 7 34
REMARK SMILES IDX 26 35 27 36 28 37 29 38 30 39 31 40 32 42 33 43 34 44 95 45
REMARK SMILES IDX 35 46 94 47 36 48 37 49 38 50 88 51 39 52 93 53 87 54 89 55
REMARK SMILES IDX 40 56 92 57 86 58 85 59 41 61 73 62 53 63 72 64 54 65 57 66
REMARK SMILES IDX 71 67 90 68 55 69 56 70 70 72 91 73 58 74 42 75 43 76 51 77
REMARK SMILES IDX 44 78 45 79 49 80 52 81 46 82 47 83 50 84 48 85 74 86 75 87
REMARK SMILES IDX 83 88 76 89 77 90 81 91 84 92 78 93 79 94 82 95 80 96 59 97
REMARK SMILES IDX 60 98 68 99 61 100 62 101 66 102 69 103 63 104 64 105 67 106
REMARK SMILES IDX 65 107
REMARK H PARENT 25 4 18 14 11 19 30 41 89 60 57 71
REMARK Flexibility Score: inf
ROOT
ATOM      1  C   UNL A   1      30.287  23.325  26.958  1.00  0.00     0.251 C 
ATOM      2  O   UNL A   1      29.466  22.701  27.628  1.00  0.00    -0.269 OA
ATOM      3  N   UNL A   1      29.989  24.629  26.607  1.00  0.00    -0.352 N 
ATOM      4  H   UNL A   1      29.087  24.914  26.885  1.00  0.00     0.163 HD
ENDROOT
BRANCH   1   5
ATOM      5  C   UNL A   1      31.569  22.665  26.593  1.00  0.00     0.039 A 
ATOM      6  C   UNL A   1      33.959  21.242  26.011  1.00  0.00     0.041 A 
ATOM      7  C   UNL A   1      32.982  21.413  25.027  1.00  0.00     0.027 A 
ATOM      8  C   UNL A   1      33.701  21.794  27.241  1.00  0.00     0.027 A 
ATOM      9  C   UNL A   1      31.772  22.084  25.331  1.00  0.00     0.016 A 
ATOM     10  C   UNL A   1      32.608  22.594  27.491  1.00  0.00     0.016 A 
BRANCH   6  11
ATOM     11  N   UNL A   1      35.201  20.648  25.720  1.00  0.00    -0.326 N 
ATOM     12  C   UNL A   1      36.419  21.191  25.383  1.00  0.00     0.224 C 
ATOM     13  O   UNL A   1      37.265  20.440  24.881  1.00  0.00    -0.275 OA
ATOM     14  H   UNL A   1      35.197  19.665  25.766  1.00  0.00     0.169 HD
BRANCH  12  15
ATOM     15  C   UNL A   1      36.808  22.628  25.733  1.00  0.00     0.110 C 
BRANCH  15  16
ATOM     16  C   UNL A   1      36.440  23.765  24.767  1.00  0.00     0.112 C 
BRANCH  16  17
ATOM     17  C   UNL A   1      35.827  23.424  23.403  1.00  0.00     0.240 C 
ATOM     18  N   UNL A   1      34.675  24.056  22.983  1.00  0.00    -0.247 N 
ATOM     19  H   UNL A   1      34.337  23.831  22.085  1.00  0.00     0.193 HD
ATOM     20  O   UNL A   1      36.399  22.648  22.631  1.00  0.00    -0.273 OA
BRANCH  18  21
ATOM     21  N   UNL A   1      33.968  24.964  23.706  1.00  0.00    -0.180 NA
ATOM     22  C   UNL A   1      33.903  26.117  23.124  1.00  0.00     0.148 C 
BRANCH  22  23
ATOM     23  C   UNL A   1      32.975  27.193  23.475  1.00  0.00     0.078 A 
ATOM     24  C   UNL A   1      27.214  29.292  22.383  1.00  0.00     0.044 C 
ATOM     25  C   UNL A   1      28.608  29.318  22.932  1.00  0.00    -0.050 A 
ATOM     26  C   UNL A   1      29.150  30.468  23.524  1.00  0.00     0.007 A 
ATOM     27  C   UNL A   1      29.389  28.166  22.852  1.00  0.00     0.019 A 
ATOM     28  C   UNL A   1      30.460  30.470  24.023  1.00  0.00     0.048 A 
ATOM     29  C   UNL A   1      30.703  28.189  23.318  1.00  0.00     0.066 A 
ATOM     30  C   UNL A   1      31.244  29.327  23.912  1.00  0.00     0.137 A 
ATOM     31  C   UNL A   1      31.561  27.029  23.101  1.00  0.00     0.201 A 
ATOM     32  O   UNL A   1      32.537  29.383  24.377  1.00  0.00    -0.463 OA
ATOM     33  O   UNL A   1      31.140  25.998  22.588  1.00  0.00    -0.288 OA
ATOM     34  C   UNL A   1      33.358  28.313  24.093  1.00  0.00     0.209 A 
ENDBRANCH  22  23
ENDBRANCH  18  21
ENDBRANCH  16  17
ENDBRANCH  15  16
ENDBRANCH  12  15
ENDBRANCH   6  11
ENDBRANCH   1   5
BRANCH   3  35
ATOM     35  C   UNL A   1      30.738  25.673  25.908  1.00  0.00     0.116 C 
BRANCH  35  36
ATOM     36  C   UNL A   1      31.703  26.412  26.853  1.00  0.00     0.023 C 
BRANCH  36  37
ATOM     37  C   UNL A   1      31.246  27.825  27.205  1.00  0.00     0.023 C 
BRANCH  37  38
ATOM     38  C   UNL A   1      32.380  28.740  27.648  1.00  0.00     0.116 C 
BRANCH  38  39
ATOM     39  N   UNL A   1      32.218  30.122  27.226  1.00  0.00    -0.352 N 
ATOM     40  C   UNL A   1      33.153  31.136  27.299  1.00  0.00     0.251 C 
ATOM     41  H   UNL A   1      31.343  30.362  26.844  1.00  0.00     0.163 HD
ATOM     42  O   UNL A   1      32.869  32.284  27.002  1.00  0.00    -0.269 OA
BRANCH  40  43
ATOM     43  C   UNL A   1      34.507  30.809  27.805  1.00  0.00     0.039 A 
ATOM     44  C   UNL A   1      35.248  31.808  28.439  1.00  0.00     0.014 A 
ATOM     45  C   UNL A   1      35.003  29.506  27.718  1.00  0.00     0.014 A 
ATOM     46  C   UNL A   1      36.454  31.479  29.062  1.00  0.00     0.010 A 
ATOM     47  C   UNL A   1      36.165  29.165  28.402  1.00  0.00     0.010 A 
ATOM     48  C   UNL A   1      36.898  30.146  29.088  1.00  0.00    -0.014 A 
BRANCH  48  49
ATOM     49  C   UNL A   1      38.116  29.752  29.841  1.00  0.00     0.031 A 
ATOM     50  C   UNL A   1      38.365  30.302  31.216  1.00  0.00     0.074 A 
ATOM     51  C   UNL A   1      39.038  28.963  29.252  1.00  0.00     0.049 A 
ATOM     52  N   UNL A   1      39.405  30.144  31.996  1.00  0.00    -0.248 NA
ATOM     53  C   UNL A   1      37.320  31.170  31.778  1.00  0.00     0.031 C 
ATOM     54  C   UNL A   1      38.938  28.410  27.900  1.00  0.00     0.029 A 
ATOM     55  N   UNL A   1      40.246  28.502  29.711  1.00  0.00    -0.354 N 
ATOM     56  C   UNL A   1      39.146  30.903  33.128  1.00  0.00     0.074 A 
ATOM     57  C   UNL A   1      37.877  31.564  32.915  1.00  0.00     0.031 C 
ATOM     58  C   UNL A   1      40.029  27.669  27.647  1.00  0.00     0.029 A 
ATOM     59  C   UNL A   1      40.920  27.722  28.802  1.00  0.00     0.049 A 
ATOM     60  H   UNL A   1      40.598  28.710  30.607  1.00  0.00     0.167 HD
ATOM     61  C   UNL A   1      39.889  31.021  34.254  1.00  0.00     0.037 A 
ATOM     62  C   UNL A   1      42.124  27.125  28.889  1.00  0.00     0.037 A 
ATOM     63  C   UNL A   1      41.137  30.339  34.477  1.00  0.00     0.049 A 
ATOM     64  C   UNL A   1      42.927  27.268  30.153  1.00  0.00     0.074 A 
ATOM     65  C   UNL A   1      41.931  30.342  35.610  1.00  0.00     0.029 A 
ATOM     66  N   UNL A   1      41.774  29.535  33.544  1.00  0.00    -0.354 N 
ATOM     67  N   UNL A   1      42.638  27.928  31.247  1.00  0.00    -0.248 NA
ATOM     68  C   UNL A   1      44.223  26.575  30.197  1.00  0.00     0.031 C 
ATOM     69  C   UNL A   1      43.069  29.571  35.349  1.00  0.00     0.029 A 
ATOM     70  C   UNL A   1      42.961  29.050  34.069  1.00  0.00     0.049 A 
ATOM     71  H   UNL A   1      41.433  29.336  32.641  1.00  0.00     0.167 HD
ATOM     72  C   UNL A   1      43.695  27.706  32.119  1.00  0.00     0.074 A 
ATOM     73  C   UNL A   1      44.631  26.843  31.430  1.00  0.00     0.031 C 
ATOM     74  C   UNL A   1      43.874  28.177  33.377  1.00  0.00     0.037 A 
BRANCH  61  75
ATOM     75  C   UNL A   1      39.367  31.916  35.339  1.00  0.00     0.064 A 
ATOM     76  C   UNL A   1      39.677  33.285  35.376  1.00  0.00     0.173 A 
ATOM     77  C   UNL A   1      38.518  31.410  36.334  1.00  0.00     0.173 A 
ATOM     78  F   UNL A   1      40.493  33.816  34.454  1.00  0.00    -0.203 F 
ATOM     79  C   UNL A   1      39.180  34.106  36.384  1.00  0.00     0.198 A 
ATOM     80  C   UNL A   1      37.998  32.241  37.324  1.00  0.00     0.198 A 
ATOM     81  F   UNL A   1      38.184  30.110  36.343  1.00  0.00    -0.203 F 
ATOM     82  F   UNL A   1      39.530  35.399  36.425  1.00  0.00    -0.200 F 
ATOM     83  C   UNL A   1      38.337  33.585  37.353  1.00  0.00     0.200 A 
ATOM     84  F   UNL A   1      37.173  31.738  38.253  1.00  0.00    -0.200 F 
ATOM     85  F   UNL A   1      37.853  34.378  38.320  1.00  0.00    -0.200 F 
ENDBRANCH  61  75
BRANCH  62  86
ATOM     86  C   UNL A   1      42.631  26.311  27.753  1.00  0.00     0.064 A 
ATOM     87  C   UNL A   1      42.276  24.962  27.622  1.00  0.00     0.173 A 
ATOM     88  C   UNL A   1      43.479  26.860  26.781  1.00  0.00     0.173 A 
ATOM     89  F   UNL A   1      41.484  24.387  28.539  1.00  0.00    -0.203 F 
ATOM     90  C   UNL A   1      42.765  24.186  26.573  1.00  0.00     0.198 A 
ATOM     91  C   UNL A   1      43.947  26.091  25.717  1.00  0.00     0.198 A 
ATOM     92  F   UNL A   1      43.845  28.149  26.858  1.00  0.00    -0.203 F 
ATOM     93  F   UNL A   1      42.444  22.887  26.497  1.00  0.00    -0.200 F 
ATOM     94  C   UNL A   1      43.595  24.753  25.618  1.00  0.00     0.200 A 
ATOM     95  F   UNL A   1      44.738  26.645  24.789  1.00  0.00    -0.200 F 
ATOM     96  F   UNL A   1      44.063  24.008  24.607  1.00  0.00    -0.200 F 
ENDBRANCH  62  86
BRANCH  74  97
ATOM     97  C   UNL A   1      45.105  27.736  34.111  1.00  0.00     0.064 A 
ATOM     98  C   UNL A   1      45.129  26.556  34.868  1.00  0.00     0.173 A 
ATOM     99  C   UNL A   1      46.293  28.477  34.011  1.00  0.00     0.173 A 
ATOM    100  F   UNL A   1      44.015  25.821  35.007  1.00  0.00    -0.203 F 
ATOM    101  C   UNL A   1      46.292  26.144  35.514  1.00  0.00     0.198 A 
ATOM    102  C   UNL A   1      47.460  28.047  34.634  1.00  0.00     0.198 A 
ATOM    103  F   UNL A   1      46.324  29.610  33.294  1.00  0.00    -0.203 F 
ATOM    104  F   UNL A   1      46.281  25.033  36.264  1.00  0.00    -0.200 F 
ATOM    105  C   UNL A   1      47.458  26.885  35.390  1.00  0.00     0.200 A 
ATOM    106  F   UNL A   1      48.589  28.757  34.502  1.00  0.00    -0.200 F 
ATOM    107  F   UNL A   1      48.579  26.480  36.002  1.00  0.00    -0.200 F 
ENDBRANCH  74  97
ENDBRANCH  48  49
ENDBRANCH  40  43
ENDBRANCH  38  39
ENDBRANCH  37  38
ENDBRANCH  36  37
ENDBRANCH  35  36
ENDBRANCH   3  35
TORSDOF 17
ENDMDL
