MODEL 1
REMARK VINA RESULT:     -11.0      0.000      0.000
REMARK SMILES CCC[N@H+](CC)[C@H]1CC[C@]([NH2+]C)(C(=O)NCCCCNC(=O)c2ccc(-c3c4nc(c(-c5c(F)c(F)c(F)c(F)c5F)c5ccc([nH]5)c(-c5c(F)c(F)c(F)c(F)c5F)c5nc(c(-c6c(F)c(F)c(F)c(F)c6F)c6ccc3[nH]6)C=C5)C=C4)cc2)C1
REMARK SMILES IDX 17 1 16 2 15 3 13 4 14 5 10 7 7 8 8 9 86 10 9 11 4 12 3 14
REMARK SMILES IDX 2 15 1 16 5 17 6 18 11 19 12 20 18 23 19 24 20 25 21 26
REMARK SMILES IDX 22 28 23 29 24 30 85 31 25 32 84 33 26 34 27 35 28 36 78 37
REMARK SMILES IDX 29 38 83 39 77 40 79 41 30 42 82 43 76 44 75 45 31 47 63 48
REMARK SMILES IDX 43 49 62 50 44 51 47 52 61 53 80 54 45 55 46 56 60 58 81 59
REMARK SMILES IDX 48 60 32 61 33 62 41 63 34 64 35 65 39 66 42 67 36 68 37 69
REMARK SMILES IDX 40 70 38 71 64 72 65 73 73 74 66 75 67 76 71 77 74 78 68 79
REMARK SMILES IDX 69 80 72 81 70 82 49 83 50 84 58 85 51 86 52 87 56 88 59 89
REMARK SMILES IDX 53 90 54 91 57 92 55 93
REMARK H PARENT 15 6 4 13 11 21 11 22 20 27 79 46 47 57
REMARK Flexibility Score: inf
ROOT
ATOM      1  C   UNL A   1      31.787  30.234  26.747  1.00  0.00     0.023 C 
ENDROOT
BRANCH   1   2
ATOM      2  C   UNL A   1      32.568  29.619  25.593  1.00  0.00     0.116 C 
BRANCH   2   3
ATOM      3  N   UNL A   1      31.872  29.734  24.329  1.00  0.00    -0.351 N 
ATOM      4  C   UNL A   1      31.529  28.827  23.374  1.00  0.00     0.281 C 
ATOM      5  O   UNL A   1      31.013  29.337  22.371  1.00  0.00    -0.268 OA
ATOM      6  H   UNL A   1      31.592  30.653  24.117  1.00  0.00     0.163 HD
BRANCH   4   7
ATOM      7  C   UNL A   1      31.812  27.287  23.494  1.00  0.00     0.181 C 
ATOM      8  C   UNL A   1      33.579  25.687  22.709  1.00  0.00     0.191 C 
ATOM      9  C   UNL A   1      32.556  25.940  21.578  1.00  0.00     0.072 C 
ATOM     10  C   UNL A   1      33.294  26.890  23.634  1.00  0.00     0.144 C 
ATOM     11  C   UNL A   1      31.327  26.570  22.217  1.00  0.00     0.085 C 
BRANCH   8  12
ATOM     12  N   UNL A   1      33.540  24.378  23.435  1.00  0.00    -0.333 N 
ATOM     13  H   UNL A   1      33.018  24.532  24.298  1.00  0.00     0.348 HD
BRANCH  12  14
ATOM     14  C   UNL A   1      34.922  23.897  23.754  1.00  0.00     0.262 C 
BRANCH  14  15
ATOM     15  C   UNL A   1      35.441  23.996  25.197  1.00  0.00     0.058 C 
ATOM     16  C   UNL A   1      36.944  23.774  25.312  1.00  0.00     0.010 C 
ENDBRANCH  14  15
ENDBRANCH  12  14
BRANCH  12  17
ATOM     17  C   UNL A   1      32.872  23.335  22.607  1.00  0.00     0.258 C 
ATOM     18  C   UNL A   1      32.728  21.958  23.260  1.00  0.00     0.071 C 
ENDBRANCH  12  17
ENDBRANCH   8  12
BRANCH   7  19
ATOM     19  N   UNL A   1      31.037  26.690  24.629  1.00  0.00    -0.336 N 
ATOM     20  C   UNL A   1      29.684  26.257  24.286  1.00  0.00     0.331 C 
ATOM     21  H   UNL A   1      30.968  27.388  25.369  1.00  0.00     0.346 HD
ATOM     22  H   UNL A   1      31.544  25.851  24.912  1.00  0.00     0.346 HD
ENDBRANCH   7  19
ENDBRANCH   4   7
ENDBRANCH   2   3
ENDBRANCH   1   2
BRANCH   1  23
ATOM     23  C   UNL A   1      31.653  31.753  26.690  1.00  0.00     0.023 C 
BRANCH  23  24
ATOM     24  C   UNL A   1      32.837  32.524  27.259  1.00  0.00     0.116 C 
BRANCH  24  25
ATOM     25  N   UNL A   1      32.512  33.913  27.555  1.00  0.00    -0.352 N 
ATOM     26  C   UNL A   1      33.033  34.747  28.515  1.00  0.00     0.251 C 
ATOM     27  H   UNL A   1      31.817  34.312  26.983  1.00  0.00     0.163 HD
ATOM     28  O   UNL A   1      32.512  35.836  28.738  1.00  0.00    -0.269 OA
BRANCH  26  29
ATOM     29  C   UNL A   1      34.205  34.312  29.300  1.00  0.00     0.039 A 
ATOM     30  C   UNL A   1      34.003  33.680  30.529  1.00  0.00     0.014 A 
ATOM     31  C   UNL A   1      35.499  34.500  28.810  1.00  0.00     0.014 A 
ATOM     32  C   UNL A   1      35.097  33.160  31.224  1.00  0.00     0.010 A 
ATOM     33  C   UNL A   1      36.575  33.901  29.455  1.00  0.00     0.010 A 
ATOM     34  C   UNL A   1      36.386  33.223  30.668  1.00  0.00    -0.014 A 
BRANCH  34  35
ATOM     35  C   UNL A   1      37.551  32.589  31.339  1.00  0.00     0.031 A 
ATOM     36  C   UNL A   1      38.278  31.455  30.670  1.00  0.00     0.074 A 
ATOM     37  C   UNL A   1      37.911  32.988  32.575  1.00  0.00     0.049 A 
ATOM     38  N   UNL A   1      39.260  30.717  31.124  1.00  0.00    -0.248 NA
ATOM     39  C   UNL A   1      37.824  31.081  29.321  1.00  0.00     0.031 C 
ATOM     40  C   UNL A   1      37.256  34.045  33.350  1.00  0.00     0.029 A 
ATOM     41  N   UNL A   1      38.913  32.544  33.404  1.00  0.00    -0.354 N 
ATOM     42  C   UNL A   1      39.530  29.791  30.125  1.00  0.00     0.074 A 
ATOM     43  C   UNL A   1      38.570  30.016  29.066  1.00  0.00     0.031 C 
ATOM     44  C   UNL A   1      37.887  34.184  34.528  1.00  0.00     0.029 A 
ATOM     45  C   UNL A   1      38.961  33.200  34.611  1.00  0.00     0.049 A 
ATOM     46  H   UNL A   1      39.537  31.825  33.156  1.00  0.00     0.167 HD
ATOM     47  C   UNL A   1      40.510  28.858  30.080  1.00  0.00     0.037 A 
ATOM     48  C   UNL A   1      39.773  33.017  35.671  1.00  0.00     0.037 A 
ATOM     49  C   UNL A   1      41.478  28.651  31.124  1.00  0.00     0.049 A 
ATOM     50  C   UNL A   1      40.839  31.954  35.601  1.00  0.00     0.074 A 
ATOM     51  C   UNL A   1      42.536  27.761  31.154  1.00  0.00     0.029 A 
ATOM     52  N   UNL A   1      41.505  29.346  32.325  1.00  0.00    -0.354 N 
ATOM     53  N   UNL A   1      41.127  31.130  34.623  1.00  0.00    -0.248 NA
ATOM     54  C   UNL A   1      41.699  31.801  36.783  1.00  0.00     0.031 C 
ATOM     55  C   UNL A   1      43.176  27.883  32.392  1.00  0.00     0.029 A 
ATOM     56  C   UNL A   1      42.552  28.890  33.110  1.00  0.00     0.049 A 
ATOM     57  H   UNL A   1      40.874  30.057  32.581  1.00  0.00     0.167 HD
ATOM     58  C   UNL A   1      42.219  30.391  35.055  1.00  0.00     0.074 A 
ATOM     59  C   UNL A   1      42.553  30.872  36.378  1.00  0.00     0.031 C 
ATOM     60  C   UNL A   1      42.884  29.397  34.416  1.00  0.00     0.037 A 
BRANCH  47  61
ATOM     61  C   UNL A   1      40.597  27.996  28.854  1.00  0.00     0.064 A 
ATOM     62  C   UNL A   1      39.874  26.799  28.748  1.00  0.00     0.173 A 
ATOM     63  C   UNL A   1      41.364  28.399  27.750  1.00  0.00     0.173 A 
ATOM     64  F   UNL A   1      39.135  26.361  29.778  1.00  0.00    -0.203 F 
ATOM     65  C   UNL A   1      39.932  26.025  27.591  1.00  0.00     0.198 A 
ATOM     66  C   UNL A   1      41.394  27.640  26.583  1.00  0.00     0.198 A 
ATOM     67  F   UNL A   1      42.070  29.538  27.796  1.00  0.00    -0.203 F 
ATOM     68  F   UNL A   1      39.268  24.862  27.530  1.00  0.00    -0.200 F 
ATOM     69  C   UNL A   1      40.685  26.450  26.507  1.00  0.00     0.200 A 
ATOM     70  F   UNL A   1      42.110  28.059  25.530  1.00  0.00    -0.200 F 
ATOM     71  F   UNL A   1      40.728  25.712  25.389  1.00  0.00    -0.200 F 
ENDBRANCH  47  61
BRANCH  48  72
ATOM     72  C   UNL A   1      39.629  33.862  36.886  1.00  0.00     0.064 A 
ATOM     73  C   UNL A   1      38.828  33.449  37.962  1.00  0.00     0.173 A 
ATOM     74  C   UNL A   1      40.252  35.115  36.985  1.00  0.00     0.173 A 
ATOM     75  F   UNL A   1      38.194  32.269  37.908  1.00  0.00    -0.203 F 
ATOM     76  C   UNL A   1      38.628  34.270  39.069  1.00  0.00     0.198 A 
ATOM     77  C   UNL A   1      40.078  35.921  38.109  1.00  0.00     0.198 A 
ATOM     78  F   UNL A   1      41.033  35.558  35.990  1.00  0.00    -0.203 F 
ATOM     79  F   UNL A   1      37.804  33.876  40.051  1.00  0.00    -0.200 F 
ATOM     80  C   UNL A   1      39.255  35.504  39.144  1.00  0.00     0.200 A 
ATOM     81  F   UNL A   1      40.700  37.106  38.184  1.00  0.00    -0.200 F 
ATOM     82  F   UNL A   1      39.057  36.295  40.206  1.00  0.00    -0.200 F 
ENDBRANCH  48  72
BRANCH  60  83
ATOM     83  C   UNL A   1      44.073  28.801  35.113  1.00  0.00     0.064 A 
ATOM     84  C   UNL A   1      45.361  29.339  34.969  1.00  0.00     0.173 A 
ATOM     85  C   UNL A   1      43.913  27.701  35.969  1.00  0.00     0.173 A 
ATOM     86  F   UNL A   1      45.569  30.381  34.151  1.00  0.00    -0.203 F 
ATOM     87  C   UNL A   1      46.447  28.779  35.635  1.00  0.00     0.198 A 
ATOM     88  C   UNL A   1      44.996  27.165  36.660  1.00  0.00     0.198 A 
ATOM     89  F   UNL A   1      42.701  27.154  36.149  1.00  0.00    -0.203 F 
ATOM     90  F   UNL A   1      47.677  29.277  35.442  1.00  0.00    -0.200 F 
ATOM     91  C   UNL A   1      46.263  27.699  36.486  1.00  0.00     0.200 A 
ATOM     92  F   UNL A   1      44.812  26.133  37.494  1.00  0.00    -0.200 F 
ATOM     93  F   UNL A   1      47.309  27.168  37.133  1.00  0.00    -0.200 F 
ENDBRANCH  60  83
ENDBRANCH  34  35
ENDBRANCH  26  29
ENDBRANCH  24  25
ENDBRANCH  23  24
ENDBRANCH   1  23
TORSDOF 16
ENDMDL
MODEL 2
REMARK VINA RESULT:     -10.9      0.543      7.467
REMARK SMILES CCC[N@H+](CC)[C@H]1CC[C@]([NH2+]C)(C(=O)NCCCCNC(=O)c2ccc(-c3c4nc(c(-c5c(F)c(F)c(F)c(F)c5F)c5ccc([nH]5)c(-c5c(F)c(F)c(F)c(F)c5F)c5nc(c(-c6c(F)c(F)c(F)c(F)c6F)c6ccc3[nH]6)C=C5)C=C4)cc2)C1
REMARK SMILES IDX 17 1 16 2 15 3 13 4 14 5 10 7 7 8 8 9 86 10 9 11 4 12 3 14
REMARK SMILES IDX 2 15 1 16 5 17 6 18 11 19 12 20 18 23 19 24 20 25 21 26
REMARK SMILES IDX 22 28 23 29 24 30 85 31 25 32 84 33 26 34 27 35 28 36 78 37
REMARK SMILES IDX 29 38 83 39 77 40 79 41 30 42 82 43 76 44 75 45 31 47 63 48
REMARK SMILES IDX 43 49 62 50 44 51 47 52 61 53 80 54 45 55 46 56 60 58 81 59
REMARK SMILES IDX 48 60 32 61 33 62 41 63 34 64 35 65 39 66 42 67 36 68 37 69
REMARK SMILES IDX 40 70 38 71 64 72 65 73 73 74 66 75 67 76 71 77 74 78 68 79
REMARK SMILES IDX 69 80 72 81 70 82 49 83 50 84 58 85 51 86 52 87 56 88 59 89
REMARK SMILES IDX 53 90 54 91 57 92 55 93
REMARK H PARENT 15 6 4 13 11 21 11 22 20 27 79 46 47 57
REMARK Flexibility Score: inf
ROOT
ATOM      1  C   UNL A   1      31.336  30.726  26.612  1.00  0.00     0.023 C 
ENDROOT
BRANCH   1   2
ATOM      2  C   UNL A   1      32.114  29.983  25.534  1.00  0.00     0.116 C 
BRANCH   2   3
ATOM      3  N   UNL A   1      31.426  29.973  24.261  1.00  0.00    -0.351 N 
ATOM      4  C   UNL A   1      31.164  28.990  23.357  1.00  0.00     0.281 C 
ATOM      5  O   UNL A   1      30.622  29.401  22.323  1.00  0.00    -0.268 OA
ATOM      6  H   UNL A   1      31.079  30.854  23.995  1.00  0.00     0.163 HD
BRANCH   4   7
ATOM      7  C   UNL A   1      31.560  27.485  23.568  1.00  0.00     0.181 C 
ATOM      8  C   UNL A   1      33.151  25.851  22.518  1.00  0.00     0.191 C 
ATOM      9  C   UNL A   1      31.852  25.933  21.684  1.00  0.00     0.072 C 
ATOM     10  C   UNL A   1      33.048  27.150  23.347  1.00  0.00     0.144 C 
ATOM     11  C   UNL A   1      30.800  26.602  22.556  1.00  0.00     0.085 C 
BRANCH   8  12
ATOM     12  N   UNL A   1      33.384  24.641  23.369  1.00  0.00    -0.333 N 
ATOM     13  H   UNL A   1      32.535  24.494  23.916  1.00  0.00     0.348 HD
BRANCH  12  14
ATOM     14  C   UNL A   1      34.552  24.843  24.285  1.00  0.00     0.262 C 
BRANCH  14  15
ATOM     15  C   UNL A   1      34.474  24.331  25.732  1.00  0.00     0.058 C 
ATOM     16  C   UNL A   1      33.046  24.162  26.234  1.00  0.00     0.010 C 
ENDBRANCH  14  15
ENDBRANCH  12  14
BRANCH  12  17
ATOM     17  C   UNL A   1      33.666  23.447  22.524  1.00  0.00     0.258 C 
ATOM     18  C   UNL A   1      32.771  22.230  22.772  1.00  0.00     0.071 C 
ENDBRANCH  12  17
ENDBRANCH   8  12
BRANCH   7  19
ATOM     19  N   UNL A   1      31.150  27.010  24.928  1.00  0.00    -0.336 N 
ATOM     20  C   UNL A   1      29.889  26.273  24.966  1.00  0.00     0.331 C 
ATOM     21  H   UNL A   1      31.059  27.826  25.535  1.00  0.00     0.346 HD
ATOM     22  H   UNL A   1      31.873  26.359  25.235  1.00  0.00     0.346 HD
ENDBRANCH   7  19
ENDBRANCH   4   7
ENDBRANCH   2   3
ENDBRANCH   1   2
BRANCH   1  23
ATOM     23  C   UNL A   1      31.426  32.248  26.532  1.00  0.00     0.023 C 
BRANCH  23  24
ATOM     24  C   UNL A   1      32.612  32.860  27.266  1.00  0.00     0.116 C 
BRANCH  24  25
ATOM     25  N   UNL A   1      32.387  34.252  27.632  1.00  0.00    -0.352 N 
ATOM     26  C   UNL A   1      32.973  35.000  28.625  1.00  0.00     0.251 C 
ATOM     27  H   UNL A   1      31.715  34.725  27.089  1.00  0.00     0.163 HD
ATOM     28  O   UNL A   1      32.531  36.111  28.906  1.00  0.00    -0.269 OA
BRANCH  26  29
ATOM     29  C   UNL A   1      34.119  34.448  29.373  1.00  0.00     0.039 A 
ATOM     30  C   UNL A   1      33.889  33.799  30.588  1.00  0.00     0.014 A 
ATOM     31  C   UNL A   1      35.415  34.545  28.862  1.00  0.00     0.014 A 
ATOM     32  C   UNL A   1      34.949  33.171  31.245  1.00  0.00     0.010 A 
ATOM     33  C   UNL A   1      36.450  33.841  29.467  1.00  0.00     0.010 A 
ATOM     34  C   UNL A   1      36.228  33.146  30.665  1.00  0.00    -0.014 A 
BRANCH  34  35
ATOM     35  C   UNL A   1      37.349  32.399  31.294  1.00  0.00     0.031 A 
ATOM     36  C   UNL A   1      37.844  32.794  32.658  1.00  0.00     0.074 A 
ATOM     37  C   UNL A   1      37.962  31.411  30.612  1.00  0.00     0.049 A 
ATOM     38  N   UNL A   1      38.859  32.326  33.340  1.00  0.00    -0.248 NA
ATOM     39  C   UNL A   1      37.119  33.881  33.337  1.00  0.00     0.031 C 
ATOM     40  C   UNL A   1      37.607  30.965  29.262  1.00  0.00     0.029 A 
ATOM     41  N   UNL A   1      39.023  30.609  30.955  1.00  0.00    -0.354 N 
ATOM     42  C   UNL A   1      38.899  33.064  34.515  1.00  0.00     0.074 A 
ATOM     43  C   UNL A   1      37.848  34.054  34.430  1.00  0.00     0.031 C 
ATOM     44  C   UNL A   1      38.417  29.955  28.904  1.00  0.00     0.029 A 
ATOM     45  C   UNL A   1      39.376  29.711  29.976  1.00  0.00     0.049 A 
ATOM     46  H   UNL A   1      39.486  30.671  31.821  1.00  0.00     0.167 HD
ATOM     47  C   UNL A   1      39.718  32.910  35.582  1.00  0.00     0.037 A 
ATOM     48  C   UNL A   1      40.370  28.802  29.944  1.00  0.00     0.037 A 
ATOM     49  C   UNL A   1      40.748  31.910  35.674  1.00  0.00     0.049 A 
ATOM     50  C   UNL A   1      41.281  28.671  31.137  1.00  0.00     0.074 A 
ATOM     51  C   UNL A   1      41.601  31.646  36.730  1.00  0.00     0.029 A 
ATOM     52  N   UNL A   1      41.064  31.008  34.668  1.00  0.00    -0.354 N 
ATOM     53  N   UNL A   1      41.264  29.331  32.270  1.00  0.00    -0.248 NA
ATOM     54  C   UNL A   1      42.345  27.662  31.049  1.00  0.00     0.031 C 
ATOM     55  C   UNL A   1      42.465  30.615  36.348  1.00  0.00     0.029 A 
ATOM     56  C   UNL A   1      42.112  30.198  35.075  1.00  0.00     0.049 A 
ATOM     57  H   UNL A   1      40.611  30.952  33.796  1.00  0.00     0.167 HD
ATOM     58  C   UNL A   1      42.287  28.793  33.040  1.00  0.00     0.074 A 
ATOM     59  C   UNL A   1      42.895  27.742  32.252  1.00  0.00     0.031 C 
ATOM     60  C   UNL A   1      42.690  29.141  34.286  1.00  0.00     0.037 A 
BRANCH  47  61
ATOM     61  C   UNL A   1      39.525  33.837  36.748  1.00  0.00     0.064 A 
ATOM     62  C   UNL A   1      38.735  33.473  37.849  1.00  0.00     0.173 A 
ATOM     63  C   UNL A   1      40.181  35.076  36.792  1.00  0.00     0.173 A 
ATOM     64  F   UNL A   1      38.075  32.306  37.852  1.00  0.00    -0.203 F 
ATOM     65  C   UNL A   1      38.592  34.325  38.942  1.00  0.00     0.198 A 
ATOM     66  C   UNL A   1      40.062  35.911  37.900  1.00  0.00     0.198 A 
ATOM     67  F   UNL A   1      40.953  35.470  35.769  1.00  0.00    -0.203 F 
ATOM     68  F   UNL A   1      37.796  33.975  39.962  1.00  0.00    -0.200 F 
ATOM     69  C   UNL A   1      39.262  35.539  38.971  1.00  0.00     0.200 A 
ATOM     70  F   UNL A   1      40.722  37.077  37.934  1.00  0.00    -0.200 F 
ATOM     71  F   UNL A   1      39.135  36.350  40.029  1.00  0.00    -0.200 F 
ENDBRANCH  47  61
BRANCH  48  72
ATOM     72  C   UNL A   1      40.557  27.931  28.753  1.00  0.00     0.064 A 
ATOM     73  C   UNL A   1      41.394  28.322  27.697  1.00  0.00     0.173 A 
ATOM     74  C   UNL A   1      39.875  26.712  28.623  1.00  0.00     0.173 A 
ATOM     75  F   UNL A   1      42.052  29.489  27.763  1.00  0.00    -0.203 F 
ATOM     76  C   UNL A   1      41.513  27.547  26.545  1.00  0.00     0.198 A 
ATOM     77  C   UNL A   1      40.022  25.921  27.485  1.00  0.00     0.198 A 
ATOM     78  F   UNL A   1      39.067  26.286  29.604  1.00  0.00    -0.203 F 
ATOM     79  F   UNL A   1      42.268  27.980  25.526  1.00  0.00    -0.200 F 
ATOM     80  C   UNL A   1      40.831  26.346  26.441  1.00  0.00     0.200 A 
ATOM     81  F   UNL A   1      39.373  24.752  27.396  1.00  0.00    -0.200 F 
ATOM     82  F   UNL A   1      40.941  25.604  25.331  1.00  0.00    -0.200 F 
ENDBRANCH  48  72
BRANCH  60  83
ATOM     83  C   UNL A   1      43.806  28.344  34.900  1.00  0.00     0.064 A 
ATOM     84  C   UNL A   1      45.149  28.720  34.756  1.00  0.00     0.173 A 
ATOM     85  C   UNL A   1      43.520  27.211  35.677  1.00  0.00     0.173 A 
ATOM     86  F   UNL A   1      45.476  29.786  34.011  1.00  0.00    -0.203 F 
ATOM     87  C   UNL A   1      46.166  27.973  35.344  1.00  0.00     0.198 A 
ATOM     88  C   UNL A   1      44.537  26.487  36.291  1.00  0.00     0.198 A 
ATOM     89  F   UNL A   1      42.251  26.813  35.853  1.00  0.00    -0.203 F 
ATOM     90  F   UNL A   1      47.447  28.321  35.150  1.00  0.00    -0.200 F 
ATOM     91  C   UNL A   1      45.860  26.864  36.118  1.00  0.00     0.200 A 
ATOM     92  F   UNL A   1      44.237  25.426  37.052  1.00  0.00    -0.200 F 
ATOM     93  F   UNL A   1      46.841  26.153  36.691  1.00  0.00    -0.200 F 
ENDBRANCH  60  83
ENDBRANCH  34  35
ENDBRANCH  26  29
ENDBRANCH  24  25
ENDBRANCH  23  24
ENDBRANCH   1  23
TORSDOF 16
ENDMDL
MODEL 3
REMARK VINA RESULT:     -10.9      0.445      2.038
REMARK SMILES CCC[N@H+](CC)[C@H]1CC[C@]([NH2+]C)(C(=O)NCCCCNC(=O)c2ccc(-c3c4nc(c(-c5c(F)c(F)c(F)c(F)c5F)c5ccc([nH]5)c(-c5c(F)c(F)c(F)c(F)c5F)c5nc(c(-c6c(F)c(F)c(F)c(F)c6F)c6ccc3[nH]6)C=C5)C=C4)cc2)C1
REMARK SMILES IDX 17 1 16 2 15 3 13 4 14 5 10 7 7 8 8 9 86 10 9 11 4 12 3 14
REMARK SMILES IDX 2 15 1 16 5 17 6 18 11 19 12 20 18 23 19 24 20 25 21 26
REMARK SMILES IDX 22 28 23 29 24 30 85 31 25 32 84 33 26 34 27 35 28 36 78 37
REMARK SMILES IDX 29 38 83 39 77 40 79 41 30 42 82 43 76 44 75 45 31 47 63 48
REMARK SMILES IDX 43 49 62 50 44 51 47 52 61 53 80 54 45 55 46 56 60 58 81 59
REMARK SMILES IDX 48 60 32 61 33 62 41 63 34 64 35 65 39 66 42 67 36 68 37 69
REMARK SMILES IDX 40 70 38 71 64 72 65 73 73 74 66 75 67 76 71 77 74 78 68 79
REMARK SMILES IDX 69 80 72 81 70 82 49 83 50 84 58 85 51 86 52 87 56 88 59 89
REMARK SMILES IDX 53 90 54 91 57 92 55 93
REMARK H PARENT 15 6 4 13 11 21 11 22 20 27 79 46 47 57
REMARK Flexibility Score: inf
ROOT
ATOM      1  C   UNL A   1      31.653  30.531  26.688  1.00  0.00     0.023 C 
ENDROOT
BRANCH   1   2
ATOM      2  C   UNL A   1      32.446  29.964  25.518  1.00  0.00     0.116 C 
BRANCH   2   3
ATOM      3  N   UNL A   1      31.677  29.928  24.292  1.00  0.00    -0.351 N 
ATOM      4  C   UNL A   1      31.327  28.921  23.447  1.00  0.00     0.281 C 
ATOM      5  O   UNL A   1      30.731  29.310  22.434  1.00  0.00    -0.268 OA
ATOM      6  H   UNL A   1      31.341  30.810  24.014  1.00  0.00     0.163 HD
BRANCH   4   7
ATOM      7  C   UNL A   1      31.690  27.413  23.692  1.00  0.00     0.181 C 
ATOM      8  C   UNL A   1      33.502  25.830  22.973  1.00  0.00     0.191 C 
ATOM      9  C   UNL A   1      32.422  25.931  21.872  1.00  0.00     0.072 C 
ATOM     10  C   UNL A   1      33.195  27.099  23.800  1.00  0.00     0.144 C 
ATOM     11  C   UNL A   1      31.190  26.560  22.507  1.00  0.00     0.085 C 
BRANCH   8  12
ATOM     12  N   UNL A   1      33.558  24.593  23.815  1.00  0.00    -0.333 N 
ATOM     13  H   UNL A   1      33.107  24.816  24.703  1.00  0.00     0.348 HD
BRANCH  12  14
ATOM     14  C   UNL A   1      34.974  24.168  24.055  1.00  0.00     0.262 C 
BRANCH  14  15
ATOM     15  C   UNL A   1      35.547  22.975  23.275  1.00  0.00     0.058 C 
ATOM     16  C   UNL A   1      36.798  22.384  23.913  1.00  0.00     0.010 C 
ENDBRANCH  14  15
ENDBRANCH  12  14
BRANCH  12  17
ATOM     17  C   UNL A   1      32.848  23.467  23.145  1.00  0.00     0.258 C 
ATOM     18  C   UNL A   1      31.674  22.865  23.921  1.00  0.00     0.071 C 
ENDBRANCH  12  17
ENDBRANCH   8  12
BRANCH   7  19
ATOM     19  N   UNL A   1      30.993  26.887  24.909  1.00  0.00    -0.336 N 
ATOM     20  C   UNL A   1      29.781  26.118  24.636  1.00  0.00     0.331 C 
ATOM     21  H   UNL A   1      30.740  27.680  25.498  1.00  0.00     0.346 HD
ATOM     22  H   UNL A   1      31.645  26.243  25.358  1.00  0.00     0.346 HD
ENDBRANCH   7  19
ENDBRANCH   4   7
ENDBRANCH   2   3
ENDBRANCH   1   2
BRANCH   1  23
ATOM     23  C   UNL A   1      31.542  32.053  26.706  1.00  0.00     0.023 C 
BRANCH  23  24
ATOM     24  C   UNL A   1      32.720  32.776  27.347  1.00  0.00     0.116 C 
BRANCH  24  25
ATOM     25  N   UNL A   1      32.428  34.172  27.642  1.00  0.00    -0.352 N 
ATOM     26  C   UNL A   1      32.990  35.002  28.581  1.00  0.00     0.251 C 
ATOM     27  H   UNL A   1      31.724  34.580  27.087  1.00  0.00     0.163 HD
ATOM     28  O   UNL A   1      32.495  36.102  28.811  1.00  0.00    -0.269 OA
BRANCH  26  29
ATOM     29  C   UNL A   1      34.176  34.552  29.336  1.00  0.00     0.039 A 
ATOM     30  C   UNL A   1      34.003  34.003  30.608  1.00  0.00     0.014 A 
ATOM     31  C   UNL A   1      35.452  34.643  28.776  1.00  0.00     0.014 A 
ATOM     32  C   UNL A   1      35.102  33.466  31.282  1.00  0.00     0.010 A 
ATOM     33  C   UNL A   1      36.527  34.025  29.406  1.00  0.00     0.010 A 
ATOM     34  C   UNL A   1      36.364  33.429  30.665  1.00  0.00    -0.014 A 
BRANCH  34  35
ATOM     35  C   UNL A   1      37.527  32.774  31.318  1.00  0.00     0.031 A 
ATOM     36  C   UNL A   1      38.191  31.595  30.663  1.00  0.00     0.074 A 
ATOM     37  C   UNL A   1      37.942  33.197  32.529  1.00  0.00     0.049 A 
ATOM     38  N   UNL A   1      39.161  30.835  31.108  1.00  0.00    -0.248 NA
ATOM     39  C   UNL A   1      37.681  31.196  29.341  1.00  0.00     0.031 C 
ATOM     40  C   UNL A   1      37.350  34.299  33.291  1.00  0.00     0.029 A 
ATOM     41  N   UNL A   1      38.953  32.742  33.340  1.00  0.00    -0.354 N 
ATOM     42  C   UNL A   1      39.366  29.871  30.131  1.00  0.00     0.074 A 
ATOM     43  C   UNL A   1      38.380  30.098  29.096  1.00  0.00     0.031 C 
ATOM     44  C   UNL A   1      38.024  34.451  34.443  1.00  0.00     0.029 A 
ATOM     45  C   UNL A   1      39.065  33.431  34.524  1.00  0.00     0.049 A 
ATOM     46  H   UNL A   1      39.543  31.993  33.095  1.00  0.00     0.167 HD
ATOM     47  C   UNL A   1      40.310  28.901  30.084  1.00  0.00     0.037 A 
ATOM     48  C   UNL A   1      39.904  33.251  35.562  1.00  0.00     0.037 A 
ATOM     49  C   UNL A   1      41.304  28.691  31.103  1.00  0.00     0.049 A 
ATOM     50  C   UNL A   1      40.928  32.148  35.492  1.00  0.00     0.074 A 
ATOM     51  C   UNL A   1      42.330  27.764  31.128  1.00  0.00     0.029 A 
ATOM     52  N   UNL A   1      41.394  29.420  32.280  1.00  0.00    -0.354 N 
ATOM     53  N   UNL A   1      41.155  31.286  34.531  1.00  0.00    -0.248 NA
ATOM     54  C   UNL A   1      41.820  32.000  36.651  1.00  0.00     0.031 C 
ATOM     55  C   UNL A   1      43.014  27.900  32.340  1.00  0.00     0.029 A 
ATOM     56  C   UNL A   1      42.449  28.951  33.045  1.00  0.00     0.049 A 
ATOM     57  H   UNL A   1      40.797  30.161  32.533  1.00  0.00     0.167 HD
ATOM     58  C   UNL A   1      42.233  30.520  34.952  1.00  0.00     0.074 A 
ATOM     59  C   UNL A   1      42.627  31.029  36.248  1.00  0.00     0.031 C 
ATOM     60  C   UNL A   1      42.841  29.484  34.324  1.00  0.00     0.037 A 
BRANCH  47  61
ATOM     61  C   UNL A   1      40.326  28.000  28.883  1.00  0.00     0.064 A 
ATOM     62  C   UNL A   1      41.067  28.321  27.736  1.00  0.00     0.173 A 
ATOM     63  C   UNL A   1      39.640  26.776  28.900  1.00  0.00     0.173 A 
ATOM     64  F   UNL A   1      41.730  29.485  27.664  1.00  0.00    -0.203 F 
ATOM     65  C   UNL A   1      41.104  27.461  26.642  1.00  0.00     0.198 A 
ATOM     66  C   UNL A   1      39.706  25.904  27.816  1.00  0.00     0.198 A 
ATOM     67  F   UNL A   1      38.921  26.417  29.972  1.00  0.00    -0.203 F 
ATOM     68  F   UNL A   1      41.783  27.811  25.540  1.00  0.00    -0.200 F 
ATOM     69  C   UNL A   1      40.432  26.249  26.686  1.00  0.00     0.200 A 
ATOM     70  F   UNL A   1      39.068  24.726  27.866  1.00  0.00    -0.200 F 
ATOM     71  F   UNL A   1      40.480  25.416  25.638  1.00  0.00    -0.200 F 
ENDBRANCH  47  61
BRANCH  48  72
ATOM     72  C   UNL A   1      39.829  34.137  36.754  1.00  0.00     0.064 A 
ATOM     73  C   UNL A   1      40.614  35.297  36.842  1.00  0.00     0.173 A 
ATOM     74  C   UNL A   1      39.006  33.827  37.847  1.00  0.00     0.173 A 
ATOM     75  F   UNL A   1      41.433  35.627  35.833  1.00  0.00    -0.203 F 
ATOM     76  C   UNL A   1      40.605  36.089  37.988  1.00  0.00     0.198 A 
ATOM     77  C   UNL A   1      38.972  34.639  38.979  1.00  0.00     0.198 A 
ATOM     78  F   UNL A   1      38.230  32.734  37.815  1.00  0.00    -0.203 F 
ATOM     79  F   UNL A   1      41.415  37.154  38.069  1.00  0.00    -0.200 F 
ATOM     80  C   UNL A   1      39.782  35.762  39.055  1.00  0.00     0.200 A 
ATOM     81  F   UNL A   1      38.163  34.327  40.001  1.00  0.00    -0.200 F 
ATOM     82  F   UNL A   1      39.779  36.520  40.159  1.00  0.00    -0.200 F 
ENDBRANCH  48  72
BRANCH  60  83
ATOM     83  C   UNL A   1      44.032  28.867  35.001  1.00  0.00     0.064 A 
ATOM     84  C   UNL A   1      43.898  27.805  35.908  1.00  0.00     0.173 A 
ATOM     85  C   UNL A   1      45.327  29.320  34.705  1.00  0.00     0.173 A 
ATOM     86  F   UNL A   1      42.682  27.346  36.235  1.00  0.00    -0.203 F 
ATOM     87  C   UNL A   1      45.016  27.240  36.514  1.00  0.00     0.198 A 
ATOM     88  C   UNL A   1      46.444  28.729  35.288  1.00  0.00     0.198 A 
ATOM     89  F   UNL A   1      45.510  30.327  33.839  1.00  0.00    -0.203 F 
ATOM     90  F   UNL A   1      44.862  26.261  37.417  1.00  0.00    -0.200 F 
ATOM     91  C   UNL A   1      46.287  27.695  36.198  1.00  0.00     0.200 A 
ATOM     92  F   UNL A   1      47.671  29.160  34.968  1.00  0.00    -0.200 F 
ATOM     93  F   UNL A   1      47.362  27.142  36.776  1.00  0.00    -0.200 F 
ENDBRANCH  60  83
ENDBRANCH  34  35
ENDBRANCH  26  29
ENDBRANCH  24  25
ENDBRANCH  23  24
ENDBRANCH   1  23
TORSDOF 16
ENDMDL
