MODEL 1
REMARK VINA RESULT:     -12.0      0.000      0.000
REMARK SMILES CC[C@@H](C)[C@@H](NC(N)=O)C(=O)N1CCC[C@H](C(=O)NCCCCNC(=O)c2ccc(-c3c4nc(c(-c5c(F)c(F)c(F)c(F)c5F)c5ccc([nH]5)c(-c5c(F)c(F)c(F)c(F)c5F)c5nc(c(-c6c(F)c(F)c(F)c(F)c6F)c6ccc3[nH]6)C=C5)C=C4)cc2)C1
REMARK SMILES IDX 20 1 19 2 17 3 18 4 16 6 12 7 13 8 90 9 14 10 15 11 10 12
REMARK SMILES IDX 11 13 5 14 3 15 4 16 2 17 1 18 6 19 7 20 8 22 9 23 21 26
REMARK SMILES IDX 22 27 23 28 24 29 25 30 26 32 27 33 28 34 89 35 29 36 88 37
REMARK SMILES IDX 30 38 31 39 32 40 82 41 33 42 87 43 81 44 83 45 34 46 86 47
REMARK SMILES IDX 80 48 79 49 35 51 67 52 47 53 66 54 48 55 51 56 65 57 84 58
REMARK SMILES IDX 49 59 50 60 64 62 85 63 52 64 36 65 37 66 45 67 38 68 39 69
REMARK SMILES IDX 43 70 46 71 40 72 41 73 44 74 42 75 68 76 69 77 77 78 70 79
REMARK SMILES IDX 71 80 75 81 78 82 72 83 73 84 76 85 74 86 53 87 54 88 62 89
REMARK SMILES IDX 55 90 56 91 60 92 63 93 57 94 58 95 61 96 59 97
REMARK H PARENT 19 5 6 21 8 24 8 25 24 31 83 50 51 61
REMARK Flexibility Score: inf
ROOT
ATOM      1  C   UNL A   1      33.008  29.232  25.772  1.00  0.00     0.116 C 
ENDROOT
BRANCH   1   2
ATOM      2  N   UNL A   1      33.711  27.998  26.008  1.00  0.00    -0.356 N 
ATOM      3  C   UNL A   1      33.322  26.726  25.721  1.00  0.00     0.224 C 
ATOM      4  O   UNL A   1      34.227  25.886  25.628  1.00  0.00    -0.275 OA
ATOM      5  H   UNL A   1      34.593  28.085  26.436  1.00  0.00     0.163 HD
BRANCH   3   6
ATOM      6  C   UNL A   1      31.863  26.280  25.509  1.00  0.00     0.098 C 
ATOM      7  N   UNL A   1      31.586  23.823  25.860  1.00  0.00    -0.340 N 
ATOM      8  C   UNL A   1      31.077  23.604  24.508  1.00  0.00     0.119 C 
ATOM      9  C   UNL A   1      31.386  25.148  26.420  1.00  0.00     0.133 C 
ATOM     10  C   UNL A   1      31.422  24.709  23.504  1.00  0.00     0.022 C 
ATOM     11  C   UNL A   1      31.403  26.128  24.062  1.00  0.00     0.017 C 
BRANCH   7  12
ATOM     12  C   UNL A   1      32.328  22.812  26.474  1.00  0.00     0.245 C 
ATOM     13  O   UNL A   1      32.382  22.725  27.708  1.00  0.00    -0.272 OA
BRANCH  12  14
ATOM     14  C   UNL A   1      33.160  21.820  25.595  1.00  0.00     0.176 C 
BRANCH  14  15
ATOM     15  C   UNL A   1      34.589  22.299  25.223  1.00  0.00     0.018 C 
ATOM     16  C   UNL A   1      34.655  22.807  23.771  1.00  0.00     0.010 C 
BRANCH  15  17
ATOM     17  C   UNL A   1      35.678  21.218  25.435  1.00  0.00     0.002 C 
ATOM     18  C   UNL A   1      37.076  21.827  25.539  1.00  0.00     0.004 C 
ENDBRANCH  15  17
ENDBRANCH  14  15
BRANCH  14  19
ATOM     19  N   UNL A   1      33.185  20.521  26.287  1.00  0.00    -0.326 N 
ATOM     20  C   UNL A   1      32.719  19.382  25.695  1.00  0.00     0.312 C 
ATOM     21  H   UNL A   1      33.547  20.472  27.201  1.00  0.00     0.166 HD
ATOM     22  N   UNL A   1      32.926  18.274  26.444  1.00  0.00    -0.352 N 
ATOM     23  O   UNL A   1      32.126  19.308  24.636  1.00  0.00    -0.249 OA
ATOM     24  H   UNL A   1      33.407  18.343  27.300  1.00  0.00     0.161 HD
ATOM     25  H   UNL A   1      32.596  17.401  26.133  1.00  0.00     0.161 HD
ENDBRANCH  14  19
ENDBRANCH  12  14
ENDBRANCH   7  12
ENDBRANCH   3   6
ENDBRANCH   1   2
BRANCH   1  26
ATOM     26  C   UNL A   1      32.450  29.922  27.008  1.00  0.00     0.023 C 
BRANCH  26  27
ATOM     27  C   UNL A   1      32.121  31.392  26.803  1.00  0.00     0.023 C 
BRANCH  27  28
ATOM     28  C   UNL A   1      33.092  32.374  27.453  1.00  0.00     0.116 C 
BRANCH  28  29
ATOM     29  N   UNL A   1      32.579  33.729  27.618  1.00  0.00    -0.352 N 
ATOM     30  C   UNL A   1      33.015  34.697  28.498  1.00  0.00     0.251 C 
ATOM     31  H   UNL A   1      31.832  33.983  27.029  1.00  0.00     0.163 HD
ATOM     32  O   UNL A   1      32.446  35.777  28.609  1.00  0.00    -0.269 OA
BRANCH  30  33
ATOM     33  C   UNL A   1      34.176  34.385  29.358  1.00  0.00     0.039 A 
ATOM     34  C   UNL A   1      33.961  33.830  30.621  1.00  0.00     0.014 A 
ATOM     35  C   UNL A   1      35.471  34.525  28.853  1.00  0.00     0.014 A 
ATOM     36  C   UNL A   1      35.045  33.319  31.336  1.00  0.00     0.010 A 
ATOM     37  C   UNL A   1      36.529  33.918  29.516  1.00  0.00     0.010 A 
ATOM     38  C   UNL A   1      36.329  33.306  30.764  1.00  0.00    -0.014 A 
BRANCH  38  39
ATOM     39  C   UNL A   1      37.473  32.652  31.449  1.00  0.00     0.031 A 
ATOM     40  C   UNL A   1      38.167  31.484  30.804  1.00  0.00     0.074 A 
ATOM     41  C   UNL A   1      37.839  33.053  32.683  1.00  0.00     0.049 A 
ATOM     42  N   UNL A   1      39.141  30.739  31.265  1.00  0.00    -0.248 NA
ATOM     43  C   UNL A   1      37.674  31.074  29.480  1.00  0.00     0.031 C 
ATOM     44  C   UNL A   1      37.201  34.126  33.448  1.00  0.00     0.029 A 
ATOM     45  N   UNL A   1      38.831  32.598  33.517  1.00  0.00    -0.354 N 
ATOM     46  C   UNL A   1      39.359  29.767  30.297  1.00  0.00     0.074 A 
ATOM     47  C   UNL A   1      38.373  29.972  29.260  1.00  0.00     0.031 C 
ATOM     48  C   UNL A   1      37.834  34.266  34.623  1.00  0.00     0.029 A 
ATOM     49  C   UNL A   1      38.895  33.268  34.715  1.00  0.00     0.049 A 
ATOM     50  H   UNL A   1      39.439  31.861  33.278  1.00  0.00     0.167 HD
ATOM     51  C   UNL A   1      40.314  28.808  30.264  1.00  0.00     0.037 A 
ATOM     52  C   UNL A   1      39.714  33.093  35.772  1.00  0.00     0.037 A 
ATOM     53  C   UNL A   1      41.310  28.627  31.286  1.00  0.00     0.049 A 
ATOM     54  C   UNL A   1      40.775  32.028  35.708  1.00  0.00     0.074 A 
ATOM     55  C   UNL A   1      42.371  27.739  31.309  1.00  0.00     0.029 A 
ATOM     56  N   UNL A   1      41.360  29.343  32.475  1.00  0.00    -0.354 N 
ATOM     57  N   UNL A   1      41.033  31.173  34.747  1.00  0.00    -0.248 NA
ATOM     58  C   UNL A   1      41.665  31.908  36.871  1.00  0.00     0.031 C 
ATOM     59  C   UNL A   1      43.026  27.873  32.538  1.00  0.00     0.029 A 
ATOM     60  C   UNL A   1      42.416  28.892  33.253  1.00  0.00     0.049 A 
ATOM     61  H   UNL A   1      40.739  30.063  32.728  1.00  0.00     0.167 HD
ATOM     62  C   UNL A   1      42.127  30.432  35.177  1.00  0.00     0.074 A 
ATOM     63  C   UNL A   1      42.493  30.950  36.479  1.00  0.00     0.031 C 
ATOM     64  C   UNL A   1      42.769  29.416  34.549  1.00  0.00     0.037 A 
BRANCH  51  65
ATOM     65  C   UNL A   1      40.318  27.878  29.083  1.00  0.00     0.064 A 
ATOM     66  C   UNL A   1      41.042  28.166  27.915  1.00  0.00     0.173 A 
ATOM     67  C   UNL A   1      39.597  26.675  29.124  1.00  0.00     0.173 A 
ATOM     68  F   UNL A   1      41.741  29.308  27.817  1.00  0.00    -0.203 F 
ATOM     69  C   UNL A   1      41.007  27.309  26.818  1.00  0.00     0.198 A 
ATOM     70  C   UNL A   1      39.596  25.801  28.040  1.00  0.00     0.198 A 
ATOM     71  F   UNL A   1      38.893  26.345  30.216  1.00  0.00    -0.203 F 
ATOM     72  F   UNL A   1      41.651  27.640  25.690  1.00  0.00    -0.200 F 
ATOM     73  C   UNL A   1      40.289  26.124  26.884  1.00  0.00     0.200 A 
ATOM     74  F   UNL A   1      38.914  24.650  28.111  1.00  0.00    -0.200 F 
ATOM     75  F   UNL A   1      40.260  25.298  25.829  1.00  0.00    -0.200 F 
ENDBRANCH  51  65
BRANCH  52  76
ATOM     76  C   UNL A   1      39.574  33.966  36.967  1.00  0.00     0.064 A 
ATOM     77  C   UNL A   1      38.790  33.575  38.061  1.00  0.00     0.173 A 
ATOM     78  C   UNL A   1      40.228  35.205  37.045  1.00  0.00     0.173 A 
ATOM     79  F   UNL A   1      38.126  32.411  38.026  1.00  0.00    -0.203 F 
ATOM     80  C   UNL A   1      38.655  34.394  39.180  1.00  0.00     0.198 A 
ATOM     81  C   UNL A   1      40.117  36.009  38.178  1.00  0.00     0.198 A 
ATOM     82  F   UNL A   1      40.995  35.625  36.027  1.00  0.00    -0.203 F 
ATOM     83  F   UNL A   1      37.866  34.014  40.195  1.00  0.00    -0.200 F 
ATOM     84  C   UNL A   1      39.325  35.607  39.242  1.00  0.00     0.200 A 
ATOM     85  F   UNL A   1      40.780  37.172  38.238  1.00  0.00    -0.200 F 
ATOM     86  F   UNL A   1      39.203  36.389  40.322  1.00  0.00    -0.200 F 
ENDBRANCH  52  76
BRANCH  64  87
ATOM     87  C   UNL A   1      43.956  28.813  35.245  1.00  0.00     0.064 A 
ATOM     88  C   UNL A   1      43.822  27.744  36.143  1.00  0.00     0.173 A 
ATOM     89  C   UNL A   1      45.250  29.281  34.970  1.00  0.00     0.173 A 
ATOM     90  F   UNL A   1      42.606  27.269  36.450  1.00  0.00    -0.203 F 
ATOM     91  C   UNL A   1      44.938  27.185  36.762  1.00  0.00     0.198 A 
ATOM     92  C   UNL A   1      46.366  28.697  35.564  1.00  0.00     0.198 A 
ATOM     93  F   UNL A   1      45.436  30.295  34.112  1.00  0.00    -0.203 F 
ATOM     94  F   UNL A   1      44.781  26.199  37.656  1.00  0.00    -0.200 F 
ATOM     95  C   UNL A   1      46.208  27.656  36.465  1.00  0.00     0.200 A 
ATOM     96  F   UNL A   1      47.594  29.141  35.261  1.00  0.00    -0.200 F 
ATOM     97  F   UNL A   1      47.281  27.109  37.053  1.00  0.00    -0.200 F 
ENDBRANCH  64  87
ENDBRANCH  38  39
ENDBRANCH  30  33
ENDBRANCH  28  29
ENDBRANCH  27  28
ENDBRANCH  26  27
ENDBRANCH   1  26
TORSDOF 16
ENDMDL
MODEL 2
REMARK VINA RESULT:     -12.0      0.788      7.415
REMARK SMILES CC[C@@H](C)[C@@H](NC(N)=O)C(=O)N1CCC[C@H](C(=O)NCCCCNC(=O)c2ccc(-c3c4nc(c(-c5c(F)c(F)c(F)c(F)c5F)c5ccc([nH]5)c(-c5c(F)c(F)c(F)c(F)c5F)c5nc(c(-c6c(F)c(F)c(F)c(F)c6F)c6ccc3[nH]6)C=C5)C=C4)cc2)C1
REMARK SMILES IDX 20 1 19 2 17 3 18 4 16 6 12 7 13 8 90 9 14 10 15 11 10 12
REMARK SMILES IDX 11 13 5 14 3 15 4 16 2 17 1 18 6 19 7 20 8 22 9 23 21 26
REMARK SMILES IDX 22 27 23 28 24 29 25 30 26 32 27 33 28 34 89 35 29 36 88 37
REMARK SMILES IDX 30 38 31 39 32 40 82 41 33 42 87 43 81 44 83 45 34 46 86 47
REMARK SMILES IDX 80 48 79 49 35 51 67 52 47 53 66 54 48 55 51 56 65 57 84 58
REMARK SMILES IDX 49 59 50 60 64 62 85 63 52 64 36 65 37 66 45 67 38 68 39 69
REMARK SMILES IDX 43 70 46 71 40 72 41 73 44 74 42 75 68 76 69 77 77 78 70 79
REMARK SMILES IDX 71 80 75 81 78 82 72 83 73 84 76 85 74 86 53 87 54 88 62 89
REMARK SMILES IDX 55 90 56 91 60 92 63 93 57 94 58 95 61 96 59 97
REMARK H PARENT 19 5 6 21 8 24 8 25 24 31 83 50 51 61
REMARK Flexibility Score: inf
ROOT
ATOM      1  C   UNL A   1      32.360  29.193  25.547  1.00  0.00     0.116 C 
ENDROOT
BRANCH   1   2
ATOM      2  N   UNL A   1      33.306  28.107  25.539  1.00  0.00    -0.356 N 
ATOM      3  C   UNL A   1      33.070  26.771  25.429  1.00  0.00     0.224 C 
ATOM      4  O   UNL A   1      34.020  26.080  25.035  1.00  0.00    -0.275 OA
ATOM      5  H   UNL A   1      34.252  28.366  25.625  1.00  0.00     0.163 HD
BRANCH   3   6
ATOM      6  C   UNL A   1      31.731  26.085  25.756  1.00  0.00     0.098 C 
ATOM      7  N   UNL A   1      31.997  23.618  26.027  1.00  0.00    -0.340 N 
ATOM      8  C   UNL A   1      31.049  23.314  24.957  1.00  0.00     0.119 C 
ATOM      9  C   UNL A   1      31.822  24.891  26.705  1.00  0.00     0.133 C 
ATOM     10  C   UNL A   1      30.808  24.461  23.969  1.00  0.00     0.022 C 
ATOM     11  C   UNL A   1      30.781  25.857  24.582  1.00  0.00     0.017 C 
BRANCH   7  12
ATOM     12  C   UNL A   1      33.065  22.747  26.250  1.00  0.00     0.245 C 
ATOM     13  O   UNL A   1      33.880  22.961  27.156  1.00  0.00    -0.272 OA
BRANCH  12  14
ATOM     14  C   UNL A   1      33.277  21.524  25.296  1.00  0.00     0.176 C 
BRANCH  14  15
ATOM     15  C   UNL A   1      34.566  21.570  24.432  1.00  0.00     0.018 C 
ATOM     16  C   UNL A   1      35.797  21.095  25.227  1.00  0.00     0.010 C 
BRANCH  15  17
ATOM     17  C   UNL A   1      34.857  22.966  23.828  1.00  0.00     0.002 C 
ATOM     18  C   UNL A   1      33.951  23.273  22.635  1.00  0.00     0.004 C 
ENDBRANCH  15  17
ENDBRANCH  14  15
BRANCH  14  19
ATOM     19  N   UNL A   1      33.216  20.301  26.115  1.00  0.00    -0.326 N 
ATOM     20  C   UNL A   1      32.693  19.137  25.630  1.00  0.00     0.312 C 
ATOM     21  H   UNL A   1      33.559  20.324  27.036  1.00  0.00     0.166 HD
ATOM     22  N   UNL A   1      32.822  18.100  26.490  1.00  0.00    -0.352 N 
ATOM     23  O   UNL A   1      32.113  18.991  24.571  1.00  0.00    -0.249 OA
ATOM     24  H   UNL A   1      33.293  18.227  27.344  1.00  0.00     0.161 HD
ATOM     25  H   UNL A   1      32.447  17.220  26.260  1.00  0.00     0.161 HD
ENDBRANCH  14  19
ENDBRANCH  12  14
ENDBRANCH   7  12
ENDBRANCH   3   6
ENDBRANCH   1   2
BRANCH   1  26
ATOM     26  C   UNL A   1      32.151  29.877  26.890  1.00  0.00     0.023 C 
BRANCH  26  27
ATOM     27  C   UNL A   1      31.824  31.358  26.788  1.00  0.00     0.023 C 
BRANCH  27  28
ATOM     28  C   UNL A   1      32.928  32.303  27.256  1.00  0.00     0.116 C 
BRANCH  28  29
ATOM     29  N   UNL A   1      32.503  33.677  27.493  1.00  0.00    -0.352 N 
ATOM     30  C   UNL A   1      33.011  34.573  28.409  1.00  0.00     0.251 C 
ATOM     31  H   UNL A   1      31.765  34.004  26.929  1.00  0.00     0.163 HD
ATOM     32  O   UNL A   1      32.512  35.679  28.581  1.00  0.00    -0.269 OA
BRANCH  30  33
ATOM     33  C   UNL A   1      34.163  34.149  29.234  1.00  0.00     0.039 A 
ATOM     34  C   UNL A   1      33.940  33.364  30.366  1.00  0.00     0.014 A 
ATOM     35  C   UNL A   1      35.462  34.427  28.804  1.00  0.00     0.014 A 
ATOM     36  C   UNL A   1      35.026  32.769  31.009  1.00  0.00     0.010 A 
ATOM     37  C   UNL A   1      36.528  33.747  29.378  1.00  0.00     0.010 A 
ATOM     38  C   UNL A   1      36.324  32.908  30.485  1.00  0.00    -0.014 A 
BRANCH  38  39
ATOM     39  C   UNL A   1      37.477  32.180  31.074  1.00  0.00     0.031 A 
ATOM     40  C   UNL A   1      37.976  32.548  32.445  1.00  0.00     0.074 A 
ATOM     41  C   UNL A   1      38.126  31.247  30.351  1.00  0.00     0.049 A 
ATOM     42  N   UNL A   1      39.003  32.078  33.107  1.00  0.00    -0.248 NA
ATOM     43  C   UNL A   1      37.246  33.614  33.149  1.00  0.00     0.031 C 
ATOM     44  C   UNL A   1      37.787  30.850  28.983  1.00  0.00     0.029 A 
ATOM     45  N   UNL A   1      39.214  30.468  30.660  1.00  0.00    -0.354 N 
ATOM     46  C   UNL A   1      39.050  32.803  34.290  1.00  0.00     0.074 A 
ATOM     47  C   UNL A   1      37.995  33.790  34.225  1.00  0.00     0.031 C 
ATOM     48  C   UNL A   1      38.628  29.883  28.583  1.00  0.00     0.029 A 
ATOM     49  C   UNL A   1      39.592  29.621  29.647  1.00  0.00     0.049 A 
ATOM     50  H   UNL A   1      39.679  30.514  31.526  1.00  0.00     0.167 HD
ATOM     51  C   UNL A   1      39.879  32.642  35.348  1.00  0.00     0.037 A 
ATOM     52  C   UNL A   1      40.607  28.736  29.580  1.00  0.00     0.037 A 
ATOM     53  C   UNL A   1      40.910  31.640  35.418  1.00  0.00     0.049 A 
ATOM     54  C   UNL A   1      41.510  28.565  30.772  1.00  0.00     0.074 A 
ATOM     55  C   UNL A   1      41.749  31.340  36.476  1.00  0.00     0.029 A 
ATOM     56  N   UNL A   1      41.247  30.780  34.382  1.00  0.00    -0.354 N 
ATOM     57  N   UNL A   1      41.488  29.193  31.924  1.00  0.00    -0.248 NA
ATOM     58  C   UNL A   1      42.574  27.559  30.659  1.00  0.00     0.031 C 
ATOM     59  C   UNL A   1      42.637  30.342  36.059  1.00  0.00     0.029 A 
ATOM     60  C   UNL A   1      42.306  29.972  34.765  1.00  0.00     0.049 A 
ATOM     61  H   UNL A   1      40.800  30.749  33.505  1.00  0.00     0.167 HD
ATOM     62  C   UNL A   1      42.514  28.642  32.680  1.00  0.00     0.074 A 
ATOM     63  C   UNL A   1      43.129  27.617  31.861  1.00  0.00     0.031 C 
ATOM     64  C   UNL A   1      42.910  28.956  33.938  1.00  0.00     0.037 A 
BRANCH  51  65
ATOM     65  C   UNL A   1      39.707  33.579  36.511  1.00  0.00     0.064 A 
ATOM     66  C   UNL A   1      38.899  33.253  37.612  1.00  0.00     0.173 A 
ATOM     67  C   UNL A   1      40.369  34.816  36.530  1.00  0.00     0.173 A 
ATOM     68  F   UNL A   1      38.235  32.087  37.642  1.00  0.00    -0.203 F 
ATOM     69  C   UNL A   1      38.724  34.148  38.664  1.00  0.00     0.198 A 
ATOM     70  C   UNL A   1      40.223  35.693  37.602  1.00  0.00     0.198 A 
ATOM     71  F   UNL A   1      41.159  35.177  35.508  1.00  0.00    -0.203 F 
ATOM     72  F   UNL A   1      37.894  33.842  39.671  1.00  0.00    -0.200 F 
ATOM     73  C   UNL A   1      39.392  35.364  38.661  1.00  0.00     0.200 A 
ATOM     74  F   UNL A   1      40.880  36.860  37.605  1.00  0.00    -0.200 F 
ATOM     75  F   UNL A   1      39.225  36.222  39.677  1.00  0.00    -0.200 F 
ENDBRANCH  51  65
BRANCH  52  76
ATOM     76  C   UNL A   1      40.802  27.927  28.348  1.00  0.00     0.064 A 
ATOM     77  C   UNL A   1      41.596  28.396  27.292  1.00  0.00     0.173 A 
ATOM     78  C   UNL A   1      40.207  26.665  28.203  1.00  0.00     0.173 A 
ATOM     79  F   UNL A   1      42.169  29.606  27.373  1.00  0.00    -0.203 F 
ATOM     80  C   UNL A   1      41.777  27.641  26.135  1.00  0.00     0.198 A 
ATOM     81  C   UNL A   1      40.414  25.898  27.058  1.00  0.00     0.198 A 
ATOM     82  F   UNL A   1      39.440  26.167  29.185  1.00  0.00    -0.203 F 
ATOM     83  F   UNL A   1      42.509  28.132  25.125  1.00  0.00    -0.200 F 
ATOM     84  C   UNL A   1      41.193  26.388  26.022  1.00  0.00     0.200 A 
ATOM     85  F   UNL A   1      39.859  24.681  26.960  1.00  0.00    -0.200 F 
ATOM     86  F   UNL A   1      41.375  25.659  24.914  1.00  0.00    -0.200 F 
ENDBRANCH  52  76
BRANCH  64  87
ATOM     87  C   UNL A   1      44.044  28.164  34.525  1.00  0.00     0.064 A 
ATOM     88  C   UNL A   1      43.831  26.938  35.173  1.00  0.00     0.173 A 
ATOM     89  C   UNL A   1      45.366  28.616  34.393  1.00  0.00     0.173 A 
ATOM     90  F   UNL A   1      42.586  26.468  35.337  1.00  0.00    -0.203 F 
ATOM     91  C   UNL A   1      44.898  26.209  35.692  1.00  0.00     0.198 A 
ATOM     92  C   UNL A   1      46.433  27.867  34.882  1.00  0.00     0.198 A 
ATOM     93  F   UNL A   1      45.626  29.777  33.775  1.00  0.00    -0.203 F 
ATOM     94  F   UNL A   1      44.668  25.066  36.353  1.00  0.00    -0.200 F 
ATOM     95  C   UNL A   1      46.198  26.669  35.538  1.00  0.00     0.200 A 
ATOM     96  F   UNL A   1      47.689  28.305  34.716  1.00  0.00    -0.200 F 
ATOM     97  F   UNL A   1      47.223  25.960  36.028  1.00  0.00    -0.200 F 
ENDBRANCH  64  87
ENDBRANCH  38  39
ENDBRANCH  30  33
ENDBRANCH  28  29
ENDBRANCH  27  28
ENDBRANCH  26  27
ENDBRANCH   1  26
TORSDOF 16
ENDMDL
MODEL 3
REMARK VINA RESULT:     -11.9      1.633      2.705
REMARK SMILES CC[C@@H](C)[C@@H](NC(N)=O)C(=O)N1CCC[C@H](C(=O)NCCCCNC(=O)c2ccc(-c3c4nc(c(-c5c(F)c(F)c(F)c(F)c5F)c5ccc([nH]5)c(-c5c(F)c(F)c(F)c(F)c5F)c5nc(c(-c6c(F)c(F)c(F)c(F)c6F)c6ccc3[nH]6)C=C5)C=C4)cc2)C1
REMARK SMILES IDX 20 1 19 2 17 3 18 4 16 6 12 7 13 8 90 9 14 10 15 11 10 12
REMARK SMILES IDX 11 13 5 14 3 15 4 16 2 17 1 18 6 19 7 20 8 22 9 23 21 26
REMARK SMILES IDX 22 27 23 28 24 29 25 30 26 32 27 33 28 34 89 35 29 36 88 37
REMARK SMILES IDX 30 38 31 39 32 40 82 41 33 42 87 43 81 44 83 45 34 46 86 47
REMARK SMILES IDX 80 48 79 49 35 51 67 52 47 53 66 54 48 55 51 56 65 57 84 58
REMARK SMILES IDX 49 59 50 60 64 62 85 63 52 64 36 65 37 66 45 67 38 68 39 69
REMARK SMILES IDX 43 70 46 71 40 72 41 73 44 74 42 75 68 76 69 77 77 78 70 79
REMARK SMILES IDX 71 80 75 81 78 82 72 83 73 84 76 85 74 86 53 87 54 88 62 89
REMARK SMILES IDX 55 90 56 91 60 92 63 93 57 94 58 95 61 96 59 97
REMARK H PARENT 19 5 6 21 8 24 8 25 24 31 83 50 51 61
REMARK Flexibility Score: inf
ROOT
ATOM      1  C   UNL A   1      33.682  29.674  26.954  1.00  0.00     0.116 C 
ENDROOT
BRANCH   1   2
ATOM      2  N   UNL A   1      33.888  29.020  25.687  1.00  0.00    -0.356 N 
ATOM      3  C   UNL A   1      32.980  28.737  24.715  1.00  0.00     0.224 C 
ATOM      4  O   UNL A   1      33.435  28.560  23.577  1.00  0.00    -0.275 OA
ATOM      5  H   UNL A   1      34.814  28.741  25.498  1.00  0.00     0.163 HD
BRANCH   3   6
ATOM      6  C   UNL A   1      31.460  28.625  24.938  1.00  0.00     0.098 C 
ATOM      7  N   UNL A   1      30.620  26.324  24.457  1.00  0.00    -0.340 N 
ATOM      8  C   UNL A   1      29.693  26.788  23.428  1.00  0.00     0.119 C 
ATOM      9  C   UNL A   1      30.976  27.284  25.488  1.00  0.00     0.133 C 
ATOM     10  C   UNL A   1      30.022  28.165  22.840  1.00  0.00     0.022 C 
ATOM     11  C   UNL A   1      30.569  29.186  23.833  1.00  0.00     0.017 C 
BRANCH   7  12
ATOM     12  C   UNL A   1      31.194  25.058  24.327  1.00  0.00     0.245 C 
ATOM     13  O   UNL A   1      30.793  24.107  25.010  1.00  0.00    -0.272 OA
BRANCH  12  14
ATOM     14  C   UNL A   1      32.407  24.854  23.360  1.00  0.00     0.176 C 
BRANCH  14  15
ATOM     15  C   UNL A   1      33.203  23.537  23.560  1.00  0.00     0.018 C 
ATOM     16  C   UNL A   1      34.715  23.755  23.366  1.00  0.00     0.010 C 
BRANCH  15  17
ATOM     17  C   UNL A   1      32.732  22.384  22.640  1.00  0.00     0.002 C 
ATOM     18  C   UNL A   1      32.433  21.108  23.428  1.00  0.00     0.004 C 
ENDBRANCH  15  17
ENDBRANCH  14  15
BRANCH  14  19
ATOM     19  N   UNL A   1      31.907  24.983  21.980  1.00  0.00    -0.326 N 
ATOM     20  C   UNL A   1      32.600  25.672  21.027  1.00  0.00     0.312 C 
ATOM     21  H   UNL A   1      31.051  24.562  21.740  1.00  0.00     0.166 HD
ATOM     22  N   UNL A   1      32.036  25.587  19.799  1.00  0.00    -0.352 N 
ATOM     23  O   UNL A   1      33.592  26.352  21.204  1.00  0.00    -0.249 OA
ATOM     24  H   UNL A   1      31.233  25.034  19.665  1.00  0.00     0.161 HD
ATOM     25  H   UNL A   1      32.429  26.077  19.042  1.00  0.00     0.161 HD
ENDBRANCH  14  19
ENDBRANCH  12  14
ENDBRANCH   7  12
ENDBRANCH   3   6
ENDBRANCH   1   2
BRANCH   1  26
ATOM     26  C   UNL A   1      32.277  30.203  27.203  1.00  0.00     0.023 C 
BRANCH  26  27
ATOM     27  C   UNL A   1      32.090  31.666  26.832  1.00  0.00     0.023 C 
BRANCH  27  28
ATOM     28  C   UNL A   1      33.073  32.634  27.484  1.00  0.00     0.116 C 
BRANCH  28  29
ATOM     29  N   UNL A   1      32.564  33.985  27.685  1.00  0.00    -0.352 N 
ATOM     30  C   UNL A   1      33.010  34.932  28.583  1.00  0.00     0.251 C 
ATOM     31  H   UNL A   1      31.812  34.254  27.109  1.00  0.00     0.163 HD
ATOM     32  O   UNL A   1      32.444  36.010  28.725  1.00  0.00    -0.269 OA
BRANCH  30  33
ATOM     33  C   UNL A   1      34.179  34.598  29.425  1.00  0.00     0.039 A 
ATOM     34  C   UNL A   1      33.974  34.109  30.715  1.00  0.00     0.014 A 
ATOM     35  C   UNL A   1      35.464  34.652  28.879  1.00  0.00     0.014 A 
ATOM     36  C   UNL A   1      35.052  33.575  31.422  1.00  0.00     0.010 A 
ATOM     37  C   UNL A   1      36.510  34.022  29.539  1.00  0.00     0.010 A 
ATOM     38  C   UNL A   1      36.317  33.473  30.817  1.00  0.00    -0.014 A 
BRANCH  38  39
ATOM     39  C   UNL A   1      37.447  32.792  31.499  1.00  0.00     0.031 A 
ATOM     40  C   UNL A   1      38.126  31.623  30.840  1.00  0.00     0.074 A 
ATOM     41  C   UNL A   1      37.812  33.170  32.741  1.00  0.00     0.049 A 
ATOM     42  N   UNL A   1      39.086  30.857  31.296  1.00  0.00    -0.248 NA
ATOM     43  C   UNL A   1      37.635  31.239  29.508  1.00  0.00     0.031 C 
ATOM     44  C   UNL A   1      37.186  34.241  33.518  1.00  0.00     0.029 A 
ATOM     45  N   UNL A   1      38.793  32.687  33.573  1.00  0.00    -0.354 N 
ATOM     46  C   UNL A   1      39.295  29.895  30.316  1.00  0.00     0.074 A 
ATOM     47  C   UNL A   1      38.318  30.130  29.276  1.00  0.00     0.031 C 
ATOM     48  C   UNL A   1      37.815  34.355  34.698  1.00  0.00     0.029 A 
ATOM     49  C   UNL A   1      38.860  33.339  34.781  1.00  0.00     0.049 A 
ATOM     50  H   UNL A   1      39.390  31.945  33.327  1.00  0.00     0.167 HD
ATOM     51  C   UNL A   1      40.235  28.923  30.273  1.00  0.00     0.037 A 
ATOM     52  C   UNL A   1      39.670  33.136  35.839  1.00  0.00     0.037 A 
ATOM     53  C   UNL A   1      41.223  28.711  31.298  1.00  0.00     0.049 A 
ATOM     54  C   UNL A   1      40.715  32.056  35.766  1.00  0.00     0.074 A 
ATOM     55  C   UNL A   1      42.270  27.808  31.314  1.00  0.00     0.029 A 
ATOM     56  N   UNL A   1      41.278  29.409  32.498  1.00  0.00    -0.354 N 
ATOM     57  N   UNL A   1      40.965  31.211  34.794  1.00  0.00    -0.248 NA
ATOM     58  C   UNL A   1      41.596  31.906  36.932  1.00  0.00     0.031 C 
ATOM     59  C   UNL A   1      42.920  27.914  32.548  1.00  0.00     0.029 A 
ATOM     60  C   UNL A   1      42.321  28.931  33.274  1.00  0.00     0.049 A 
ATOM     61  H   UNL A   1      40.666  30.135  32.757  1.00  0.00     0.167 HD
ATOM     62  C   UNL A   1      42.045  30.448  35.219  1.00  0.00     0.074 A 
ATOM     63  C   UNL A   1      42.412  30.942  36.530  1.00  0.00     0.031 C 
ATOM     64  C   UNL A   1      42.675  29.431  34.580  1.00  0.00     0.037 A 
BRANCH  51  65
ATOM     65  C   UNL A   1      40.232  28.010  29.079  1.00  0.00     0.064 A 
ATOM     66  C   UNL A   1      39.520  26.800  29.072  1.00  0.00     0.173 A 
ATOM     67  C   UNL A   1      40.944  28.355  27.920  1.00  0.00     0.173 A 
ATOM     68  F   UNL A   1      38.830  26.415  30.157  1.00  0.00    -0.203 F 
ATOM     69  C   UNL A   1      39.556  25.951  27.969  1.00  0.00     0.198 A 
ATOM     70  C   UNL A   1      40.947  27.522  26.804  1.00  0.00     0.198 A 
ATOM     71  F   UNL A   1      41.637  29.502  27.868  1.00  0.00    -0.203 F 
ATOM     72  F   UNL A   1      38.924  24.770  28.012  1.00  0.00    -0.200 F 
ATOM     73  C   UNL A   1      40.265  26.316  26.834  1.00  0.00     0.200 A 
ATOM     74  F   UNL A   1      41.619  27.883  25.703  1.00  0.00    -0.200 F 
ATOM     75  F   UNL A   1      40.297  25.500  25.771  1.00  0.00    -0.200 F 
ENDBRANCH  51  65
BRANCH  52  76
ATOM     76  C   UNL A   1      39.536  33.995  37.046  1.00  0.00     0.064 A 
ATOM     77  C   UNL A   1      40.154  35.252  37.112  1.00  0.00     0.173 A 
ATOM     78  C   UNL A   1      38.781  33.583  38.154  1.00  0.00     0.173 A 
ATOM     79  F   UNL A   1      40.906  35.682  36.088  1.00  0.00    -0.203 F 
ATOM     80  C   UNL A   1      40.033  36.056  38.243  1.00  0.00     0.198 A 
ATOM     81  C   UNL A   1      38.635  34.402  39.272  1.00  0.00     0.198 A 
ATOM     82  F   UNL A   1      38.165  32.391  38.141  1.00  0.00    -0.203 F 
ATOM     83  F   UNL A   1      40.668  37.236  38.295  1.00  0.00    -0.200 F 
ATOM     84  C   UNL A   1      39.267  35.635  39.319  1.00  0.00     0.200 A 
ATOM     85  F   UNL A   1      37.881  33.996  40.303  1.00  0.00    -0.200 F 
ATOM     86  F   UNL A   1      39.142  36.413  40.402  1.00  0.00    -0.200 F 
ENDBRANCH  52  76
BRANCH  64  87
ATOM     87  C   UNL A   1      43.849  28.800  35.273  1.00  0.00     0.064 A 
ATOM     88  C   UNL A   1      43.696  27.707  36.138  1.00  0.00     0.173 A 
ATOM     89  C   UNL A   1      45.150  29.267  35.029  1.00  0.00     0.173 A 
ATOM     90  F   UNL A   1      42.474  27.231  36.416  1.00  0.00    -0.203 F 
ATOM     91  C   UNL A   1      44.800  27.122  36.756  1.00  0.00     0.198 A 
ATOM     92  C   UNL A   1      46.254  28.658  35.620  1.00  0.00     0.198 A 
ATOM     93  F   UNL A   1      45.354  30.304  34.204  1.00  0.00    -0.203 F 
ATOM     94  F   UNL A   1      44.626  26.112  37.619  1.00  0.00    -0.200 F 
ATOM     95  C   UNL A   1      46.077  27.593  36.488  1.00  0.00     0.200 A 
ATOM     96  F   UNL A   1      47.488  29.102  35.347  1.00  0.00    -0.200 F 
ATOM     97  F   UNL A   1      47.138  27.022  37.075  1.00  0.00    -0.200 F 
ENDBRANCH  64  87
ENDBRANCH  38  39
ENDBRANCH  30  33
ENDBRANCH  28  29
ENDBRANCH  27  28
ENDBRANCH  26  27
ENDBRANCH   1  26
TORSDOF 16
ENDMDL
