MODEL 1
REMARK VINA RESULT:     -12.9      0.000      0.000
REMARK SMILES Cc1nn(CC(=O)NCCCCNC(=O)c2ccc(-c3c4nc(c(-c5c(F)c(F)c(F)c(F)c5F)c5ccc([nH]5)c(-c5c(F)c(F)c(F)c(F)c5F)c5nc(c(-c6c(F)c(F)c(F)c(F)c6F)c6ccc3[nH]6)C=C5)C=C4)cc2)c(C)c1NC(=O)C(=O)Nc1ccc(F)cc1
REMARK SMILES IDX 9 1 8 2 6 3 7 4 5 6 4 7 1 8 2 9 3 10 81 11 79 12 80 13 82 14
REMARK SMILES IDX 83 15 84 17 85 18 86 19 87 20 88 22 89 23 94 24 90 25 93 26
REMARK SMILES IDX 91 27 92 28 10 29 11 30 12 31 13 32 14 33 15 35 16 36 17 37
REMARK SMILES IDX 78 38 18 39 77 40 19 41 20 42 21 43 71 44 22 45 76 46 70 47
REMARK SMILES IDX 72 48 23 49 75 50 69 51 68 52 24 54 56 55 36 56 55 57 37 58
REMARK SMILES IDX 40 59 54 60 73 61 38 62 39 63 53 65 74 66 41 67 25 68 26 69
REMARK SMILES IDX 34 70 27 71 28 72 32 73 35 74 29 75 30 76 33 77 31 78 57 79
REMARK SMILES IDX 58 80 66 81 59 82 60 83 64 84 67 85 61 86 62 87 65 88 63 89
REMARK SMILES IDX 42 90 43 91 51 92 44 93 45 94 49 95 52 96 46 97 47 98 50 99
REMARK SMILES IDX 48 100
REMARK H PARENT 8 5 82 16 87 21 13 34 72 53 40 64
REMARK Flexibility Score: inf
ROOT
ATOM      1  C   UNL A   1      39.676  21.478  26.468  1.00  0.00     0.116 C 
ENDROOT
BRANCH   1   2
ATOM      2  N   UNL A   1      38.813  22.639  26.552  1.00  0.00    -0.354 N 
ATOM      3  C   UNL A   1      37.807  23.092  25.752  1.00  0.00     0.241 C 
ATOM      4  O   UNL A   1      37.248  24.129  26.136  1.00  0.00    -0.273 OA
ATOM      5  H   UNL A   1      38.986  23.209  27.337  1.00  0.00     0.163 HD
BRANCH   3   6
ATOM      6  C   UNL A   1      37.248  22.341  24.560  1.00  0.00     0.244 C 
BRANCH   6   7
ATOM      7  N   UNL A   1      35.815  22.454  24.348  1.00  0.00    -0.258 N 
ATOM      8  C   UNL A   1      33.281  23.700  22.240  1.00  0.00     0.071 C 
ATOM      9  C   UNL A   1      34.067  23.055  23.326  1.00  0.00     0.083 A 
ATOM     10  N   UNL A   1      35.395  23.089  23.245  1.00  0.00    -0.175 NA
ATOM     11  C   UNL A   1      33.615  22.374  24.502  1.00  0.00     0.086 A 
ATOM     12  C   UNL A   1      34.784  22.043  25.175  1.00  0.00     0.060 A 
ATOM     13  C   UNL A   1      35.074  21.329  26.450  1.00  0.00     0.069 C 
BRANCH  11  14
ATOM     14  N   UNL A   1      32.271  22.136  24.754  1.00  0.00    -0.315 N 
ATOM     15  C   UNL A   1      31.421  22.374  25.806  1.00  0.00     0.314 C 
ATOM     16  H   UNL A   1      31.820  21.693  23.999  1.00  0.00     0.170 HD
ATOM     17  O   UNL A   1      30.262  21.972  25.750  1.00  0.00    -0.263 OA
BRANCH  15  18
ATOM     18  C   UNL A   1      31.858  23.251  26.961  1.00  0.00     0.314 C 
ATOM     19  O   UNL A   1      32.423  22.729  27.920  1.00  0.00    -0.263 OA
ATOM     20  N   UNL A   1      31.582  24.609  26.973  1.00  0.00    -0.318 N 
ATOM     21  H   UNL A   1      31.032  24.968  27.707  1.00  0.00     0.170 HD
BRANCH  20  22
ATOM     22  C   UNL A   1      32.050  25.502  25.990  1.00  0.00     0.041 A 
ATOM     23  C   UNL A   1      33.442  25.644  25.912  1.00  0.00     0.029 A 
ATOM     24  C   UNL A   1      31.233  26.176  25.085  1.00  0.00     0.029 A 
ATOM     25  C   UNL A   1      34.021  26.355  24.864  1.00  0.00     0.041 A 
ATOM     26  C   UNL A   1      31.814  26.909  24.044  1.00  0.00     0.041 A 
ATOM     27  C   UNL A   1      33.200  26.967  23.928  1.00  0.00     0.123 A 
ATOM     28  F   UNL A   1      33.753  27.615  22.895  1.00  0.00    -0.207 F 
ENDBRANCH  20  22
ENDBRANCH  15  18
ENDBRANCH  11  14
ENDBRANCH   6   7
ENDBRANCH   3   6
ENDBRANCH   1   2
BRANCH   1  29
ATOM     29  C   UNL A   1      40.797  21.488  27.510  1.00  0.00     0.023 C 
BRANCH  29  30
ATOM     30  C   UNL A   1      41.973  20.550  27.207  1.00  0.00     0.023 C 
BRANCH  30  31
ATOM     31  C   UNL A   1      42.004  20.015  25.782  1.00  0.00     0.116 C 
BRANCH  31  32
ATOM     32  N   UNL A   1      43.346  19.645  25.328  1.00  0.00    -0.352 N 
ATOM     33  C   UNL A   1      44.327  20.503  24.872  1.00  0.00     0.251 C 
ATOM     34  H   UNL A   1      43.571  18.687  25.351  1.00  0.00     0.163 HD
ATOM     35  O   UNL A   1      45.246  20.114  24.154  1.00  0.00    -0.269 OA
BRANCH  33  36
ATOM     36  C   UNL A   1      44.263  21.908  25.298  1.00  0.00     0.039 A 
ATOM     37  C   UNL A   1      43.375  22.821  24.723  1.00  0.00     0.014 A 
ATOM     38  C   UNL A   1      45.086  22.272  26.362  1.00  0.00     0.014 A 
ATOM     39  C   UNL A   1      43.263  24.088  25.289  1.00  0.00     0.010 A 
ATOM     40  C   UNL A   1      44.865  23.459  27.007  1.00  0.00     0.010 A 
ATOM     41  C   UNL A   1      43.999  24.392  26.447  1.00  0.00    -0.014 A 
BRANCH  41  42
ATOM     42  C   UNL A   1      43.787  25.638  27.174  1.00  0.00     0.031 A 
ATOM     43  C   UNL A   1      44.731  26.731  26.808  1.00  0.00     0.074 A 
ATOM     44  C   UNL A   1      42.683  25.852  27.925  1.00  0.00     0.049 A 
ATOM     45  N   UNL A   1      45.626  27.282  27.557  1.00  0.00    -0.248 NA
ATOM     46  C   UNL A   1      44.782  27.176  25.404  1.00  0.00     0.031 C 
ATOM     47  C   UNL A   1      41.521  24.971  28.103  1.00  0.00     0.029 A 
ATOM     48  N   UNL A   1      42.312  26.965  28.615  1.00  0.00    -0.354 N 
ATOM     49  C   UNL A   1      46.218  28.281  26.786  1.00  0.00     0.074 A 
ATOM     50  C   UNL A   1      45.792  28.049  25.431  1.00  0.00     0.031 C 
ATOM     51  C   UNL A   1      40.496  25.669  28.641  1.00  0.00     0.029 A 
ATOM     52  C   UNL A   1      40.977  26.985  29.009  1.00  0.00     0.049 A 
ATOM     53  H   UNL A   1      42.938  27.697  28.820  1.00  0.00     0.167 HD
ATOM     54  C   UNL A   1      46.798  29.363  27.378  1.00  0.00     0.037 A 
ATOM     55  C   UNL A   1      40.314  28.022  29.580  1.00  0.00     0.037 A 
ATOM     56  C   UNL A   1      47.016  29.119  28.781  1.00  0.00     0.049 A 
ATOM     57  C   UNL A   1      41.339  28.935  30.140  1.00  0.00     0.074 A 
ATOM     58  C   UNL A   1      47.771  28.228  29.518  1.00  0.00     0.029 A 
ATOM     59  N   UNL A   1      46.084  29.629  29.649  1.00  0.00    -0.354 N 
ATOM     60  N   UNL A   1      42.120  28.621  31.137  1.00  0.00    -0.248 NA
ATOM     61  C   UNL A   1      41.808  30.018  29.293  1.00  0.00     0.031 C 
ATOM     62  C   UNL A   1      46.965  27.909  30.651  1.00  0.00     0.029 A 
ATOM     63  C   UNL A   1      45.799  28.675  30.587  1.00  0.00     0.049 A 
ATOM     64  H   UNL A   1      45.687  30.530  29.605  1.00  0.00     0.167 HD
ATOM     65  C   UNL A   1      43.357  29.140  30.787  1.00  0.00     0.074 A 
ATOM     66  C   UNL A   1      43.081  30.070  29.693  1.00  0.00     0.031 C 
ATOM     67  C   UNL A   1      44.507  28.545  31.221  1.00  0.00     0.037 A 
BRANCH  54  68
ATOM     68  C   UNL A   1      46.778  30.772  26.824  1.00  0.00     0.064 A 
ATOM     69  C   UNL A   1      47.967  31.533  26.863  1.00  0.00     0.173 A 
ATOM     70  C   UNL A   1      45.600  31.506  26.571  1.00  0.00     0.173 A 
ATOM     71  F   UNL A   1      49.147  30.944  27.106  1.00  0.00    -0.203 F 
ATOM     72  C   UNL A   1      47.959  32.927  26.759  1.00  0.00     0.198 A 
ATOM     73  C   UNL A   1      45.602  32.892  26.415  1.00  0.00     0.198 A 
ATOM     74  F   UNL A   1      44.388  30.941  26.580  1.00  0.00    -0.203 F 
ATOM     75  F   UNL A   1      49.093  33.615  26.944  1.00  0.00    -0.200 F 
ATOM     76  C   UNL A   1      46.774  33.606  26.545  1.00  0.00     0.200 A 
ATOM     77  F   UNL A   1      44.441  33.534  26.228  1.00  0.00    -0.200 F 
ATOM     78  F   UNL A   1      46.751  34.945  26.516  1.00  0.00    -0.200 F 
ENDBRANCH  54  68
BRANCH  55  79
ATOM     79  C   UNL A   1      38.906  28.446  29.385  1.00  0.00     0.064 A 
ATOM     80  C   UNL A   1      38.053  28.652  30.482  1.00  0.00     0.173 A 
ATOM     81  C   UNL A   1      38.464  28.950  28.146  1.00  0.00     0.173 A 
ATOM     82  F   UNL A   1      38.419  28.244  31.706  1.00  0.00    -0.203 F 
ATOM     83  C   UNL A   1      36.845  29.349  30.355  1.00  0.00     0.198 A 
ATOM     84  C   UNL A   1      37.257  29.643  28.020  1.00  0.00     0.198 A 
ATOM     85  F   UNL A   1      39.239  28.868  27.055  1.00  0.00    -0.203 F 
ATOM     86  F   UNL A   1      36.090  29.584  31.437  1.00  0.00    -0.200 F 
ATOM     87  C   UNL A   1      36.455  29.855  29.126  1.00  0.00     0.200 A 
ATOM     88  F   UNL A   1      36.910  30.161  26.833  1.00  0.00    -0.200 F 
ATOM     89  F   UNL A   1      35.334  30.582  29.015  1.00  0.00    -0.200 F 
ENDBRANCH  55  79
BRANCH  67  90
ATOM     90  C   UNL A   1      44.392  27.521  32.317  1.00  0.00     0.064 A 
ATOM     91  C   UNL A   1      44.250  26.138  32.108  1.00  0.00     0.173 A 
ATOM     92  C   UNL A   1      44.565  27.956  33.637  1.00  0.00     0.173 A 
ATOM     93  F   UNL A   1      44.173  25.628  30.873  1.00  0.00    -0.203 F 
ATOM     94  C   UNL A   1      44.242  25.241  33.177  1.00  0.00     0.198 A 
ATOM     95  C   UNL A   1      44.595  27.056  34.698  1.00  0.00     0.198 A 
ATOM     96  F   UNL A   1      44.756  29.259  33.894  1.00  0.00    -0.203 F 
ATOM     97  F   UNL A   1      44.092  23.927  32.952  1.00  0.00    -0.200 F 
ATOM     98  C   UNL A   1      44.422  25.701  34.470  1.00  0.00     0.200 A 
ATOM     99  F   UNL A   1      44.817  27.504  35.942  1.00  0.00    -0.200 F 
ATOM    100  F   UNL A   1      44.455  24.838  35.495  1.00  0.00    -0.200 F 
ENDBRANCH  67  90
ENDBRANCH  41  42
ENDBRANCH  33  36
ENDBRANCH  31  32
ENDBRANCH  30  31
ENDBRANCH  29  30
ENDBRANCH   1  29
TORSDOF 15
ENDMDL
MODEL 2
REMARK VINA RESULT:     -12.6      2.525      3.746
REMARK SMILES Cc1nn(CC(=O)NCCCCNC(=O)c2ccc(-c3c4nc(c(-c5c(F)c(F)c(F)c(F)c5F)c5ccc([nH]5)c(-c5c(F)c(F)c(F)c(F)c5F)c5nc(c(-c6c(F)c(F)c(F)c(F)c6F)c6ccc3[nH]6)C=C5)C=C4)cc2)c(C)c1NC(=O)C(=O)Nc1ccc(F)cc1
REMARK SMILES IDX 9 1 8 2 6 3 7 4 5 6 4 7 1 8 2 9 3 10 81 11 79 12 80 13 82 14
REMARK SMILES IDX 83 15 84 17 85 18 86 19 87 20 88 22 89 23 94 24 90 25 93 26
REMARK SMILES IDX 91 27 92 28 10 29 11 30 12 31 13 32 14 33 15 35 16 36 17 37
REMARK SMILES IDX 78 38 18 39 77 40 19 41 20 42 21 43 71 44 22 45 76 46 70 47
REMARK SMILES IDX 72 48 23 49 75 50 69 51 68 52 24 54 56 55 36 56 55 57 37 58
REMARK SMILES IDX 40 59 54 60 73 61 38 62 39 63 53 65 74 66 41 67 25 68 26 69
REMARK SMILES IDX 34 70 27 71 28 72 32 73 35 74 29 75 30 76 33 77 31 78 57 79
REMARK SMILES IDX 58 80 66 81 59 82 60 83 64 84 67 85 61 86 62 87 65 88 63 89
REMARK SMILES IDX 42 90 43 91 51 92 44 93 45 94 49 95 52 96 46 97 47 98 50 99
REMARK SMILES IDX 48 100
REMARK H PARENT 8 5 82 16 87 21 13 34 72 53 40 64
REMARK Flexibility Score: inf
ROOT
ATOM      1  C   UNL A   1      36.285  22.612  25.433  1.00  0.00     0.116 C 
ENDROOT
BRANCH   1   2
ATOM      2  N   UNL A   1      35.497  22.312  26.610  1.00  0.00    -0.354 N 
ATOM      3  C   UNL A   1      34.171  22.042  26.780  1.00  0.00     0.241 C 
ATOM      4  O   UNL A   1      33.823  21.801  27.945  1.00  0.00    -0.273 OA
ATOM      5  H   UNL A   1      36.016  22.301  27.447  1.00  0.00     0.163 HD
BRANCH   3   6
ATOM      6  C   UNL A   1      33.175  21.864  25.652  1.00  0.00     0.244 C 
BRANCH   6   7
ATOM      7  N   UNL A   1      32.475  23.062  25.222  1.00  0.00    -0.258 N 
ATOM      8  C   UNL A   1      30.705  25.924  26.269  1.00  0.00     0.071 C 
ATOM      9  C   UNL A   1      31.384  24.851  25.495  1.00  0.00     0.083 A 
ATOM     10  N   UNL A   1      31.973  23.865  26.170  1.00  0.00    -0.175 NA
ATOM     11  C   UNL A   1      31.515  24.688  24.078  1.00  0.00     0.086 A 
ATOM     12  C   UNL A   1      32.185  23.480  23.934  1.00  0.00     0.060 A 
ATOM     13  C   UNL A   1      32.659  22.696  22.759  1.00  0.00     0.069 C 
BRANCH  11  14
ATOM     14  N   UNL A   1      31.059  25.637  23.175  1.00  0.00    -0.315 N 
ATOM     15  C   UNL A   1      31.603  26.742  22.567  1.00  0.00     0.314 C 
ATOM     16  H   UNL A   1      30.124  25.482  22.906  1.00  0.00     0.170 HD
ATOM     17  O   UNL A   1      30.900  27.442  21.843  1.00  0.00    -0.263 OA
BRANCH  15  18
ATOM     18  C   UNL A   1      33.090  27.016  22.664  1.00  0.00     0.314 C 
ATOM     19  O   UNL A   1      33.746  27.101  21.628  1.00  0.00    -0.263 OA
ATOM     20  N   UNL A   1      33.720  27.113  23.895  1.00  0.00    -0.318 N 
ATOM     21  H   UNL A   1      34.443  26.478  24.103  1.00  0.00     0.170 HD
BRANCH  20  22
ATOM     22  C   UNL A   1      33.379  28.077  24.864  1.00  0.00     0.041 A 
ATOM     23  C   UNL A   1      34.075  27.990  26.078  1.00  0.00     0.029 A 
ATOM     24  C   UNL A   1      32.466  29.110  24.661  1.00  0.00     0.029 A 
ATOM     25  C   UNL A   1      33.952  28.995  27.034  1.00  0.00     0.041 A 
ATOM     26  C   UNL A   1      32.327  30.108  25.631  1.00  0.00     0.041 A 
ATOM     27  C   UNL A   1      33.091  30.055  26.793  1.00  0.00     0.123 A 
ATOM     28  F   UNL A   1      33.002  31.045  27.691  1.00  0.00    -0.207 F 
ENDBRANCH  20  22
ENDBRANCH  15  18
ENDBRANCH  11  14
ENDBRANCH   6   7
ENDBRANCH   3   6
ENDBRANCH   1   2
BRANCH   1  29
ATOM     29  C   UNL A   1      37.768  22.826  25.743  1.00  0.00     0.023 C 
BRANCH  29  30
ATOM     30  C   UNL A   1      38.648  21.577  25.599  1.00  0.00     0.023 C 
BRANCH  30  31
ATOM     31  C   UNL A   1      39.774  21.476  26.620  1.00  0.00     0.116 C 
BRANCH  31  32
ATOM     32  N   UNL A   1      41.108  21.492  26.019  1.00  0.00    -0.352 N 
ATOM     33  C   UNL A   1      41.922  22.596  25.847  1.00  0.00     0.251 C 
ATOM     34  H   UNL A   1      41.462  20.629  25.706  1.00  0.00     0.163 HD
ATOM     35  O   UNL A   1      42.819  22.615  25.006  1.00  0.00    -0.269 OA
BRANCH  33  36
ATOM     36  C   UNL A   1      41.705  23.752  26.727  1.00  0.00     0.039 A 
ATOM     37  C   UNL A   1      42.310  23.856  27.983  1.00  0.00     0.014 A 
ATOM     38  C   UNL A   1      40.919  24.782  26.216  1.00  0.00     0.014 A 
ATOM     39  C   UNL A   1      42.182  25.051  28.686  1.00  0.00     0.010 A 
ATOM     40  C   UNL A   1      40.921  26.002  26.837  1.00  0.00     0.010 A 
ATOM     41  C   UNL A   1      41.501  26.128  28.094  1.00  0.00    -0.014 A 
BRANCH  41  42
ATOM     42  C   UNL A   1      41.490  27.449  28.713  1.00  0.00     0.031 A 
ATOM     43  C   UNL A   1      42.613  28.333  28.290  1.00  0.00     0.074 A 
ATOM     44  C   UNL A   1      40.426  27.908  29.408  1.00  0.00     0.049 A 
ATOM     45  N   UNL A   1      43.575  28.788  29.021  1.00  0.00    -0.248 NA
ATOM     46  C   UNL A   1      42.764  28.643  26.857  1.00  0.00     0.031 C 
ATOM     47  C   UNL A   1      39.128  27.253  29.619  1.00  0.00     0.029 A 
ATOM     48  N   UNL A   1      40.236  29.121  29.994  1.00  0.00    -0.354 N 
ATOM     49  C   UNL A   1      44.341  29.605  28.192  1.00  0.00     0.074 A 
ATOM     50  C   UNL A   1      43.907  29.333  26.847  1.00  0.00     0.031 C 
ATOM     51  C   UNL A   1      38.226  28.155  30.065  1.00  0.00     0.029 A 
ATOM     52  C   UNL A   1      38.916  29.398  30.342  1.00  0.00     0.049 A 
ATOM     53  H   UNL A   1      40.973  29.753  30.160  1.00  0.00     0.167 HD
ATOM     54  C   UNL A   1      45.085  30.620  28.714  1.00  0.00     0.037 A 
ATOM     55  C   UNL A   1      38.429  30.576  30.806  1.00  0.00     0.037 A 
ATOM     56  C   UNL A   1      45.233  30.462  30.138  1.00  0.00     0.049 A 
ATOM     57  C   UNL A   1      39.584  31.348  31.324  1.00  0.00     0.074 A 
ATOM     58  C   UNL A   1      45.813  29.524  30.968  1.00  0.00     0.029 A 
ATOM     59  N   UNL A   1      44.386  31.193  30.931  1.00  0.00    -0.354 N 
ATOM     60  N   UNL A   1      40.282  30.993  32.367  1.00  0.00    -0.248 NA
ATOM     61  C   UNL A   1      40.245  32.262  30.408  1.00  0.00     0.031 C 
ATOM     62  C   UNL A   1      44.944  29.441  32.096  1.00  0.00     0.029 A 
ATOM     63  C   UNL A   1      43.926  30.383  31.933  1.00  0.00     0.049 A 
ATOM     64  H   UNL A   1      44.149  32.141  30.803  1.00  0.00     0.167 HD
ATOM     65  C   UNL A   1      41.596  31.266  32.017  1.00  0.00     0.074 A 
ATOM     66  C   UNL A   1      41.501  32.134  30.844  1.00  0.00     0.031 C 
ATOM     67  C   UNL A   1      42.620  30.526  32.534  1.00  0.00     0.037 A 
BRANCH  54  68
ATOM     68  C   UNL A   1      45.315  31.961  28.048  1.00  0.00     0.064 A 
ATOM     69  C   UNL A   1      44.195  32.726  27.656  1.00  0.00     0.173 A 
ATOM     70  C   UNL A   1      46.547  32.365  27.489  1.00  0.00     0.173 A 
ATOM     71  F   UNL A   1      42.971  32.428  28.116  1.00  0.00    -0.203 F 
ATOM     72  C   UNL A   1      44.289  33.745  26.705  1.00  0.00     0.198 A 
ATOM     73  C   UNL A   1      46.644  33.418  26.579  1.00  0.00     0.198 A 
ATOM     74  F   UNL A   1      47.684  31.695  27.700  1.00  0.00    -0.203 F 
ATOM     75  F   UNL A   1      43.177  34.346  26.261  1.00  0.00    -0.200 F 
ATOM     76  C   UNL A   1      45.512  34.083  26.159  1.00  0.00     0.200 A 
ATOM     77  F   UNL A   1      47.837  33.717  26.046  1.00  0.00    -0.200 F 
ATOM     78  F   UNL A   1      45.597  35.010  25.196  1.00  0.00    -0.200 F 
ENDBRANCH  54  68
BRANCH  55  79
ATOM     79  C   UNL A   1      37.117  31.212  30.532  1.00  0.00     0.064 A 
ATOM     80  C   UNL A   1      36.272  31.609  31.582  1.00  0.00     0.173 A 
ATOM     81  C   UNL A   1      36.807  31.717  29.255  1.00  0.00     0.173 A 
ATOM     82  F   UNL A   1      36.523  31.210  32.837  1.00  0.00    -0.203 F 
ATOM     83  C   UNL A   1      35.200  32.485  31.372  1.00  0.00     0.198 A 
ATOM     84  C   UNL A   1      35.735  32.589  29.046  1.00  0.00     0.198 A 
ATOM     85  F   UNL A   1      37.596  31.455  28.203  1.00  0.00    -0.203 F 
ATOM     86  F   UNL A   1      34.456  32.895  32.410  1.00  0.00    -0.200 F 
ATOM     87  C   UNL A   1      34.941  32.984  30.106  1.00  0.00     0.200 A 
ATOM     88  F   UNL A   1      35.519  33.095  27.823  1.00  0.00    -0.200 F 
ATOM     89  F   UNL A   1      33.958  33.876  29.916  1.00  0.00    -0.200 F 
ENDBRANCH  55  79
BRANCH  67  90
ATOM     90  C   UNL A   1      42.313  29.632  33.705  1.00  0.00     0.064 A 
ATOM     91  C   UNL A   1      41.890  28.294  33.601  1.00  0.00     0.173 A 
ATOM     92  C   UNL A   1      42.587  30.120  34.988  1.00  0.00     0.173 A 
ATOM     93  F   UNL A   1      41.696  27.720  32.408  1.00  0.00    -0.203 F 
ATOM     94  C   UNL A   1      41.713  27.501  34.735  1.00  0.00     0.198 A 
ATOM     95  C   UNL A   1      42.446  29.316  36.115  1.00  0.00     0.198 A 
ATOM     96  F   UNL A   1      43.041  31.373  35.146  1.00  0.00    -0.203 F 
ATOM     97  F   UNL A   1      41.297  26.232  34.610  1.00  0.00    -0.200 F 
ATOM     98  C   UNL A   1      41.999  28.011  35.990  1.00  0.00     0.200 A 
ATOM     99  F   UNL A   1      42.771  29.800  37.322  1.00  0.00    -0.200 F 
ATOM    100  F   UNL A   1      41.868  27.238  37.077  1.00  0.00    -0.200 F 
ENDBRANCH  67  90
ENDBRANCH  41  42
ENDBRANCH  33  36
ENDBRANCH  31  32
ENDBRANCH  30  31
ENDBRANCH  29  30
ENDBRANCH   1  29
TORSDOF 15
ENDMDL
MODEL 3
REMARK VINA RESULT:     -12.5      1.265      2.032
REMARK SMILES Cc1nn(CC(=O)NCCCCNC(=O)c2ccc(-c3c4nc(c(-c5c(F)c(F)c(F)c(F)c5F)c5ccc([nH]5)c(-c5c(F)c(F)c(F)c(F)c5F)c5nc(c(-c6c(F)c(F)c(F)c(F)c6F)c6ccc3[nH]6)C=C5)C=C4)cc2)c(C)c1NC(=O)C(=O)Nc1ccc(F)cc1
REMARK SMILES IDX 9 1 8 2 6 3 7 4 5 6 4 7 1 8 2 9 3 10 81 11 79 12 80 13 82 14
REMARK SMILES IDX 83 15 84 17 85 18 86 19 87 20 88 22 89 23 94 24 90 25 93 26
REMARK SMILES IDX 91 27 92 28 10 29 11 30 12 31 13 32 14 33 15 35 16 36 17 37
REMARK SMILES IDX 78 38 18 39 77 40 19 41 20 42 21 43 71 44 22 45 76 46 70 47
REMARK SMILES IDX 72 48 23 49 75 50 69 51 68 52 24 54 56 55 36 56 55 57 37 58
REMARK SMILES IDX 40 59 54 60 73 61 38 62 39 63 53 65 74 66 41 67 25 68 26 69
REMARK SMILES IDX 34 70 27 71 28 72 32 73 35 74 29 75 30 76 33 77 31 78 57 79
REMARK SMILES IDX 58 80 66 81 59 82 60 83 64 84 67 85 61 86 62 87 65 88 63 89
REMARK SMILES IDX 42 90 43 91 51 92 44 93 45 94 49 95 52 96 46 97 47 98 50 99
REMARK SMILES IDX 48 100
REMARK H PARENT 8 5 82 16 87 21 13 34 72 53 40 64
REMARK Flexibility Score: inf
ROOT
ATOM      1  C   UNL A   1      40.043  21.333  26.458  1.00  0.00     0.116 C 
ENDROOT
BRANCH   1   2
ATOM      2  N   UNL A   1      39.261  22.545  26.591  1.00  0.00    -0.354 N 
ATOM      3  C   UNL A   1      38.008  22.877  26.167  1.00  0.00     0.241 C 
ATOM      4  O   UNL A   1      37.627  24.016  26.476  1.00  0.00    -0.273 OA
ATOM      5  H   UNL A   1      39.721  23.265  27.080  1.00  0.00     0.163 HD
BRANCH   3   6
ATOM      6  C   UNL A   1      37.035  21.918  25.512  1.00  0.00     0.244 C 
BRANCH   6   7
ATOM      7  N   UNL A   1      35.645  22.337  25.483  1.00  0.00    -0.258 N 
ATOM      8  C   UNL A   1      32.682  22.700  27.356  1.00  0.00     0.071 C 
ATOM      9  C   UNL A   1      33.726  22.680  26.296  1.00  0.00     0.083 A 
ATOM     10  N   UNL A   1      34.945  22.256  26.622  1.00  0.00    -0.175 NA
ATOM     11  C   UNL A   1      33.635  23.054  24.916  1.00  0.00     0.086 A 
ATOM     12  C   UNL A   1      34.893  22.765  24.402  1.00  0.00     0.060 A 
ATOM     13  C   UNL A   1      35.514  22.902  23.054  1.00  0.00     0.069 C 
BRANCH  11  14
ATOM     14  N   UNL A   1      32.488  23.610  24.370  1.00  0.00    -0.315 N 
ATOM     15  C   UNL A   1      32.189  24.785  23.723  1.00  0.00     0.314 C 
ATOM     16  H   UNL A   1      31.702  23.025  24.468  1.00  0.00     0.170 HD
ATOM     17  O   UNL A   1      31.026  25.022  23.409  1.00  0.00    -0.263 OA
BRANCH  15  18
ATOM     18  C   UNL A   1      33.296  25.711  23.266  1.00  0.00     0.314 C 
ATOM     19  O   UNL A   1      33.550  25.785  22.066  1.00  0.00    -0.263 OA
ATOM     20  N   UNL A   1      34.056  26.424  24.181  1.00  0.00    -0.318 N 
ATOM     21  H   UNL A   1      35.027  26.268  24.206  1.00  0.00     0.170 HD
BRANCH  20  22
ATOM     22  C   UNL A   1      33.506  27.362  25.077  1.00  0.00     0.041 A 
ATOM     23  C   UNL A   1      33.512  28.694  24.640  1.00  0.00     0.029 A 
ATOM     24  C   UNL A   1      32.924  27.037  26.300  1.00  0.00     0.029 A 
ATOM     25  C   UNL A   1      32.834  29.675  25.360  1.00  0.00     0.041 A 
ATOM     26  C   UNL A   1      32.261  28.027  27.034  1.00  0.00     0.041 A 
ATOM     27  C   UNL A   1      32.199  29.328  26.542  1.00  0.00     0.123 A 
ATOM     28  F   UNL A   1      31.510  30.258  27.214  1.00  0.00    -0.207 F 
ENDBRANCH  20  22
ENDBRANCH  15  18
ENDBRANCH  11  14
ENDBRANCH   6   7
ENDBRANCH   3   6
ENDBRANCH   1   2
BRANCH   1  29
ATOM     29  C   UNL A   1      41.091  21.172  27.561  1.00  0.00     0.023 C 
BRANCH  29  30
ATOM     30  C   UNL A   1      42.326  20.349  27.169  1.00  0.00     0.023 C 
BRANCH  30  31
ATOM     31  C   UNL A   1      42.308  19.826  25.740  1.00  0.00     0.116 C 
BRANCH  31  32
ATOM     32  N   UNL A   1      43.641  19.523  25.214  1.00  0.00    -0.352 N 
ATOM     33  C   UNL A   1      44.554  20.429  24.711  1.00  0.00     0.251 C 
ATOM     34  H   UNL A   1      43.914  18.578  25.222  1.00  0.00     0.163 HD
ATOM     35  O   UNL A   1      45.452  20.087  23.944  1.00  0.00    -0.269 OA
BRANCH  33  36
ATOM     36  C   UNL A   1      44.443  21.829  25.145  1.00  0.00     0.039 A 
ATOM     37  C   UNL A   1      43.431  22.674  24.683  1.00  0.00     0.014 A 
ATOM     38  C   UNL A   1      45.361  22.256  26.102  1.00  0.00     0.014 A 
ATOM     39  C   UNL A   1      43.299  23.933  25.262  1.00  0.00     0.010 A 
ATOM     40  C   UNL A   1      45.137  23.429  26.772  1.00  0.00     0.010 A 
ATOM     41  C   UNL A   1      44.147  24.295  26.322  1.00  0.00    -0.014 A 
BRANCH  41  42
ATOM     42  C   UNL A   1      43.937  25.527  27.073  1.00  0.00     0.031 A 
ATOM     43  C   UNL A   1      44.885  26.624  26.729  1.00  0.00     0.074 A 
ATOM     44  C   UNL A   1      42.833  25.731  27.826  1.00  0.00     0.049 A 
ATOM     45  N   UNL A   1      45.781  27.158  27.489  1.00  0.00    -0.248 NA
ATOM     46  C   UNL A   1      44.940  27.096  25.334  1.00  0.00     0.031 C 
ATOM     47  C   UNL A   1      41.668  24.850  27.986  1.00  0.00     0.029 A 
ATOM     48  N   UNL A   1      42.464  26.831  28.537  1.00  0.00    -0.354 N 
ATOM     49  C   UNL A   1      46.377  28.170  26.739  1.00  0.00     0.074 A 
ATOM     50  C   UNL A   1      45.952  27.965  25.380  1.00  0.00     0.031 C 
ATOM     51  C   UNL A   1      40.643  25.540  28.535  1.00  0.00     0.029 A 
ATOM     52  C   UNL A   1      41.128  26.848  28.929  1.00  0.00     0.049 A 
ATOM     53  H   UNL A   1      43.092  27.558  28.757  1.00  0.00     0.167 HD
ATOM     54  C   UNL A   1      46.958  29.239  27.352  1.00  0.00     0.037 A 
ATOM     55  C   UNL A   1      40.467  27.876  29.518  1.00  0.00     0.037 A 
ATOM     56  C   UNL A   1      47.174  28.967  28.751  1.00  0.00     0.049 A 
ATOM     57  C   UNL A   1      41.494  28.775  30.097  1.00  0.00     0.074 A 
ATOM     58  C   UNL A   1      47.925  28.061  29.472  1.00  0.00     0.029 A 
ATOM     59  N   UNL A   1      46.242  29.464  29.627  1.00  0.00    -0.354 N 
ATOM     60  N   UNL A   1      42.272  28.440  31.089  1.00  0.00    -0.248 NA
ATOM     61  C   UNL A   1      41.968  29.872  29.271  1.00  0.00     0.031 C 
ATOM     62  C   UNL A   1      47.116  27.722  30.597  1.00  0.00     0.029 A 
ATOM     63  C   UNL A   1      45.952  28.493  30.546  1.00  0.00     0.049 A 
ATOM     64  H   UNL A   1      45.848  30.366  29.599  1.00  0.00     0.167 HD
ATOM     65  C   UNL A   1      43.512  28.962  30.751  1.00  0.00     0.074 A 
ATOM     66  C   UNL A   1      43.240  29.913  29.675  1.00  0.00     0.031 C 
ATOM     67  C   UNL A   1      44.660  28.355  31.175  1.00  0.00     0.037 A 
BRANCH  54  68
ATOM     68  C   UNL A   1      46.944  30.658  26.825  1.00  0.00     0.064 A 
ATOM     69  C   UNL A   1      48.134  31.416  26.883  1.00  0.00     0.173 A 
ATOM     70  C   UNL A   1      45.768  31.399  26.581  1.00  0.00     0.173 A 
ATOM     71  F   UNL A   1      49.312  30.820  27.119  1.00  0.00    -0.203 F 
ATOM     72  C   UNL A   1      48.129  32.812  26.805  1.00  0.00     0.198 A 
ATOM     73  C   UNL A   1      45.774  32.788  26.452  1.00  0.00     0.198 A 
ATOM     74  F   UNL A   1      44.555  30.837  26.575  1.00  0.00    -0.203 F 
ATOM     75  F   UNL A   1      49.264  33.494  27.009  1.00  0.00    -0.200 F 
ATOM     76  C   UNL A   1      46.947  33.497  26.600  1.00  0.00     0.200 A 
ATOM     77  F   UNL A   1      44.615  33.436  26.273  1.00  0.00    -0.200 F 
ATOM     78  F   UNL A   1      46.927  34.836  26.596  1.00  0.00    -0.200 F 
ENDBRANCH  54  68
BRANCH  55  79
ATOM     79  C   UNL A   1      39.061  28.308  29.329  1.00  0.00     0.064 A 
ATOM     80  C   UNL A   1      38.201  28.476  30.427  1.00  0.00     0.173 A 
ATOM     81  C   UNL A   1      38.627  28.856  28.106  1.00  0.00     0.173 A 
ATOM     82  F   UNL A   1      38.559  28.024  31.638  1.00  0.00    -0.203 F 
ATOM     83  C   UNL A   1      36.994  29.178  30.317  1.00  0.00     0.198 A 
ATOM     84  C   UNL A   1      37.421  29.554  27.996  1.00  0.00     0.198 A 
ATOM     85  F   UNL A   1      39.410  28.811  27.018  1.00  0.00    -0.203 F 
ATOM     86  F   UNL A   1      36.232  29.376  31.402  1.00  0.00    -0.200 F 
ATOM     87  C   UNL A   1      36.613  29.727  29.104  1.00  0.00     0.200 A 
ATOM     88  F   UNL A   1      37.083  30.113  26.826  1.00  0.00    -0.200 F 
ATOM     89  F   UNL A   1      35.492  30.458  29.012  1.00  0.00    -0.200 F 
ENDBRANCH  55  79
BRANCH  67  90
ATOM     90  C   UNL A   1      44.539  27.311  32.252  1.00  0.00     0.064 A 
ATOM     91  C   UNL A   1      44.391  27.589  33.623  1.00  0.00     0.173 A 
ATOM     92  C   UNL A   1      44.439  25.972  31.855  1.00  0.00     0.173 A 
ATOM     93  F   UNL A   1      44.381  28.848  34.077  1.00  0.00    -0.203 F 
ATOM     94  C   UNL A   1      44.193  26.567  34.551  1.00  0.00     0.198 A 
ATOM     95  C   UNL A   1      44.203  24.958  32.778  1.00  0.00     0.198 A 
ATOM     96  F   UNL A   1      44.521  25.651  30.554  1.00  0.00    -0.203 F 
ATOM     97  F   UNL A   1      44.068  26.857  35.856  1.00  0.00    -0.200 F 
ATOM     98  C   UNL A   1      44.091  25.253  34.126  1.00  0.00     0.200 A 
ATOM     99  F   UNL A   1      44.058  23.694  32.354  1.00  0.00    -0.200 F 
ATOM    100  F   UNL A   1      43.861  24.274  35.012  1.00  0.00    -0.200 F 
ENDBRANCH  67  90
ENDBRANCH  41  42
ENDBRANCH  33  36
ENDBRANCH  31  32
ENDBRANCH  30  31
ENDBRANCH  29  30
ENDBRANCH   1  29
TORSDOF 15
ENDMDL
