MODEL 1
REMARK VINA RESULT:     -11.5      0.000      0.000
REMARK SMILES CC[C@](C)(C(=O)NCCCCNC(=O)c1ccc(-c2c3nc(c(-c4c(F)c(F)c(F)c(F)c4F)c4ccc([nH]4)c(-c4c(F)c(F)c(F)c(F)c4F)c4nc(c(-c5c(F)c(F)c(F)c(F)c5F)c5ccc2[nH]5)C=C4)C=C3)cc1)[C@H]1CCC[C@H](OC)C1
REMARK SMILES IDX 9 1 8 2 7 3 5 4 6 5 3 7 4 8 2 9 1 10 78 11 79 12 85 13 80 14
REMARK SMILES IDX 82 15 81 16 83 17 84 18 10 19 11 20 12 21 13 22 14 24 15 25
REMARK SMILES IDX 16 26 77 27 17 28 76 29 18 30 19 31 20 32 70 33 21 34 75 35
REMARK SMILES IDX 69 36 71 37 22 38 74 39 68 40 67 41 23 43 55 44 35 45 54 46
REMARK SMILES IDX 36 47 39 48 53 49 72 50 37 51 38 52 52 54 73 55 40 56 24 57
REMARK SMILES IDX 25 58 33 59 26 60 27 61 31 62 34 63 28 64 29 65 32 66 30 67
REMARK SMILES IDX 56 68 57 69 65 70 58 71 59 72 63 73 66 74 60 75 61 76 64 77
REMARK SMILES IDX 62 78 41 79 42 80 50 81 43 82 44 83 48 84 51 85 45 86 46 87
REMARK SMILES IDX 49 88 47 89
REMARK H PARENT 7 6 12 23 71 42 39 53
REMARK Flexibility Score: inf
ROOT
ATOM      1  C   UNL A   1      37.070  21.266  24.464  1.00  0.00     0.023 C 
ENDROOT
BRANCH   1   2
ATOM      2  C   UNL A   1      36.803  22.336  25.517  1.00  0.00     0.116 C 
BRANCH   2   3
ATOM      3  N   UNL A   1      35.808  21.897  26.477  1.00  0.00    -0.356 N 
ATOM      4  C   UNL A   1      34.541  22.325  26.744  1.00  0.00     0.226 C 
ATOM      5  O   UNL A   1      34.054  21.875  27.781  1.00  0.00    -0.274 OA
ATOM      6  H   UNL A   1      36.104  21.148  27.045  1.00  0.00     0.163 HD
BRANCH   4   7
ATOM      7  C   UNL A   1      33.809  23.368  25.847  1.00  0.00     0.049 C 
ATOM      8  C   UNL A   1      32.486  23.670  26.613  1.00  0.00     0.022 C 
BRANCH   7   9
ATOM      9  C   UNL A   1      34.718  24.628  25.668  1.00  0.00     0.013 C 
ATOM     10  C   UNL A   1      34.034  25.992  25.740  1.00  0.00     0.005 C 
ENDBRANCH   7   9
BRANCH   7  11
ATOM     11  C   UNL A   1      33.356  22.732  24.442  1.00  0.00     0.007 C 
ATOM     12  C   UNL A   1      31.837  22.452  24.302  1.00  0.00     0.005 C 
ATOM     13  C   UNL A   1      33.821  23.378  23.119  1.00  0.00     0.036 C 
ATOM     14  C   UNL A   1      30.977  23.624  23.811  1.00  0.00     0.003 C 
ATOM     15  C   UNL A   1      33.079  24.655  22.748  1.00  0.00     0.118 C 
ATOM     16  C   UNL A   1      31.573  24.409  22.642  1.00  0.00     0.032 C 
BRANCH  15  17
ATOM     17  O   UNL A   1      33.609  25.291  21.577  1.00  0.00    -0.381 OA
ATOM     18  C   UNL A   1      32.694  25.581  20.531  1.00  0.00     0.195 C 
ENDBRANCH  15  17
ENDBRANCH   7  11
ENDBRANCH   4   7
ENDBRANCH   2   3
ENDBRANCH   1   2
BRANCH   1  19
ATOM     19  C   UNL A   1      37.863  20.067  24.979  1.00  0.00     0.023 C 
BRANCH  19  20
ATOM     20  C   UNL A   1      39.142  20.421  25.728  1.00  0.00     0.116 C 
BRANCH  20  21
ATOM     21  N   UNL A   1      40.060  19.296  25.844  1.00  0.00    -0.352 N 
ATOM     22  C   UNL A   1      41.414  19.302  26.073  1.00  0.00     0.251 C 
ATOM     23  H   UNL A   1      39.651  18.406  25.745  1.00  0.00     0.163 HD
ATOM     24  O   UNL A   1      42.065  18.270  25.997  1.00  0.00    -0.269 OA
BRANCH  22  25
ATOM     25  C   UNL A   1      42.082  20.583  26.378  1.00  0.00     0.039 A 
ATOM     26  C   UNL A   1      42.489  21.401  25.323  1.00  0.00     0.014 A 
ATOM     27  C   UNL A   1      42.259  20.990  27.704  1.00  0.00     0.014 A 
ATOM     28  C   UNL A   1      43.009  22.666  25.598  1.00  0.00     0.010 A 
ATOM     29  C   UNL A   1      42.701  22.280  27.971  1.00  0.00     0.010 A 
ATOM     30  C   UNL A   1      43.081  23.130  26.921  1.00  0.00    -0.014 A 
BRANCH  30  31
ATOM     31  C   UNL A   1      43.548  24.504  27.230  1.00  0.00     0.031 A 
ATOM     32  C   UNL A   1      42.582  25.522  27.765  1.00  0.00     0.074 A 
ATOM     33  C   UNL A   1      44.822  24.851  26.961  1.00  0.00     0.049 A 
ATOM     34  N   UNL A   1      42.777  26.790  28.030  1.00  0.00    -0.248 NA
ATOM     35  C   UNL A   1      41.205  25.063  28.008  1.00  0.00     0.031 C 
ATOM     36  C   UNL A   1      45.837  23.965  26.388  1.00  0.00     0.029 A 
ATOM     37  N   UNL A   1      45.476  26.046  27.123  1.00  0.00    -0.354 N 
ATOM     38  C   UNL A   1      41.548  27.278  28.452  1.00  0.00     0.074 A 
ATOM     39  C   UNL A   1      40.601  26.190  28.355  1.00  0.00     0.031 C 
ATOM     40  C   UNL A   1      46.992  24.641  26.270  1.00  0.00     0.029 A 
ATOM     41  C   UNL A   1      46.789  26.014  26.722  1.00  0.00     0.049 A 
ATOM     42  H   UNL A   1      45.046  26.850  27.493  1.00  0.00     0.167 HD
ATOM     43  C   UNL A   1      41.244  28.518  28.905  1.00  0.00     0.037 A 
ATOM     44  C   UNL A   1      47.721  26.986  26.713  1.00  0.00     0.037 A 
ATOM     45  C   UNL A   1      42.196  29.590  29.025  1.00  0.00     0.049 A 
ATOM     46  C   UNL A   1      47.355  28.354  27.221  1.00  0.00     0.074 A 
ATOM     47  C   UNL A   1      42.003  30.861  29.536  1.00  0.00     0.029 A 
ATOM     48  N   UNL A   1      43.522  29.515  28.627  1.00  0.00    -0.354 N 
ATOM     49  N   UNL A   1      46.210  28.786  27.690  1.00  0.00    -0.248 NA
ATOM     50  C   UNL A   1      48.417  29.371  27.203  1.00  0.00     0.031 C 
ATOM     51  C   UNL A   1      43.202  31.570  29.404  1.00  0.00     0.029 A 
ATOM     52  C   UNL A   1      44.155  30.725  28.859  1.00  0.00     0.049 A 
ATOM     53  H   UNL A   1      43.951  28.718  28.237  1.00  0.00     0.167 HD
ATOM     54  C   UNL A   1      46.418  30.110  28.047  1.00  0.00     0.074 A 
ATOM     55  C   UNL A   1      47.805  30.408  27.757  1.00  0.00     0.031 C 
ATOM     56  C   UNL A   1      45.538  31.001  28.569  1.00  0.00     0.037 A 
BRANCH  43  57
ATOM     57  C   UNL A   1      39.821  28.777  29.310  1.00  0.00     0.064 A 
ATOM     58  C   UNL A   1      38.873  29.261  28.395  1.00  0.00     0.173 A 
ATOM     59  C   UNL A   1      39.394  28.513  30.619  1.00  0.00     0.173 A 
ATOM     60  F   UNL A   1      39.233  29.542  27.134  1.00  0.00    -0.203 F 
ATOM     61  C   UNL A   1      37.558  29.498  28.785  1.00  0.00     0.198 A 
ATOM     62  C   UNL A   1      38.070  28.722  30.997  1.00  0.00     0.198 A 
ATOM     63  F   UNL A   1      40.259  28.045  31.532  1.00  0.00    -0.203 F 
ATOM     64  F   UNL A   1      36.682  30.009  27.908  1.00  0.00    -0.200 F 
ATOM     65  C   UNL A   1      37.155  29.221  30.083  1.00  0.00     0.200 A 
ATOM     66  F   UNL A   1      37.680  28.441  32.248  1.00  0.00    -0.200 F 
ATOM     67  F   UNL A   1      35.887  29.443  30.454  1.00  0.00    -0.200 F 
ENDBRANCH  43  57
BRANCH  44  68
ATOM     68  C   UNL A   1      49.096  26.693  26.231  1.00  0.00     0.064 A 
ATOM     69  C   UNL A   1      50.060  26.156  27.094  1.00  0.00     0.173 A 
ATOM     70  C   UNL A   1      49.476  26.948  24.905  1.00  0.00     0.173 A 
ATOM     71  F   UNL A   1      49.749  25.914  28.376  1.00  0.00    -0.203 F 
ATOM     72  C   UNL A   1      51.359  25.903  26.656  1.00  0.00     0.198 A 
ATOM     73  C   UNL A   1      50.767  26.668  24.461  1.00  0.00     0.198 A 
ATOM     74  F   UNL A   1      48.590  27.457  24.038  1.00  0.00    -0.203 F 
ATOM     75  F   UNL A   1      52.273  25.433  27.515  1.00  0.00    -0.200 F 
ATOM     76  C   UNL A   1      51.709  26.155  25.339  1.00  0.00     0.200 A 
ATOM     77  F   UNL A   1      51.098  26.900  23.183  1.00  0.00    -0.200 F 
ATOM     78  F   UNL A   1      52.957  25.909  24.917  1.00  0.00    -0.200 F 
ENDBRANCH  44  68
BRANCH  56  79
ATOM     79  C   UNL A   1      46.057  32.373  28.886  1.00  0.00     0.064 A 
ATOM     80  C   UNL A   1      46.631  32.674  30.130  1.00  0.00     0.173 A 
ATOM     81  C   UNL A   1      46.016  33.389  27.918  1.00  0.00     0.173 A 
ATOM     82  F   UNL A   1      46.680  31.742  31.094  1.00  0.00    -0.203 F 
ATOM     83  C   UNL A   1      47.122  33.947  30.402  1.00  0.00     0.198 A 
ATOM     84  C   UNL A   1      46.535  34.653  28.183  1.00  0.00     0.198 A 
ATOM     85  F   UNL A   1      45.483  33.150  26.711  1.00  0.00    -0.203 F 
ATOM     86  F   UNL A   1      47.623  34.226  31.613  1.00  0.00    -0.200 F 
ATOM     87  C   UNL A   1      47.082  34.933  29.426  1.00  0.00     0.200 A 
ATOM     88  F   UNL A   1      46.508  35.599  27.235  1.00  0.00    -0.200 F 
ATOM     89  F   UNL A   1      47.562  36.157  29.687  1.00  0.00    -0.200 F 
ENDBRANCH  56  79
ENDBRANCH  30  31
ENDBRANCH  22  25
ENDBRANCH  20  21
ENDBRANCH  19  20
ENDBRANCH   1  19
TORSDOF 14
ENDMDL
MODEL 2
REMARK VINA RESULT:     -11.5      5.909     11.241
REMARK SMILES CC[C@](C)(C(=O)NCCCCNC(=O)c1ccc(-c2c3nc(c(-c4c(F)c(F)c(F)c(F)c4F)c4ccc([nH]4)c(-c4c(F)c(F)c(F)c(F)c4F)c4nc(c(-c5c(F)c(F)c(F)c(F)c5F)c5ccc2[nH]5)C=C4)C=C3)cc1)[C@H]1CCC[C@H](OC)C1
REMARK SMILES IDX 9 1 8 2 7 3 5 4 6 5 3 7 4 8 2 9 1 10 78 11 79 12 85 13 80 14
REMARK SMILES IDX 82 15 81 16 83 17 84 18 10 19 11 20 12 21 13 22 14 24 15 25
REMARK SMILES IDX 16 26 77 27 17 28 76 29 18 30 19 31 20 32 70 33 21 34 75 35
REMARK SMILES IDX 69 36 71 37 22 38 74 39 68 40 67 41 23 43 55 44 35 45 54 46
REMARK SMILES IDX 36 47 39 48 53 49 72 50 37 51 38 52 52 54 73 55 40 56 24 57
REMARK SMILES IDX 25 58 33 59 26 60 27 61 31 62 34 63 28 64 29 65 32 66 30 67
REMARK SMILES IDX 56 68 57 69 65 70 58 71 59 72 63 73 66 74 60 75 61 76 64 77
REMARK SMILES IDX 62 78 41 79 42 80 50 81 43 82 44 83 48 84 51 85 45 86 46 87
REMARK SMILES IDX 49 88 47 89
REMARK H PARENT 7 6 12 23 71 42 39 53
REMARK Flexibility Score: inf
ROOT
ATOM      1  C   UNL A   1      31.863  30.390  26.818  1.00  0.00     0.023 C 
ENDROOT
BRANCH   1   2
ATOM      2  C   UNL A   1      31.387  29.606  25.600  1.00  0.00     0.116 C 
BRANCH   2   3
ATOM      3  N   UNL A   1      32.334  29.702  24.506  1.00  0.00    -0.356 N 
ATOM      4  C   UNL A   1      33.082  28.764  23.856  1.00  0.00     0.226 C 
ATOM      5  O   UNL A   1      33.954  29.222  23.118  1.00  0.00    -0.274 OA
ATOM      6  H   UNL A   1      32.464  30.618  24.167  1.00  0.00     0.163 HD
BRANCH   4   7
ATOM      7  C   UNL A   1      32.896  27.236  24.102  1.00  0.00     0.049 C 
ATOM      8  C   UNL A   1      33.590  26.565  22.878  1.00  0.00     0.022 C 
BRANCH   7   9
ATOM      9  C   UNL A   1      33.548  26.847  25.469  1.00  0.00     0.013 C 
ATOM     10  C   UNL A   1      34.381  25.568  25.500  1.00  0.00     0.005 C 
ENDBRANCH   7   9
BRANCH   7  11
ATOM     11  C   UNL A   1      31.351  26.802  24.012  1.00  0.00     0.007 C 
ATOM     12  C   UNL A   1      30.996  25.864  22.828  1.00  0.00     0.005 C 
ATOM     13  C   UNL A   1      30.634  26.246  25.261  1.00  0.00     0.036 C 
ATOM     14  C   UNL A   1      31.188  24.362  23.076  1.00  0.00     0.003 C 
ATOM     15  C   UNL A   1      30.990  24.806  25.602  1.00  0.00     0.118 C 
ATOM     16  C   UNL A   1      30.683  23.868  24.432  1.00  0.00     0.032 C 
BRANCH  15  17
ATOM     17  O   UNL A   1      30.397  24.356  26.827  1.00  0.00    -0.381 OA
ATOM     18  C   UNL A   1      30.071  22.978  26.920  1.00  0.00     0.195 C 
ENDBRANCH  15  17
ENDBRANCH   7  11
ENDBRANCH   4   7
ENDBRANCH   2   3
ENDBRANCH   1   2
BRANCH   1  19
ATOM     19  C   UNL A   1      31.734  31.905  26.676  1.00  0.00     0.023 C 
BRANCH  19  20
ATOM     20  C   UNL A   1      32.884  32.703  27.278  1.00  0.00     0.116 C 
BRANCH  20  21
ATOM     21  N   UNL A   1      32.509  34.069  27.616  1.00  0.00    -0.352 N 
ATOM     22  C   UNL A   1      33.007  34.887  28.601  1.00  0.00     0.251 C 
ATOM     23  H   UNL A   1      31.798  34.462  27.059  1.00  0.00     0.163 HD
ATOM     24  O   UNL A   1      32.479  35.961  28.847  1.00  0.00    -0.269 OA
BRANCH  22  25
ATOM     25  C   UNL A   1      34.172  34.432  29.386  1.00  0.00     0.039 A 
ATOM     26  C   UNL A   1      33.956  33.793  30.607  1.00  0.00     0.014 A 
ATOM     27  C   UNL A   1      35.468  34.598  28.888  1.00  0.00     0.014 A 
ATOM     28  C   UNL A   1      35.040  33.252  31.298  1.00  0.00     0.010 A 
ATOM     29  C   UNL A   1      36.534  33.988  29.536  1.00  0.00     0.010 A 
ATOM     30  C   UNL A   1      36.331  33.309  30.748  1.00  0.00    -0.014 A 
BRANCH  30  31
ATOM     31  C   UNL A   1      37.484  32.664  31.423  1.00  0.00     0.031 A 
ATOM     32  C   UNL A   1      38.200  31.523  30.757  1.00  0.00     0.074 A 
ATOM     33  C   UNL A   1      37.837  33.058  32.662  1.00  0.00     0.049 A 
ATOM     34  N   UNL A   1      39.181  30.784  31.210  1.00  0.00    -0.248 NA
ATOM     35  C   UNL A   1      37.734  31.145  29.414  1.00  0.00     0.031 C 
ATOM     36  C   UNL A   1      37.181  34.115  33.433  1.00  0.00     0.029 A 
ATOM     37  N   UNL A   1      38.828  32.604  33.495  1.00  0.00    -0.354 N 
ATOM     38  C   UNL A   1      39.434  29.846  30.218  1.00  0.00     0.074 A 
ATOM     39  C   UNL A   1      38.470  30.072  29.164  1.00  0.00     0.031 C 
ATOM     40  C   UNL A   1      37.803  34.245  34.616  1.00  0.00     0.029 A 
ATOM     41  C   UNL A   1      38.875  33.258  34.702  1.00  0.00     0.049 A 
ATOM     42  H   UNL A   1      39.448  31.880  33.251  1.00  0.00     0.167 HD
ATOM     43  C   UNL A   1      40.402  28.900  30.179  1.00  0.00     0.037 A 
ATOM     44  C   UNL A   1      39.686  33.076  35.761  1.00  0.00     0.037 A 
ATOM     45  C   UNL A   1      41.376  28.698  31.219  1.00  0.00     0.049 A 
ATOM     46  C   UNL A   1      40.753  32.016  35.691  1.00  0.00     0.074 A 
ATOM     47  C   UNL A   1      42.438  27.812  31.244  1.00  0.00     0.029 A 
ATOM     48  N   UNL A   1      41.404  29.392  32.419  1.00  0.00    -0.354 N 
ATOM     49  N   UNL A   1      41.033  31.186  34.716  1.00  0.00    -0.248 NA
ATOM     50  C   UNL A   1      41.620  31.873  36.869  1.00  0.00     0.031 C 
ATOM     51  C   UNL A   1      43.081  27.938  32.480  1.00  0.00     0.029 A 
ATOM     52  C   UNL A   1      42.452  28.939  33.203  1.00  0.00     0.049 A 
ATOM     53  H   UNL A   1      40.773  30.104  32.675  1.00  0.00     0.167 HD
ATOM     54  C   UNL A   1      42.121  30.442  35.150  1.00  0.00     0.074 A 
ATOM     55  C   UNL A   1      42.462  30.931  36.470  1.00  0.00     0.031 C 
ATOM     56  C   UNL A   1      42.780  29.442  34.512  1.00  0.00     0.037 A 
BRANCH  43  57
ATOM     57  C   UNL A   1      40.456  28.014  28.967  1.00  0.00     0.064 A 
ATOM     58  C   UNL A   1      39.735  26.812  28.903  1.00  0.00     0.173 A 
ATOM     59  C   UNL A   1      41.215  28.385  27.848  1.00  0.00     0.173 A 
ATOM     60  F   UNL A   1      39.004  26.405  29.951  1.00  0.00    -0.203 F 
ATOM     61  C   UNL A   1      39.796  26.001  27.773  1.00  0.00     0.198 A 
ATOM     62  C   UNL A   1      41.248  27.587  26.708  1.00  0.00     0.198 A 
ATOM     63  F   UNL A   1      41.920  29.527  27.856  1.00  0.00    -0.203 F 
ATOM     64  F   UNL A   1      39.140  24.832  27.754  1.00  0.00    -0.200 F 
ATOM     65  C   UNL A   1      40.545  26.392  26.674  1.00  0.00     0.200 A 
ATOM     66  F   UNL A   1      41.963  27.972  25.642  1.00  0.00    -0.200 F 
ATOM     67  F   UNL A   1      40.597  25.613  25.585  1.00  0.00    -0.200 F 
ENDBRANCH  43  57
BRANCH  44  68
ATOM     68  C   UNL A   1      39.541  33.932  36.966  1.00  0.00     0.064 A 
ATOM     69  C   UNL A   1      38.807  33.492  38.076  1.00  0.00     0.173 A 
ATOM     70  C   UNL A   1      40.126  35.205  37.034  1.00  0.00     0.173 A 
ATOM     71  F   UNL A   1      38.212  32.290  38.050  1.00  0.00    -0.203 F 
ATOM     72  C   UNL A   1      38.645  34.300  39.199  1.00  0.00     0.198 A 
ATOM     73  C   UNL A   1      39.987  36.001  38.169  1.00  0.00     0.198 A 
ATOM     74  F   UNL A   1      40.842  35.672  36.001  1.00  0.00    -0.203 F 
ATOM     75  F   UNL A   1      37.899  33.873  40.227  1.00  0.00    -0.200 F 
ATOM     76  C   UNL A   1      39.239  35.552  39.247  1.00  0.00     0.200 A 
ATOM     77  F   UNL A   1      40.575  37.205  38.217  1.00  0.00    -0.200 F 
ATOM     78  F   UNL A   1      39.086  36.327  40.329  1.00  0.00    -0.200 F 
ENDBRANCH  44  68
BRANCH  56  79
ATOM     79  C   UNL A   1      43.953  28.831  35.221  1.00  0.00     0.064 A 
ATOM     80  C   UNL A   1      45.257  29.314  35.040  1.00  0.00     0.173 A 
ATOM     81  C   UNL A   1      43.764  27.773  36.123  1.00  0.00     0.173 A 
ATOM     82  F   UNL A   1      45.492  30.314  34.176  1.00  0.00    -0.203 F 
ATOM     83  C   UNL A   1      46.331  28.746  35.717  1.00  0.00     0.198 A 
ATOM     84  C   UNL A   1      44.836  27.226  36.822  1.00  0.00     0.198 A 
ATOM     85  F   UNL A   1      42.535  27.277  36.337  1.00  0.00    -0.203 F 
ATOM     86  F   UNL A   1      47.574  29.193  35.493  1.00  0.00    -0.200 F 
ATOM     87  C   UNL A   1      46.119  27.709  36.614  1.00  0.00     0.200 A 
ATOM     88  F   UNL A   1      44.628  26.234  37.698  1.00  0.00    -0.200 F 
ATOM     89  F   UNL A   1      47.154  27.167  37.272  1.00  0.00    -0.200 F 
ENDBRANCH  56  79
ENDBRANCH  30  31
ENDBRANCH  22  25
ENDBRANCH  20  21
ENDBRANCH  19  20
ENDBRANCH   1  19
TORSDOF 14
ENDMDL
MODEL 3
REMARK VINA RESULT:     -11.4      5.952     11.277
REMARK SMILES CC[C@](C)(C(=O)NCCCCNC(=O)c1ccc(-c2c3nc(c(-c4c(F)c(F)c(F)c(F)c4F)c4ccc([nH]4)c(-c4c(F)c(F)c(F)c(F)c4F)c4nc(c(-c5c(F)c(F)c(F)c(F)c5F)c5ccc2[nH]5)C=C4)C=C3)cc1)[C@H]1CCC[C@H](OC)C1
REMARK SMILES IDX 9 1 8 2 7 3 5 4 6 5 3 7 4 8 2 9 1 10 78 11 79 12 85 13 80 14
REMARK SMILES IDX 82 15 81 16 83 17 84 18 10 19 11 20 12 21 13 22 14 24 15 25
REMARK SMILES IDX 16 26 77 27 17 28 76 29 18 30 19 31 20 32 70 33 21 34 75 35
REMARK SMILES IDX 69 36 71 37 22 38 74 39 68 40 67 41 23 43 55 44 35 45 54 46
REMARK SMILES IDX 36 47 39 48 53 49 72 50 37 51 38 52 52 54 73 55 40 56 24 57
REMARK SMILES IDX 25 58 33 59 26 60 27 61 31 62 34 63 28 64 29 65 32 66 30 67
REMARK SMILES IDX 56 68 57 69 65 70 58 71 59 72 63 73 66 74 60 75 61 76 64 77
REMARK SMILES IDX 62 78 41 79 42 80 50 81 43 82 44 83 48 84 51 85 45 86 46 87
REMARK SMILES IDX 49 88 47 89
REMARK H PARENT 7 6 12 23 71 42 39 53
REMARK Flexibility Score: inf
ROOT
ATOM      1  C   UNL A   1      31.805  30.462  26.762  1.00  0.00     0.023 C 
ENDROOT
BRANCH   1   2
ATOM      2  C   UNL A   1      32.241  30.001  25.376  1.00  0.00     0.116 C 
BRANCH   2   3
ATOM      3  N   UNL A   1      31.099  29.783  24.508  1.00  0.00    -0.356 N 
ATOM      4  C   UNL A   1      30.669  28.687  23.819  1.00  0.00     0.226 C 
ATOM      5  O   UNL A   1      29.780  28.914  22.997  1.00  0.00    -0.274 OA
ATOM      6  H   UNL A   1      30.526  30.576  24.393  1.00  0.00     0.163 HD
BRANCH   4   7
ATOM      7  C   UNL A   1      31.315  27.281  24.002  1.00  0.00     0.049 C 
ATOM      8  C   UNL A   1      30.245  26.294  23.446  1.00  0.00     0.022 C 
BRANCH   7   9
ATOM      9  C   UNL A   1      32.669  27.226  23.223  1.00  0.00     0.013 C 
ATOM     10  C   UNL A   1      32.842  26.093  22.214  1.00  0.00     0.005 C 
ENDBRANCH   7   9
BRANCH   7  11
ATOM     11  C   UNL A   1      31.484  26.902  25.555  1.00  0.00     0.007 C 
ATOM     12  C   UNL A   1      30.397  25.953  26.126  1.00  0.00     0.005 C 
ATOM     13  C   UNL A   1      32.846  26.400  26.081  1.00  0.00     0.036 C 
ATOM     14  C   UNL A   1      30.652  24.450  25.946  1.00  0.00     0.003 C 
ATOM     15  C   UNL A   1      33.164  24.955  25.722  1.00  0.00     0.118 C 
ATOM     16  C   UNL A   1      32.084  24.005  26.243  1.00  0.00     0.032 C 
BRANCH  15  17
ATOM     17  O   UNL A   1      34.480  24.553  26.126  1.00  0.00    -0.381 OA
ATOM     18  C   UNL A   1      35.349  24.074  25.111  1.00  0.00     0.195 C 
ENDBRANCH  15  17
ENDBRANCH   7  11
ENDBRANCH   4   7
ENDBRANCH   2   3
ENDBRANCH   1   2
BRANCH   1  19
ATOM     19  C   UNL A   1      31.572  31.967  26.876  1.00  0.00     0.023 C 
BRANCH  19  20
ATOM     20  C   UNL A   1      32.790  32.770  27.318  1.00  0.00     0.116 C 
BRANCH  20  21
ATOM     21  N   UNL A   1      32.471  34.158  27.626  1.00  0.00    -0.352 N 
ATOM     22  C   UNL A   1      33.011  34.979  28.585  1.00  0.00     0.251 C 
ATOM     23  H   UNL A   1      31.770  34.564  27.067  1.00  0.00     0.163 HD
ATOM     24  O   UNL A   1      32.528  36.079  28.810  1.00  0.00    -0.269 OA
BRANCH  22  25
ATOM     25  C   UNL A   1      34.167  34.499  29.369  1.00  0.00     0.039 A 
ATOM     26  C   UNL A   1      33.942  33.920  30.619  1.00  0.00     0.014 A 
ATOM     27  C   UNL A   1      35.460  34.581  28.845  1.00  0.00     0.014 A 
ATOM     28  C   UNL A   1      35.010  33.353  31.314  1.00  0.00     0.010 A 
ATOM     29  C   UNL A   1      36.507  33.945  29.501  1.00  0.00     0.010 A 
ATOM     30  C   UNL A   1      36.292  33.325  30.742  1.00  0.00    -0.014 A 
BRANCH  30  31
ATOM     31  C   UNL A   1      37.424  32.650  31.424  1.00  0.00     0.031 A 
ATOM     32  C   UNL A   1      38.120  31.496  30.759  1.00  0.00     0.074 A 
ATOM     33  C   UNL A   1      37.776  33.032  32.667  1.00  0.00     0.049 A 
ATOM     34  N   UNL A   1      39.079  30.732  31.218  1.00  0.00    -0.248 NA
ATOM     35  C   UNL A   1      37.656  31.133  29.411  1.00  0.00     0.031 C 
ATOM     36  C   UNL A   1      37.138  34.101  33.437  1.00  0.00     0.029 A 
ATOM     37  N   UNL A   1      38.749  32.552  33.507  1.00  0.00    -0.354 N 
ATOM     38  C   UNL A   1      39.319  29.793  30.224  1.00  0.00     0.074 A 
ATOM     39  C   UNL A   1      38.369  30.045  29.163  1.00  0.00     0.031 C 
ATOM     40  C   UNL A   1      37.753  34.213  34.626  1.00  0.00     0.029 A 
ATOM     41  C   UNL A   1      38.801  33.201  34.716  1.00  0.00     0.049 A 
ATOM     42  H   UNL A   1      39.355  31.815  33.265  1.00  0.00     0.167 HD
ATOM     43  C   UNL A   1      40.264  28.824  30.190  1.00  0.00     0.037 A 
ATOM     44  C   UNL A   1      39.599  32.996  35.781  1.00  0.00     0.037 A 
ATOM     45  C   UNL A   1      41.225  28.596  31.237  1.00  0.00     0.049 A 
ATOM     46  C   UNL A   1      40.641  31.912  35.717  1.00  0.00     0.074 A 
ATOM     47  C   UNL A   1      42.266  27.685  31.268  1.00  0.00     0.029 A 
ATOM     48  N   UNL A   1      41.259  29.286  32.440  1.00  0.00    -0.354 N 
ATOM     49  N   UNL A   1      40.910  31.079  34.741  1.00  0.00    -0.248 NA
ATOM     50  C   UNL A   1      41.495  31.744  36.901  1.00  0.00     0.031 C 
ATOM     51  C   UNL A   1      42.902  27.793  32.510  1.00  0.00     0.029 A 
ATOM     52  C   UNL A   1      42.289  28.805  33.231  1.00  0.00     0.049 A 
ATOM     53  H   UNL A   1      40.642  30.010  32.693  1.00  0.00     0.167 HD
ATOM     54  C   UNL A   1      41.977  30.309  35.181  1.00  0.00     0.074 A 
ATOM     55  C   UNL A   1      42.318  30.785  36.505  1.00  0.00     0.031 C 
ATOM     56  C   UNL A   1      42.618  29.296  34.545  1.00  0.00     0.037 A 
BRANCH  43  57
ATOM     57  C   UNL A   1      40.308  27.942  28.976  1.00  0.00     0.064 A 
ATOM     58  C   UNL A   1      41.050  28.294  27.838  1.00  0.00     0.173 A 
ATOM     59  C   UNL A   1      39.624  26.718  28.960  1.00  0.00     0.173 A 
ATOM     60  F   UNL A   1      41.713  29.460  27.797  1.00  0.00    -0.203 F 
ATOM     61  C   UNL A   1      41.081  27.467  26.719  1.00  0.00     0.198 A 
ATOM     62  C   UNL A   1      39.683  25.878  27.850  1.00  0.00     0.198 A 
ATOM     63  F   UNL A   1      38.903  26.331  30.024  1.00  0.00    -0.203 F 
ATOM     64  F   UNL A   1      41.755  27.848  25.625  1.00  0.00    -0.200 F 
ATOM     65  C   UNL A   1      40.405  26.257  26.729  1.00  0.00     0.200 A 
ATOM     66  F   UNL A   1      39.039  24.703  27.866  1.00  0.00    -0.200 F 
ATOM     67  F   UNL A   1      40.442  25.459  25.653  1.00  0.00    -0.200 F 
ENDBRANCH  43  57
BRANCH  44  68
ATOM     68  C   UNL A   1      39.463  33.852  36.989  1.00  0.00     0.064 A 
ATOM     69  C   UNL A   1      38.701  33.429  38.086  1.00  0.00     0.173 A 
ATOM     70  C   UNL A   1      40.086  35.105  37.070  1.00  0.00     0.173 A 
ATOM     71  F   UNL A   1      38.071  32.246  38.047  1.00  0.00    -0.203 F 
ATOM     72  C   UNL A   1      38.549  34.237  39.211  1.00  0.00     0.198 A 
ATOM     73  C   UNL A   1      39.956  35.900  38.207  1.00  0.00     0.198 A 
ATOM     74  F   UNL A   1      40.831  35.555  36.049  1.00  0.00    -0.203 F 
ATOM     75  F   UNL A   1      37.776  33.828  40.227  1.00  0.00    -0.200 F 
ATOM     76  C   UNL A   1      39.180  35.469  39.273  1.00  0.00     0.200 A 
ATOM     77  F   UNL A   1      40.580  37.085  38.269  1.00  0.00    -0.200 F 
ATOM     78  F   UNL A   1      39.036  36.245  40.356  1.00  0.00    -0.200 F 
ENDBRANCH  44  68
BRANCH  56  79
ATOM     79  C   UNL A   1      43.771  28.655  35.261  1.00  0.00     0.064 A 
ATOM     80  C   UNL A   1      45.085  29.120  35.106  1.00  0.00     0.173 A 
ATOM     81  C   UNL A   1      43.551  27.587  36.145  1.00  0.00     0.173 A 
ATOM     82  F   UNL A   1      45.348  30.128  34.261  1.00  0.00    -0.203 F 
ATOM     83  C   UNL A   1      46.140  28.524  35.790  1.00  0.00     0.198 A 
ATOM     84  C   UNL A   1      44.604  27.013  36.851  1.00  0.00     0.198 A 
ATOM     85  F   UNL A   1      42.312  27.109  36.333  1.00  0.00    -0.203 F 
ATOM     86  F   UNL A   1      47.393  28.954  35.591  1.00  0.00    -0.200 F 
ATOM     87  C   UNL A   1      45.898  27.477  36.668  1.00  0.00     0.200 A 
ATOM     88  F   UNL A   1      44.367  26.011  37.708  1.00  0.00    -0.200 F 
ATOM     89  F   UNL A   1      46.914  26.909  37.332  1.00  0.00    -0.200 F 
ENDBRANCH  56  79
ENDBRANCH  30  31
ENDBRANCH  22  25
ENDBRANCH  20  21
ENDBRANCH  19  20
ENDBRANCH   1  19
TORSDOF 14
ENDMDL
