MODEL 1
REMARK VINA RESULT:     -12.6      0.000      0.000
REMARK SMILES CCOc1ccccc1N1CCN(c2ncc(N)cc2C(=O)NCCCCNC(=O)c2ccc(-c3c4nc(c(-c5c(F)c(F)c(F)c(F)c5F)c5ccc([nH]5)c(-c5c(F)c(F)c(F)c(F)c5F)c5nc(c(-c6c(F)c(F)c(F)c(F)c6F)c6ccc3[nH]6)C=C5)C=C4)cc2)CC1
REMARK SMILES IDX 24 1 23 2 21 3 22 4 20 6 14 7 15 8 16 9 19 10 17 11 13 12
REMARK SMILES IDX 10 13 11 14 95 15 12 16 94 17 9 18 4 19 5 20 6 21 8 22 7 23
REMARK SMILES IDX 3 24 2 25 1 26 18 27 25 30 26 31 27 32 28 33 29 34 30 36
REMARK SMILES IDX 31 37 32 38 93 39 33 40 92 41 34 42 35 43 36 44 86 45 37 46
REMARK SMILES IDX 91 47 85 48 87 49 38 50 90 51 84 52 83 53 39 55 71 56 51 57
REMARK SMILES IDX 70 58 52 59 55 60 69 61 88 62 53 63 54 64 68 66 89 67 56 68
REMARK SMILES IDX 40 69 41 70 49 71 42 72 43 73 47 74 50 75 44 76 45 77 48 78
REMARK SMILES IDX 46 79 72 80 73 81 81 82 74 83 75 84 79 85 82 86 76 87 77 88
REMARK SMILES IDX 80 89 78 90 57 91 58 92 66 93 59 94 60 95 64 96 67 97 61 98
REMARK SMILES IDX 62 99 65 100 63 101
REMARK H PARENT 23 5 18 28 18 29 28 35 87 54 55 65
REMARK Flexibility Score: inf
ROOT
ATOM      1  C   UNL A   1      36.288  22.209  25.944  1.00  0.00     0.116 C 
ENDROOT
BRANCH   1   2
ATOM      2  N   UNL A   1      35.186  22.106  26.876  1.00  0.00    -0.352 N 
ATOM      3  C   UNL A   1      33.922  21.572  26.778  1.00  0.00     0.255 C 
ATOM      4  O   UNL A   1      33.319  21.436  27.843  1.00  0.00    -0.269 OA
ATOM      5  H   UNL A   1      35.382  22.497  27.758  1.00  0.00     0.163 HD
BRANCH   3   6
ATOM      6  C   UNL A   1      33.299  21.200  25.476  1.00  0.00     0.084 A 
ATOM      7  C   UNL A   1      32.743  22.195  24.655  1.00  0.00     0.141 A 
ATOM      8  N   UNL A   1      32.153  21.895  23.469  1.00  0.00    -0.236 NA
ATOM      9  C   UNL A   1      32.117  20.599  23.087  1.00  0.00     0.139 A 
ATOM     10  C   UNL A   1      33.154  19.865  25.077  1.00  0.00     0.044 A 
ATOM     11  C   UNL A   1      32.631  19.545  23.827  1.00  0.00     0.051 A 
BRANCH   7  12
ATOM     12  N   UNL A   1      32.699  23.518  25.052  1.00  0.00    -0.352 N 
ATOM     13  N   UNL A   1      32.286  26.296  25.482  1.00  0.00    -0.365 N 
ATOM     14  C   UNL A   1      31.520  25.314  26.261  1.00  0.00     0.138 C 
ATOM     15  C   UNL A   1      33.622  25.834  25.055  1.00  0.00     0.138 C 
ATOM     16  C   UNL A   1      31.379  24.005  25.462  1.00  0.00     0.139 C 
ATOM     17  C   UNL A   1      33.543  24.470  24.323  1.00  0.00     0.139 C 
BRANCH  13  18
ATOM     18  C   UNL A   1      32.100  27.655  25.691  1.00  0.00     0.079 A 
ATOM     19  C   UNL A   1      31.545  28.483  24.695  1.00  0.00     0.142 A 
ATOM     20  C   UNL A   1      31.327  29.848  24.910  1.00  0.00     0.048 A 
ATOM     21  C   UNL A   1      31.644  30.414  26.142  1.00  0.00     0.004 A 
ATOM     22  C   UNL A   1      32.421  28.259  26.917  1.00  0.00     0.030 A 
ATOM     23  C   UNL A   1      32.195  29.621  27.144  1.00  0.00     0.002 A 
BRANCH  19  24
ATOM     24  O   UNL A   1      31.229  27.964  23.460  1.00  0.00    -0.492 OA
BRANCH  24  25
ATOM     25  C   UNL A   1      29.841  28.140  23.153  1.00  0.00     0.226 C 
ATOM     26  C   UNL A   1      29.040  26.963  23.679  1.00  0.00     0.049 C 
ENDBRANCH  24  25
ENDBRANCH  19  24
ENDBRANCH  13  18
ENDBRANCH   7  12
BRANCH  11  27
ATOM     27  N   UNL A   1      32.508  18.225  23.425  1.00  0.00    -0.397 N 
ATOM     28  H   UNL A   1      31.768  17.958  22.832  1.00  0.00     0.156 HD
ATOM     29  H   UNL A   1      33.160  17.553  23.731  1.00  0.00     0.156 HD
ENDBRANCH  11  27
ENDBRANCH   3   6
ENDBRANCH   1   2
BRANCH   1  30
ATOM     30  C   UNL A   1      36.752  20.885  25.354  1.00  0.00     0.023 C 
BRANCH  30  31
ATOM     31  C   UNL A   1      38.211  20.794  24.916  1.00  0.00     0.023 C 
BRANCH  31  32
ATOM     32  C   UNL A   1      39.252  20.644  26.019  1.00  0.00     0.116 C 
BRANCH  32  33
ATOM     33  N   UNL A   1      40.117  19.482  25.881  1.00  0.00    -0.352 N 
ATOM     34  C   UNL A   1      41.475  19.374  26.087  1.00  0.00     0.251 C 
ATOM     35  H   UNL A   1      39.666  18.653  25.600  1.00  0.00     0.163 HD
ATOM     36  O   UNL A   1      42.044  18.311  25.929  1.00  0.00    -0.269 OA
BRANCH  34  37
ATOM     37  C   UNL A   1      42.245  20.589  26.429  1.00  0.00     0.039 A 
ATOM     38  C   UNL A   1      42.743  21.365  25.380  1.00  0.00     0.014 A 
ATOM     39  C   UNL A   1      42.401  20.997  27.755  1.00  0.00     0.014 A 
ATOM     40  C   UNL A   1      43.307  22.610  25.655  1.00  0.00     0.010 A 
ATOM     41  C   UNL A   1      42.905  22.266  28.023  1.00  0.00     0.010 A 
ATOM     42  C   UNL A   1      43.338  23.092  26.974  1.00  0.00    -0.014 A 
BRANCH  42  43
ATOM     43  C   UNL A   1      43.764  24.481  27.268  1.00  0.00     0.031 A 
ATOM     44  C   UNL A   1      42.771  25.489  27.760  1.00  0.00     0.074 A 
ATOM     45  C   UNL A   1      45.035  24.846  27.008  1.00  0.00     0.049 A 
ATOM     46  N   UNL A   1      42.935  26.767  27.991  1.00  0.00    -0.248 NA
ATOM     47  C   UNL A   1      41.403  25.005  27.999  1.00  0.00     0.031 C 
ATOM     48  C   UNL A   1      46.077  23.964  26.478  1.00  0.00     0.029 A 
ATOM     49  N   UNL A   1      45.664  26.059  27.137  1.00  0.00    -0.354 N 
ATOM     50  C   UNL A   1      41.694  27.239  28.392  1.00  0.00     0.074 A 
ATOM     51  C   UNL A   1      40.774  26.124  28.327  1.00  0.00     0.031 C 
ATOM     52  C   UNL A   1      47.217  24.660  26.342  1.00  0.00     0.029 A 
ATOM     53  C   UNL A   1      46.977  26.044  26.738  1.00  0.00     0.049 A 
ATOM     54  H   UNL A   1      45.215  26.864  27.485  1.00  0.00     0.167 HD
ATOM     55  C   UNL A   1      41.361  28.488  28.795  1.00  0.00     0.037 A 
ATOM     56  C   UNL A   1      47.883  27.039  26.683  1.00  0.00     0.037 A 
ATOM     57  C   UNL A   1      42.287  29.585  28.878  1.00  0.00     0.049 A 
ATOM     58  C   UNL A   1      47.480  28.420  27.119  1.00  0.00     0.074 A 
ATOM     59  C   UNL A   1      42.068  30.865  29.357  1.00  0.00     0.029 A 
ATOM     60  N   UNL A   1      43.609  29.535  28.462  1.00  0.00    -0.354 N 
ATOM     61  N   UNL A   1      46.324  28.838  27.574  1.00  0.00    -0.248 NA
ATOM     62  C   UNL A   1      48.504  29.469  27.028  1.00  0.00     0.031 C 
ATOM     63  C   UNL A   1      43.245  31.602  29.189  1.00  0.00     0.029 A 
ATOM     64  C   UNL A   1      44.209  30.770  28.642  1.00  0.00     0.049 A 
ATOM     65  H   UNL A   1      44.056  28.738  28.094  1.00  0.00     0.167 HD
ATOM     66  C   UNL A   1      46.484  30.191  27.836  1.00  0.00     0.074 A 
ATOM     67  C   UNL A   1      47.855  30.521  27.508  1.00  0.00     0.031 C 
ATOM     68  C   UNL A   1      45.573  31.081  28.300  1.00  0.00     0.037 A 
BRANCH  55  69
ATOM     69  C   UNL A   1      39.933  28.731  29.184  1.00  0.00     0.064 A 
ATOM     70  C   UNL A   1      38.987  29.188  28.254  1.00  0.00     0.173 A 
ATOM     71  C   UNL A   1      39.495  28.469  30.491  1.00  0.00     0.173 A 
ATOM     72  F   UNL A   1      39.359  29.465  26.995  1.00  0.00    -0.203 F 
ATOM     73  C   UNL A   1      37.662  29.398  28.625  1.00  0.00     0.198 A 
ATOM     74  C   UNL A   1      38.164  28.655  30.851  1.00  0.00     0.198 A 
ATOM     75  F   UNL A   1      40.359  28.026  31.417  1.00  0.00    -0.203 F 
ATOM     76  F   UNL A   1      36.787  29.877  27.730  1.00  0.00    -0.200 F 
ATOM     77  C   UNL A   1      37.249  29.126  29.920  1.00  0.00     0.200 A 
ATOM     78  F   UNL A   1      37.763  28.381  32.101  1.00  0.00    -0.200 F 
ATOM     79  F   UNL A   1      35.972  29.323  30.273  1.00  0.00    -0.200 F 
ENDBRANCH  55  69
BRANCH  56  80
ATOM     80  C   UNL A   1      49.262  26.762  26.204  1.00  0.00     0.064 A 
ATOM     81  C   UNL A   1      50.239  26.268  27.079  1.00  0.00     0.173 A 
ATOM     82  C   UNL A   1      49.629  26.980  24.869  1.00  0.00     0.173 A 
ATOM     83  F   UNL A   1      49.940  26.064  28.370  1.00  0.00    -0.203 F 
ATOM     84  C   UNL A   1      51.537  26.017  26.639  1.00  0.00     0.198 A 
ATOM     85  C   UNL A   1      50.921  26.705  24.424  1.00  0.00     0.198 A 
ATOM     86  F   UNL A   1      48.730  27.449  23.992  1.00  0.00    -0.203 F 
ATOM     87  F   UNL A   1      52.463  25.581  27.504  1.00  0.00    -0.200 F 
ATOM     88  C   UNL A   1      51.876  26.230  25.312  1.00  0.00     0.200 A 
ATOM     89  F   UNL A   1      51.241  26.900  23.138  1.00  0.00    -0.200 F 
ATOM     90  F   UNL A   1      53.123  25.984  24.888  1.00  0.00    -0.200 F 
ENDBRANCH  56  80
BRANCH  68  91
ATOM     91  C   UNL A   1      46.034  32.498  28.481  1.00  0.00     0.064 A 
ATOM     92  C   UNL A   1      45.893  33.445  27.455  1.00  0.00     0.173 A 
ATOM     93  C   UNL A   1      46.578  32.922  29.701  1.00  0.00     0.173 A 
ATOM     94  F   UNL A   1      45.394  33.081  26.264  1.00  0.00    -0.203 F 
ATOM     95  C   UNL A   1      46.297  34.764  27.642  1.00  0.00     0.198 A 
ATOM     96  C   UNL A   1      46.957  34.247  29.892  1.00  0.00     0.198 A 
ATOM     97  F   UNL A   1      46.730  32.053  30.712  1.00  0.00    -0.203 F 
ATOM     98  F   UNL A   1      46.190  35.644  26.637  1.00  0.00    -0.200 F 
ATOM     99  C   UNL A   1      46.820  35.165  28.862  1.00  0.00     0.200 A 
ATOM    100  F   UNL A   1      47.453  34.637  31.075  1.00  0.00    -0.200 F 
ATOM    101  F   UNL A   1      47.201  36.437  29.043  1.00  0.00    -0.200 F 
ENDBRANCH  68  91
ENDBRANCH  42  43
ENDBRANCH  34  37
ENDBRANCH  32  33
ENDBRANCH  31  32
ENDBRANCH  30  31
ENDBRANCH   1  30
TORSDOF 16
ENDMDL
MODEL 2
REMARK VINA RESULT:     -12.6      0.404      7.170
REMARK SMILES CCOc1ccccc1N1CCN(c2ncc(N)cc2C(=O)NCCCCNC(=O)c2ccc(-c3c4nc(c(-c5c(F)c(F)c(F)c(F)c5F)c5ccc([nH]5)c(-c5c(F)c(F)c(F)c(F)c5F)c5nc(c(-c6c(F)c(F)c(F)c(F)c6F)c6ccc3[nH]6)C=C5)C=C4)cc2)CC1
REMARK SMILES IDX 24 1 23 2 21 3 22 4 20 6 14 7 15 8 16 9 19 10 17 11 13 12
REMARK SMILES IDX 10 13 11 14 95 15 12 16 94 17 9 18 4 19 5 20 6 21 8 22 7 23
REMARK SMILES IDX 3 24 2 25 1 26 18 27 25 30 26 31 27 32 28 33 29 34 30 36
REMARK SMILES IDX 31 37 32 38 93 39 33 40 92 41 34 42 35 43 36 44 86 45 37 46
REMARK SMILES IDX 91 47 85 48 87 49 38 50 90 51 84 52 83 53 39 55 71 56 51 57
REMARK SMILES IDX 70 58 52 59 55 60 69 61 88 62 53 63 54 64 68 66 89 67 56 68
REMARK SMILES IDX 40 69 41 70 49 71 42 72 43 73 47 74 50 75 44 76 45 77 48 78
REMARK SMILES IDX 46 79 72 80 73 81 81 82 74 83 75 84 79 85 82 86 76 87 77 88
REMARK SMILES IDX 80 89 78 90 57 91 58 92 66 93 59 94 60 95 64 96 67 97 61 98
REMARK SMILES IDX 62 99 65 100 63 101
REMARK H PARENT 23 5 18 28 18 29 28 35 87 54 55 65
REMARK Flexibility Score: inf
ROOT
ATOM      1  C   UNL A   1      36.552  21.773  25.623  1.00  0.00     0.116 C 
ENDROOT
BRANCH   1   2
ATOM      2  N   UNL A   1      35.515  21.795  26.632  1.00  0.00    -0.352 N 
ATOM      3  C   UNL A   1      34.216  21.341  26.653  1.00  0.00     0.255 C 
ATOM      4  O   UNL A   1      33.683  21.305  27.762  1.00  0.00    -0.269 OA
ATOM      5  H   UNL A   1      35.796  22.222  27.473  1.00  0.00     0.163 HD
BRANCH   3   6
ATOM      6  C   UNL A   1      33.480  20.938  25.421  1.00  0.00     0.084 A 
ATOM      7  C   UNL A   1      32.822  21.908  24.647  1.00  0.00     0.141 A 
ATOM      8  N   UNL A   1      32.129  21.579  23.527  1.00  0.00    -0.236 NA
ATOM      9  C   UNL A   1      32.090  20.278  23.163  1.00  0.00     0.139 A 
ATOM     10  C   UNL A   1      33.332  19.595  25.050  1.00  0.00     0.044 A 
ATOM     11  C   UNL A   1      32.700  19.246  23.860  1.00  0.00     0.051 A 
BRANCH   7  12
ATOM     12  N   UNL A   1      32.782  23.235  25.034  1.00  0.00    -0.352 N 
ATOM     13  N   UNL A   1      32.385  26.019  25.436  1.00  0.00    -0.365 N 
ATOM     14  C   UNL A   1      31.598  25.049  26.210  1.00  0.00     0.138 C 
ATOM     15  C   UNL A   1      33.724  25.543  25.035  1.00  0.00     0.138 C 
ATOM     16  C   UNL A   1      31.460  23.735  25.419  1.00  0.00     0.139 C 
ATOM     17  C   UNL A   1      33.645  24.174  24.311  1.00  0.00     0.139 C 
BRANCH  13  18
ATOM     18  C   UNL A   1      32.206  27.381  25.632  1.00  0.00     0.079 A 
ATOM     19  C   UNL A   1      31.584  28.188  24.659  1.00  0.00     0.142 A 
ATOM     20  C   UNL A   1      31.375  29.556  24.862  1.00  0.00     0.048 A 
ATOM     21  C   UNL A   1      31.767  30.146  26.061  1.00  0.00     0.004 A 
ATOM     22  C   UNL A   1      32.602  28.008  26.824  1.00  0.00     0.030 A 
ATOM     23  C   UNL A   1      32.385  29.374  27.040  1.00  0.00     0.002 A 
BRANCH  19  24
ATOM     24  O   UNL A   1      31.192  27.645  23.456  1.00  0.00    -0.492 OA
BRANCH  24  25
ATOM     25  C   UNL A   1      29.780  27.774  23.255  1.00  0.00     0.226 C 
ATOM     26  C   UNL A   1      29.055  26.613  23.909  1.00  0.00     0.049 C 
ENDBRANCH  24  25
ENDBRANCH  19  24
ENDBRANCH  13  18
ENDBRANCH   7  12
BRANCH  11  27
ATOM     27  N   UNL A   1      32.573  17.918  23.485  1.00  0.00    -0.397 N 
ATOM     28  H   UNL A   1      32.571  17.211  24.170  1.00  0.00     0.156 HD
ATOM     29  H   UNL A   1      32.486  17.682  22.533  1.00  0.00     0.156 HD
ENDBRANCH  11  27
ENDBRANCH   3   6
ENDBRANCH   1   2
BRANCH   1  30
ATOM     30  C   UNL A   1      36.910  20.387  25.105  1.00  0.00     0.023 C 
BRANCH  30  31
ATOM     31  C   UNL A   1      38.367  20.146  24.721  1.00  0.00     0.023 C 
BRANCH  31  32
ATOM     32  C   UNL A   1      39.397  20.227  25.841  1.00  0.00     0.116 C 
BRANCH  32  33
ATOM     33  N   UNL A   1      40.340  19.120  25.879  1.00  0.00    -0.352 N 
ATOM     34  C   UNL A   1      41.677  19.122  26.212  1.00  0.00     0.251 C 
ATOM     35  H   UNL A   1      39.969  18.243  25.628  1.00  0.00     0.163 HD
ATOM     36  O   UNL A   1      42.322  18.091  26.195  1.00  0.00    -0.269 OA
BRANCH  34  37
ATOM     37  C   UNL A   1      42.336  20.409  26.518  1.00  0.00     0.039 A 
ATOM     38  C   UNL A   1      42.924  21.111  25.463  1.00  0.00     0.014 A 
ATOM     39  C   UNL A   1      42.301  20.952  27.804  1.00  0.00     0.014 A 
ATOM     40  C   UNL A   1      43.385  22.409  25.675  1.00  0.00     0.010 A 
ATOM     41  C   UNL A   1      42.703  22.270  27.999  1.00  0.00     0.010 A 
ATOM     42  C   UNL A   1      43.224  23.016  26.931  1.00  0.00    -0.014 A 
BRANCH  42  43
ATOM     43  C   UNL A   1      43.540  24.452  27.130  1.00  0.00     0.031 A 
ATOM     44  C   UNL A   1      44.927  24.963  26.887  1.00  0.00     0.074 A 
ATOM     45  C   UNL A   1      42.585  25.272  27.611  1.00  0.00     0.049 A 
ATOM     46  N   UNL A   1      45.412  26.162  27.086  1.00  0.00    -0.248 NA
ATOM     47  C   UNL A   1      45.908  23.992  26.378  1.00  0.00     0.031 C 
ATOM     48  C   UNL A   1      41.213  24.874  27.934  1.00  0.00     0.029 A 
ATOM     49  N   UNL A   1      42.626  26.606  27.930  1.00  0.00    -0.354 N 
ATOM     50  C   UNL A   1      46.753  26.087  26.738  1.00  0.00     0.074 A 
ATOM     51  C   UNL A   1      47.018  24.715  26.360  1.00  0.00     0.031 C 
ATOM     52  C   UNL A   1      40.540  25.943  28.389  1.00  0.00     0.029 A 
ATOM     53  C   UNL A   1      41.441  27.090  28.428  1.00  0.00     0.049 A 
ATOM     54  H   UNL A   1      43.429  27.163  27.812  1.00  0.00     0.167 HD
ATOM     55  C   UNL A   1      47.672  27.081  26.717  1.00  0.00     0.037 A 
ATOM     56  C   UNL A   1      41.122  28.318  28.878  1.00  0.00     0.037 A 
ATOM     57  C   UNL A   1      47.395  28.447  27.072  1.00  0.00     0.049 A 
ATOM     58  C   UNL A   1      42.169  29.397  28.862  1.00  0.00     0.074 A 
ATOM     59  C   UNL A   1      48.234  29.545  27.000  1.00  0.00     0.029 A 
ATOM     60  N   UNL A   1      46.184  28.901  27.575  1.00  0.00    -0.354 N 
ATOM     61  N   UNL A   1      43.413  29.336  28.453  1.00  0.00    -0.248 NA
ATOM     62  C   UNL A   1      41.769  30.715  29.375  1.00  0.00     0.031 C 
ATOM     63  C   UNL A   1      47.546  30.654  27.502  1.00  0.00     0.029 A 
ATOM     64  C   UNL A   1      46.265  30.256  27.849  1.00  0.00     0.049 A 
ATOM     65  H   UNL A   1      45.385  28.343  27.714  1.00  0.00     0.167 HD
ATOM     66  C   UNL A   1      43.940  30.604  28.646  1.00  0.00     0.074 A 
ATOM     67  C   UNL A   1      42.876  31.422  29.189  1.00  0.00     0.031 C 
ATOM     68  C   UNL A   1      45.197  31.050  28.401  1.00  0.00     0.037 A 
BRANCH  55  69
ATOM     69  C   UNL A   1      49.065  26.726  26.290  1.00  0.00     0.064 A 
ATOM     70  C   UNL A   1      49.491  26.894  24.963  1.00  0.00     0.173 A 
ATOM     71  C   UNL A   1      49.997  26.249  27.223  1.00  0.00     0.173 A 
ATOM     72  F   UNL A   1      48.633  27.335  24.031  1.00  0.00    -0.203 F 
ATOM     73  C   UNL A   1      50.790  26.572  24.582  1.00  0.00     0.198 A 
ATOM     74  C   UNL A   1      51.304  25.954  26.844  1.00  0.00     0.198 A 
ATOM     75  F   UNL A   1      49.642  26.076  28.505  1.00  0.00    -0.203 F 
ATOM     76  F   UNL A   1      51.161  26.699  23.300  1.00  0.00    -0.200 F 
ATOM     77  C   UNL A   1      51.698  26.109  25.523  1.00  0.00     0.200 A 
ATOM     78  F   UNL A   1      52.183  25.517  27.756  1.00  0.00    -0.200 F 
ATOM     79  F   UNL A   1      52.950  25.806  25.155  1.00  0.00    -0.200 F 
ENDBRANCH  55  69
BRANCH  56  80
ATOM     80  C   UNL A   1      39.750  28.593  29.375  1.00  0.00     0.064 A 
ATOM     81  C   UNL A   1      38.762  29.090  28.514  1.00  0.00     0.173 A 
ATOM     82  C   UNL A   1      39.397  28.364  30.712  1.00  0.00     0.173 A 
ATOM     83  F   UNL A   1      39.059  29.346  27.232  1.00  0.00    -0.203 F 
ATOM     84  C   UNL A   1      37.476  29.362  28.975  1.00  0.00     0.198 A 
ATOM     85  C   UNL A   1      38.103  28.612  31.167  1.00  0.00     0.198 A 
ATOM     86  F   UNL A   1      40.305  27.886  31.574  1.00  0.00    -0.203 F 
ATOM     87  F   UNL A   1      36.560  29.873  28.141  1.00  0.00    -0.200 F 
ATOM     88  C   UNL A   1      37.145  29.117  30.300  1.00  0.00     0.200 A 
ATOM     89  F   UNL A   1      37.784  28.361  32.444  1.00  0.00    -0.200 F 
ATOM     90  F   UNL A   1      35.907  29.373  30.742  1.00  0.00    -0.200 F 
ENDBRANCH  56  80
BRANCH  68  91
ATOM     91  C   UNL A   1      45.487  32.487  28.718  1.00  0.00     0.064 A 
ATOM     92  C   UNL A   1      46.043  32.862  29.951  1.00  0.00     0.173 A 
ATOM     93  C   UNL A   1      45.248  33.491  27.769  1.00  0.00     0.173 A 
ATOM     94  F   UNL A   1      46.271  31.939  30.897  1.00  0.00    -0.203 F 
ATOM     95  C   UNL A   1      46.334  34.195  30.226  1.00  0.00     0.198 A 
ATOM     96  C   UNL A   1      45.565  34.819  28.039  1.00  0.00     0.198 A 
ATOM     97  F   UNL A   1      44.720  33.181  26.575  1.00  0.00    -0.203 F 
ATOM     98  F   UNL A   1      46.829  34.537  31.424  1.00  0.00    -0.200 F 
ATOM     99  C   UNL A   1      46.103  35.170  29.267  1.00  0.00     0.200 A 
ATOM    100  F   UNL A   1      45.351  35.759  27.108  1.00  0.00    -0.200 F 
ATOM    101  F   UNL A   1      46.393  36.451  29.531  1.00  0.00    -0.200 F 
ENDBRANCH  68  91
ENDBRANCH  42  43
ENDBRANCH  34  37
ENDBRANCH  32  33
ENDBRANCH  31  32
ENDBRANCH  30  31
ENDBRANCH   1  30
TORSDOF 16
ENDMDL
MODEL 3
REMARK VINA RESULT:     -11.8      1.233      2.059
REMARK SMILES CCOc1ccccc1N1CCN(c2ncc(N)cc2C(=O)NCCCCNC(=O)c2ccc(-c3c4nc(c(-c5c(F)c(F)c(F)c(F)c5F)c5ccc([nH]5)c(-c5c(F)c(F)c(F)c(F)c5F)c5nc(c(-c6c(F)c(F)c(F)c(F)c6F)c6ccc3[nH]6)C=C5)C=C4)cc2)CC1
REMARK SMILES IDX 24 1 23 2 21 3 22 4 20 6 14 7 15 8 16 9 19 10 17 11 13 12
REMARK SMILES IDX 10 13 11 14 95 15 12 16 94 17 9 18 4 19 5 20 6 21 8 22 7 23
REMARK SMILES IDX 3 24 2 25 1 26 18 27 25 30 26 31 27 32 28 33 29 34 30 36
REMARK SMILES IDX 31 37 32 38 93 39 33 40 92 41 34 42 35 43 36 44 86 45 37 46
REMARK SMILES IDX 91 47 85 48 87 49 38 50 90 51 84 52 83 53 39 55 71 56 51 57
REMARK SMILES IDX 70 58 52 59 55 60 69 61 88 62 53 63 54 64 68 66 89 67 56 68
REMARK SMILES IDX 40 69 41 70 49 71 42 72 43 73 47 74 50 75 44 76 45 77 48 78
REMARK SMILES IDX 46 79 72 80 73 81 81 82 74 83 75 84 79 85 82 86 76 87 77 88
REMARK SMILES IDX 80 89 78 90 57 91 58 92 66 93 59 94 60 95 64 96 67 97 61 98
REMARK SMILES IDX 62 99 65 100 63 101
REMARK H PARENT 23 5 18 28 18 29 28 35 87 54 55 65
REMARK Flexibility Score: inf
ROOT
ATOM      1  C   UNL A   1      36.557  23.079  24.932  1.00  0.00     0.116 C 
ENDROOT
BRANCH   1   2
ATOM      2  N   UNL A   1      35.957  23.194  23.620  1.00  0.00    -0.352 N 
ATOM      3  C   UNL A   1      34.685  22.964  23.146  1.00  0.00     0.255 C 
ATOM      4  O   UNL A   1      34.453  23.394  22.017  1.00  0.00    -0.269 OA
ATOM      5  H   UNL A   1      36.586  23.499  22.927  1.00  0.00     0.163 HD
BRANCH   3   6
ATOM      6  C   UNL A   1      33.653  22.224  23.926  1.00  0.00     0.084 A 
ATOM      7  C   UNL A   1      32.758  22.927  24.749  1.00  0.00     0.141 A 
ATOM      8  N   UNL A   1      31.813  22.289  25.486  1.00  0.00    -0.236 NA
ATOM      9  C   UNL A   1      31.748  20.941  25.406  1.00  0.00     0.139 A 
ATOM     10  C   UNL A   1      33.601  20.824  23.949  1.00  0.00     0.044 A 
ATOM     11  C   UNL A   1      32.587  20.156  24.629  1.00  0.00     0.051 A 
BRANCH   7  12
ATOM     12  N   UNL A   1      32.848  24.297  24.909  1.00  0.00    -0.352 N 
ATOM     13  N   UNL A   1      32.695  27.046  25.610  1.00  0.00    -0.365 N 
ATOM     14  C   UNL A   1      33.781  26.214  26.145  1.00  0.00     0.138 C 
ATOM     15  C   UNL A   1      32.189  26.621  24.290  1.00  0.00     0.138 C 
ATOM     16  C   UNL A   1      33.329  24.744  26.219  1.00  0.00     0.139 C 
ATOM     17  C   UNL A   1      31.804  25.119  24.288  1.00  0.00     0.139 C 
BRANCH  13  18
ATOM     18  C   UNL A   1      32.617  28.392  25.938  1.00  0.00     0.079 A 
ATOM     19  C   UNL A   1      31.593  29.215  25.427  1.00  0.00     0.142 A 
ATOM     20  C   UNL A   1      31.491  30.566  25.776  1.00  0.00     0.048 A 
ATOM     21  C   UNL A   1      32.407  31.121  26.667  1.00  0.00     0.004 A 
ATOM     22  C   UNL A   1      33.531  28.986  26.823  1.00  0.00     0.030 A 
ATOM     23  C   UNL A   1      33.429  30.333  27.186  1.00  0.00     0.002 A 
BRANCH  19  24
ATOM     24  O   UNL A   1      30.676  28.706  24.536  1.00  0.00    -0.492 OA
BRANCH  24  25
ATOM     25  C   UNL A   1      30.118  29.735  23.710  1.00  0.00     0.226 C 
ATOM     26  C   UNL A   1      29.678  29.150  22.380  1.00  0.00     0.049 C 
ENDBRANCH  24  25
ENDBRANCH  19  24
ENDBRANCH  13  18
ENDBRANCH   7  12
BRANCH  11  27
ATOM     27  N   UNL A   1      32.525  18.772  24.633  1.00  0.00    -0.397 N 
ATOM     28  H   UNL A   1      31.652  18.319  24.674  1.00  0.00     0.156 HD
ATOM     29  H   UNL A   1      33.354  18.242  24.596  1.00  0.00     0.156 HD
ENDBRANCH  11  27
ENDBRANCH   3   6
ENDBRANCH   1   2
BRANCH   1  30
ATOM     30  C   UNL A   1      36.716  21.652  25.438  1.00  0.00     0.023 C 
BRANCH  30  31
ATOM     31  C   UNL A   1      37.971  20.899  25.006  1.00  0.00     0.023 C 
BRANCH  31  32
ATOM     32  C   UNL A   1      39.111  20.826  26.015  1.00  0.00     0.116 C 
BRANCH  32  33
ATOM     33  N   UNL A   1      39.976  19.666  25.868  1.00  0.00    -0.352 N 
ATOM     34  C   UNL A   1      41.324  19.543  26.126  1.00  0.00     0.251 C 
ATOM     35  H   UNL A   1      39.535  18.851  25.534  1.00  0.00     0.163 HD
ATOM     36  O   UNL A   1      41.895  18.484  25.951  1.00  0.00    -0.269 OA
BRANCH  34  37
ATOM     37  C   UNL A   1      42.083  20.739  26.549  1.00  0.00     0.039 A 
ATOM     38  C   UNL A   1      42.607  21.567  25.554  1.00  0.00     0.014 A 
ATOM     39  C   UNL A   1      42.203  21.080  27.898  1.00  0.00     0.014 A 
ATOM     40  C   UNL A   1      43.162  22.796  25.907  1.00  0.00     0.010 A 
ATOM     41  C   UNL A   1      42.698  22.333  28.243  1.00  0.00     0.010 A 
ATOM     42  C   UNL A   1      43.158  23.211  27.248  1.00  0.00    -0.014 A 
BRANCH  42  43
ATOM     43  C   UNL A   1      43.574  24.584  27.623  1.00  0.00     0.031 A 
ATOM     44  C   UNL A   1      42.547  25.617  27.973  1.00  0.00     0.074 A 
ATOM     45  C   UNL A   1      44.879  24.913  27.563  1.00  0.00     0.049 A 
ATOM     46  N   UNL A   1      42.711  26.887  28.245  1.00  0.00    -0.248 NA
ATOM     47  C   UNL A   1      41.145  25.172  27.996  1.00  0.00     0.031 C 
ATOM     48  C   UNL A   1      45.964  24.004  27.185  1.00  0.00     0.029 A 
ATOM     49  N   UNL A   1      45.516  26.105  27.804  1.00  0.00    -0.354 N 
ATOM     50  C   UNL A   1      41.438  27.393  28.460  1.00  0.00     0.074 A 
ATOM     51  C   UNL A   1      40.506  26.307  28.241  1.00  0.00     0.031 C 
ATOM     52  C   UNL A   1      47.131  24.667  27.233  1.00  0.00     0.029 A 
ATOM     53  C   UNL A   1      46.874  26.054  27.607  1.00  0.00     0.049 A 
ATOM     54  H   UNL A   1      45.043  26.919  28.090  1.00  0.00     0.167 HD
ATOM     55  C   UNL A   1      41.083  28.647  28.826  1.00  0.00     0.037 A 
ATOM     56  C   UNL A   1      47.806  27.021  27.704  1.00  0.00     0.037 A 
ATOM     57  C   UNL A   1      42.016  29.715  29.063  1.00  0.00     0.049 A 
ATOM     58  C   UNL A   1      47.380  28.409  28.093  1.00  0.00     0.074 A 
ATOM     59  C   UNL A   1      41.764  30.996  29.522  1.00  0.00     0.029 A 
ATOM     60  N   UNL A   1      43.385  29.629  28.852  1.00  0.00    -0.354 N 
ATOM     61  N   UNL A   1      46.181  28.858  28.374  1.00  0.00    -0.248 NA
ATOM     62  C   UNL A   1      48.437  29.427  28.173  1.00  0.00     0.031 C 
ATOM     63  C   UNL A   1      42.974  31.698  29.544  1.00  0.00     0.029 A 
ATOM     64  C   UNL A   1      43.986  30.843  29.138  1.00  0.00     0.049 A 
ATOM     65  H   UNL A   1      43.859  28.822  28.544  1.00  0.00     0.167 HD
ATOM     66  C   UNL A   1      46.338  30.202  28.677  1.00  0.00     0.074 A 
ATOM     67  C   UNL A   1      47.752  30.494  28.565  1.00  0.00     0.031 C 
ATOM     68  C   UNL A   1      45.394  31.116  29.010  1.00  0.00     0.037 A 
BRANCH  55  69
ATOM     69  C   UNL A   1      39.620  28.930  28.998  1.00  0.00     0.064 A 
ATOM     70  C   UNL A   1      38.988  28.794  30.244  1.00  0.00     0.173 A 
ATOM     71  C   UNL A   1      38.849  29.380  27.916  1.00  0.00     0.173 A 
ATOM     72  F   UNL A   1      39.680  28.355  31.306  1.00  0.00    -0.203 F 
ATOM     73  C   UNL A   1      37.633  29.071  30.393  1.00  0.00     0.198 A 
ATOM     74  C   UNL A   1      37.499  29.682  28.075  1.00  0.00     0.198 A 
ATOM     75  F   UNL A   1      39.406  29.532  26.705  1.00  0.00    -0.203 F 
ATOM     76  F   UNL A   1      37.041  28.891  31.582  1.00  0.00    -0.200 F 
ATOM     77  C   UNL A   1      36.890  29.521  29.312  1.00  0.00     0.200 A 
ATOM     78  F   UNL A   1      36.785  30.127  27.032  1.00  0.00    -0.200 F 
ATOM     79  F   UNL A   1      35.587  29.794  29.458  1.00  0.00    -0.200 F 
ENDBRANCH  55  69
BRANCH  56  80
ATOM     80  C   UNL A   1      49.232  26.706  27.435  1.00  0.00     0.064 A 
ATOM     81  C   UNL A   1      50.093  26.335  28.477  1.00  0.00     0.173 A 
ATOM     82  C   UNL A   1      49.762  26.766  26.139  1.00  0.00     0.173 A 
ATOM     83  F   UNL A   1      49.637  26.286  29.737  1.00  0.00    -0.203 F 
ATOM     84  C   UNL A   1      51.435  26.051  28.234  1.00  0.00     0.198 A 
ATOM     85  C   UNL A   1      51.099  26.457  25.893  1.00  0.00     0.198 A 
ATOM     86  F   UNL A   1      48.979  27.113  25.108  1.00  0.00    -0.203 F 
ATOM     87  F   UNL A   1      52.247  25.736  29.253  1.00  0.00    -0.200 F 
ATOM     88  C   UNL A   1      51.936  26.106  26.942  1.00  0.00     0.200 A 
ATOM     89  F   UNL A   1      51.575  26.498  24.641  1.00  0.00    -0.200 F 
ATOM     90  F   UNL A   1      53.225  25.827  26.708  1.00  0.00    -0.200 F 
ENDBRANCH  56  80
BRANCH  68  91
ATOM     91  C   UNL A   1      45.862  32.516  29.279  1.00  0.00     0.064 A 
ATOM     92  C   UNL A   1      46.286  32.908  30.557  1.00  0.00     0.173 A 
ATOM     93  C   UNL A   1      45.929  33.458  28.243  1.00  0.00     0.173 A 
ATOM     94  F   UNL A   1      46.223  32.046  31.584  1.00  0.00    -0.203 F 
ATOM     95  C   UNL A   1      46.746  34.201  30.791  1.00  0.00     0.198 A 
ATOM     96  C   UNL A   1      46.414  34.742  28.476  1.00  0.00     0.198 A 
ATOM     97  F   UNL A   1      45.538  33.129  27.003  1.00  0.00    -0.203 F 
ATOM     98  F   UNL A   1      47.110  34.567  32.028  1.00  0.00    -0.200 F 
ATOM     99  C   UNL A   1      46.817  35.113  29.749  1.00  0.00     0.200 A 
ATOM    100  F   UNL A   1      46.492  35.620  27.465  1.00  0.00    -0.200 F 
ATOM    101  F   UNL A   1      47.268  36.354  29.974  1.00  0.00    -0.200 F 
ENDBRANCH  68  91
ENDBRANCH  42  43
ENDBRANCH  34  37
ENDBRANCH  32  33
ENDBRANCH  31  32
ENDBRANCH  30  31
ENDBRANCH   1  30
TORSDOF 16
ENDMDL
