MODEL 1
REMARK VINA RESULT:     -13.0      0.000      0.000
REMARK SMILES Cc1nn(CC(=O)NCCCCNC(=O)c2ccc(-c3c4nc(c(-c5c(F)c(F)c(F)c(F)c5F)c5ccc([nH]5)c(-c5c(F)c(F)c(F)c(F)c5F)c5nc(c(-c6c(F)c(F)c(F)c(F)c6F)c6ccc3[nH]6)C=C5)C=C4)cc2)c(C)c1NS(=O)(=O)c1cccc2cccnc12
REMARK SMILES IDX 9 1 8 2 6 3 7 4 5 6 4 7 1 8 2 9 3 10 81 11 79 12 80 13 82 14
REMARK SMILES IDX 83 16 84 17 85 18 86 19 87 20 95 21 88 22 90 23 94 24 89 25
REMARK SMILES IDX 91 26 93 27 92 28 10 29 11 30 12 31 13 32 14 33 15 35 16 36
REMARK SMILES IDX 17 37 78 38 18 39 77 40 19 41 20 42 21 43 71 44 22 45 76 46
REMARK SMILES IDX 70 47 72 48 23 49 75 50 69 51 68 52 24 54 56 55 36 56 55 57
REMARK SMILES IDX 37 58 40 59 54 60 73 61 38 62 39 63 53 65 74 66 41 67 25 68
REMARK SMILES IDX 26 69 34 70 27 71 28 72 32 73 35 74 29 75 30 76 33 77 31 78
REMARK SMILES IDX 57 79 58 80 66 81 59 82 60 83 64 84 67 85 61 86 62 87 65 88
REMARK SMILES IDX 63 89 42 90 43 91 51 92 44 93 45 94 49 95 52 96 46 97 47 98
REMARK SMILES IDX 50 99 48 100
REMARK H PARENT 8 5 82 15 13 34 72 53 40 64
REMARK Flexibility Score: inf
ROOT
ATOM      1  C   UNL A   1      39.610  22.345  26.535  1.00  0.00     0.116 C 
ENDROOT
BRANCH   1   2
ATOM      2  N   UNL A   1      38.880  21.758  25.431  1.00  0.00    -0.354 N 
ATOM      3  C   UNL A   1      37.540  21.772  25.164  1.00  0.00     0.241 C 
ATOM      4  O   UNL A   1      37.209  21.482  24.007  1.00  0.00    -0.273 OA
ATOM      5  H   UNL A   1      39.431  21.275  24.775  1.00  0.00     0.163 HD
BRANCH   3   6
ATOM      6  C   UNL A   1      36.493  22.262  26.140  1.00  0.00     0.244 C 
BRANCH   6   7
ATOM      7  N   UNL A   1      35.131  22.297  25.640  1.00  0.00    -0.258 N 
ATOM      8  C   UNL A   1      32.154  20.604  24.852  1.00  0.00     0.071 C 
ATOM      9  C   UNL A   1      33.189  21.613  25.195  1.00  0.00     0.084 A 
ATOM     10  N   UNL A   1      34.412  21.172  25.527  1.00  0.00    -0.175 NA
ATOM     11  C   UNL A   1      33.137  23.046  25.145  1.00  0.00     0.093 A 
ATOM     12  C   UNL A   1      34.473  23.389  25.129  1.00  0.00     0.060 A 
ATOM     13  C   UNL A   1      35.202  24.571  24.625  1.00  0.00     0.069 C 
BRANCH  11  14
ATOM     14  N   UNL A   1      32.008  23.836  24.878  1.00  0.00    -0.276 N 
ATOM     15  H   UNL A   1      31.571  23.713  24.004  1.00  0.00     0.180 HD
BRANCH  14  16
ATOM     16  S   UNL A   1      31.323  24.994  25.934  1.00  0.00     0.264 S 
ATOM     17  O   UNL A   1      30.011  25.251  25.362  1.00  0.00    -0.201 OA
ATOM     18  O   UNL A   1      31.391  24.445  27.271  1.00  0.00    -0.201 OA
BRANCH  16  19
ATOM     19  C   UNL A   1      32.208  26.527  25.806  1.00  0.00     0.114 A 
ATOM     20  C   UNL A   1      32.440  27.243  26.995  1.00  0.00     0.024 A 
ATOM     21  C   UNL A   1      32.744  26.966  24.593  1.00  0.00     0.091 A 
ATOM     22  C   UNL A   1      33.166  28.430  26.973  1.00  0.00     0.002 A 
ATOM     23  C   UNL A   1      33.548  28.139  24.607  1.00  0.00     0.002 A 
ATOM     24  N   UNL A   1      32.475  26.378  23.421  1.00  0.00    -0.255 NA
ATOM     25  C   UNL A   1      33.737  28.865  25.785  1.00  0.00     0.010 A 
ATOM     26  C   UNL A   1      34.126  28.609  23.419  1.00  0.00     0.012 A 
ATOM     27  C   UNL A   1      33.004  26.899  22.297  1.00  0.00     0.112 A 
ATOM     28  C   UNL A   1      33.847  27.979  22.228  1.00  0.00     0.021 A 
ENDBRANCH  16  19
ENDBRANCH  14  16
ENDBRANCH  11  14
ENDBRANCH   6   7
ENDBRANCH   3   6
ENDBRANCH   1   2
BRANCH   1  29
ATOM     29  C   UNL A   1      40.587  21.401  27.243  1.00  0.00     0.023 C 
BRANCH  29  30
ATOM     30  C   UNL A   1      41.167  20.280  26.365  1.00  0.00     0.023 C 
BRANCH  30  31
ATOM     31  C   UNL A   1      42.456  19.636  26.884  1.00  0.00     0.116 C 
BRANCH  31  32
ATOM     32  N   UNL A   1      43.508  19.485  25.877  1.00  0.00    -0.352 N 
ATOM     33  C   UNL A   1      44.024  20.469  25.037  1.00  0.00     0.251 C 
ATOM     34  H   UNL A   1      43.896  18.585  25.784  1.00  0.00     0.163 HD
ATOM     35  O   UNL A   1      44.586  20.196  23.994  1.00  0.00    -0.269 OA
BRANCH  33  36
ATOM     36  C   UNL A   1      43.932  21.880  25.474  1.00  0.00     0.039 A 
ATOM     37  C   UNL A   1      43.094  22.826  24.894  1.00  0.00     0.014 A 
ATOM     38  C   UNL A   1      44.778  22.255  26.506  1.00  0.00     0.014 A 
ATOM     39  C   UNL A   1      43.052  24.112  25.444  1.00  0.00     0.010 A 
ATOM     40  C   UNL A   1      44.671  23.471  27.127  1.00  0.00     0.010 A 
ATOM     41  C   UNL A   1      43.828  24.421  26.577  1.00  0.00    -0.014 A 
BRANCH  41  42
ATOM     42  C   UNL A   1      43.629  25.662  27.322  1.00  0.00     0.031 A 
ATOM     43  C   UNL A   1      44.584  26.739  26.939  1.00  0.00     0.074 A 
ATOM     44  C   UNL A   1      42.526  25.920  28.061  1.00  0.00     0.049 A 
ATOM     45  N   UNL A   1      45.468  27.315  27.685  1.00  0.00    -0.248 NA
ATOM     46  C   UNL A   1      44.657  27.134  25.521  1.00  0.00     0.031 C 
ATOM     47  C   UNL A   1      41.338  25.073  28.226  1.00  0.00     0.029 A 
ATOM     48  N   UNL A   1      42.173  27.055  28.732  1.00  0.00    -0.354 N 
ATOM     49  C   UNL A   1      46.067  28.286  26.886  1.00  0.00     0.074 A 
ATOM     50  C   UNL A   1      45.674  27.998  25.533  1.00  0.00     0.031 C 
ATOM     51  C   UNL A   1      40.326  25.803  28.744  1.00  0.00     0.029 A 
ATOM     52  C   UNL A   1      40.830  27.118  29.095  1.00  0.00     0.049 A 
ATOM     53  H   UNL A   1      42.817  27.770  28.942  1.00  0.00     0.167 HD
ATOM     54  C   UNL A   1      46.599  29.408  27.446  1.00  0.00     0.037 A 
ATOM     55  C   UNL A   1      40.174  28.184  29.617  1.00  0.00     0.037 A 
ATOM     56  C   UNL A   1      46.823  29.215  28.858  1.00  0.00     0.049 A 
ATOM     57  C   UNL A   1      41.196  29.109  30.157  1.00  0.00     0.074 A 
ATOM     58  C   UNL A   1      47.568  28.340  29.625  1.00  0.00     0.029 A 
ATOM     59  N   UNL A   1      45.912  29.778  29.714  1.00  0.00    -0.354 N 
ATOM     60  N   UNL A   1      41.945  28.846  31.191  1.00  0.00    -0.248 NA
ATOM     61  C   UNL A   1      41.679  30.170  29.290  1.00  0.00     0.031 C 
ATOM     62  C   UNL A   1      46.771  28.087  30.783  1.00  0.00     0.029 A 
ATOM     63  C   UNL A   1      45.619  28.869  30.694  1.00  0.00     0.049 A 
ATOM     64  H   UNL A   1      45.534  30.683  29.638  1.00  0.00     0.167 HD
ATOM     65  C   UNL A   1      43.185  29.367  30.861  1.00  0.00     0.074 A 
ATOM     66  C   UNL A   1      42.928  30.274  29.746  1.00  0.00     0.031 C 
ATOM     67  C   UNL A   1      44.327  28.785  31.332  1.00  0.00     0.037 A 
BRANCH  54  68
ATOM     68  C   UNL A   1      46.488  30.798  26.843  1.00  0.00     0.064 A 
ATOM     69  C   UNL A   1      47.629  31.630  26.858  1.00  0.00     0.173 A 
ATOM     70  C   UNL A   1      45.268  31.455  26.571  1.00  0.00     0.173 A 
ATOM     71  F   UNL A   1      48.843  31.121  27.114  1.00  0.00    -0.203 F 
ATOM     72  C   UNL A   1      47.534  33.019  26.729  1.00  0.00     0.198 A 
ATOM     73  C   UNL A   1      45.187  32.835  26.388  1.00  0.00     0.198 A 
ATOM     74  F   UNL A   1      44.090  30.825  26.584  1.00  0.00    -0.203 F 
ATOM     75  F   UNL A   1      48.625  33.777  26.905  1.00  0.00    -0.200 F 
ATOM     76  C   UNL A   1      46.312  33.621  26.505  1.00  0.00     0.200 A 
ATOM     77  F   UNL A   1      43.988  33.401  26.190  1.00  0.00    -0.200 F 
ATOM     78  F   UNL A   1      46.207  34.956  26.456  1.00  0.00    -0.200 F 
ENDBRANCH  54  68
BRANCH  55  79
ATOM     79  C   UNL A   1      38.759  28.602  29.444  1.00  0.00     0.064 A 
ATOM     80  C   UNL A   1      37.936  28.855  30.557  1.00  0.00     0.173 A 
ATOM     81  C   UNL A   1      38.276  29.043  28.197  1.00  0.00     0.173 A 
ATOM     82  F   UNL A   1      38.337  28.504  31.787  1.00  0.00    -0.203 F 
ATOM     83  C   UNL A   1      36.723  29.542  30.433  1.00  0.00     0.198 A 
ATOM     84  C   UNL A   1      37.061  29.723  28.076  1.00  0.00     0.198 A 
ATOM     85  F   UNL A   1      39.015  28.911  27.087  1.00  0.00    -0.203 F 
ATOM     86  F   UNL A   1      36.002  29.828  31.526  1.00  0.00    -0.200 F 
ATOM     87  C   UNL A   1      36.294  29.987  29.194  1.00  0.00     0.200 A 
ATOM     88  F   UNL A   1      36.674  30.177  26.875  1.00  0.00    -0.200 F 
ATOM     89  F   UNL A   1      35.166  30.704  29.084  1.00  0.00    -0.200 F 
ENDBRANCH  55  79
BRANCH  67  90
ATOM     90  C   UNL A   1      44.192  27.817  32.477  1.00  0.00     0.064 A 
ATOM     91  C   UNL A   1      44.068  26.423  32.338  1.00  0.00     0.173 A 
ATOM     92  C   UNL A   1      44.307  28.325  33.778  1.00  0.00     0.173 A 
ATOM     93  F   UNL A   1      44.048  25.847  31.130  1.00  0.00    -0.203 F 
ATOM     94  C   UNL A   1      44.008  25.589  33.453  1.00  0.00     0.198 A 
ATOM     95  C   UNL A   1      44.289  27.487  34.887  1.00  0.00     0.198 A 
ATOM     96  F   UNL A   1      44.478  29.643  33.970  1.00  0.00    -0.203 F 
ATOM     97  F   UNL A   1      43.864  24.265  33.294  1.00  0.00    -0.200 F 
ATOM     98  C   UNL A   1      44.125  26.121  34.726  1.00  0.00     0.200 A 
ATOM     99  F   UNL A   1      44.451  28.002  36.114  1.00  0.00    -0.200 F 
ATOM    100  F   UNL A   1      44.104  25.316  35.797  1.00  0.00    -0.200 F 
ENDBRANCH  67  90
ENDBRANCH  41  42
ENDBRANCH  33  36
ENDBRANCH  31  32
ENDBRANCH  30  31
ENDBRANCH  29  30
ENDBRANCH   1  29
TORSDOF 15
ENDMDL
MODEL 2
REMARK VINA RESULT:     -12.7      1.528      2.272
REMARK SMILES Cc1nn(CC(=O)NCCCCNC(=O)c2ccc(-c3c4nc(c(-c5c(F)c(F)c(F)c(F)c5F)c5ccc([nH]5)c(-c5c(F)c(F)c(F)c(F)c5F)c5nc(c(-c6c(F)c(F)c(F)c(F)c6F)c6ccc3[nH]6)C=C5)C=C4)cc2)c(C)c1NS(=O)(=O)c1cccc2cccnc12
REMARK SMILES IDX 9 1 8 2 6 3 7 4 5 6 4 7 1 8 2 9 3 10 81 11 79 12 80 13 82 14
REMARK SMILES IDX 83 16 84 17 85 18 86 19 87 20 95 21 88 22 90 23 94 24 89 25
REMARK SMILES IDX 91 26 93 27 92 28 10 29 11 30 12 31 13 32 14 33 15 35 16 36
REMARK SMILES IDX 17 37 78 38 18 39 77 40 19 41 20 42 21 43 71 44 22 45 76 46
REMARK SMILES IDX 70 47 72 48 23 49 75 50 69 51 68 52 24 54 56 55 36 56 55 57
REMARK SMILES IDX 37 58 40 59 54 60 73 61 38 62 39 63 53 65 74 66 41 67 25 68
REMARK SMILES IDX 26 69 34 70 27 71 28 72 32 73 35 74 29 75 30 76 33 77 31 78
REMARK SMILES IDX 57 79 58 80 66 81 59 82 60 83 64 84 67 85 61 86 62 87 65 88
REMARK SMILES IDX 63 89 42 90 43 91 51 92 44 93 45 94 49 95 52 96 46 97 47 98
REMARK SMILES IDX 50 99 48 100
REMARK H PARENT 8 5 82 15 13 34 72 53 40 64
REMARK Flexibility Score: inf
ROOT
ATOM      1  C   UNL A   1      39.719  20.806  26.128  1.00  0.00     0.116 C 
ENDROOT
BRANCH   1   2
ATOM      2  N   UNL A   1      39.458  22.230  26.151  1.00  0.00    -0.354 N 
ATOM      3  C   UNL A   1      38.268  22.900  26.129  1.00  0.00     0.241 C 
ATOM      4  O   UNL A   1      38.301  24.087  26.480  1.00  0.00    -0.273 OA
ATOM      5  H   UNL A   1      40.258  22.802  26.187  1.00  0.00     0.163 HD
BRANCH   3   6
ATOM      6  C   UNL A   1      36.934  22.239  25.857  1.00  0.00     0.244 C 
BRANCH   6   7
ATOM      7  N   UNL A   1      35.861  23.126  25.450  1.00  0.00    -0.258 N 
ATOM      8  C   UNL A   1      32.880  24.819  26.220  1.00  0.00     0.071 C 
ATOM      9  C   UNL A   1      34.165  24.361  25.631  1.00  0.00     0.084 A 
ATOM     10  N   UNL A   1      34.852  23.412  26.284  1.00  0.00    -0.175 NA
ATOM     11  C   UNL A   1      34.787  24.705  24.385  1.00  0.00     0.093 A 
ATOM     12  C   UNL A   1      35.671  23.663  24.200  1.00  0.00     0.060 A 
ATOM     13  C   UNL A   1      36.290  23.071  22.997  1.00  0.00     0.069 C 
BRANCH  11  14
ATOM     14  N   UNL A   1      34.362  25.689  23.478  1.00  0.00    -0.276 N 
ATOM     15  H   UNL A   1      34.950  26.470  23.356  1.00  0.00     0.180 HD
BRANCH  14  16
ATOM     16  S   UNL A   1      32.916  25.655  22.568  1.00  0.00     0.264 S 
ATOM     17  O   UNL A   1      33.358  25.902  21.205  1.00  0.00    -0.201 OA
ATOM     18  O   UNL A   1      32.260  24.398  22.856  1.00  0.00    -0.201 OA
BRANCH  16  19
ATOM     19  C   UNL A   1      31.897  27.043  22.998  1.00  0.00     0.114 A 
ATOM     20  C   UNL A   1      30.659  27.167  22.340  1.00  0.00     0.024 A 
ATOM     21  C   UNL A   1      32.255  27.928  24.017  1.00  0.00     0.091 A 
ATOM     22  C   UNL A   1      29.791  28.207  22.662  1.00  0.00     0.002 A 
ATOM     23  C   UNL A   1      31.319  28.935  24.382  1.00  0.00     0.002 A 
ATOM     24  N   UNL A   1      33.457  27.914  24.607  1.00  0.00    -0.255 NA
ATOM     25  C   UNL A   1      30.111  29.075  23.696  1.00  0.00     0.010 A 
ATOM     26  C   UNL A   1      31.622  29.835  25.415  1.00  0.00     0.012 A 
ATOM     27  C   UNL A   1      33.726  28.836  25.552  1.00  0.00     0.112 A 
ATOM     28  C   UNL A   1      32.859  29.792  26.017  1.00  0.00     0.021 A 
ENDBRANCH  16  19
ENDBRANCH  14  16
ENDBRANCH  11  14
ENDBRANCH   6   7
ENDBRANCH   3   6
ENDBRANCH   1   2
BRANCH   1  29
ATOM     29  C   UNL A   1      41.082  20.387  26.689  1.00  0.00     0.023 C 
BRANCH  29  30
ATOM     30  C   UNL A   1      41.733  19.180  25.993  1.00  0.00     0.023 C 
BRANCH  30  31
ATOM     31  C   UNL A   1      43.193  18.909  26.370  1.00  0.00     0.116 C 
BRANCH  31  32
ATOM     32  N   UNL A   1      44.115  18.862  25.234  1.00  0.00    -0.352 N 
ATOM     33  C   UNL A   1      44.481  19.912  24.397  1.00  0.00     0.251 C 
ATOM     34  H   UNL A   1      44.524  17.987  25.041  1.00  0.00     0.163 HD
ATOM     35  O   UNL A   1      44.918  19.722  23.278  1.00  0.00    -0.269 OA
BRANCH  33  36
ATOM     36  C   UNL A   1      44.389  21.292  24.924  1.00  0.00     0.039 A 
ATOM     37  C   UNL A   1      43.414  22.210  24.549  1.00  0.00     0.014 A 
ATOM     38  C   UNL A   1      45.379  21.670  25.819  1.00  0.00     0.014 A 
ATOM     39  C   UNL A   1      43.397  23.463  25.172  1.00  0.00     0.010 A 
ATOM     40  C   UNL A   1      45.314  22.846  26.518  1.00  0.00     0.010 A 
ATOM     41  C   UNL A   1      44.338  23.765  26.174  1.00  0.00    -0.014 A 
BRANCH  41  42
ATOM     42  C   UNL A   1      44.203  24.954  27.013  1.00  0.00     0.031 A 
ATOM     43  C   UNL A   1      45.218  26.004  26.717  1.00  0.00     0.074 A 
ATOM     44  C   UNL A   1      43.112  25.215  27.768  1.00  0.00     0.049 A 
ATOM     45  N   UNL A   1      46.128  26.470  27.506  1.00  0.00    -0.248 NA
ATOM     46  C   UNL A   1      45.321  26.503  25.333  1.00  0.00     0.031 C 
ATOM     47  C   UNL A   1      41.878  24.424  27.864  1.00  0.00     0.029 A 
ATOM     48  N   UNL A   1      42.817  26.312  28.524  1.00  0.00    -0.354 N 
ATOM     49  C   UNL A   1      46.784  27.466  26.786  1.00  0.00     0.074 A 
ATOM     50  C   UNL A   1      46.384  27.305  25.415  1.00  0.00     0.031 C 
ATOM     51  C   UNL A   1      40.904  25.167  28.436  1.00  0.00     0.029 A 
ATOM     52  C   UNL A   1      41.478  26.421  28.889  1.00  0.00     0.049 A 
ATOM     53  H   UNL A   1      43.498  26.972  28.791  1.00  0.00     0.167 HD
ATOM     54  C   UNL A   1      47.373  28.510  27.433  1.00  0.00     0.037 A 
ATOM     55  C   UNL A   1      40.877  27.478  29.491  1.00  0.00     0.037 A 
ATOM     56  C   UNL A   1      47.578  28.196  28.826  1.00  0.00     0.049 A 
ATOM     57  C   UNL A   1      41.946  28.300  30.103  1.00  0.00     0.074 A 
ATOM     58  C   UNL A   1      48.269  27.225  29.524  1.00  0.00     0.029 A 
ATOM     59  N   UNL A   1      46.694  28.741  29.721  1.00  0.00    -0.354 N 
ATOM     60  N   UNL A   1      42.673  27.918  31.115  1.00  0.00    -0.248 NA
ATOM     61  C   UNL A   1      42.491  29.397  29.322  1.00  0.00     0.031 C 
ATOM     62  C   UNL A   1      47.452  26.928  30.657  1.00  0.00     0.029 A 
ATOM     63  C   UNL A   1      46.345  27.776  30.627  1.00  0.00     0.049 A 
ATOM     64  H   UNL A   1      46.367  29.669  29.715  1.00  0.00     0.167 HD
ATOM     65  C   UNL A   1      43.941  28.393  30.828  1.00  0.00     0.074 A 
ATOM     66  C   UNL A   1      43.742  29.397  29.786  1.00  0.00     0.031 C 
ATOM     67  C   UNL A   1      45.047  27.714  31.255  1.00  0.00     0.037 A 
BRANCH  54  68
ATOM     68  C   UNL A   1      47.343  29.946  26.939  1.00  0.00     0.064 A 
ATOM     69  C   UNL A   1      48.518  30.721  27.051  1.00  0.00     0.173 A 
ATOM     70  C   UNL A   1      46.162  30.679  26.687  1.00  0.00     0.173 A 
ATOM     71  F   UNL A   1      49.700  30.138  27.298  1.00  0.00    -0.203 F 
ATOM     72  C   UNL A   1      48.489  32.118  27.029  1.00  0.00     0.198 A 
ATOM     73  C   UNL A   1      46.147  32.071  26.612  1.00  0.00     0.198 A 
ATOM     74  F   UNL A   1      44.957  30.105  26.618  1.00  0.00    -0.203 F 
ATOM     75  F   UNL A   1      49.606  32.809  27.294  1.00  0.00    -0.200 F 
ATOM     76  C   UNL A   1      47.301  32.792  26.822  1.00  0.00     0.200 A 
ATOM     77  F   UNL A   1      44.981  32.706  26.427  1.00  0.00    -0.200 F 
ATOM     78  F   UNL A   1      47.257  34.130  26.876  1.00  0.00    -0.200 F 
ENDBRANCH  54  68
BRANCH  55  79
ATOM     79  C   UNL A   1      39.489  27.985  29.348  1.00  0.00     0.064 A 
ATOM     80  C   UNL A   1      38.654  28.141  30.470  1.00  0.00     0.173 A 
ATOM     81  C   UNL A   1      39.056  28.601  28.159  1.00  0.00     0.173 A 
ATOM     82  F   UNL A   1      39.010  27.620  31.653  1.00  0.00    -0.203 F 
ATOM     83  C   UNL A   1      37.479  28.899  30.414  1.00  0.00     0.198 A 
ATOM     84  C   UNL A   1      37.878  29.352  28.104  1.00  0.00     0.198 A 
ATOM     85  F   UNL A   1      39.813  28.570  27.053  1.00  0.00    -0.203 F 
ATOM     86  F   UNL A   1      36.748  29.083  31.522  1.00  0.00    -0.200 F 
ATOM     87  C   UNL A   1      37.100  29.514  29.233  1.00  0.00     0.200 A 
ATOM     88  F   UNL A   1      37.540  29.970  26.962  1.00  0.00    -0.200 F 
ATOM     89  F   UNL A   1      36.011  30.296  29.194  1.00  0.00    -0.200 F 
ENDBRANCH  55  79
BRANCH  67  90
ATOM     90  C   UNL A   1      44.853  26.670  32.321  1.00  0.00     0.064 A 
ATOM     91  C   UNL A   1      44.756  26.939  33.698  1.00  0.00     0.173 A 
ATOM     92  C   UNL A   1      44.645  25.347  31.909  1.00  0.00     0.173 A 
ATOM     93  F   UNL A   1      44.846  28.189  34.168  1.00  0.00    -0.203 F 
ATOM     94  C   UNL A   1      44.516  25.919  34.617  1.00  0.00     0.198 A 
ATOM     95  C   UNL A   1      44.366  24.339  32.824  1.00  0.00     0.198 A 
ATOM     96  F   UNL A   1      44.676  25.040  30.602  1.00  0.00    -0.203 F 
ATOM     97  F   UNL A   1      44.453  26.197  35.928  1.00  0.00    -0.200 F 
ATOM     98  C   UNL A   1      44.315  24.622  34.179  1.00  0.00     0.200 A 
ATOM     99  F   UNL A   1      44.124  23.094  32.390  1.00  0.00    -0.200 F 
ATOM    100  F   UNL A   1      44.048  23.646  35.059  1.00  0.00    -0.200 F 
ENDBRANCH  67  90
ENDBRANCH  41  42
ENDBRANCH  33  36
ENDBRANCH  31  32
ENDBRANCH  30  31
ENDBRANCH  29  30
ENDBRANCH   1  29
TORSDOF 15
ENDMDL
MODEL 3
REMARK VINA RESULT:     -12.4      3.724      9.590
REMARK SMILES Cc1nn(CC(=O)NCCCCNC(=O)c2ccc(-c3c4nc(c(-c5c(F)c(F)c(F)c(F)c5F)c5ccc([nH]5)c(-c5c(F)c(F)c(F)c(F)c5F)c5nc(c(-c6c(F)c(F)c(F)c(F)c6F)c6ccc3[nH]6)C=C5)C=C4)cc2)c(C)c1NS(=O)(=O)c1cccc2cccnc12
REMARK SMILES IDX 9 1 8 2 6 3 7 4 5 6 4 7 1 8 2 9 3 10 81 11 79 12 80 13 82 14
REMARK SMILES IDX 83 16 84 17 85 18 86 19 87 20 95 21 88 22 90 23 94 24 89 25
REMARK SMILES IDX 91 26 93 27 92 28 10 29 11 30 12 31 13 32 14 33 15 35 16 36
REMARK SMILES IDX 17 37 78 38 18 39 77 40 19 41 20 42 21 43 71 44 22 45 76 46
REMARK SMILES IDX 70 47 72 48 23 49 75 50 69 51 68 52 24 54 56 55 36 56 55 57
REMARK SMILES IDX 37 58 40 59 54 60 73 61 38 62 39 63 53 65 74 66 41 67 25 68
REMARK SMILES IDX 26 69 34 70 27 71 28 72 32 73 35 74 29 75 30 76 33 77 31 78
REMARK SMILES IDX 57 79 58 80 66 81 59 82 60 83 64 84 67 85 61 86 62 87 65 88
REMARK SMILES IDX 63 89 42 90 43 91 51 92 44 93 45 94 49 95 52 96 46 97 47 98
REMARK SMILES IDX 50 99 48 100
REMARK H PARENT 8 5 82 15 13 34 72 53 40 64
REMARK Flexibility Score: inf
ROOT
ATOM      1  C   UNL A   1      33.823  31.931  27.868  1.00  0.00     0.116 C 
ENDROOT
BRANCH   1   2
ATOM      2  N   UNL A   1      32.728  32.087  26.933  1.00  0.00    -0.354 N 
ATOM      3  C   UNL A   1      31.796  31.177  26.521  1.00  0.00     0.241 C 
ATOM      4  O   UNL A   1      30.785  31.638  25.974  1.00  0.00    -0.273 OA
ATOM      5  H   UNL A   1      32.642  32.982  26.535  1.00  0.00     0.163 HD
BRANCH   3   6
ATOM      6  C   UNL A   1      31.869  29.697  26.831  1.00  0.00     0.244 C 
BRANCH   6   7
ATOM      7  N   UNL A   1      32.473  28.867  25.807  1.00  0.00    -0.258 N 
ATOM      8  C   UNL A   1      34.086  28.594  22.697  1.00  0.00     0.071 C 
ATOM      9  C   UNL A   1      33.556  28.378  24.068  1.00  0.00     0.084 A 
ATOM     10  N   UNL A   1      32.948  29.407  24.676  1.00  0.00    -0.175 NA
ATOM     11  C   UNL A   1      33.498  27.183  24.860  1.00  0.00     0.093 A 
ATOM     12  C   UNL A   1      32.530  27.494  25.792  1.00  0.00     0.060 A 
ATOM     13  C   UNL A   1      31.610  26.669  26.601  1.00  0.00     0.069 C 
BRANCH  11  14
ATOM     14  N   UNL A   1      34.072  25.940  24.549  1.00  0.00    -0.276 N 
ATOM     15  H   UNL A   1      34.910  25.705  25.010  1.00  0.00     0.180 HD
BRANCH  14  16
ATOM     16  S   UNL A   1      33.448  24.799  23.440  1.00  0.00     0.264 S 
ATOM     17  O   UNL A   1      32.007  24.938  23.574  1.00  0.00    -0.201 OA
ATOM     18  O   UNL A   1      34.045  25.082  22.153  1.00  0.00    -0.201 OA
BRANCH  16  19
ATOM     19  C   UNL A   1      33.822  23.153  23.991  1.00  0.00     0.114 A 
ATOM     20  C   UNL A   1      32.815  22.180  23.857  1.00  0.00     0.024 A 
ATOM     21  C   UNL A   1      35.094  22.805  24.451  1.00  0.00     0.091 A 
ATOM     22  C   UNL A   1      33.056  20.860  24.227  1.00  0.00     0.002 A 
ATOM     23  C   UNL A   1      35.341  21.436  24.749  1.00  0.00     0.002 A 
ATOM     24  N   UNL A   1      36.056  23.705  24.688  1.00  0.00    -0.255 NA
ATOM     25  C   UNL A   1      34.323  20.485  24.652  1.00  0.00     0.010 A 
ATOM     26  C   UNL A   1      36.609  21.032  25.193  1.00  0.00     0.012 A 
ATOM     27  C   UNL A   1      37.239  23.278  25.171  1.00  0.00     0.112 A 
ATOM     28  C   UNL A   1      37.587  21.973  25.416  1.00  0.00     0.021 A 
ENDBRANCH  16  19
ENDBRANCH  14  16
ENDBRANCH  11  14
ENDBRANCH   6   7
ENDBRANCH   3   6
ENDBRANCH   1   2
BRANCH   1  29
ATOM     29  C   UNL A   1      34.320  33.231  28.508  1.00  0.00     0.023 C 
BRANCH  29  30
ATOM     30  C   UNL A   1      33.248  34.316  28.703  1.00  0.00     0.023 C 
BRANCH  30  31
ATOM     31  C   UNL A   1      33.722  35.595  29.399  1.00  0.00     0.116 C 
BRANCH  31  32
ATOM     32  N   UNL A   1      33.142  35.817  30.725  1.00  0.00    -0.352 N 
ATOM     33  C   UNL A   1      33.290  35.022  31.858  1.00  0.00     0.251 C 
ATOM     34  H   UNL A   1      32.584  36.621  30.827  1.00  0.00     0.163 HD
ATOM     35  O   UNL A   1      32.489  35.047  32.773  1.00  0.00    -0.269 OA
BRANCH  33  36
ATOM     36  C   UNL A   1      34.499  34.173  31.964  1.00  0.00     0.039 A 
ATOM     37  C   UNL A   1      34.480  32.783  31.967  1.00  0.00     0.014 A 
ATOM     38  C   UNL A   1      35.704  34.843  32.105  1.00  0.00     0.014 A 
ATOM     39  C   UNL A   1      35.699  32.096  32.006  1.00  0.00     0.010 A 
ATOM     40  C   UNL A   1      36.908  34.195  32.032  1.00  0.00     0.010 A 
ATOM     41  C   UNL A   1      36.911  32.810  32.014  1.00  0.00    -0.014 A 
BRANCH  41  42
ATOM     42  C   UNL A   1      38.193  32.140  31.807  1.00  0.00     0.031 A 
ATOM     43  C   UNL A   1      38.923  31.857  33.075  1.00  0.00     0.074 A 
ATOM     44  C   UNL A   1      38.555  31.568  30.636  1.00  0.00     0.049 A 
ATOM     45  N   UNL A   1      40.074  32.311  33.444  1.00  0.00    -0.248 NA
ATOM     46  C   UNL A   1      38.231  31.077  34.118  1.00  0.00     0.031 C 
ATOM     47  C   UNL A   1      37.761  31.465  29.405  1.00  0.00     0.029 A 
ATOM     48  N   UNL A   1      39.670  30.845  30.328  1.00  0.00    -0.354 N 
ATOM     49  C   UNL A   1      40.344  31.714  34.673  1.00  0.00     0.074 A 
ATOM     50  C   UNL A   1      39.108  31.133  35.122  1.00  0.00     0.031 C 
ATOM     51  C   UNL A   1      38.313  30.544  28.583  1.00  0.00     0.029 A 
ATOM     52  C   UNL A   1      39.575  30.107  29.151  1.00  0.00     0.049 A 
ATOM     53  H   UNL A   1      40.477  30.845  30.893  1.00  0.00     0.167 HD
ATOM     54  C   UNL A   1      41.630  31.507  35.072  1.00  0.00     0.037 A 
ATOM     55  C   UNL A   1      40.454  29.182  28.692  1.00  0.00     0.037 A 
ATOM     56  C   UNL A   1      42.537  32.332  34.312  1.00  0.00     0.049 A 
ATOM     57  C   UNL A   1      41.737  29.406  29.397  1.00  0.00     0.074 A 
ATOM     58  C   UNL A   1      42.698  33.689  34.110  1.00  0.00     0.029 A 
ATOM     59  N   UNL A   1      43.239  31.720  33.306  1.00  0.00    -0.354 N 
ATOM     60  N   UNL A   1      42.490  30.457  29.227  1.00  0.00    -0.248 NA
ATOM     61  C   UNL A   1      41.986  28.649  30.612  1.00  0.00     0.031 C 
ATOM     62  C   UNL A   1      43.096  33.818  32.744  1.00  0.00     0.029 A 
ATOM     63  C   UNL A   1      43.222  32.536  32.208  1.00  0.00     0.049 A 
ATOM     64  H   UNL A   1      43.680  30.842  33.363  1.00  0.00     0.167 HD
ATOM     65  C   UNL A   1      42.967  30.748  30.494  1.00  0.00     0.074 A 
ATOM     66  C   UNL A   1      42.730  29.537  31.274  1.00  0.00     0.031 C 
ATOM     67  C   UNL A   1      43.233  32.039  30.852  1.00  0.00     0.037 A 
BRANCH  54  68
ATOM     68  C   UNL A   1      42.108  30.262  35.798  1.00  0.00     0.064 A 
ATOM     69  C   UNL A   1      43.072  30.407  36.819  1.00  0.00     0.173 A 
ATOM     70  C   UNL A   1      41.929  28.943  35.325  1.00  0.00     0.173 A 
ATOM     71  F   UNL A   1      43.336  31.614  37.343  1.00  0.00    -0.203 F 
ATOM     72  C   UNL A   1      43.869  29.340  37.244  1.00  0.00     0.198 A 
ATOM     73  C   UNL A   1      42.690  27.872  35.791  1.00  0.00     0.198 A 
ATOM     74  F   UNL A   1      41.104  28.644  34.317  1.00  0.00    -0.203 F 
ATOM     75  F   UNL A   1      44.873  29.563  38.103  1.00  0.00    -0.200 F 
ATOM     76  C   UNL A   1      43.685  28.076  36.720  1.00  0.00     0.200 A 
ATOM     77  F   UNL A   1      42.507  26.656  35.256  1.00  0.00    -0.200 F 
ATOM     78  F   UNL A   1      44.496  27.068  37.068  1.00  0.00    -0.200 F 
ENDBRANCH  54  68
BRANCH  55  79
ATOM     79  C   UNL A   1      40.205  27.950  27.901  1.00  0.00     0.064 A 
ATOM     80  C   UNL A   1      40.910  27.697  26.710  1.00  0.00     0.173 A 
ATOM     81  C   UNL A   1      39.492  26.865  28.446  1.00  0.00     0.173 A 
ATOM     82  F   UNL A   1      41.648  28.663  26.144  1.00  0.00    -0.203 F 
ATOM     83  C   UNL A   1      40.931  26.427  26.123  1.00  0.00     0.198 A 
ATOM     84  C   UNL A   1      39.509  25.600  27.854  1.00  0.00     0.198 A 
ATOM     85  F   UNL A   1      38.845  26.985  29.614  1.00  0.00    -0.203 F 
ATOM     86  F   UNL A   1      41.673  26.208  25.028  1.00  0.00    -0.200 F 
ATOM     87  C   UNL A   1      40.241  25.377  26.703  1.00  0.00     0.200 A 
ATOM     88  F   UNL A   1      38.863  24.583  28.445  1.00  0.00    -0.200 F 
ATOM     89  F   UNL A   1      40.315  24.144  26.180  1.00  0.00    -0.200 F 
ENDBRANCH  55  79
BRANCH  67  90
ATOM     90  C   UNL A   1      43.338  33.059  29.751  1.00  0.00     0.064 A 
ATOM     91  C   UNL A   1      42.308  33.938  29.373  1.00  0.00     0.173 A 
ATOM     92  C   UNL A   1      44.582  33.221  29.128  1.00  0.00     0.173 A 
ATOM     93  F   UNL A   1      41.118  33.916  29.985  1.00  0.00    -0.203 F 
ATOM     94  C   UNL A   1      42.506  34.897  28.380  1.00  0.00     0.198 A 
ATOM     95  C   UNL A   1      44.788  34.204  28.167  1.00  0.00     0.198 A 
ATOM     96  F   UNL A   1      45.617  32.442  29.484  1.00  0.00    -0.203 F 
ATOM     97  F   UNL A   1      41.499  35.708  28.020  1.00  0.00    -0.200 F 
ATOM     98  C   UNL A   1      43.747  35.033  27.783  1.00  0.00     0.200 A 
ATOM     99  F   UNL A   1      46.005  34.363  27.627  1.00  0.00    -0.200 F 
ATOM    100  F   UNL A   1      43.948  35.978  26.854  1.00  0.00    -0.200 F 
ENDBRANCH  67  90
ENDBRANCH  41  42
ENDBRANCH  33  36
ENDBRANCH  31  32
ENDBRANCH  30  31
ENDBRANCH  29  30
ENDBRANCH   1  29
TORSDOF 15
ENDMDL
