MODEL 1
REMARK VINA RESULT:     -12.3      0.000      0.000
REMARK SMILES O=C(/C=C/c1ccc(NC(=O)CCc2nc(-c3cc(Br)cs3)no2)cc1)NCCCCNC(=O)c1ccc(-c2c3nc(c(-c4c(F)c(F)c(F)c(F)c4F)c4ccc([nH]4)c(-c4c(F)c(F)c(F)c(F)c4F)c4nc(c(-c5c(F)c(F)c(F)c(F)c5F)c5ccc2[nH]5)C=C4)C=C3)cc1
REMARK SMILES IDX 1 1 2 2 27 3 3 5 4 6 5 7 6 8 26 9 7 10 25 11 8 12 9 13 10 14
REMARK SMILES IDX 11 16 12 17 13 18 14 19 15 20 24 21 16 22 23 23 17 24 18 25
REMARK SMILES IDX 22 26 19 27 21 28 20 29 28 30 29 31 30 32 31 33 32 34 33 35
REMARK SMILES IDX 34 37 35 38 36 39 97 40 37 41 96 42 38 43 39 44 40 45 90 46
REMARK SMILES IDX 41 47 95 48 89 49 91 50 42 51 94 52 88 53 87 54 43 56 75 57
REMARK SMILES IDX 55 58 74 59 56 60 59 61 73 62 92 63 57 64 58 65 72 67 93 68
REMARK SMILES IDX 60 69 44 70 45 71 53 72 46 73 47 74 51 75 54 76 48 77 49 78
REMARK SMILES IDX 52 79 50 80 76 81 77 82 85 83 78 84 79 85 83 86 86 87 80 88
REMARK SMILES IDX 81 89 84 90 82 91 61 92 62 93 70 94 63 95 64 96 68 97 71 98
REMARK SMILES IDX 65 99 66 100 69 101 67 102
REMARK H PARENT 27 4 9 15 32 36 91 55 59 66
REMARK Flexibility Score: inf
ROOT
ATOM      1  O   UNL A   1      36.286  30.955  27.638  1.00  0.00    -0.270 OA
ATOM      2  C   UNL A   1      35.130  30.647  27.906  1.00  0.00     0.243 C 
ATOM      3  N   UNL A   1      34.286  31.414  28.676  1.00  0.00    -0.353 N 
ATOM      4  H   UNL A   1      33.354  31.122  28.796  1.00  0.00     0.163 HD
ENDROOT
BRANCH   2   5
ATOM      5  C   UNL A   1      34.609  29.320  27.472  1.00  0.00     0.072 C 
ATOM      6  C   UNL A   1      33.333  29.077  27.142  1.00  0.00     0.014 C 
BRANCH   6   7
ATOM      7  C   UNL A   1      32.763  27.774  26.772  1.00  0.00    -0.025 A 
ATOM      8  C   UNL A   1      33.656  26.766  26.401  1.00  0.00     0.010 A 
ATOM      9  C   UNL A   1      31.394  27.536  26.611  1.00  0.00     0.010 A 
ATOM     10  C   UNL A   1      33.207  25.601  25.778  1.00  0.00     0.027 A 
ATOM     11  C   UNL A   1      30.947  26.370  25.968  1.00  0.00     0.027 A 
ATOM     12  C   UNL A   1      31.865  25.442  25.460  1.00  0.00     0.041 A 
BRANCH  12  13
ATOM     13  N   UNL A   1      31.370  24.448  24.596  1.00  0.00    -0.326 N 
ATOM     14  C   UNL A   1      31.883  23.866  23.471  1.00  0.00     0.224 C 
ATOM     15  H   UNL A   1      30.483  24.107  24.852  1.00  0.00     0.169 HD
ATOM     16  O   UNL A   1      31.177  23.040  22.882  1.00  0.00    -0.275 OA
BRANCH  14  17
ATOM     17  C   UNL A   1      33.224  24.247  22.870  1.00  0.00     0.110 C 
BRANCH  17  18
ATOM     18  C   UNL A   1      33.244  25.423  21.890  1.00  0.00     0.110 C 
BRANCH  18  19
ATOM     19  C   UNL A   1      32.433  26.610  22.251  1.00  0.00     0.227 A 
ATOM     20  N   UNL A   1      31.154  26.862  22.068  1.00  0.00    -0.190 NA
ATOM     21  O   UNL A   1      33.086  27.605  22.917  1.00  0.00    -0.339 OA
ATOM     22  C   UNL A   1      31.042  28.147  22.552  1.00  0.00     0.212 A 
ATOM     23  N   UNL A   1      32.176  28.642  23.070  1.00  0.00    -0.056 NA
BRANCH  22  24
ATOM     24  C   UNL A   1      29.800  28.976  22.456  1.00  0.00     0.076 A 
ATOM     25  C   UNL A   1      29.745  30.180  21.780  1.00  0.00     0.039 A 
ATOM     26  S   UNL A   1      28.283  28.542  23.113  1.00  0.00    -0.139 S 
ATOM     27  C   UNL A   1      28.436  30.713  21.777  1.00  0.00     0.029 A 
ATOM     28  C   UNL A   1      27.555  29.985  22.535  1.00  0.00     0.081 A 
ATOM     29  Br  UNL A   1      27.993  32.265  20.802  1.00  0.00    -0.050 Br
ENDBRANCH  22  24
ENDBRANCH  18  19
ENDBRANCH  17  18
ENDBRANCH  14  17
ENDBRANCH  12  13
ENDBRANCH   6   7
ENDBRANCH   2   5
BRANCH   3  30
ATOM     30  C   UNL A   1      34.724  32.642  29.316  1.00  0.00     0.116 C 
BRANCH  30  31
ATOM     31  C   UNL A   1      34.506  33.882  28.452  1.00  0.00     0.023 C 
BRANCH  31  32
ATOM     32  C   UNL A   1      33.229  34.670  28.753  1.00  0.00     0.023 C 
BRANCH  32  33
ATOM     33  C   UNL A   1      33.423  35.988  29.502  1.00  0.00     0.116 C 
BRANCH  33  34
ATOM     34  N   UNL A   1      32.498  36.155  30.614  1.00  0.00    -0.352 N 
ATOM     35  C   UNL A   1      32.571  35.692  31.906  1.00  0.00     0.251 C 
ATOM     36  H   UNL A   1      31.693  36.683  30.408  1.00  0.00     0.163 HD
ATOM     37  O   UNL A   1      31.603  35.818  32.656  1.00  0.00    -0.269 OA
BRANCH  35  38
ATOM     38  C   UNL A   1      33.790  35.016  32.404  1.00  0.00     0.039 A 
ATOM     39  C   UNL A   1      33.678  33.727  32.935  1.00  0.00     0.014 A 
ATOM     40  C   UNL A   1      35.036  35.646  32.372  1.00  0.00     0.014 A 
ATOM     41  C   UNL A   1      34.822  33.044  33.359  1.00  0.00     0.010 A 
ATOM     42  C   UNL A   1      36.184  34.937  32.724  1.00  0.00     0.010 A 
ATOM     43  C   UNL A   1      36.092  33.626  33.218  1.00  0.00    -0.014 A 
BRANCH  43  44
ATOM     44  C   UNL A   1      37.328  32.875  33.565  1.00  0.00     0.031 A 
ATOM     45  C   UNL A   1      38.068  33.171  34.840  1.00  0.00     0.074 A 
ATOM     46  C   UNL A   1      37.822  31.968  32.699  1.00  0.00     0.049 A 
ATOM     47  N   UNL A   1      39.199  32.673  35.278  1.00  0.00    -0.248 NA
ATOM     48  C   UNL A   1      37.473  34.177  35.732  1.00  0.00     0.031 C 
ATOM     49  C   UNL A   1      37.226  31.619  31.409  1.00  0.00     0.029 A 
ATOM     50  N   UNL A   1      38.947  31.181  32.767  1.00  0.00    -0.354 N 
ATOM     51  C   UNL A   1      39.451  33.309  36.487  1.00  0.00     0.074 A 
ATOM     52  C   UNL A   1      38.388  34.272  36.685  1.00  0.00     0.031 C 
ATOM     53  C   UNL A   1      37.977  30.678  30.816  1.00  0.00     0.029 A 
ATOM     54  C   UNL A   1      39.131  30.386  31.661  1.00  0.00     0.049 A 
ATOM     55  H   UNL A   1      39.563  31.187  33.535  1.00  0.00     0.167 HD
ATOM     56  C   UNL A   1      40.461  33.093  37.364  1.00  0.00     0.037 A 
ATOM     57  C   UNL A   1      40.126  29.530  31.355  1.00  0.00     0.037 A 
ATOM     58  C   UNL A   1      41.512  32.128  37.170  1.00  0.00     0.049 A 
ATOM     59  C   UNL A   1      41.251  29.328  32.334  1.00  0.00     0.074 A 
ATOM     60  C   UNL A   1      42.555  31.804  38.021  1.00  0.00     0.029 A 
ATOM     61  N   UNL A   1      41.658  31.333  36.041  1.00  0.00    -0.354 N 
ATOM     62  N   UNL A   1      41.443  29.889  33.503  1.00  0.00    -0.248 NA
ATOM     63  C   UNL A   1      42.297  28.367  31.952  1.00  0.00     0.031 C 
ATOM     64  C   UNL A   1      43.363  30.857  37.385  1.00  0.00     0.029 A 
ATOM     65  C   UNL A   1      42.789  30.540  36.163  1.00  0.00     0.049 A 
ATOM     66  H   UNL A   1      41.049  31.333  35.267  1.00  0.00     0.167 HD
ATOM     67  C   UNL A   1      42.608  29.328  34.009  1.00  0.00     0.074 A 
ATOM     68  C   UNL A   1      43.072  28.371  33.027  1.00  0.00     0.031 C 
ATOM     69  C   UNL A   1      43.238  29.585  35.182  1.00  0.00     0.037 A 
BRANCH  56  70
ATOM     70  C   UNL A   1      40.481  33.920  38.619  1.00  0.00     0.064 A 
ATOM     71  C   UNL A   1      39.787  33.522  39.773  1.00  0.00     0.173 A 
ATOM     72  C   UNL A   1      41.234  35.102  38.685  1.00  0.00     0.173 A 
ATOM     73  F   UNL A   1      39.044  32.405  39.763  1.00  0.00    -0.203 F 
ATOM     74  C   UNL A   1      39.821  34.293  40.933  1.00  0.00     0.198 A 
ATOM     75  C   UNL A   1      41.294  35.852  39.857  1.00  0.00     0.198 A 
ATOM     76  F   UNL A   1      41.924  35.525  37.615  1.00  0.00    -0.203 F 
ATOM     77  F   UNL A   1      39.106  33.921  42.004  1.00  0.00    -0.200 F 
ATOM     78  C   UNL A   1      40.580  35.452  40.976  1.00  0.00     0.200 A 
ATOM     79  F   UNL A   1      42.042  36.963  39.902  1.00  0.00    -0.200 F 
ATOM     80  F   UNL A   1      40.618  36.188  42.096  1.00  0.00    -0.200 F 
ENDBRANCH  56  70
BRANCH  57  81
ATOM     81  C   UNL A   1      40.098  28.790  30.064  1.00  0.00     0.064 A 
ATOM     82  C   UNL A   1      39.464  27.543  29.960  1.00  0.00     0.173 A 
ATOM     83  C   UNL A   1      40.713  29.305  28.914  1.00  0.00     0.173 A 
ATOM     84  F   UNL A   1      38.880  26.996  31.037  1.00  0.00    -0.203 F 
ATOM     85  C   UNL A   1      39.471  26.829  28.762  1.00  0.00     0.198 A 
ATOM     86  C   UNL A   1      40.690  28.607  27.708  1.00  0.00     0.198 A 
ATOM     87  F   UNL A   1      41.329  30.495  28.957  1.00  0.00    -0.203 F 
ATOM     88  F   UNL A   1      38.905  25.615  28.706  1.00  0.00    -0.200 F 
ATOM     89  C   UNL A   1      40.078  27.364  27.637  1.00  0.00     0.200 A 
ATOM     90  F   UNL A   1      41.263  29.135  26.619  1.00  0.00    -0.200 F 
ATOM     91  F   UNL A   1      40.080  26.679  26.485  1.00  0.00    -0.200 F 
ENDBRANCH  57  81
BRANCH  69  92
ATOM     92  C   UNL A   1      44.475  28.790  35.492  1.00  0.00     0.064 A 
ATOM     93  C   UNL A   1      45.752  29.229  35.111  1.00  0.00     0.173 A 
ATOM     94  C   UNL A   1      44.384  27.590  36.215  1.00  0.00     0.173 A 
ATOM     95  F   UNL A   1      45.894  30.362  34.405  1.00  0.00    -0.203 F 
ATOM     96  C   UNL A   1      46.887  28.482  35.416  1.00  0.00     0.198 A 
ATOM     97  C   UNL A   1      45.524  26.864  36.549  1.00  0.00     0.198 A 
ATOM     98  F   UNL A   1      43.189  27.128  36.611  1.00  0.00    -0.203 F 
ATOM     99  F   UNL A   1      48.091  28.894  34.994  1.00  0.00    -0.200 F 
ATOM    100  C   UNL A   1      46.773  27.306  36.141  1.00  0.00     0.200 A 
ATOM    101  F   UNL A   1      45.413  25.736  37.264  1.00  0.00    -0.200 F 
ATOM    102  F   UNL A   1      47.868  26.593  36.441  1.00  0.00    -0.200 F 
ENDBRANCH  69  92
ENDBRANCH  43  44
ENDBRANCH  35  38
ENDBRANCH  33  34
ENDBRANCH  32  33
ENDBRANCH  31  32
ENDBRANCH  30  31
ENDBRANCH   3  30
TORSDOF 17
ENDMDL
MODEL 2
REMARK VINA RESULT:     -12.2      3.279      5.019
REMARK SMILES O=C(/C=C/c1ccc(NC(=O)CCc2nc(-c3cc(Br)cs3)no2)cc1)NCCCCNC(=O)c1ccc(-c2c3nc(c(-c4c(F)c(F)c(F)c(F)c4F)c4ccc([nH]4)c(-c4c(F)c(F)c(F)c(F)c4F)c4nc(c(-c5c(F)c(F)c(F)c(F)c5F)c5ccc2[nH]5)C=C4)C=C3)cc1
REMARK SMILES IDX 1 1 2 2 27 3 3 5 4 6 5 7 6 8 26 9 7 10 25 11 8 12 9 13 10 14
REMARK SMILES IDX 11 16 12 17 13 18 14 19 15 20 24 21 16 22 23 23 17 24 18 25
REMARK SMILES IDX 22 26 19 27 21 28 20 29 28 30 29 31 30 32 31 33 32 34 33 35
REMARK SMILES IDX 34 37 35 38 36 39 97 40 37 41 96 42 38 43 39 44 40 45 90 46
REMARK SMILES IDX 41 47 95 48 89 49 91 50 42 51 94 52 88 53 87 54 43 56 75 57
REMARK SMILES IDX 55 58 74 59 56 60 59 61 73 62 92 63 57 64 58 65 72 67 93 68
REMARK SMILES IDX 60 69 44 70 45 71 53 72 46 73 47 74 51 75 54 76 48 77 49 78
REMARK SMILES IDX 52 79 50 80 76 81 77 82 85 83 78 84 79 85 83 86 86 87 80 88
REMARK SMILES IDX 81 89 84 90 82 91 61 92 62 93 70 94 63 95 64 96 68 97 71 98
REMARK SMILES IDX 65 99 66 100 69 101 67 102
REMARK H PARENT 27 4 9 15 32 36 91 55 59 66
REMARK Flexibility Score: inf
ROOT
ATOM      1  O   UNL A   1      36.396  30.996  27.808  1.00  0.00    -0.270 OA
ATOM      2  C   UNL A   1      35.234  30.607  27.800  1.00  0.00     0.243 C 
ATOM      3  N   UNL A   1      34.210  31.225  28.481  1.00  0.00    -0.353 N 
ATOM      4  H   UNL A   1      33.293  30.882  28.375  1.00  0.00     0.163 HD
ENDROOT
BRANCH   2   5
ATOM      5  C   UNL A   1      34.894  29.335  27.103  1.00  0.00     0.072 C 
ATOM      6  C   UNL A   1      33.703  29.067  26.551  1.00  0.00     0.014 C 
BRANCH   6   7
ATOM      7  C   UNL A   1      33.303  27.804  25.912  1.00  0.00    -0.025 A 
ATOM      8  C   UNL A   1      32.432  26.976  26.622  1.00  0.00     0.010 A 
ATOM      9  C   UNL A   1      33.866  27.315  24.729  1.00  0.00     0.010 A 
ATOM     10  C   UNL A   1      32.216  25.654  26.228  1.00  0.00     0.027 A 
ATOM     11  C   UNL A   1      33.661  25.980  24.346  1.00  0.00     0.027 A 
ATOM     12  C   UNL A   1      32.911  25.115  25.154  1.00  0.00     0.041 A 
BRANCH  12  13
ATOM     13  N   UNL A   1      32.972  23.740  24.862  1.00  0.00    -0.326 N 
ATOM     14  C   UNL A   1      33.840  22.755  25.243  1.00  0.00     0.224 C 
ATOM     15  H   UNL A   1      32.251  23.428  24.269  1.00  0.00     0.169 HD
ATOM     16  O   UNL A   1      33.665  21.626  24.773  1.00  0.00    -0.275 OA
BRANCH  14  17
ATOM     17  C   UNL A   1      35.044  23.001  26.135  1.00  0.00     0.110 C 
BRANCH  17  18
ATOM     18  C   UNL A   1      36.286  23.614  25.482  1.00  0.00     0.110 C 
BRANCH  18  19
ATOM     19  C   UNL A   1      37.593  23.011  25.831  1.00  0.00     0.227 A 
ATOM     20  N   UNL A   1      38.650  23.535  26.415  1.00  0.00    -0.190 NA
ATOM     21  O   UNL A   1      37.740  21.686  25.546  1.00  0.00    -0.339 OA
ATOM     22  C   UNL A   1      39.547  22.489  26.379  1.00  0.00     0.212 A 
ATOM     23  N   UNL A   1      39.050  21.355  25.862  1.00  0.00    -0.056 NA
BRANCH  22  24
ATOM     24  C   UNL A   1      40.979  22.595  26.801  1.00  0.00     0.076 A 
ATOM     25  C   UNL A   1      41.366  22.982  28.070  1.00  0.00     0.039 A 
ATOM     26  S   UNL A   1      42.319  22.214  25.812  1.00  0.00    -0.139 S 
ATOM     27  C   UNL A   1      42.769  22.920  28.225  1.00  0.00     0.029 A 
ATOM     28  C   UNL A   1      43.427  22.608  27.062  1.00  0.00     0.081 A 
ATOM     29  Br  UNL A   1      43.604  23.230  29.886  1.00  0.00    -0.050 Br
ENDBRANCH  22  24
ENDBRANCH  18  19
ENDBRANCH  17  18
ENDBRANCH  14  17
ENDBRANCH  12  13
ENDBRANCH   6   7
ENDBRANCH   2   5
BRANCH   3  30
ATOM     30  C   UNL A   1      34.436  32.366  29.349  1.00  0.00     0.116 C 
BRANCH  30  31
ATOM     31  C   UNL A   1      34.487  33.695  28.597  1.00  0.00     0.023 C 
BRANCH  31  32
ATOM     32  C   UNL A   1      33.245  34.577  28.746  1.00  0.00     0.023 C 
BRANCH  32  33
ATOM     33  C   UNL A   1      33.459  35.904  29.473  1.00  0.00     0.116 C 
BRANCH  33  34
ATOM     34  N   UNL A   1      32.538  36.103  30.584  1.00  0.00    -0.352 N 
ATOM     35  C   UNL A   1      32.612  35.667  31.885  1.00  0.00     0.251 C 
ATOM     36  H   UNL A   1      31.737  36.633  30.368  1.00  0.00     0.163 HD
ATOM     37  O   UNL A   1      31.647  35.817  32.635  1.00  0.00    -0.269 OA
BRANCH  35  38
ATOM     38  C   UNL A   1      33.827  34.993  32.395  1.00  0.00     0.039 A 
ATOM     39  C   UNL A   1      33.708  33.713  32.945  1.00  0.00     0.014 A 
ATOM     40  C   UNL A   1      35.076  35.616  32.354  1.00  0.00     0.014 A 
ATOM     41  C   UNL A   1      34.849  33.032  33.381  1.00  0.00     0.010 A 
ATOM     42  C   UNL A   1      36.221  34.908  32.717  1.00  0.00     0.010 A 
ATOM     43  C   UNL A   1      36.122  33.606  33.231  1.00  0.00    -0.014 A 
BRANCH  43  44
ATOM     44  C   UNL A   1      37.355  32.854  33.590  1.00  0.00     0.031 A 
ATOM     45  C   UNL A   1      38.100  33.172  34.858  1.00  0.00     0.074 A 
ATOM     46  C   UNL A   1      37.840  31.925  32.742  1.00  0.00     0.049 A 
ATOM     47  N   UNL A   1      39.228  32.676  35.302  1.00  0.00    -0.248 NA
ATOM     48  C   UNL A   1      37.514  34.200  35.729  1.00  0.00     0.031 C 
ATOM     49  C   UNL A   1      37.238  31.553  31.462  1.00  0.00     0.029 A 
ATOM     50  N   UNL A   1      38.960  31.132  32.824  1.00  0.00    -0.354 N 
ATOM     51  C   UNL A   1      39.488  33.335  36.496  1.00  0.00     0.074 A 
ATOM     52  C   UNL A   1      38.433  34.309  36.678  1.00  0.00     0.031 C 
ATOM     53  C   UNL A   1      37.981  30.594  30.887  1.00  0.00     0.029 A 
ATOM     54  C   UNL A   1      39.135  30.313  31.734  1.00  0.00     0.049 A 
ATOM     55  H   UNL A   1      39.578  31.150  33.590  1.00  0.00     0.167 HD
ATOM     56  C   UNL A   1      40.499  33.132  37.375  1.00  0.00     0.037 A 
ATOM     57  C   UNL A   1      40.124  29.445  31.444  1.00  0.00     0.037 A 
ATOM     58  C   UNL A   1      41.544  32.155  37.199  1.00  0.00     0.049 A 
ATOM     59  C   UNL A   1      41.250  29.256  32.424  1.00  0.00     0.074 A 
ATOM     60  C   UNL A   1      42.587  31.843  38.054  1.00  0.00     0.029 A 
ATOM     61  N   UNL A   1      41.681  31.336  36.087  1.00  0.00    -0.354 N 
ATOM     62  N   UNL A   1      41.449  29.840  33.580  1.00  0.00    -0.248 NA
ATOM     63  C   UNL A   1      42.289  28.281  32.060  1.00  0.00     0.031 C 
ATOM     64  C   UNL A   1      43.387  30.877  37.435  1.00  0.00     0.029 A 
ATOM     65  C   UNL A   1      42.807  30.539  36.223  1.00  0.00     0.049 A 
ATOM     66  H   UNL A   1      41.070  31.324  35.315  1.00  0.00     0.167 HD
ATOM     67  C   UNL A   1      42.613  29.283  34.095  1.00  0.00     0.074 A 
ATOM     68  C   UNL A   1      43.067  28.302  33.132  1.00  0.00     0.031 C 
ATOM     69  C   UNL A   1      43.247  29.560  35.260  1.00  0.00     0.037 A 
BRANCH  56  70
ATOM     70  C   UNL A   1      40.529  33.984  38.613  1.00  0.00     0.064 A 
ATOM     71  C   UNL A   1      39.853  33.605  39.784  1.00  0.00     0.173 A 
ATOM     72  C   UNL A   1      41.273  35.174  38.644  1.00  0.00     0.173 A 
ATOM     73  F   UNL A   1      39.119  32.482  39.807  1.00  0.00    -0.203 F 
ATOM     74  C   UNL A   1      39.895  34.401  40.926  1.00  0.00     0.198 A 
ATOM     75  C   UNL A   1      41.341  35.949  39.800  1.00  0.00     0.198 A 
ATOM     76  F   UNL A   1      41.945  35.580  37.556  1.00  0.00    -0.203 F 
ATOM     77  F   UNL A   1      39.197  34.045  42.014  1.00  0.00    -0.200 F 
ATOM     78  C   UNL A   1      40.645  35.567  40.936  1.00  0.00     0.200 A 
ATOM     79  F   UNL A   1      42.080  37.067  39.812  1.00  0.00    -0.200 F 
ATOM     80  F   UNL A   1      40.691  36.326  42.039  1.00  0.00    -0.200 F 
ENDBRANCH  56  70
BRANCH  57  81
ATOM     81  C   UNL A   1      40.087  28.677  30.170  1.00  0.00     0.064 A 
ATOM     82  C   UNL A   1      40.660  29.193  28.998  1.00  0.00     0.173 A 
ATOM     83  C   UNL A   1      39.467  27.421  30.092  1.00  0.00     0.173 A 
ATOM     84  F   UNL A   1      41.245  30.400  29.014  1.00  0.00    -0.203 F 
ATOM     85  C   UNL A   1      40.592  28.493  27.794  1.00  0.00     0.198 A 
ATOM     86  C   UNL A   1      39.429  26.707  28.896  1.00  0.00     0.198 A 
ATOM     87  F   UNL A   1      38.907  26.880  31.184  1.00  0.00    -0.203 F 
ATOM     88  F   UNL A   1      41.100  29.034  26.678  1.00  0.00    -0.200 F 
ATOM     89  C   UNL A   1      39.982  27.250  27.745  1.00  0.00     0.200 A 
ATOM     90  F   UNL A   1      38.854  25.499  28.858  1.00  0.00    -0.200 F 
ATOM     91  F   UNL A   1      39.920  26.576  26.589  1.00  0.00    -0.200 F 
ENDBRANCH  57  81
BRANCH  69  92
ATOM     92  C   UNL A   1      44.480  28.764  35.584  1.00  0.00     0.064 A 
ATOM     93  C   UNL A   1      44.416  27.552  36.288  1.00  0.00     0.173 A 
ATOM     94  C   UNL A   1      45.741  29.202  35.150  1.00  0.00     0.173 A 
ATOM     95  F   UNL A   1      43.237  27.095  36.739  1.00  0.00    -0.203 F 
ATOM     96  C   UNL A   1      45.569  26.824  36.570  1.00  0.00     0.198 A 
ATOM     97  C   UNL A   1      46.888  28.454  35.402  1.00  0.00     0.198 A 
ATOM     98  F   UNL A   1      45.860  30.350  34.466  1.00  0.00    -0.203 F 
ATOM     99  F   UNL A   1      45.488  25.697  37.290  1.00  0.00    -0.200 F 
ATOM    100  C   UNL A   1      46.802  27.271  36.120  1.00  0.00     0.200 A 
ATOM    101  F   UNL A   1      48.076  28.880  34.952  1.00  0.00    -0.200 F 
ATOM    102  F   UNL A   1      47.910  26.565  36.384  1.00  0.00    -0.200 F 
ENDBRANCH  69  92
ENDBRANCH  43  44
ENDBRANCH  35  38
ENDBRANCH  33  34
ENDBRANCH  32  33
ENDBRANCH  31  32
ENDBRANCH  30  31
ENDBRANCH   3  30
TORSDOF 17
ENDMDL
MODEL 3
REMARK VINA RESULT:     -12.1      7.235     12.550
REMARK SMILES O=C(/C=C/c1ccc(NC(=O)CCc2nc(-c3cc(Br)cs3)no2)cc1)NCCCCNC(=O)c1ccc(-c2c3nc(c(-c4c(F)c(F)c(F)c(F)c4F)c4ccc([nH]4)c(-c4c(F)c(F)c(F)c(F)c4F)c4nc(c(-c5c(F)c(F)c(F)c(F)c5F)c5ccc2[nH]5)C=C4)C=C3)cc1
REMARK SMILES IDX 1 1 2 2 27 3 3 5 4 6 5 7 6 8 26 9 7 10 25 11 8 12 9 13 10 14
REMARK SMILES IDX 11 16 12 17 13 18 14 19 15 20 24 21 16 22 23 23 17 24 18 25
REMARK SMILES IDX 22 26 19 27 21 28 20 29 28 30 29 31 30 32 31 33 32 34 33 35
REMARK SMILES IDX 34 37 35 38 36 39 97 40 37 41 96 42 38 43 39 44 40 45 90 46
REMARK SMILES IDX 41 47 95 48 89 49 91 50 42 51 94 52 88 53 87 54 43 56 75 57
REMARK SMILES IDX 55 58 74 59 56 60 59 61 73 62 92 63 57 64 58 65 72 67 93 68
REMARK SMILES IDX 60 69 44 70 45 71 53 72 46 73 47 74 51 75 54 76 48 77 49 78
REMARK SMILES IDX 52 79 50 80 76 81 77 82 85 83 78 84 79 85 83 86 86 87 80 88
REMARK SMILES IDX 81 89 84 90 82 91 61 92 62 93 70 94 63 95 64 96 68 97 71 98
REMARK SMILES IDX 65 99 66 100 69 101 67 102
REMARK H PARENT 27 4 9 15 32 36 91 55 59 66
REMARK Flexibility Score: inf
ROOT
ATOM      1  O   UNL A   1      38.725  20.947  25.978  1.00  0.00    -0.270 OA
ATOM      2  C   UNL A   1      38.934  22.137  26.186  1.00  0.00     0.243 C 
ATOM      3  N   UNL A   1      40.007  22.619  26.898  1.00  0.00    -0.353 N 
ATOM      4  H   UNL A   1      40.132  23.593  26.970  1.00  0.00     0.163 HD
ENDROOT
BRANCH   2   5
ATOM      5  C   UNL A   1      37.928  23.142  25.740  1.00  0.00     0.072 C 
ATOM      6  C   UNL A   1      36.706  22.841  25.280  1.00  0.00     0.014 C 
BRANCH   6   7
ATOM      7  C   UNL A   1      35.708  23.793  24.771  1.00  0.00    -0.025 A 
ATOM      8  C   UNL A   1      35.190  24.722  25.675  1.00  0.00     0.010 A 
ATOM      9  C   UNL A   1      35.134  23.717  23.498  1.00  0.00     0.010 A 
ATOM     10  C   UNL A   1      34.057  25.474  25.363  1.00  0.00     0.027 A 
ATOM     11  C   UNL A   1      33.984  24.462  23.194  1.00  0.00     0.027 A 
ATOM     12  C   UNL A   1      33.383  25.272  24.166  1.00  0.00     0.041 A 
BRANCH  12  13
ATOM     13  N   UNL A   1      32.096  25.769  23.890  1.00  0.00    -0.326 N 
ATOM     14  C   UNL A   1      30.876  25.160  23.782  1.00  0.00     0.224 C 
ATOM     15  H   UNL A   1      32.068  26.742  23.747  1.00  0.00     0.169 HD
ATOM     16  O   UNL A   1      29.911  25.865  23.471  1.00  0.00    -0.275 OA
BRANCH  14  17
ATOM     17  C   UNL A   1      30.673  23.663  23.938  1.00  0.00     0.110 C 
BRANCH  17  18
ATOM     18  C   UNL A   1      30.892  23.068  25.331  1.00  0.00     0.110 C 
BRANCH  18  19
ATOM     19  C   UNL A   1      31.860  21.951  25.438  1.00  0.00     0.227 A 
ATOM     20  N   UNL A   1      31.859  20.760  24.877  1.00  0.00    -0.190 NA
ATOM     21  O   UNL A   1      32.962  22.181  26.208  1.00  0.00    -0.339 OA
ATOM     22  C   UNL A   1      32.978  20.179  25.435  1.00  0.00     0.212 A 
ATOM     23  N   UNL A   1      33.674  20.990  26.246  1.00  0.00    -0.056 NA
BRANCH  22  24
ATOM     24  C   UNL A   1      33.370  18.749  25.234  1.00  0.00     0.076 A 
ATOM     25  C   UNL A   1      32.640  17.688  25.736  1.00  0.00     0.039 A 
ATOM     26  S   UNL A   1      34.724  18.224  24.334  1.00  0.00    -0.139 S 
ATOM     27  C   UNL A   1      33.186  16.448  25.335  1.00  0.00     0.029 A 
ATOM     28  C   UNL A   1      34.366  16.575  24.648  1.00  0.00     0.081 A 
ATOM     29  Br  UNL A   1      32.333  14.811  25.719  1.00  0.00    -0.050 Br
ENDBRANCH  22  24
ENDBRANCH  18  19
ENDBRANCH  17  18
ENDBRANCH  14  17
ENDBRANCH  12  13
ENDBRANCH   6   7
ENDBRANCH   2   5
BRANCH   3  30
ATOM     30  C   UNL A   1      40.964  21.740  27.547  1.00  0.00     0.116 C 
BRANCH  30  31
ATOM     31  C   UNL A   1      42.087  21.282  26.618  1.00  0.00     0.023 C 
BRANCH  31  32
ATOM     32  C   UNL A   1      41.964  19.844  26.106  1.00  0.00     0.023 C 
BRANCH  32  33
ATOM     33  C   UNL A   1      43.206  18.970  26.281  1.00  0.00     0.116 C 
BRANCH  33  34
ATOM     34  N   UNL A   1      43.886  18.686  25.026  1.00  0.00    -0.352 N 
ATOM     35  C   UNL A   1      44.606  19.516  24.200  1.00  0.00     0.251 C 
ATOM     36  H   UNL A   1      43.821  17.752  24.721  1.00  0.00     0.163 HD
ATOM     37  O   UNL A   1      44.977  19.110  23.099  1.00  0.00    -0.269 OA
BRANCH  35  38
ATOM     38  C   UNL A   1      44.919  20.905  24.602  1.00  0.00     0.039 A 
ATOM     39  C   UNL A   1      44.506  21.956  23.778  1.00  0.00     0.014 A 
ATOM     40  C   UNL A   1      45.633  21.181  25.771  1.00  0.00     0.014 A 
ATOM     41  C   UNL A   1      44.738  23.280  24.164  1.00  0.00     0.010 A 
ATOM     42  C   UNL A   1      45.797  22.500  26.192  1.00  0.00     0.010 A 
ATOM     43  C   UNL A   1      45.348  23.566  25.396  1.00  0.00    -0.014 A 
BRANCH  43  44
ATOM     44  C   UNL A   1      45.509  24.966  25.872  1.00  0.00     0.031 A 
ATOM     45  C   UNL A   1      46.856  25.635  25.835  1.00  0.00     0.074 A 
ATOM     46  C   UNL A   1      44.451  25.617  26.397  1.00  0.00     0.049 A 
ATOM     47  N   UNL A   1      47.205  26.820  26.271  1.00  0.00    -0.248 NA
ATOM     48  C   UNL A   1      47.963  24.861  25.254  1.00  0.00     0.031 C 
ATOM     49  C   UNL A   1      43.102  25.068  26.530  1.00  0.00     0.029 A 
ATOM     50  N   UNL A   1      44.348  26.881  26.928  1.00  0.00    -0.354 N 
ATOM     51  C   UNL A   1      48.567  26.929  26.025  1.00  0.00     0.074 A 
ATOM     52  C   UNL A   1      48.994  25.668  25.456  1.00  0.00     0.031 C 
ATOM     53  C   UNL A   1      42.303  25.991  27.087  1.00  0.00     0.029 A 
ATOM     54  C   UNL A   1      43.090  27.182  27.391  1.00  0.00     0.049 A 
ATOM     55  H   UNL A   1      45.104  27.509  26.973  1.00  0.00     0.167 HD
ATOM     56  C   UNL A   1      49.384  27.991  26.229  1.00  0.00     0.037 A 
ATOM     57  C   UNL A   1      42.626  28.288  28.006  1.00  0.00     0.037 A 
ATOM     58  C   UNL A   1      48.956  29.249  26.785  1.00  0.00     0.049 A 
ATOM     59  C   UNL A   1      43.559  29.444  28.246  1.00  0.00     0.074 A 
ATOM     60  C   UNL A   1      49.698  30.399  26.990  1.00  0.00     0.029 A 
ATOM     61  N   UNL A   1      47.670  29.519  27.232  1.00  0.00    -0.354 N 
ATOM     62  N   UNL A   1      44.831  29.557  27.949  1.00  0.00    -0.248 NA
ATOM     63  C   UNL A   1      42.991  30.630  28.902  1.00  0.00     0.031 C 
ATOM     64  C   UNL A   1      48.879  31.346  27.612  1.00  0.00     0.029 A 
ATOM     65  C   UNL A   1      47.606  30.810  27.736  1.00  0.00     0.049 A 
ATOM     66  H   UNL A   1      46.915  28.889  27.197  1.00  0.00     0.167 HD
ATOM     67  C   UNL A   1      45.205  30.833  28.351  1.00  0.00     0.074 A 
ATOM     68  C   UNL A   1      44.022  31.462  28.899  1.00  0.00     0.031 C 
ATOM     69  C   UNL A   1      46.421  31.429  28.274  1.00  0.00     0.037 A 
BRANCH  56  70
ATOM     70  C   UNL A   1      50.831  27.839  25.849  1.00  0.00     0.064 A 
ATOM     71  C   UNL A   1      51.812  27.523  26.802  1.00  0.00     0.173 A 
ATOM     72  C   UNL A   1      51.237  27.971  24.513  1.00  0.00     0.173 A 
ATOM     73  F   UNL A   1      51.480  27.393  28.096  1.00  0.00    -0.203 F 
ATOM     74  C   UNL A   1      53.148  27.377  26.436  1.00  0.00     0.198 A 
ATOM     75  C   UNL A   1      52.568  27.790  24.145  1.00  0.00     0.198 A 
ATOM     76  F   UNL A   1      50.340  28.265  23.559  1.00  0.00    -0.203 F 
ATOM     77  F   UNL A   1      54.074  27.128  27.372  1.00  0.00    -0.200 F 
ATOM     78  C   UNL A   1      53.523  27.503  25.107  1.00  0.00     0.200 A 
ATOM     79  F   UNL A   1      52.926  27.896  22.858  1.00  0.00    -0.200 F 
ATOM     80  F   UNL A   1      54.808  27.353  24.755  1.00  0.00    -0.200 F 
ENDBRANCH  56  70
BRANCH  57  81
ATOM     81  C   UNL A   1      41.201  28.360  28.429  1.00  0.00     0.064 A 
ATOM     82  C   UNL A   1      40.219  28.884  27.576  1.00  0.00     0.173 A 
ATOM     83  C   UNL A   1      40.794  27.920  29.697  1.00  0.00     0.173 A 
ATOM     84  F   UNL A   1      40.560  29.338  26.361  1.00  0.00    -0.203 F 
ATOM     85  C   UNL A   1      38.890  28.989  27.985  1.00  0.00     0.198 A 
ATOM     86  C   UNL A   1      39.460  27.994  30.093  1.00  0.00     0.198 A 
ATOM     87  F   UNL A   1      41.692  27.407  30.550  1.00  0.00    -0.203 F 
ATOM     88  F   UNL A   1      37.983  29.544  27.170  1.00  0.00    -0.200 F 
ATOM     89  C   UNL A   1      38.511  28.539  29.240  1.00  0.00     0.200 A 
ATOM     90  F   UNL A   1      39.095  27.543  31.299  1.00  0.00    -0.200 F 
ATOM     91  F   UNL A   1      37.233  28.636  29.631  1.00  0.00    -0.200 F 
ENDBRANCH  57  81
BRANCH  69  92
ATOM     92  C   UNL A   1      46.528  32.848  28.754  1.00  0.00     0.064 A 
ATOM     93  C   UNL A   1      46.284  33.938  27.905  1.00  0.00     0.173 A 
ATOM     94  C   UNL A   1      46.841  33.121  30.095  1.00  0.00     0.173 A 
ATOM     95  F   UNL A   1      45.995  33.734  26.610  1.00  0.00    -0.203 F 
ATOM     96  C   UNL A   1      46.380  35.247  28.373  1.00  0.00     0.198 A 
ATOM     97  C   UNL A   1      46.901  34.429  30.568  1.00  0.00     0.198 A 
ATOM     98  F   UNL A   1      47.076  32.117  30.953  1.00  0.00    -0.203 F 
ATOM     99  F   UNL A   1      46.196  36.272  27.529  1.00  0.00    -0.200 F 
ATOM    100  C   UNL A   1      46.679  35.491  29.703  1.00  0.00     0.200 A 
ATOM    101  F   UNL A   1      47.175  34.662  31.859  1.00  0.00    -0.200 F 
ATOM    102  F   UNL A   1      46.762  36.750  30.154  1.00  0.00    -0.200 F 
ENDBRANCH  69  92
ENDBRANCH  43  44
ENDBRANCH  35  38
ENDBRANCH  33  34
ENDBRANCH  32  33
ENDBRANCH  31  32
ENDBRANCH  30  31
ENDBRANCH   3  30
TORSDOF 17
ENDMDL
