MODEL 1
REMARK VINA RESULT:     -13.3      0.000      0.000
REMARK SMILES Cc1c(CC(=O)NCCCCNC(=O)c2ccc(-c3c4nc(c(-c5c(F)c(F)c(F)c(F)c5F)c5ccc([nH]5)c(-c5c(F)c(F)c(F)c(F)c5F)c5nc(c(-c6c(F)c(F)c(F)c(F)c6F)c6ccc3[nH]6)C=C5)C=C4)cc2)cc(-c2ccc(S(C)(=O)=O)cc2)n1-c1cccc(F)c1
REMARK SMILES IDX 9 1 8 2 7 3 5 4 6 5 4 7 3 8 1 9 2 10 90 11 78 12 79 13 91 14
REMARK SMILES IDX 92 15 97 16 93 17 95 18 94 19 96 20 80 21 81 22 89 23 82 24
REMARK SMILES IDX 88 25 83 26 84 27 85 28 86 29 87 30 10 31 11 32 12 33 13 34
REMARK SMILES IDX 14 36 15 37 16 38 77 39 17 40 76 41 18 42 19 43 20 44 70 45
REMARK SMILES IDX 21 46 75 47 69 48 71 49 22 50 74 51 68 52 67 53 23 55 55 56
REMARK SMILES IDX 35 57 54 58 36 59 39 60 53 61 72 62 37 63 38 64 52 66 73 67
REMARK SMILES IDX 40 68 24 69 25 70 33 71 26 72 27 73 31 74 34 75 28 76 29 77
REMARK SMILES IDX 32 78 30 79 56 80 57 81 65 82 58 83 59 84 63 85 66 86 60 87
REMARK SMILES IDX 61 88 64 89 62 90 41 91 42 92 50 93 43 94 44 95 48 96 51 97
REMARK SMILES IDX 45 98 46 99 49 100 47 101
REMARK H PARENT 7 6 12 35 71 54 39 65
REMARK Flexibility Score: inf
ROOT
ATOM      1  C   UNL A   1      45.509  21.666  25.712  1.00  0.00     0.023 C 
ENDROOT
BRANCH   1   2
ATOM      2  C   UNL A   1      44.151  21.464  25.032  1.00  0.00     0.116 C 
BRANCH   2   3
ATOM      3  N   UNL A   1      43.751  20.072  24.967  1.00  0.00    -0.356 N 
ATOM      4  C   UNL A   1      43.028  19.318  25.846  1.00  0.00     0.224 C 
ATOM      5  O   UNL A   1      42.747  18.165  25.506  1.00  0.00    -0.275 OA
ATOM      6  H   UNL A   1      44.050  19.593  24.160  1.00  0.00     0.163 HD
BRANCH   4   7
ATOM      7  C   UNL A   1      42.545  19.883  27.175  1.00  0.00     0.137 C 
BRANCH   7   8
ATOM      8  C   UNL A   1      41.518  20.966  27.033  1.00  0.00    -0.017 A 
ATOM      9  C   UNL A   1      42.723  22.960  28.176  1.00  0.00     0.065 C 
ATOM     10  C   UNL A   1      41.615  22.297  27.420  1.00  0.00     0.024 A 
ATOM     11  N   UNL A   1      40.439  22.949  27.052  1.00  0.00    -0.313 N 
ATOM     12  C   UNL A   1      40.215  20.791  26.501  1.00  0.00     0.033 A 
ATOM     13  C   UNL A   1      39.576  22.018  26.470  1.00  0.00     0.053 A 
BRANCH  11  14
ATOM     14  C   UNL A   1      40.162  24.336  27.215  1.00  0.00     0.049 A 
ATOM     15  C   UNL A   1      40.569  25.250  26.232  1.00  0.00     0.027 A 
ATOM     16  C   UNL A   1      39.571  24.790  28.398  1.00  0.00     0.065 A 
ATOM     17  C   UNL A   1      40.404  26.620  26.442  1.00  0.00     0.005 A 
ATOM     18  C   UNL A   1      39.425  26.159  28.594  1.00  0.00     0.125 A 
ATOM     19  C   UNL A   1      39.838  27.075  27.632  1.00  0.00     0.039 A 
ATOM     20  F   UNL A   1      38.906  26.604  29.744  1.00  0.00    -0.207 F 
ENDBRANCH  11  14
BRANCH  13  21
ATOM     21  C   UNL A   1      38.286  22.326  25.840  1.00  0.00    -0.001 A 
ATOM     22  C   UNL A   1      37.661  23.567  26.047  1.00  0.00     0.011 A 
ATOM     23  C   UNL A   1      37.668  21.383  25.007  1.00  0.00     0.011 A 
ATOM     24  C   UNL A   1      36.419  23.845  25.473  1.00  0.00     0.021 A 
ATOM     25  C   UNL A   1      36.427  21.655  24.425  1.00  0.00     0.021 A 
ATOM     26  C   UNL A   1      35.801  22.881  24.675  1.00  0.00     0.067 A 
BRANCH  26  27
ATOM     27  S   UNL A   1      34.233  23.233  23.917  1.00  0.00     0.175 S 
ATOM     28  C   UNL A   1      33.382  24.234  25.109  1.00  0.00     0.163 C 
ATOM     29  O   UNL A   1      34.522  24.080  22.749  1.00  0.00    -0.224 OA
ATOM     30  O   UNL A   1      33.516  22.006  23.777  1.00  0.00    -0.224 OA
ENDBRANCH  26  27
ENDBRANCH  13  21
ENDBRANCH   7   8
ENDBRANCH   4   7
ENDBRANCH   2   3
ENDBRANCH   1   2
BRANCH   1  31
ATOM     31  C   UNL A   1      46.321  22.962  25.412  1.00  0.00     0.023 C 
BRANCH  31  32
ATOM     32  C   UNL A   1      45.889  24.337  26.006  1.00  0.00     0.116 C 
BRANCH  32  33
ATOM     33  N   UNL A   1      46.480  24.647  27.316  1.00  0.00    -0.352 N 
ATOM     34  C   UNL A   1      46.097  25.372  28.446  1.00  0.00     0.251 C 
ATOM     35  H   UNL A   1      47.370  24.241  27.423  1.00  0.00     0.163 HD
ATOM     36  O   UNL A   1      46.908  25.350  29.380  1.00  0.00    -0.269 OA
BRANCH  34  37
ATOM     37  C   UNL A   1      44.818  26.186  28.656  1.00  0.00     0.039 A 
ATOM     38  C   UNL A   1      44.309  27.035  27.649  1.00  0.00     0.014 A 
ATOM     39  C   UNL A   1      44.274  26.468  29.890  1.00  0.00     0.014 A 
ATOM     40  C   UNL A   1      43.196  28.017  27.824  1.00  0.00     0.010 A 
ATOM     41  C   UNL A   1      43.206  27.485  30.061  1.00  0.00     0.010 A 
ATOM     42  C   UNL A   1      42.503  28.297  29.045  1.00  0.00    -0.014 A 
BRANCH  42  43
ATOM     43  C   UNL A   1      41.716  29.922  29.232  1.00  0.00     0.031 A 
ATOM     44  C   UNL A   1      42.980  30.709  29.505  1.00  0.00     0.074 A 
ATOM     45  C   UNL A   1      40.490  30.757  29.505  1.00  0.00     0.049 A 
ATOM     46  N   UNL A   1      43.789  30.166  30.369  1.00  0.00    -0.248 NA
ATOM     47  C   UNL A   1      43.150  32.140  29.390  1.00  0.00     0.031 C 
ATOM     48  C   UNL A   1      40.517  32.122  30.187  1.00  0.00     0.029 A 
ATOM     49  N   UNL A   1      39.011  30.687  29.568  1.00  0.00    -0.354 N 
ATOM     50  C   UNL A   1      43.668  31.052  31.391  1.00  0.00     0.074 A 
ATOM     51  C   UNL A   1      43.485  32.335  30.679  1.00  0.00     0.031 C 
ATOM     52  C   UNL A   1      39.354  32.799  30.321  1.00  0.00     0.029 A 
ATOM     53  C   UNL A   1      38.209  32.015  29.842  1.00  0.00     0.049 A 
ATOM     54  H   UNL A   1      38.541  29.831  29.442  1.00  0.00     0.167 HD
ATOM     55  C   UNL A   1      43.050  30.552  32.510  1.00  0.00     0.037 A 
ATOM     56  C   UNL A   1      36.987  32.324  30.518  1.00  0.00     0.037 A 
ATOM     57  C   UNL A   1      41.739  29.823  32.522  1.00  0.00     0.049 A 
ATOM     58  C   UNL A   1      36.827  31.335  31.582  1.00  0.00     0.074 A 
ATOM     59  C   UNL A   1      40.951  28.930  31.806  1.00  0.00     0.029 A 
ATOM     60  N   UNL A   1      40.972  29.895  33.672  1.00  0.00    -0.354 N 
ATOM     61  N   UNL A   1      37.035  31.523  32.847  1.00  0.00    -0.248 NA
ATOM     62  C   UNL A   1      36.540  29.982  31.147  1.00  0.00     0.031 C 
ATOM     63  C   UNL A   1      39.800  28.493  32.483  1.00  0.00     0.029 A 
ATOM     64  C   UNL A   1      39.671  29.460  33.431  1.00  0.00     0.049 A 
ATOM     65  H   UNL A   1      41.302  30.211  34.543  1.00  0.00     0.167 HD
ATOM     66  C   UNL A   1      37.414  30.256  33.252  1.00  0.00     0.074 A 
ATOM     67  C   UNL A   1      36.930  29.333  32.234  1.00  0.00     0.031 C 
ATOM     68  C   UNL A   1      38.564  30.181  33.971  1.00  0.00     0.037 A 
BRANCH  55  69
ATOM     69  C   UNL A   1      44.164  30.024  33.398  1.00  0.00     0.064 A 
ATOM     70  C   UNL A   1      45.053  30.895  34.073  1.00  0.00     0.173 A 
ATOM     71  C   UNL A   1      44.353  28.648  33.619  1.00  0.00     0.173 A 
ATOM     72  F   UNL A   1      44.980  32.229  33.919  1.00  0.00    -0.203 F 
ATOM     73  C   UNL A   1      46.022  30.419  34.942  1.00  0.00     0.198 A 
ATOM     74  C   UNL A   1      45.286  28.183  34.536  1.00  0.00     0.198 A 
ATOM     75  F   UNL A   1      43.636  27.716  32.978  1.00  0.00    -0.203 F 
ATOM     76  F   UNL A   1      46.839  31.282  35.562  1.00  0.00    -0.200 F 
ATOM     77  C   UNL A   1      46.113  29.066  35.203  1.00  0.00     0.200 A 
ATOM     78  F   UNL A   1      45.350  26.870  34.795  1.00  0.00    -0.200 F 
ATOM     79  F   UNL A   1      46.979  28.612  36.116  1.00  0.00    -0.200 F 
ENDBRANCH  55  69
BRANCH  56  80
ATOM     80  C   UNL A   1      35.612  33.138  30.380  1.00  0.00     0.064 A 
ATOM     81  C   UNL A   1      34.721  33.236  29.270  1.00  0.00     0.173 A 
ATOM     82  C   UNL A   1      35.392  34.196  31.313  1.00  0.00     0.173 A 
ATOM     83  F   UNL A   1      34.871  32.440  28.201  1.00  0.00    -0.203 F 
ATOM     84  C   UNL A   1      33.675  34.225  29.180  1.00  0.00     0.198 A 
ATOM     85  C   UNL A   1      34.388  35.189  31.209  1.00  0.00     0.198 A 
ATOM     86  F   UNL A   1      36.222  34.343  32.353  1.00  0.00    -0.203 F 
ATOM     87  F   UNL A   1      32.858  34.271  28.110  1.00  0.00    -0.200 F 
ATOM     88  C   UNL A   1      33.505  35.191  30.157  1.00  0.00     0.200 A 
ATOM     89  F   UNL A   1      34.327  36.172  32.122  1.00  0.00    -0.200 F 
ATOM     90  F   UNL A   1      32.541  36.124  30.074  1.00  0.00    -0.200 F 
ENDBRANCH  56  80
BRANCH  68  91
ATOM     91  C   UNL A   1      38.781  31.235  34.982  1.00  0.00     0.064 A 
ATOM     92  C   UNL A   1      39.298  32.443  34.525  1.00  0.00     0.173 A 
ATOM     93  C   UNL A   1      38.276  31.156  36.290  1.00  0.00     0.173 A 
ATOM     94  F   UNL A   1      39.803  32.535  33.284  1.00  0.00    -0.203 F 
ATOM     95  C   UNL A   1      39.197  33.578  35.310  1.00  0.00     0.198 A 
ATOM     96  C   UNL A   1      38.110  32.305  37.040  1.00  0.00     0.198 A 
ATOM     97  F   UNL A   1      37.779  30.005  36.775  1.00  0.00    -0.203 F 
ATOM     98  F   UNL A   1      39.642  34.748  34.836  1.00  0.00    -0.200 F 
ATOM     99  C   UNL A   1      38.564  33.517  36.545  1.00  0.00     0.200 A 
ATOM    100  F   UNL A   1      37.422  32.252  38.188  1.00  0.00    -0.200 F 
ATOM    101  F   UNL A   1      38.353  34.638  37.244  1.00  0.00    -0.200 F 
ENDBRANCH  68  91
ENDBRANCH  42  43
ENDBRANCH  34  37
ENDBRANCH  32  33
ENDBRANCH  31  32
ENDBRANCH   1  31
TORSDOF 15
ENDMDL
MODEL 2
REMARK VINA RESULT:     -12.5      4.000      9.460
REMARK SMILES Cc1c(CC(=O)NCCCCNC(=O)c2ccc(-c3c4nc(c(-c5c(F)c(F)c(F)c(F)c5F)c5ccc([nH]5)c(-c5c(F)c(F)c(F)c(F)c5F)c5nc(c(-c6c(F)c(F)c(F)c(F)c6F)c6ccc3[nH]6)C=C5)C=C4)cc2)cc(-c2ccc(S(C)(=O)=O)cc2)n1-c1cccc(F)c1
REMARK SMILES IDX 9 1 8 2 7 3 5 4 6 5 4 7 3 8 1 9 2 10 90 11 78 12 79 13 91 14
REMARK SMILES IDX 92 15 97 16 93 17 95 18 94 19 96 20 80 21 81 22 89 23 82 24
REMARK SMILES IDX 88 25 83 26 84 27 85 28 86 29 87 30 10 31 11 32 12 33 13 34
REMARK SMILES IDX 14 36 15 37 16 38 77 39 17 40 76 41 18 42 19 43 20 44 70 45
REMARK SMILES IDX 21 46 75 47 69 48 71 49 22 50 74 51 68 52 67 53 23 55 55 56
REMARK SMILES IDX 35 57 54 58 36 59 39 60 53 61 72 62 37 63 38 64 52 66 73 67
REMARK SMILES IDX 40 68 24 69 25 70 33 71 26 72 27 73 31 74 34 75 28 76 29 77
REMARK SMILES IDX 32 78 30 79 56 80 57 81 65 82 58 83 59 84 63 85 66 86 60 87
REMARK SMILES IDX 61 88 64 89 62 90 41 91 42 92 50 93 43 94 44 95 48 96 51 97
REMARK SMILES IDX 45 98 46 99 49 100 47 101
REMARK H PARENT 7 6 12 35 71 54 39 65
REMARK Flexibility Score: inf
ROOT
ATOM      1  C   UNL A   1      37.358  29.553  29.574  1.00  0.00     0.023 C 
ENDROOT
BRANCH   1   2
ATOM      2  C   UNL A   1      38.496  29.122  28.642  1.00  0.00     0.116 C 
BRANCH   2   3
ATOM      3  N   UNL A   1      38.965  27.775  28.905  1.00  0.00    -0.356 N 
ATOM      4  C   UNL A   1      39.799  26.973  28.181  1.00  0.00     0.224 C 
ATOM      5  O   UNL A   1      40.114  25.887  28.678  1.00  0.00    -0.275 OA
ATOM      6  H   UNL A   1      38.626  27.375  29.739  1.00  0.00     0.163 HD
BRANCH   4   7
ATOM      7  C   UNL A   1      40.360  27.409  26.835  1.00  0.00     0.137 C 
BRANCH   7   8
ATOM      8  C   UNL A   1      41.625  26.703  26.451  1.00  0.00    -0.017 A 
ATOM      9  C   UNL A   1      43.386  28.570  26.833  1.00  0.00     0.065 C 
ATOM     10  C   UNL A   1      42.927  27.186  26.496  1.00  0.00     0.024 A 
ATOM     11  N   UNL A   1      43.789  26.169  26.088  1.00  0.00    -0.313 N 
ATOM     12  C   UNL A   1      41.698  25.391  25.915  1.00  0.00     0.033 A 
ATOM     13  C   UNL A   1      43.027  25.052  25.742  1.00  0.00     0.053 A 
BRANCH  11  14
ATOM     14  C   UNL A   1      45.210  26.239  26.051  1.00  0.00     0.049 A 
ATOM     15  C   UNL A   1      45.960  25.814  27.158  1.00  0.00     0.027 A 
ATOM     16  C   UNL A   1      45.847  26.818  24.950  1.00  0.00     0.065 A 
ATOM     17  C   UNL A   1      47.345  25.989  27.172  1.00  0.00     0.005 A 
ATOM     18  C   UNL A   1      47.226  26.994  24.986  1.00  0.00     0.125 A 
ATOM     19  C   UNL A   1      47.978  26.589  26.085  1.00  0.00     0.039 A 
ATOM     20  F   UNL A   1      47.838  27.592  23.957  1.00  0.00    -0.207 F 
ENDBRANCH  11  14
BRANCH  13  21
ATOM     21  C   UNL A   1      43.562  23.733  25.378  1.00  0.00    -0.001 A 
ATOM     22  C   UNL A   1      43.220  22.587  26.115  1.00  0.00     0.011 A 
ATOM     23  C   UNL A   1      44.415  23.602  24.273  1.00  0.00     0.011 A 
ATOM     24  C   UNL A   1      43.756  21.341  25.786  1.00  0.00     0.021 A 
ATOM     25  C   UNL A   1      44.952  22.357  23.935  1.00  0.00     0.021 A 
ATOM     26  C   UNL A   1      44.631  21.234  24.705  1.00  0.00     0.067 A 
BRANCH  26  27
ATOM     27  S   UNL A   1      45.299  19.648  24.260  1.00  0.00     0.175 S 
ATOM     28  C   UNL A   1      44.690  18.548  25.511  1.00  0.00     0.163 C 
ATOM     29  O   UNL A   1      44.658  19.275  22.988  1.00  0.00    -0.224 OA
ATOM     30  O   UNL A   1      46.720  19.710  24.378  1.00  0.00    -0.224 OA
ENDBRANCH  26  27
ENDBRANCH  13  21
ENDBRANCH   7   8
ENDBRANCH   4   7
ENDBRANCH   2   3
ENDBRANCH   1   2
BRANCH   1  31
ATOM     31  C   UNL A   1      35.924  29.724  28.988  1.00  0.00     0.023 C 
BRANCH  31  32
ATOM     32  C   UNL A   1      35.708  30.216  27.524  1.00  0.00     0.116 C 
BRANCH  32  33
ATOM     33  N   UNL A   1      35.203  31.592  27.411  1.00  0.00    -0.352 N 
ATOM     34  C   UNL A   1      35.499  32.823  27.999  1.00  0.00     0.251 C 
ATOM     35  H   UNL A   1      34.473  31.663  26.755  1.00  0.00     0.163 HD
ATOM     36  O   UNL A   1      34.832  33.776  27.580  1.00  0.00    -0.269 OA
BRANCH  34  37
ATOM     37  C   UNL A   1      36.527  33.123  29.094  1.00  0.00     0.039 A 
ATOM     38  C   UNL A   1      37.898  32.837  28.918  1.00  0.00     0.014 A 
ATOM     39  C   UNL A   1      36.209  33.324  30.420  1.00  0.00     0.014 A 
ATOM     40  C   UNL A   1      38.941  32.900  29.987  1.00  0.00     0.010 A 
ATOM     41  C   UNL A   1      37.247  33.330  31.481  1.00  0.00     0.010 A 
ATOM     42  C   UNL A   1      38.716  33.205  31.367  1.00  0.00    -0.014 A 
BRANCH  42  43
ATOM     43  C   UNL A   1      39.903  32.578  32.589  1.00  0.00     0.031 A 
ATOM     44  C   UNL A   1      40.428  33.922  33.043  1.00  0.00     0.074 A 
ATOM     45  C   UNL A   1      40.753  31.455  33.127  1.00  0.00     0.049 A 
ATOM     46  N   UNL A   1      40.713  34.755  32.084  1.00  0.00    -0.248 NA
ATOM     47  C   UNL A   1      41.145  34.202  34.268  1.00  0.00     0.031 C 
ATOM     48  C   UNL A   1      42.091  31.655  33.834  1.00  0.00     0.029 A 
ATOM     49  N   UNL A   1      40.940  29.986  33.060  1.00  0.00    -0.354 N 
ATOM     50  C   UNL A   1      42.065  34.797  32.204  1.00  0.00     0.074 A 
ATOM     51  C   UNL A   1      42.256  34.662  33.665  1.00  0.00     0.031 C 
ATOM     52  C   UNL A   1      42.731  30.569  34.324  1.00  0.00     0.029 A 
ATOM     53  C   UNL A   1      42.027  29.325  33.990  1.00  0.00     0.049 A 
ATOM     54  H   UNL A   1      40.398  29.437  32.448  1.00  0.00     0.167 HD
ATOM     55  C   UNL A   1      42.750  34.238  31.156  1.00  0.00     0.037 A 
ATOM     56  C   UNL A   1      42.897  28.197  33.867  1.00  0.00     0.037 A 
ATOM     57  C   UNL A   1      42.494  32.876  30.581  1.00  0.00     0.049 A 
ATOM     58  C   UNL A   1      43.200  28.046  32.444  1.00  0.00     0.074 A 
ATOM     59  C   UNL A   1      41.493  31.957  30.291  1.00  0.00     0.029 A 
ATOM     60  N   UNL A   1      43.554  32.221  29.980  1.00  0.00    -0.354 N 
ATOM     61  N   UNL A   1      44.303  28.378  31.853  1.00  0.00    -0.248 NA
ATOM     62  C   UNL A   1      42.099  27.610  31.608  1.00  0.00     0.031 C 
ATOM     63  C   UNL A   1      41.923  30.836  29.561  1.00  0.00     0.029 A 
ATOM     64  C   UNL A   1      43.263  30.871  29.792  1.00  0.00     0.049 A 
ATOM     65  H   UNL A   1      44.401  32.650  29.720  1.00  0.00     0.167 HD
ATOM     66  C   UNL A   1      43.850  28.682  30.582  1.00  0.00     0.074 A 
ATOM     67  C   UNL A   1      42.552  28.036  30.439  1.00  0.00     0.031 C 
ATOM     68  C   UNL A   1      44.249  29.880  30.080  1.00  0.00     0.037 A 
BRANCH  55  69
ATOM     69  C   UNL A   1      43.027  35.376  30.188  1.00  0.00     0.064 A 
ATOM     70  C   UNL A   1      44.168  36.204  30.320  1.00  0.00     0.173 A 
ATOM     71  C   UNL A   1      42.183  35.649  29.097  1.00  0.00     0.173 A 
ATOM     72  F   UNL A   1      45.033  36.050  31.337  1.00  0.00    -0.203 F 
ATOM     73  C   UNL A   1      44.462  37.195  29.395  1.00  0.00     0.198 A 
ATOM     74  C   UNL A   1      42.516  36.602  28.144  1.00  0.00     0.198 A 
ATOM     75  F   UNL A   1      41.029  34.996  28.904  1.00  0.00    -0.203 F 
ATOM     76  F   UNL A   1      45.556  37.951  29.560  1.00  0.00    -0.200 F 
ATOM     77  C   UNL A   1      43.657  37.367  28.287  1.00  0.00     0.200 A 
ATOM     78  F   UNL A   1      41.738  36.746  27.062  1.00  0.00    -0.200 F 
ATOM     79  F   UNL A   1      43.992  38.253  27.342  1.00  0.00    -0.200 F 
ENDBRANCH  55  69
BRANCH  56  80
ATOM     80  C   UNL A   1      43.421  26.888  34.632  1.00  0.00     0.064 A 
ATOM     81  C   UNL A   1      44.747  26.377  34.756  1.00  0.00     0.173 A 
ATOM     82  C   UNL A   1      42.450  25.884  34.930  1.00  0.00     0.173 A 
ATOM     83  F   UNL A   1      45.801  27.107  34.361  1.00  0.00    -0.203 F 
ATOM     84  C   UNL A   1      45.041  25.045  35.225  1.00  0.00     0.198 A 
ATOM     85  C   UNL A   1      42.737  24.565  35.356  1.00  0.00     0.198 A 
ATOM     86  F   UNL A   1      41.152  26.143  34.739  1.00  0.00    -0.203 F 
ATOM     87  F   UNL A   1      46.313  24.614  35.327  1.00  0.00    -0.200 F 
ATOM     88  C   UNL A   1      44.034  24.148  35.535  1.00  0.00     0.200 A 
ATOM     89  F   UNL A   1      41.733  23.693  35.542  1.00  0.00    -0.200 F 
ATOM     90  F   UNL A   1      44.300  22.901  35.960  1.00  0.00    -0.200 F 
ENDBRANCH  56  80
BRANCH  68  91
ATOM     91  C   UNL A   1      45.649  30.272  30.338  1.00  0.00     0.064 A 
ATOM     92  C   UNL A   1      46.574  29.981  29.342  1.00  0.00     0.173 A 
ATOM     93  C   UNL A   1      46.022  31.116  31.397  1.00  0.00     0.173 A 
ATOM     94  F   UNL A   1      46.243  29.161  28.331  1.00  0.00    -0.203 F 
ATOM     95  C   UNL A   1      47.804  30.616  29.335  1.00  0.00     0.198 A 
ATOM     96  C   UNL A   1      47.221  31.803  31.346  1.00  0.00     0.198 A 
ATOM     97  F   UNL A   1      45.163  31.413  32.386  1.00  0.00    -0.203 F 
ATOM     98  F   UNL A   1      48.664  30.374  28.338  1.00  0.00    -0.200 F 
ATOM     99  C   UNL A   1      48.107  31.558  30.310  1.00  0.00     0.200 A 
ATOM    100  F   UNL A   1      47.466  32.771  32.239  1.00  0.00    -0.200 F 
ATOM    101  F   UNL A   1      49.241  32.264  30.227  1.00  0.00    -0.200 F 
ENDBRANCH  68  91
ENDBRANCH  42  43
ENDBRANCH  34  37
ENDBRANCH  32  33
ENDBRANCH  31  32
ENDBRANCH   1  31
TORSDOF 15
ENDMDL
MODEL 3
REMARK VINA RESULT:     -12.4      5.017     11.439
REMARK SMILES Cc1c(CC(=O)NCCCCNC(=O)c2ccc(-c3c4nc(c(-c5c(F)c(F)c(F)c(F)c5F)c5ccc([nH]5)c(-c5c(F)c(F)c(F)c(F)c5F)c5nc(c(-c6c(F)c(F)c(F)c(F)c6F)c6ccc3[nH]6)C=C5)C=C4)cc2)cc(-c2ccc(S(C)(=O)=O)cc2)n1-c1cccc(F)c1
REMARK SMILES IDX 9 1 8 2 7 3 5 4 6 5 4 7 3 8 1 9 2 10 90 11 78 12 79 13 91 14
REMARK SMILES IDX 92 15 97 16 93 17 95 18 94 19 96 20 80 21 81 22 89 23 82 24
REMARK SMILES IDX 88 25 83 26 84 27 85 28 86 29 87 30 10 31 11 32 12 33 13 34
REMARK SMILES IDX 14 36 15 37 16 38 77 39 17 40 76 41 18 42 19 43 20 44 70 45
REMARK SMILES IDX 21 46 75 47 69 48 71 49 22 50 74 51 68 52 67 53 23 55 55 56
REMARK SMILES IDX 35 57 54 58 36 59 39 60 53 61 72 62 37 63 38 64 52 66 73 67
REMARK SMILES IDX 40 68 24 69 25 70 33 71 26 72 27 73 31 74 34 75 28 76 29 77
REMARK SMILES IDX 32 78 30 79 56 80 57 81 65 82 58 83 59 84 63 85 66 86 60 87
REMARK SMILES IDX 61 88 64 89 62 90 41 91 42 92 50 93 43 94 44 95 48 96 51 97
REMARK SMILES IDX 45 98 46 99 49 100 47 101
REMARK H PARENT 7 6 12 35 71 54 39 65
REMARK Flexibility Score: inf
ROOT
ATOM      1  C   UNL A   1      37.817  29.743  29.102  1.00  0.00     0.023 C 
ENDROOT
BRANCH   1   2
ATOM      2  C   UNL A   1      36.448  30.417  29.253  1.00  0.00     0.116 C 
BRANCH   2   3
ATOM      3  N   UNL A   1      36.265  31.535  28.348  1.00  0.00    -0.356 N 
ATOM      4  C   UNL A   1      35.120  32.105  27.869  1.00  0.00     0.224 C 
ATOM      5  O   UNL A   1      35.240  33.117  27.171  1.00  0.00    -0.275 OA
ATOM      6  H   UNL A   1      37.098  31.948  28.026  1.00  0.00     0.163 HD
BRANCH   4   7
ATOM      7  C   UNL A   1      33.746  31.550  28.212  1.00  0.00     0.137 C 
BRANCH   7   8
ATOM      8  C   UNL A   1      33.269  30.490  27.264  1.00  0.00    -0.017 A 
ATOM      9  C   UNL A   1      31.095  31.570  26.348  1.00  0.00     0.065 C 
ATOM     10  C   UNL A   1      32.158  30.520  26.430  1.00  0.00     0.024 A 
ATOM     11  N   UNL A   1      32.128  29.338  25.693  1.00  0.00    -0.313 N 
ATOM     12  C   UNL A   1      33.872  29.219  27.090  1.00  0.00     0.033 A 
ATOM     13  C   UNL A   1      33.199  28.537  26.092  1.00  0.00     0.053 A 
BRANCH  11  14
ATOM     14  C   UNL A   1      31.183  29.003  24.682  1.00  0.00     0.049 A 
ATOM     15  C   UNL A   1      30.464  27.802  24.769  1.00  0.00     0.027 A 
ATOM     16  C   UNL A   1      31.048  29.825  23.560  1.00  0.00     0.065 A 
ATOM     17  C   UNL A   1      29.624  27.414  23.723  1.00  0.00     0.005 A 
ATOM     18  C   UNL A   1      30.215  29.417  22.524  1.00  0.00     0.125 A 
ATOM     19  C   UNL A   1      29.507  28.221  22.593  1.00  0.00     0.039 A 
ATOM     20  F   UNL A   1      30.117  30.175  21.425  1.00  0.00    -0.207 F 
ENDBRANCH  11  14
BRANCH  13  21
ATOM     21  C   UNL A   1      33.591  27.264  25.473  1.00  0.00    -0.001 A 
ATOM     22  C   UNL A   1      33.822  27.176  24.090  1.00  0.00     0.011 A 
ATOM     23  C   UNL A   1      33.754  26.119  26.264  1.00  0.00     0.011 A 
ATOM     24  C   UNL A   1      34.163  25.957  23.500  1.00  0.00     0.021 A 
ATOM     25  C   UNL A   1      34.099  24.896  25.681  1.00  0.00     0.021 A 
ATOM     26  C   UNL A   1      34.286  24.820  24.298  1.00  0.00     0.067 A 
BRANCH  26  27
ATOM     27  S   UNL A   1      34.746  23.268  23.562  1.00  0.00     0.175 S 
ATOM     28  C   UNL A   1      35.069  22.205  24.944  1.00  0.00     0.163 C 
ATOM     29  O   UNL A   1      33.541  22.763  22.884  1.00  0.00    -0.224 OA
ATOM     30  O   UNL A   1      35.969  23.453  22.850  1.00  0.00    -0.224 OA
ENDBRANCH  26  27
ENDBRANCH  13  21
ENDBRANCH   7   8
ENDBRANCH   4   7
ENDBRANCH   2   3
ENDBRANCH   1   2
BRANCH   1  31
ATOM     31  C   UNL A   1      38.775  29.694  30.330  1.00  0.00     0.023 C 
BRANCH  31  32
ATOM     32  C   UNL A   1      38.402  30.400  31.670  1.00  0.00     0.116 C 
BRANCH  32  33
ATOM     33  N   UNL A   1      39.175  31.617  31.953  1.00  0.00    -0.352 N 
ATOM     34  C   UNL A   1      40.527  31.950  32.048  1.00  0.00     0.251 C 
ATOM     35  H   UNL A   1      38.592  32.393  32.118  1.00  0.00     0.163 HD
ATOM     36  O   UNL A   1      40.756  33.143  32.281  1.00  0.00    -0.269 OA
BRANCH  34  37
ATOM     37  C   UNL A   1      41.739  31.025  31.910  1.00  0.00     0.039 A 
ATOM     38  C   UNL A   1      42.255  30.667  30.646  1.00  0.00     0.014 A 
ATOM     39  C   UNL A   1      42.188  30.184  32.906  1.00  0.00     0.014 A 
ATOM     40  C   UNL A   1      43.293  29.620  30.398  1.00  0.00     0.010 A 
ATOM     41  C   UNL A   1      43.178  29.112  32.637  1.00  0.00     0.010 A 
ATOM     42  C   UNL A   1      43.891  28.775  31.387  1.00  0.00    -0.014 A 
BRANCH  42  43
ATOM     43  C   UNL A   1      44.563  27.175  30.855  1.00  0.00     0.031 A 
ATOM     44  C   UNL A   1      45.880  27.272  31.595  1.00  0.00     0.074 A 
ATOM     45  C   UNL A   1      44.570  26.017  29.890  1.00  0.00     0.049 A 
ATOM     46  N   UNL A   1      46.492  28.415  31.480  1.00  0.00    -0.248 NA
ATOM     47  C   UNL A   1      46.771  26.182  31.921  1.00  0.00     0.031 C 
ATOM     48  C   UNL A   1      45.811  25.202  29.536  1.00  0.00     0.029 A 
ATOM     49  N   UNL A   1      43.769  25.372  28.822  1.00  0.00    -0.354 N 
ATOM     50  C   UNL A   1      47.562  28.034  30.736  1.00  0.00     0.074 A 
ATOM     51  C   UNL A   1      47.824  26.667  31.238  1.00  0.00     0.031 C 
ATOM     52  C   UNL A   1      45.675  24.148  28.700  1.00  0.00     0.029 A 
ATOM     53  C   UNL A   1      44.303  24.031  28.190  1.00  0.00     0.049 A 
ATOM     54  H   UNL A   1      42.923  25.772  28.515  1.00  0.00     0.167 HD
ATOM     55  C   UNL A   1      47.583  28.539  29.461  1.00  0.00     0.037 A 
ATOM     56  C   UNL A   1      44.230  23.439  26.890  1.00  0.00     0.037 A 
ATOM     57  C   UNL A   1      46.443  28.479  28.487  1.00  0.00     0.049 A 
ATOM     58  C   UNL A   1      44.167  24.535  25.926  1.00  0.00     0.074 A 
ATOM     59  C   UNL A   1      45.058  28.535  28.385  1.00  0.00     0.029 A 
ATOM     60  N   UNL A   1      46.748  28.471  27.138  1.00  0.00    -0.354 N 
ATOM     61  N   UNL A   1      45.134  24.954  25.173  1.00  0.00    -0.248 NA
ATOM     62  C   UNL A   1      42.937  25.304  25.923  1.00  0.00     0.031 C 
ATOM     63  C   UNL A   1      44.571  28.568  27.068  1.00  0.00     0.029 A 
ATOM     64  C   UNL A   1      45.643  28.090  26.380  1.00  0.00     0.049 A 
ATOM     65  H   UNL A   1      47.627  28.704  26.763  1.00  0.00     0.167 HD
ATOM     66  C   UNL A   1      44.807  26.291  25.029  1.00  0.00     0.074 A 
ATOM     67  C   UNL A   1      43.390  26.408  25.350  1.00  0.00     0.031 C 
ATOM     68  C   UNL A   1      45.801  27.178  25.293  1.00  0.00     0.037 A 
BRANCH  55  69
ATOM     69  C   UNL A   1      48.382  29.829  29.539  1.00  0.00     0.064 A 
ATOM     70  C   UNL A   1      49.792  29.838  29.409  1.00  0.00     0.173 A 
ATOM     71  C   UNL A   1      47.765  31.080  29.715  1.00  0.00     0.173 A 
ATOM     72  F   UNL A   1      50.491  28.700  29.260  1.00  0.00    -0.203 F 
ATOM     73  C   UNL A   1      50.516  31.021  29.405  1.00  0.00     0.198 A 
ATOM     74  C   UNL A   1      48.490  32.262  29.650  1.00  0.00     0.198 A 
ATOM     75  F   UNL A   1      46.448  31.203  29.933  1.00  0.00    -0.203 F 
ATOM     76  F   UNL A   1      51.849  30.981  29.276  1.00  0.00    -0.200 F 
ATOM     77  C   UNL A   1      49.861  32.233  29.486  1.00  0.00     0.200 A 
ATOM     78  F   UNL A   1      47.840  33.432  29.709  1.00  0.00    -0.200 F 
ATOM     79  F   UNL A   1      50.546  33.378  29.381  1.00  0.00    -0.200 F 
ENDBRANCH  55  69
BRANCH  56  80
ATOM     80  C   UNL A   1      43.902  22.072  26.117  1.00  0.00     0.064 A 
ATOM     81  C   UNL A   1      42.715  21.280  26.133  1.00  0.00     0.173 A 
ATOM     82  C   UNL A   1      45.017  21.322  25.635  1.00  0.00     0.173 A 
ATOM     83  F   UNL A   1      41.594  21.741  26.706  1.00  0.00    -0.203 F 
ATOM     84  C   UNL A   1      42.656  19.932  25.622  1.00  0.00     0.198 A 
ATOM     85  C   UNL A   1      44.968  19.986  25.166  1.00  0.00     0.198 A 
ATOM     86  F   UNL A   1      46.242  21.860  25.673  1.00  0.00    -0.203 F 
ATOM     87  F   UNL A   1      41.508  19.231  25.657  1.00  0.00    -0.200 F 
ATOM     88  C   UNL A   1      43.782  19.296  25.129  1.00  0.00     0.200 A 
ATOM     89  F   UNL A   1      46.102  19.369  24.797  1.00  0.00    -0.200 F 
ATOM     90  F   UNL A   1      43.738  18.035  24.664  1.00  0.00    -0.200 F 
ENDBRANCH  56  80
BRANCH  68  91
ATOM     91  C   UNL A   1      47.149  26.824  24.806  1.00  0.00     0.064 A 
ATOM     92  C   UNL A   1      47.586  27.465  23.652  1.00  0.00     0.173 A 
ATOM     93  C   UNL A   1      48.067  26.084  25.569  1.00  0.00     0.173 A 
ATOM     94  F   UNL A   1      46.720  28.162  22.898  1.00  0.00    -0.203 F 
ATOM     95  C   UNL A   1      48.932  27.472  23.334  1.00  0.00     0.198 A 
ATOM     96  C   UNL A   1      49.419  26.155  25.289  1.00  0.00     0.198 A 
ATOM     97  F   UNL A   1      47.684  25.439  26.684  1.00  0.00    -0.203 F 
ATOM     98  F   UNL A   1      49.350  28.143  22.253  1.00  0.00    -0.200 F 
ATOM     99  C   UNL A   1      49.851  26.857  24.175  1.00  0.00     0.200 A 
ATOM    100  F   UNL A   1      50.302  25.635  26.152  1.00  0.00    -0.200 F 
ATOM    101  F   UNL A   1      51.162  26.975  23.934  1.00  0.00    -0.200 F 
ENDBRANCH  68  91
ENDBRANCH  42  43
ENDBRANCH  34  37
ENDBRANCH  32  33
ENDBRANCH  31  32
ENDBRANCH   1  31
TORSDOF 15
ENDMDL
