MODEL 1
REMARK VINA RESULT:     -12.0      0.000      0.000
REMARK SMILES CC(C)[C@@H]([NH3+])C(=O)N[C@@H](Cc1ccccc1)C(=O)NCCCCNC(=O)c1ccc(-c2c3nc(c(-c4c(F)c(F)c(F)c(F)c4F)c4ccc([nH]4)c(-c4c(F)c(F)c(F)c(F)c4F)c4nc(c(-c5c(F)c(F)c(F)c(F)c5F)c5ccc2[nH]5)C=C4)C=C3)cc1
REMARK SMILES IDX 21 1 20 2 19 3 17 4 18 5 9 7 8 8 6 9 7 10 4 12 2 13 1 14
REMARK SMILES IDX 3 15 5 16 10 20 11 21 12 22 16 23 13 24 15 25 14 26 22 27
REMARK SMILES IDX 23 28 24 29 25 30 26 32 27 33 28 34 89 35 29 36 88 37 30 38
REMARK SMILES IDX 31 39 32 40 82 41 33 42 87 43 81 44 83 45 34 46 86 47 80 48
REMARK SMILES IDX 79 49 35 51 67 52 47 53 66 54 48 55 51 56 65 57 84 58 49 59
REMARK SMILES IDX 50 60 64 62 85 63 52 64 36 65 37 66 45 67 38 68 39 69 43 70
REMARK SMILES IDX 46 71 40 72 41 73 44 74 42 75 68 76 69 77 77 78 70 79 71 80
REMARK SMILES IDX 75 81 78 82 72 83 73 84 76 85 74 86 53 87 54 88 62 89 55 90
REMARK SMILES IDX 56 91 60 92 63 93 57 94 58 95 61 96 59 97
REMARK H PARENT 19 6 8 11 5 17 5 18 5 19 24 31 83 50 51 61
REMARK Flexibility Score: inf
ROOT
ATOM      1  C   UNL A   1      31.864  30.329  26.780  1.00  0.00     0.023 C 
ENDROOT
BRANCH   1   2
ATOM      2  C   UNL A   1      31.854  29.639  25.426  1.00  0.00     0.116 C 
BRANCH   2   3
ATOM      3  N   UNL A   1      33.108  29.695  24.711  1.00  0.00    -0.354 N 
ATOM      4  C   UNL A   1      33.716  28.720  23.972  1.00  0.00     0.242 C 
ATOM      5  O   UNL A   1      34.442  29.109  23.049  1.00  0.00    -0.273 OA
ATOM      6  H   UNL A   1      33.590  30.552  24.765  1.00  0.00     0.163 HD
BRANCH   4   7
ATOM      7  C   UNL A   1      33.434  27.206  24.157  1.00  0.00     0.175 C 
BRANCH   7   8
ATOM      8  N   UNL A   1      33.684  26.384  22.964  1.00  0.00    -0.339 N 
ATOM      9  C   UNL A   1      32.834  25.954  21.994  1.00  0.00     0.279 C 
ATOM     10  O   UNL A   1      33.338  25.406  21.007  1.00  0.00    -0.268 OA
ATOM     11  H   UNL A   1      34.619  26.101  22.848  1.00  0.00     0.164 HD
BRANCH   9  12
ATOM     12  C   UNL A   1      31.301  26.109  22.104  1.00  0.00     0.273 C 
BRANCH  12  13
ATOM     13  C   UNL A   1      30.722  25.492  23.401  1.00  0.00     0.051 C 
ATOM     14  C   UNL A   1      29.386  26.128  23.800  1.00  0.00     0.014 C 
ATOM     15  C   UNL A   1      30.532  23.976  23.254  1.00  0.00     0.014 C 
ENDBRANCH  12  13
BRANCH  12  16
ATOM     16  N   UNL A   1      30.948  27.531  21.918  1.00  0.00    -0.347 N 
ATOM     17  H   UNL A   1      31.683  28.118  22.313  1.00  0.00     0.345 HD
ATOM     18  H   UNL A   1      30.066  27.727  22.389  1.00  0.00     0.345 HD
ATOM     19  H   UNL A   1      30.854  27.730  20.922  1.00  0.00     0.345 HD
ENDBRANCH  12  16
ENDBRANCH   9  12
ENDBRANCH   7   8
BRANCH   7  20
ATOM     20  C   UNL A   1      34.038  26.604  25.448  1.00  0.00     0.070 C 
BRANCH  20  21
ATOM     21  C   UNL A   1      33.511  25.266  25.914  1.00  0.00    -0.045 A 
ATOM     22  C   UNL A   1      32.211  25.165  26.431  1.00  0.00     0.004 A 
ATOM     23  C   UNL A   1      34.310  24.114  25.861  1.00  0.00     0.004 A 
ATOM     24  C   UNL A   1      31.742  23.951  26.940  1.00  0.00     0.000 A 
ATOM     25  C   UNL A   1      33.847  22.907  26.393  1.00  0.00     0.000 A 
ATOM     26  C   UNL A   1      32.567  22.828  26.940  1.00  0.00     0.000 A 
ENDBRANCH  20  21
ENDBRANCH   7  20
ENDBRANCH   4   7
ENDBRANCH   2   3
ENDBRANCH   1   2
BRANCH   1  27
ATOM     27  C   UNL A   1      31.643  31.837  26.737  1.00  0.00     0.023 C 
BRANCH  27  28
ATOM     28  C   UNL A   1      32.772  32.699  27.297  1.00  0.00     0.116 C 
BRANCH  28  29
ATOM     29  N   UNL A   1      32.378  34.055  27.654  1.00  0.00    -0.352 N 
ATOM     30  C   UNL A   1      32.952  34.920  28.560  1.00  0.00     0.251 C 
ATOM     31  H   UNL A   1      31.587  34.402  27.181  1.00  0.00     0.163 HD
ATOM     32  O   UNL A   1      32.462  36.020  28.768  1.00  0.00    -0.269 OA
BRANCH  30  33
ATOM     33  C   UNL A   1      34.146  34.484  29.316  1.00  0.00     0.039 A 
ATOM     34  C   UNL A   1      33.967  33.859  30.552  1.00  0.00     0.014 A 
ATOM     35  C   UNL A   1      35.427  34.631  28.780  1.00  0.00     0.014 A 
ATOM     36  C   UNL A   1      35.063  33.289  31.201  1.00  0.00     0.010 A 
ATOM     37  C   UNL A   1      36.506  33.994  29.387  1.00  0.00     0.010 A 
ATOM     38  C   UNL A   1      36.332  33.304  30.596  1.00  0.00    -0.014 A 
BRANCH  38  39
ATOM     39  C   UNL A   1      37.471  32.561  31.195  1.00  0.00     0.031 A 
ATOM     40  C   UNL A   1      37.999  32.929  32.551  1.00  0.00     0.074 A 
ATOM     41  C   UNL A   1      38.072  31.588  30.480  1.00  0.00     0.049 A 
ATOM     42  N   UNL A   1      38.994  32.404  33.222  1.00  0.00    -0.248 NA
ATOM     43  C   UNL A   1      37.343  34.055  33.233  1.00  0.00     0.031 C 
ATOM     44  C   UNL A   1      37.703  31.186  29.121  1.00  0.00     0.029 A 
ATOM     45  N   UNL A   1      39.126  30.765  30.794  1.00  0.00    -0.354 N 
ATOM     46  C   UNL A   1      39.087  33.139  34.396  1.00  0.00     0.074 A 
ATOM     47  C   UNL A   1      38.088  34.183  34.322  1.00  0.00     0.031 C 
ATOM     48  C   UNL A   1      38.493  30.172  28.732  1.00  0.00     0.029 A 
ATOM     49  C   UNL A   1      39.442  29.873  29.798  1.00  0.00     0.049 A 
ATOM     50  H   UNL A   1      39.608  30.810  31.650  1.00  0.00     0.167 HD
ATOM     51  C   UNL A   1      39.912  32.944  35.452  1.00  0.00     0.037 A 
ATOM     52  C   UNL A   1      40.389  28.916  29.754  1.00  0.00     0.037 A 
ATOM     53  C   UNL A   1      40.890  31.890  35.534  1.00  0.00     0.049 A 
ATOM     54  C   UNL A   1      41.281  28.709  30.947  1.00  0.00     0.074 A 
ATOM     55  C   UNL A   1      41.723  31.566  36.590  1.00  0.00     0.029 A 
ATOM     56  N   UNL A   1      41.169  30.991  34.515  1.00  0.00    -0.354 N 
ATOM     57  N   UNL A   1      41.299  29.352  32.088  1.00  0.00    -0.248 NA
ATOM     58  C   UNL A   1      42.279  27.634  30.847  1.00  0.00     0.031 C 
ATOM     59  C   UNL A   1      42.535  30.497  36.195  1.00  0.00     0.029 A 
ATOM     60  C   UNL A   1      42.176  30.125  34.910  1.00  0.00     0.049 A 
ATOM     61  H   UNL A   1      40.717  30.971  33.641  1.00  0.00     0.167 HD
ATOM     62  C   UNL A   1      42.290  28.750  32.850  1.00  0.00     0.074 A 
ATOM     63  C   UNL A   1      42.837  27.675  32.048  1.00  0.00     0.031 C 
ATOM     64  C   UNL A   1      42.712  29.061  34.100  1.00  0.00     0.037 A 
BRANCH  51  65
ATOM     65  C   UNL A   1      39.783  33.884  36.614  1.00  0.00     0.064 A 
ATOM     66  C   UNL A   1      38.951  33.591  37.705  1.00  0.00     0.173 A 
ATOM     67  C   UNL A   1      40.524  35.075  36.656  1.00  0.00     0.173 A 
ATOM     68  F   UNL A   1      38.213  32.470  37.708  1.00  0.00    -0.203 F 
ATOM     69  C   UNL A   1      38.843  34.467  38.781  1.00  0.00     0.198 A 
ATOM     70  C   UNL A   1      40.436  35.935  37.747  1.00  0.00     0.198 A 
ATOM     71  F   UNL A   1      41.338  35.401  35.642  1.00  0.00    -0.203 F 
ATOM     72  F   UNL A   1      38.006  34.188  39.790  1.00  0.00    -0.200 F 
ATOM     73  C   UNL A   1      39.591  35.634  38.805  1.00  0.00     0.200 A 
ATOM     74  F   UNL A   1      41.168  37.058  37.775  1.00  0.00    -0.200 F 
ATOM     75  F   UNL A   1      39.491  36.475  39.844  1.00  0.00    -0.200 F 
ENDBRANCH  51  65
BRANCH  52  76
ATOM     76  C   UNL A   1      40.515  28.053  28.551  1.00  0.00     0.064 A 
ATOM     77  C   UNL A   1      39.872  26.809  28.489  1.00  0.00     0.173 A 
ATOM     78  C   UNL A   1      41.281  28.447  27.444  1.00  0.00     0.173 A 
ATOM     79  F   UNL A   1      39.145  26.379  29.532  1.00  0.00    -0.203 F 
ATOM     80  C   UNL A   1      40.005  25.984  27.374  1.00  0.00     0.198 A 
ATOM     81  C   UNL A   1      41.391  27.633  26.319  1.00  0.00     0.198 A 
ATOM     82  F   UNL A   1      41.913  29.630  27.452  1.00  0.00    -0.203 F 
ATOM     83  F   UNL A   1      39.414  24.781  27.360  1.00  0.00    -0.200 F 
ATOM     84  C   UNL A   1      40.760  26.399  26.288  1.00  0.00     0.200 A 
ATOM     85  F   UNL A   1      42.111  28.042  25.266  1.00  0.00    -0.200 F 
ATOM     86  F   UNL A   1      40.885  25.606  25.214  1.00  0.00    -0.200 F 
ENDBRANCH  52  76
BRANCH  64  87
ATOM     87  C   UNL A   1      43.806  28.216  34.683  1.00  0.00     0.064 A 
ATOM     88  C   UNL A   1      45.153  28.595  34.593  1.00  0.00     0.173 A 
ATOM     89  C   UNL A   1      43.501  27.026  35.362  1.00  0.00     0.173 A 
ATOM     90  F   UNL A   1      45.497  29.715  33.939  1.00  0.00    -0.203 F 
ATOM     91  C   UNL A   1      46.157  27.799  35.137  1.00  0.00     0.198 A 
ATOM     92  C   UNL A   1      44.505  26.249  35.930  1.00  0.00     0.198 A 
ATOM     93  F   UNL A   1      42.227  26.623  35.481  1.00  0.00    -0.203 F 
ATOM     94  F   UNL A   1      47.442  28.155  34.995  1.00  0.00    -0.200 F 
ATOM     95  C   UNL A   1      45.833  26.631  35.810  1.00  0.00     0.200 A 
ATOM     96  F   UNL A   1      44.189  25.126  36.590  1.00  0.00    -0.200 F 
ATOM     97  F   UNL A   1      46.801  25.868  36.336  1.00  0.00    -0.200 F 
ENDBRANCH  64  87
ENDBRANCH  38  39
ENDBRANCH  30  33
ENDBRANCH  28  29
ENDBRANCH  27  28
ENDBRANCH   1  27
TORSDOF 17
ENDMDL
MODEL 2
REMARK VINA RESULT:     -11.9      0.584      7.414
REMARK SMILES CC(C)[C@@H]([NH3+])C(=O)N[C@@H](Cc1ccccc1)C(=O)NCCCCNC(=O)c1ccc(-c2c3nc(c(-c4c(F)c(F)c(F)c(F)c4F)c4ccc([nH]4)c(-c4c(F)c(F)c(F)c(F)c4F)c4nc(c(-c5c(F)c(F)c(F)c(F)c5F)c5ccc2[nH]5)C=C4)C=C3)cc1
REMARK SMILES IDX 21 1 20 2 19 3 17 4 18 5 9 7 8 8 6 9 7 10 4 12 2 13 1 14
REMARK SMILES IDX 3 15 5 16 10 20 11 21 12 22 16 23 13 24 15 25 14 26 22 27
REMARK SMILES IDX 23 28 24 29 25 30 26 32 27 33 28 34 89 35 29 36 88 37 30 38
REMARK SMILES IDX 31 39 32 40 82 41 33 42 87 43 81 44 83 45 34 46 86 47 80 48
REMARK SMILES IDX 79 49 35 51 67 52 47 53 66 54 48 55 51 56 65 57 84 58 49 59
REMARK SMILES IDX 50 60 64 62 85 63 52 64 36 65 37 66 45 67 38 68 39 69 43 70
REMARK SMILES IDX 46 71 40 72 41 73 44 74 42 75 68 76 69 77 77 78 70 79 71 80
REMARK SMILES IDX 75 81 78 82 72 83 73 84 76 85 74 86 53 87 54 88 62 89 55 90
REMARK SMILES IDX 56 91 60 92 63 93 57 94 58 95 61 96 59 97
REMARK H PARENT 19 6 8 11 5 17 5 18 5 19 24 31 83 50 51 61
REMARK Flexibility Score: inf
ROOT
ATOM      1  C   UNL A   1      32.119  30.307  26.770  1.00  0.00     0.023 C 
ENDROOT
BRANCH   1   2
ATOM      2  C   UNL A   1      32.009  29.718  25.373  1.00  0.00     0.116 C 
BRANCH   2   3
ATOM      3  N   UNL A   1      33.248  29.692  24.631  1.00  0.00    -0.354 N 
ATOM      4  C   UNL A   1      33.794  28.663  23.914  1.00  0.00     0.242 C 
ATOM      5  O   UNL A   1      34.516  28.986  22.963  1.00  0.00    -0.273 OA
ATOM      6  H   UNL A   1      33.770  30.526  24.643  1.00  0.00     0.163 HD
BRANCH   4   7
ATOM      7  C   UNL A   1      33.447  27.172  24.159  1.00  0.00     0.175 C 
BRANCH   7   8
ATOM      8  N   UNL A   1      33.698  26.287  23.012  1.00  0.00    -0.339 N 
ATOM      9  C   UNL A   1      32.858  25.839  22.041  1.00  0.00     0.279 C 
ATOM     10  O   UNL A   1      33.368  25.229  21.094  1.00  0.00    -0.268 OA
ATOM     11  H   UNL A   1      34.626  25.967  22.935  1.00  0.00     0.164 HD
BRANCH   9  12
ATOM     12  C   UNL A   1      31.329  26.050  22.103  1.00  0.00     0.273 C 
BRANCH  12  13
ATOM     13  C   UNL A   1      30.697  25.514  23.412  1.00  0.00     0.051 C 
ATOM     14  C   UNL A   1      29.328  26.143  23.696  1.00  0.00     0.014 C 
ATOM     15  C   UNL A   1      30.548  23.987  23.367  1.00  0.00     0.014 C 
ENDBRANCH  12  13
BRANCH  12  16
ATOM     16  N   UNL A   1      31.030  27.473  21.844  1.00  0.00    -0.347 N 
ATOM     17  H   UNL A   1      31.903  27.995  21.766  1.00  0.00     0.345 HD
ATOM     18  H   UNL A   1      30.475  27.850  22.612  1.00  0.00     0.345 HD
ATOM     19  H   UNL A   1      30.506  27.557  20.973  1.00  0.00     0.345 HD
ENDBRANCH  12  16
ENDBRANCH   9  12
ENDBRANCH   7   8
BRANCH   7  20
ATOM     20  C   UNL A   1      33.989  26.608  25.493  1.00  0.00     0.070 C 
BRANCH  20  21
ATOM     21  C   UNL A   1      33.520  25.236  25.920  1.00  0.00    -0.045 A 
ATOM     22  C   UNL A   1      32.242  25.071  26.474  1.00  0.00     0.004 A 
ATOM     23  C   UNL A   1      34.352  24.113  25.793  1.00  0.00     0.004 A 
ATOM     24  C   UNL A   1      31.829  23.823  26.947  1.00  0.00     0.000 A 
ATOM     25  C   UNL A   1      33.945  22.871  26.289  1.00  0.00     0.000 A 
ATOM     26  C   UNL A   1      32.687  22.729  26.873  1.00  0.00     0.000 A 
ENDBRANCH  20  21
ENDBRANCH   7  20
ENDBRANCH   4   7
ENDBRANCH   2   3
ENDBRANCH   1   2
BRANCH   1  27
ATOM     27  C   UNL A   1      31.758  31.785  26.877  1.00  0.00     0.023 C 
BRANCH  27  28
ATOM     28  C   UNL A   1      32.875  32.719  27.334  1.00  0.00     0.116 C 
BRANCH  28  29
ATOM     29  N   UNL A   1      32.442  34.076  27.640  1.00  0.00    -0.352 N 
ATOM     30  C   UNL A   1      32.965  34.975  28.544  1.00  0.00     0.251 C 
ATOM     31  H   UNL A   1      31.664  34.395  27.128  1.00  0.00     0.163 HD
ATOM     32  O   UNL A   1      32.446  36.070  28.705  1.00  0.00    -0.269 OA
BRANCH  30  33
ATOM     33  C   UNL A   1      34.137  34.583  29.356  1.00  0.00     0.039 A 
ATOM     34  C   UNL A   1      33.926  34.102  30.650  1.00  0.00     0.014 A 
ATOM     35  C   UNL A   1      35.426  34.626  28.821  1.00  0.00     0.014 A 
ATOM     36  C   UNL A   1      34.997  33.568  31.369  1.00  0.00     0.010 A 
ATOM     37  C   UNL A   1      36.477  34.023  29.506  1.00  0.00     0.010 A 
ATOM     38  C   UNL A   1      36.269  33.473  30.781  1.00  0.00    -0.014 A 
BRANCH  38  39
ATOM     39  C   UNL A   1      37.377  32.760  31.468  1.00  0.00     0.031 A 
ATOM     40  C   UNL A   1      38.060  31.593  30.815  1.00  0.00     0.074 A 
ATOM     41  C   UNL A   1      37.725  33.130  32.718  1.00  0.00     0.049 A 
ATOM     42  N   UNL A   1      39.031  30.842  31.271  1.00  0.00    -0.248 NA
ATOM     43  C   UNL A   1      37.569  31.199  29.486  1.00  0.00     0.031 C 
ATOM     44  C   UNL A   1      37.087  34.197  33.492  1.00  0.00     0.029 A 
ATOM     45  N   UNL A   1      38.694  32.644  33.560  1.00  0.00    -0.354 N 
ATOM     46  C   UNL A   1      39.260  29.885  30.292  1.00  0.00     0.074 A 
ATOM     47  C   UNL A   1      38.289  30.113  29.243  1.00  0.00     0.031 C 
ATOM     48  C   UNL A   1      37.704  34.308  34.680  1.00  0.00     0.029 A 
ATOM     49  C   UNL A   1      38.758  33.303  34.764  1.00  0.00     0.049 A 
ATOM     50  H   UNL A   1      39.287  31.895  33.324  1.00  0.00     0.167 HD
ATOM     51  C   UNL A   1      40.211  28.922  30.257  1.00  0.00     0.037 A 
ATOM     52  C   UNL A   1      39.579  33.120  35.815  1.00  0.00     0.037 A 
ATOM     53  C   UNL A   1      41.191  28.711  31.290  1.00  0.00     0.049 A 
ATOM     54  C   UNL A   1      40.638  32.054  35.744  1.00  0.00     0.074 A 
ATOM     55  C   UNL A   1      42.240  27.809  31.315  1.00  0.00     0.029 A 
ATOM     56  N   UNL A   1      41.239  29.412  32.487  1.00  0.00    -0.354 N 
ATOM     57  N   UNL A   1      40.903  31.214  34.774  1.00  0.00    -0.248 NA
ATOM     58  C   UNL A   1      41.518  31.919  36.913  1.00  0.00     0.031 C 
ATOM     59  C   UNL A   1      42.897  27.935  32.543  1.00  0.00     0.029 A 
ATOM     60  C   UNL A   1      42.287  28.948  33.265  1.00  0.00     0.049 A 
ATOM     61  H   UNL A   1      40.621  30.134  32.744  1.00  0.00     0.167 HD
ATOM     62  C   UNL A   1      41.990  30.466  35.203  1.00  0.00     0.074 A 
ATOM     63  C   UNL A   1      42.349  30.966  36.514  1.00  0.00     0.031 C 
ATOM     64  C   UNL A   1      42.632  29.454  34.569  1.00  0.00     0.037 A 
BRANCH  51  65
ATOM     65  C   UNL A   1      40.246  28.027  29.053  1.00  0.00     0.064 A 
ATOM     66  C   UNL A   1      40.995  28.361  27.914  1.00  0.00     0.173 A 
ATOM     67  C   UNL A   1      39.553  26.807  29.047  1.00  0.00     0.173 A 
ATOM     68  F   UNL A   1      41.667  29.522  27.864  1.00  0.00    -0.203 F 
ATOM     69  C   UNL A   1      41.027  27.521  26.805  1.00  0.00     0.198 A 
ATOM     70  C   UNL A   1      39.611  25.956  27.947  1.00  0.00     0.198 A 
ATOM     71  F   UNL A   1      38.826  26.438  30.112  1.00  0.00    -0.203 F 
ATOM     72  F   UNL A   1      41.711  27.884  25.710  1.00  0.00    -0.200 F 
ATOM     73  C   UNL A   1      40.340  26.317  26.825  1.00  0.00     0.200 A 
ATOM     74  F   UNL A   1      38.956  24.787  27.971  1.00  0.00    -0.200 F 
ATOM     75  F   UNL A   1      40.376  25.506  25.758  1.00  0.00    -0.200 F 
ENDBRANCH  51  65
BRANCH  52  76
ATOM     76  C   UNL A   1      39.459  33.994  37.011  1.00  0.00     0.064 A 
ATOM     77  C   UNL A   1      40.097  35.242  37.056  1.00  0.00     0.173 A 
ATOM     78  C   UNL A   1      38.712  33.603  38.131  1.00  0.00     0.173 A 
ATOM     79  F   UNL A   1      40.841  35.650  36.016  1.00  0.00    -0.203 F 
ATOM     80  C   UNL A   1      40.009  36.056  38.182  1.00  0.00     0.198 A 
ATOM     81  C   UNL A   1      38.602  34.430  39.247  1.00  0.00     0.198 A 
ATOM     82  F   UNL A   1      38.079  32.421  38.137  1.00  0.00    -0.203 F 
ATOM     83  F   UNL A   1      40.665  37.224  38.215  1.00  0.00    -0.200 F 
ATOM     84  C   UNL A   1      39.257  35.652  39.275  1.00  0.00     0.200 A 
ATOM     85  F   UNL A   1      37.865  34.043  40.296  1.00  0.00    -0.200 F 
ATOM     86  F   UNL A   1      39.170  36.437  40.358  1.00  0.00    -0.200 F 
ENDBRANCH  52  76
BRANCH  64  87
ATOM     87  C   UNL A   1      43.799  28.834  35.279  1.00  0.00     0.064 A 
ATOM     88  C   UNL A   1      45.110  29.288  35.071  1.00  0.00     0.173 A 
ATOM     89  C   UNL A   1      43.601  27.792  36.198  1.00  0.00     0.173 A 
ATOM     90  F   UNL A   1      45.352  30.270  34.191  1.00  0.00    -0.203 F 
ATOM     91  C   UNL A   1      46.183  28.701  35.736  1.00  0.00     0.198 A 
ATOM     92  C   UNL A   1      44.673  27.228  36.882  1.00  0.00     0.198 A 
ATOM     93  F   UNL A   1      42.366  27.326  36.436  1.00  0.00    -0.203 F 
ATOM     94  F   UNL A   1      47.432  29.116  35.484  1.00  0.00    -0.200 F 
ATOM     95  C   UNL A   1      45.963  27.677  36.645  1.00  0.00     0.200 A 
ATOM     96  F   UNL A   1      44.458  26.246  37.769  1.00  0.00    -0.200 F 
ATOM     97  F   UNL A   1      46.997  27.115  37.287  1.00  0.00    -0.200 F 
ENDBRANCH  64  87
ENDBRANCH  38  39
ENDBRANCH  30  33
ENDBRANCH  28  29
ENDBRANCH  27  28
ENDBRANCH   1  27
TORSDOF 17
ENDMDL
MODEL 3
REMARK VINA RESULT:     -11.6      3.390      8.396
REMARK SMILES CC(C)[C@@H]([NH3+])C(=O)N[C@@H](Cc1ccccc1)C(=O)NCCCCNC(=O)c1ccc(-c2c3nc(c(-c4c(F)c(F)c(F)c(F)c4F)c4ccc([nH]4)c(-c4c(F)c(F)c(F)c(F)c4F)c4nc(c(-c5c(F)c(F)c(F)c(F)c5F)c5ccc2[nH]5)C=C4)C=C3)cc1
REMARK SMILES IDX 21 1 20 2 19 3 17 4 18 5 9 7 8 8 6 9 7 10 4 12 2 13 1 14
REMARK SMILES IDX 3 15 5 16 10 20 11 21 12 22 16 23 13 24 15 25 14 26 22 27
REMARK SMILES IDX 23 28 24 29 25 30 26 32 27 33 28 34 89 35 29 36 88 37 30 38
REMARK SMILES IDX 31 39 32 40 82 41 33 42 87 43 81 44 83 45 34 46 86 47 80 48
REMARK SMILES IDX 79 49 35 51 67 52 47 53 66 54 48 55 51 56 65 57 84 58 49 59
REMARK SMILES IDX 50 60 64 62 85 63 52 64 36 65 37 66 45 67 38 68 39 69 43 70
REMARK SMILES IDX 46 71 40 72 41 73 44 74 42 75 68 76 69 77 77 78 70 79 71 80
REMARK SMILES IDX 75 81 78 82 72 83 73 84 76 85 74 86 53 87 54 88 62 89 55 90
REMARK SMILES IDX 56 91 60 92 63 93 57 94 58 95 61 96 59 97
REMARK H PARENT 19 6 8 11 5 17 5 18 5 19 24 31 83 50 51 61
REMARK Flexibility Score: inf
ROOT
ATOM      1  C   UNL A   1      34.693  23.219  24.645  1.00  0.00     0.023 C 
ENDROOT
BRANCH   1   2
ATOM      2  C   UNL A   1      34.100  24.504  25.198  1.00  0.00     0.116 C 
BRANCH   2   3
ATOM      3  N   UNL A   1      33.111  24.314  26.234  1.00  0.00    -0.354 N 
ATOM      4  C   UNL A   1      31.971  25.031  26.469  1.00  0.00     0.242 C 
ATOM      5  O   UNL A   1      31.043  24.416  27.008  1.00  0.00    -0.273 OA
ATOM      6  H   UNL A   1      33.281  23.569  26.854  1.00  0.00     0.163 HD
BRANCH   4   7
ATOM      7  C   UNL A   1      31.763  26.490  25.985  1.00  0.00     0.175 C 
BRANCH   7   8
ATOM      8  N   UNL A   1      30.752  26.648  24.930  1.00  0.00    -0.339 N 
ATOM      9  C   UNL A   1      30.771  27.392  23.792  1.00  0.00     0.279 C 
ATOM     10  O   UNL A   1      29.846  27.218  22.990  1.00  0.00    -0.268 OA
ATOM     11  H   UNL A   1      29.926  26.130  25.070  1.00  0.00     0.164 HD
BRANCH   9  12
ATOM     12  C   UNL A   1      31.875  28.432  23.498  1.00  0.00     0.273 C 
BRANCH  12  13
ATOM     13  C   UNL A   1      33.286  27.802  23.391  1.00  0.00     0.051 C 
ATOM     14  C   UNL A   1      33.352  26.704  22.323  1.00  0.00     0.014 C 
ATOM     15  C   UNL A   1      34.344  28.869  23.080  1.00  0.00     0.014 C 
ENDBRANCH  12  13
BRANCH  12  16
ATOM     16  N   UNL A   1      31.488  29.219  22.310  1.00  0.00    -0.347 N 
ATOM     17  H   UNL A   1      31.273  28.588  21.539  1.00  0.00     0.345 HD
ATOM     18  H   UNL A   1      32.257  29.832  22.043  1.00  0.00     0.345 HD
ATOM     19  H   UNL A   1      30.665  29.781  22.528  1.00  0.00     0.345 HD
ENDBRANCH  12  16
ENDBRANCH   9  12
ENDBRANCH   7   8
BRANCH   7  20
ATOM     20  C   UNL A   1      31.614  27.520  27.129  1.00  0.00     0.070 C 
BRANCH  20  21
ATOM     21  C   UNL A   1      32.546  28.710  27.130  1.00  0.00    -0.045 A 
ATOM     22  C   UNL A   1      33.933  28.516  27.195  1.00  0.00     0.004 A 
ATOM     23  C   UNL A   1      32.047  30.021  27.089  1.00  0.00     0.004 A 
ATOM     24  C   UNL A   1      34.800  29.609  27.278  1.00  0.00     0.000 A 
ATOM     25  C   UNL A   1      32.916  31.112  27.197  1.00  0.00     0.000 A 
ATOM     26  C   UNL A   1      34.291  30.905  27.300  1.00  0.00     0.000 A 
ENDBRANCH  20  21
ENDBRANCH   7  20
ENDBRANCH   4   7
ENDBRANCH   2   3
ENDBRANCH   1   2
BRANCH   1  27
ATOM     27  C   UNL A   1      36.191  23.269  24.363  1.00  0.00     0.023 C 
BRANCH  27  28
ATOM     28  C   UNL A   1      37.081  23.693  25.529  1.00  0.00     0.116 C 
BRANCH  28  29
ATOM     29  N   UNL A   1      38.311  22.926  25.661  1.00  0.00    -0.352 N 
ATOM     30  C   UNL A   1      39.486  23.264  26.298  1.00  0.00     0.251 C 
ATOM     31  H   UNL A   1      38.304  22.039  25.233  1.00  0.00     0.163 HD
ATOM     32  O   UNL A   1      40.446  22.509  26.277  1.00  0.00    -0.269 OA
BRANCH  30  33
ATOM     33  C   UNL A   1      39.589  24.577  26.971  1.00  0.00     0.039 A 
ATOM     34  C   UNL A   1      39.121  24.697  28.282  1.00  0.00     0.014 A 
ATOM     35  C   UNL A   1      40.203  25.660  26.339  1.00  0.00     0.014 A 
ATOM     36  C   UNL A   1      39.362  25.874  28.993  1.00  0.00     0.010 A 
ATOM     37  C   UNL A   1      40.513  26.801  27.074  1.00  0.00     0.010 A 
ATOM     38  C   UNL A   1      40.108  26.913  28.413  1.00  0.00    -0.014 A 
BRANCH  38  39
ATOM     39  C   UNL A   1      40.513  28.099  29.211  1.00  0.00     0.031 A 
ATOM     40  C   UNL A   1      41.888  28.188  29.811  1.00  0.00     0.074 A 
ATOM     41  C   UNL A   1      39.612  29.074  29.449  1.00  0.00     0.049 A 
ATOM     42  N   UNL A   1      42.409  29.136  30.548  1.00  0.00    -0.248 NA
ATOM     43  C   UNL A   1      42.787  27.048  29.575  1.00  0.00     0.031 C 
ATOM     44  C   UNL A   1      38.222  29.071  28.988  1.00  0.00     0.029 A 
ATOM     45  N   UNL A   1      39.727  30.252  30.145  1.00  0.00    -0.354 N 
ATOM     46  C   UNL A   1      43.688  28.704  30.870  1.00  0.00     0.074 A 
ATOM     47  C   UNL A   1      43.846  27.384  30.298  1.00  0.00     0.031 C 
ATOM     48  C   UNL A   1      37.624  30.206  29.383  1.00  0.00     0.029 A 
ATOM     49  C   UNL A   1      38.577  31.003  30.149  1.00  0.00     0.049 A 
ATOM     50  H   UNL A   1      40.555  30.532  30.597  1.00  0.00     0.167 HD
ATOM     51  C   UNL A   1      44.654  29.360  31.556  1.00  0.00     0.037 A 
ATOM     52  C   UNL A   1      38.321  32.203  30.704  1.00  0.00     0.037 A 
ATOM     53  C   UNL A   1      44.505  30.683  32.105  1.00  0.00     0.049 A 
ATOM     54  C   UNL A   1      39.417  32.918  31.447  1.00  0.00     0.074 A 
ATOM     55  C   UNL A   1      45.448  31.459  32.753  1.00  0.00     0.029 A 
ATOM     56  N   UNL A   1      43.331  31.423  32.072  1.00  0.00    -0.354 N 
ATOM     57  N   UNL A   1      40.651  32.538  31.667  1.00  0.00    -0.248 NA
ATOM     58  C   UNL A   1      39.083  34.234  32.010  1.00  0.00     0.031 C 
ATOM     59  C   UNL A   1      44.834  32.653  33.150  1.00  0.00     0.029 A 
ATOM     60  C   UNL A   1      43.521  32.639  32.707  1.00  0.00     0.049 A 
ATOM     61  H   UNL A   1      42.489  31.127  31.657  1.00  0.00     0.167 HD
ATOM     62  C   UNL A   1      41.248  33.572  32.373  1.00  0.00     0.074 A 
ATOM     63  C   UNL A   1      40.246  34.606  32.526  1.00  0.00     0.031 C 
ATOM     64  C   UNL A   1      42.513  33.658  32.854  1.00  0.00     0.037 A 
BRANCH  51  65
ATOM     65  C   UNL A   1      45.968  28.659  31.742  1.00  0.00     0.064 A 
ATOM     66  C   UNL A   1      46.217  27.852  32.863  1.00  0.00     0.173 A 
ATOM     67  C   UNL A   1      46.979  28.768  30.775  1.00  0.00     0.173 A 
ATOM     68  F   UNL A   1      45.287  27.725  33.821  1.00  0.00    -0.203 F 
ATOM     69  C   UNL A   1      47.437  27.202  33.022  1.00  0.00     0.198 A 
ATOM     70  C   UNL A   1      48.187  28.092  30.923  1.00  0.00     0.198 A 
ATOM     71  F   UNL A   1      46.792  29.523  29.683  1.00  0.00    -0.203 F 
ATOM     72  F   UNL A   1      47.668  26.474  34.123  1.00  0.00    -0.200 F 
ATOM     73  C   UNL A   1      48.418  27.317  32.049  1.00  0.00     0.200 A 
ATOM     74  F   UNL A   1      49.132  28.195  29.978  1.00  0.00    -0.200 F 
ATOM     75  F   UNL A   1      49.591  26.686  32.201  1.00  0.00    -0.200 F 
ENDBRANCH  51  65
BRANCH  52  76
ATOM     76  C   UNL A   1      36.980  32.824  30.544  1.00  0.00     0.064 A 
ATOM     77  C   UNL A   1      36.038  32.776  31.581  1.00  0.00     0.173 A 
ATOM     78  C   UNL A   1      36.611  33.470  29.356  1.00  0.00     0.173 A 
ATOM     79  F   UNL A   1      36.338  32.150  32.729  1.00  0.00    -0.203 F 
ATOM     80  C   UNL A   1      34.771  33.335  31.430  1.00  0.00     0.198 A 
ATOM     81  C   UNL A   1      35.353  34.053  29.215  1.00  0.00     0.198 A 
ATOM     82  F   UNL A   1      37.478  33.546  28.336  1.00  0.00    -0.203 F 
ATOM     83  F   UNL A   1      33.875  33.238  32.422  1.00  0.00    -0.200 F 
ATOM     84  C   UNL A   1      34.431  33.978  30.249  1.00  0.00     0.200 A 
ATOM     85  F   UNL A   1      35.032  34.684  28.078  1.00  0.00    -0.200 F 
ATOM     86  F   UNL A   1      33.213  34.518  30.104  1.00  0.00    -0.200 F 
ENDBRANCH  52  76
BRANCH  64  87
ATOM     87  C   UNL A   1      42.887  34.919  33.574  1.00  0.00     0.064 A 
ATOM     88  C   UNL A   1      43.311  36.062  32.880  1.00  0.00     0.173 A 
ATOM     89  C   UNL A   1      42.795  34.995  34.972  1.00  0.00     0.173 A 
ATOM     90  F   UNL A   1      43.431  36.035  31.545  1.00  0.00    -0.203 F 
ATOM     91  C   UNL A   1      43.657  37.225  33.563  1.00  0.00     0.198 A 
ATOM     92  C   UNL A   1      43.113  36.168  35.648  1.00  0.00     0.198 A 
ATOM     93  F   UNL A   1      42.389  33.930  35.681  1.00  0.00    -0.203 F 
ATOM     94  F   UNL A   1      44.108  38.289  32.884  1.00  0.00    -0.200 F 
ATOM     95  C   UNL A   1      43.551  37.280  34.945  1.00  0.00     0.200 A 
ATOM     96  F   UNL A   1      42.999  36.222  36.983  1.00  0.00    -0.200 F 
ATOM     97  F   UNL A   1      43.881  38.401  35.600  1.00  0.00    -0.200 F 
ENDBRANCH  64  87
ENDBRANCH  38  39
ENDBRANCH  30  33
ENDBRANCH  28  29
ENDBRANCH  27  28
ENDBRANCH   1  27
TORSDOF 17
ENDMDL
