MODEL 1
REMARK VINA RESULT:     -11.7      0.000      0.000
REMARK SMILES C[C@@H]1[C@@H](C)CC[C@H]1[NH2+][C@@H](C)[C@@H](C)C(=O)NCCCCNC(=O)c1ccc(-c2c3nc(c(-c4c(F)c(F)c(F)c(F)c4F)c4ccc([nH]4)c(-c4c(F)c(F)c(F)c(F)c4F)c4nc(c(-c5c(F)c(F)c(F)c(F)c5F)c5ccc2[nH]5)C=C4)C=C3)cc1
REMARK SMILES IDX 17 1 16 2 15 3 13 4 14 5 11 7 12 8 9 9 10 10 8 11 7 14 1 15
REMARK SMILES IDX 2 16 3 17 5 18 4 19 6 20 18 21 19 22 20 23 21 24 22 26 23 27
REMARK SMILES IDX 24 28 85 29 25 30 84 31 26 32 27 33 28 34 78 35 29 36 83 37
REMARK SMILES IDX 77 38 79 39 30 40 82 41 76 42 75 43 31 45 63 46 43 47 62 48
REMARK SMILES IDX 44 49 47 50 61 51 80 52 45 53 46 54 60 56 81 57 48 58 32 59
REMARK SMILES IDX 33 60 41 61 34 62 35 63 39 64 42 65 36 66 37 67 40 68 38 69
REMARK SMILES IDX 64 70 65 71 73 72 66 73 67 74 71 75 74 76 68 77 69 78 72 79
REMARK SMILES IDX 70 80 49 81 50 82 58 83 51 84 52 85 56 86 59 87 53 88 54 89
REMARK SMILES IDX 57 90 55 91
REMARK H PARENT 15 6 8 12 8 13 20 25 79 44 47 55
REMARK Flexibility Score: inf
ROOT
ATOM      1  C   UNL A   1      31.675  30.821  26.176  1.00  0.00     0.023 C 
ENDROOT
BRANCH   1   2
ATOM      2  C   UNL A   1      33.030  30.202  26.518  1.00  0.00     0.116 C 
BRANCH   2   3
ATOM      3  N   UNL A   1      33.674  29.591  25.371  1.00  0.00    -0.356 N 
ATOM      4  C   UNL A   1      33.632  28.320  24.886  1.00  0.00     0.228 C 
ATOM      5  O   UNL A   1      34.260  28.099  23.846  1.00  0.00    -0.275 OA
ATOM      6  H   UNL A   1      34.242  30.204  24.851  1.00  0.00     0.163 HD
BRANCH   4   7
ATOM      7  C   UNL A   1      32.859  27.191  25.573  1.00  0.00     0.133 C 
ATOM      8  C   UNL A   1      33.647  25.880  25.484  1.00  0.00     0.024 C 
BRANCH   7   9
ATOM      9  C   UNL A   1      31.375  27.140  25.116  1.00  0.00     0.191 C 
ATOM     10  C   UNL A   1      30.585  26.242  26.083  1.00  0.00     0.076 C 
BRANCH   9  11
ATOM     11  N   UNL A   1      31.263  26.674  23.724  1.00  0.00    -0.341 N 
ATOM     12  H   UNL A   1      32.207  26.539  23.362  1.00  0.00     0.346 HD
ATOM     13  H   UNL A   1      30.707  25.820  23.763  1.00  0.00     0.346 HD
BRANCH  11  14
ATOM     14  C   UNL A   1      30.554  27.571  22.809  1.00  0.00     0.185 C 
ATOM     15  C   UNL A   1      28.136  27.194  23.563  1.00  0.00     0.014 C 
ATOM     16  C   UNL A   1      29.308  28.168  23.499  1.00  0.00     0.047 C 
ATOM     17  C   UNL A   1      28.965  29.432  22.680  1.00  0.00    -0.005 C 
ATOM     18  C   UNL A   1      30.229  29.771  21.882  1.00  0.00     0.010 C 
ATOM     19  C   UNL A   1      28.533  30.589  23.576  1.00  0.00     0.008 C 
ATOM     20  C   UNL A   1      31.312  28.832  22.395  1.00  0.00     0.065 C 
ENDBRANCH  11  14
ENDBRANCH   9  11
ENDBRANCH   7   9
ENDBRANCH   4   7
ENDBRANCH   2   3
ENDBRANCH   1   2
BRANCH   1  21
ATOM     21  C   UNL A   1      31.412  32.200  26.779  1.00  0.00     0.023 C 
BRANCH  21  22
ATOM     22  C   UNL A   1      32.648  32.959  27.240  1.00  0.00     0.116 C 
BRANCH  22  23
ATOM     23  N   UNL A   1      32.365  34.315  27.683  1.00  0.00    -0.352 N 
ATOM     24  C   UNL A   1      32.986  35.051  28.663  1.00  0.00     0.251 C 
ATOM     25  H   UNL A   1      31.626  34.769  27.216  1.00  0.00     0.163 HD
ATOM     26  O   UNL A   1      32.560  36.160  28.972  1.00  0.00    -0.269 OA
BRANCH  24  27
ATOM     27  C   UNL A   1      34.147  34.480  29.377  1.00  0.00     0.039 A 
ATOM     28  C   UNL A   1      33.930  33.805  30.579  1.00  0.00     0.014 A 
ATOM     29  C   UNL A   1      35.435  34.580  28.845  1.00  0.00     0.014 A 
ATOM     30  C   UNL A   1      34.994  33.159  31.210  1.00  0.00     0.010 A 
ATOM     31  C   UNL A   1      36.480  33.874  29.434  1.00  0.00     0.010 A 
ATOM     32  C   UNL A   1      36.268  33.155  30.621  1.00  0.00    -0.014 A 
BRANCH  32  33
ATOM     33  C   UNL A   1      37.395  32.402  31.225  1.00  0.00     0.031 A 
ATOM     34  C   UNL A   1      37.901  32.774  32.589  1.00  0.00     0.074 A 
ATOM     35  C   UNL A   1      38.006  31.433  30.515  1.00  0.00     0.049 A 
ATOM     36  N   UNL A   1      38.925  32.296  33.251  1.00  0.00    -0.248 NA
ATOM     37  C   UNL A   1      37.178  33.845  33.292  1.00  0.00     0.031 C 
ATOM     38  C   UNL A   1      37.637  31.015  29.162  1.00  0.00     0.029 A 
ATOM     39  N   UNL A   1      39.076  30.634  30.831  1.00  0.00    -0.354 N 
ATOM     40  C   UNL A   1      38.975  33.017  34.437  1.00  0.00     0.074 A 
ATOM     41  C   UNL A   1      37.914  33.999  34.382  1.00  0.00     0.031 C 
ATOM     42  C   UNL A   1      38.455  30.022  28.771  1.00  0.00     0.029 A 
ATOM     43  C   UNL A   1      39.425  29.760  29.830  1.00  0.00     0.049 A 
ATOM     44  H   UNL A   1      39.548  30.681  31.693  1.00  0.00     0.167 HD
ATOM     45  C   UNL A   1      39.813  32.855  35.488  1.00  0.00     0.037 A 
ATOM     46  C   UNL A   1      40.420  28.855  29.772  1.00  0.00     0.037 A 
ATOM     47  C   UNL A   1      40.850  31.860  35.552  1.00  0.00     0.049 A 
ATOM     48  C   UNL A   1      41.338  28.698  30.953  1.00  0.00     0.074 A 
ATOM     49  C   UNL A   1      41.719  31.583  36.592  1.00  0.00     0.029 A 
ATOM     50  N   UNL A   1      41.156  30.975  34.529  1.00  0.00    -0.354 N 
ATOM     51  N   UNL A   1      41.337  29.342  32.094  1.00  0.00    -0.248 NA
ATOM     52  C   UNL A   1      42.393  27.681  30.840  1.00  0.00     0.031 C 
ATOM     53  C   UNL A   1      42.575  30.554  36.185  1.00  0.00     0.029 A 
ATOM     54  C   UNL A   1      42.210  30.161  34.908  1.00  0.00     0.049 A 
ATOM     55  H   UNL A   1      40.692  30.932  33.661  1.00  0.00     0.167 HD
ATOM     56  C   UNL A   1      42.367  28.792  32.845  1.00  0.00     0.074 A 
ATOM     57  C   UNL A   1      42.965  27.751  32.034  1.00  0.00     0.031 C 
ATOM     58  C   UNL A   1      42.782  29.120  34.093  1.00  0.00     0.037 A 
BRANCH  45  59
ATOM     59  C   UNL A   1      39.633  33.773  36.662  1.00  0.00     0.064 A 
ATOM     60  C   UNL A   1      38.825  33.417  37.752  1.00  0.00     0.173 A 
ATOM     61  C   UNL A   1      40.297  35.007  36.713  1.00  0.00     0.173 A 
ATOM     62  F   UNL A   1      38.158  32.252  37.747  1.00  0.00    -0.203 F 
ATOM     63  C   UNL A   1      38.667  34.274  38.838  1.00  0.00     0.198 A 
ATOM     64  C   UNL A   1      40.159  35.850  37.812  1.00  0.00     0.198 A 
ATOM     65  F   UNL A   1      41.085  35.393  35.698  1.00  0.00    -0.203 F 
ATOM     66  F   UNL A   1      37.851  33.934  39.845  1.00  0.00    -0.200 F 
ATOM     67  C   UNL A   1      39.338  35.487  38.870  1.00  0.00     0.200 A 
ATOM     68  F   UNL A   1      40.819  37.016  37.848  1.00  0.00    -0.200 F 
ATOM     69  F   UNL A   1      39.190  36.309  39.917  1.00  0.00    -0.200 F 
ENDBRANCH  45  59
BRANCH  46  70
ATOM     70  C   UNL A   1      40.585  28.007  28.564  1.00  0.00     0.064 A 
ATOM     71  C   UNL A   1      41.355  28.447  27.477  1.00  0.00     0.173 A 
ATOM     72  C   UNL A   1      39.972  26.751  28.462  1.00  0.00     0.173 A 
ATOM     73  F   UNL A   1      41.944  29.652  27.520  1.00  0.00    -0.203 F 
ATOM     74  C   UNL A   1      41.486  27.674  26.327  1.00  0.00     0.198 A 
ATOM     75  C   UNL A   1      40.126  25.965  27.321  1.00  0.00     0.198 A 
ATOM     76  F   UNL A   1      39.229  26.281  29.475  1.00  0.00    -0.203 F 
ATOM     77  F   UNL A   1      42.189  28.139  25.286  1.00  0.00    -0.200 F 
ATOM     78  C   UNL A   1      40.876  26.430  26.251  1.00  0.00     0.200 A 
ATOM     79  F   UNL A   1      39.546  24.759  27.257  1.00  0.00    -0.200 F 
ATOM     80  F   UNL A   1      41.004  25.685  25.145  1.00  0.00    -0.200 F 
ENDBRANCH  46  70
BRANCH  58  81
ATOM     81  C   UNL A   1      43.911  28.320  34.672  1.00  0.00     0.064 A 
ATOM     82  C   UNL A   1      45.243  28.745  34.568  1.00  0.00     0.173 A 
ATOM     83  C   UNL A   1      43.650  27.134  35.376  1.00  0.00     0.173 A 
ATOM     84  F   UNL A   1      45.544  29.863  33.891  1.00  0.00    -0.203 F 
ATOM     85  C   UNL A   1      46.276  27.997  35.127  1.00  0.00     0.198 A 
ATOM     86  C   UNL A   1      44.682  26.405  35.957  1.00  0.00     0.198 A 
ATOM     87  F   UNL A   1      42.391  26.690  35.509  1.00  0.00    -0.203 F 
ATOM     88  F   UNL A   1      47.547  28.397  34.976  1.00  0.00    -0.200 F 
ATOM     89  C   UNL A   1      45.995  26.833  35.826  1.00  0.00     0.200 A 
ATOM     90  F   UNL A   1      44.408  25.287  36.643  1.00  0.00    -0.200 F 
ATOM     91  F   UNL A   1      46.990  26.119  36.369  1.00  0.00    -0.200 F 
ENDBRANCH  58  81
ENDBRANCH  32  33
ENDBRANCH  24  27
ENDBRANCH  22  23
ENDBRANCH  21  22
ENDBRANCH   1  21
TORSDOF 14
ENDMDL
MODEL 2
REMARK VINA RESULT:     -11.7      1.177      2.932
REMARK SMILES C[C@@H]1[C@@H](C)CC[C@H]1[NH2+][C@@H](C)[C@@H](C)C(=O)NCCCCNC(=O)c1ccc(-c2c3nc(c(-c4c(F)c(F)c(F)c(F)c4F)c4ccc([nH]4)c(-c4c(F)c(F)c(F)c(F)c4F)c4nc(c(-c5c(F)c(F)c(F)c(F)c5F)c5ccc2[nH]5)C=C4)C=C3)cc1
REMARK SMILES IDX 17 1 16 2 15 3 13 4 14 5 11 7 12 8 9 9 10 10 8 11 7 14 1 15
REMARK SMILES IDX 2 16 3 17 5 18 4 19 6 20 18 21 19 22 20 23 21 24 22 26 23 27
REMARK SMILES IDX 24 28 85 29 25 30 84 31 26 32 27 33 28 34 78 35 29 36 83 37
REMARK SMILES IDX 77 38 79 39 30 40 82 41 76 42 75 43 31 45 63 46 43 47 62 48
REMARK SMILES IDX 44 49 47 50 61 51 80 52 45 53 46 54 60 56 81 57 48 58 32 59
REMARK SMILES IDX 33 60 41 61 34 62 35 63 39 64 42 65 36 66 37 67 40 68 38 69
REMARK SMILES IDX 64 70 65 71 73 72 66 73 67 74 71 75 74 76 68 77 69 78 72 79
REMARK SMILES IDX 70 80 49 81 50 82 58 83 51 84 52 85 56 86 59 87 53 88 54 89
REMARK SMILES IDX 57 90 55 91
REMARK H PARENT 15 6 8 12 8 13 20 25 79 44 47 55
REMARK Flexibility Score: inf
ROOT
ATOM      1  C   UNL A   1      31.595  30.728  26.103  1.00  0.00     0.023 C 
ENDROOT
BRANCH   1   2
ATOM      2  C   UNL A   1      32.401  29.845  27.055  1.00  0.00     0.116 C 
BRANCH   2   3
ATOM      3  N   UNL A   1      31.793  28.545  27.265  1.00  0.00    -0.356 N 
ATOM      4  C   UNL A   1      31.448  27.560  26.391  1.00  0.00     0.228 C 
ATOM      5  O   UNL A   1      30.979  26.525  26.874  1.00  0.00    -0.275 OA
ATOM      6  H   UNL A   1      31.595  28.338  28.207  1.00  0.00     0.163 HD
BRANCH   4   7
ATOM      7  C   UNL A   1      31.611  27.696  24.875  1.00  0.00     0.133 C 
ATOM      8  C   UNL A   1      30.345  27.214  24.161  1.00  0.00     0.024 C 
BRANCH   7   9
ATOM      9  C   UNL A   1      32.957  27.099  24.379  1.00  0.00     0.191 C 
ATOM     10  C   UNL A   1      33.654  28.125  23.469  1.00  0.00     0.076 C 
BRANCH   9  11
ATOM     11  N   UNL A   1      32.748  25.814  23.692  1.00  0.00    -0.341 N 
ATOM     12  H   UNL A   1      31.743  25.643  23.648  1.00  0.00     0.346 HD
ATOM     13  H   UNL A   1      33.192  25.913  22.779  1.00  0.00     0.346 HD
BRANCH  11  14
ATOM     14  C   UNL A   1      33.377  24.649  24.318  1.00  0.00     0.185 C 
ATOM     15  C   UNL A   1      33.321  22.985  22.373  1.00  0.00     0.014 C 
ATOM     16  C   UNL A   1      34.192  23.853  23.276  1.00  0.00     0.047 C 
ATOM     17  C   UNL A   1      35.185  23.009  24.105  1.00  0.00    -0.005 C 
ATOM     18  C   UNL A   1      35.237  23.663  25.490  1.00  0.00     0.010 C 
ATOM     19  C   UNL A   1      36.564  22.954  23.454  1.00  0.00     0.008 C 
ATOM     20  C   UNL A   1      34.439  24.955  25.373  1.00  0.00     0.065 C 
ENDBRANCH  11  14
ENDBRANCH   9  11
ENDBRANCH   7   9
ENDBRANCH   4   7
ENDBRANCH   2   3
ENDBRANCH   1   2
BRANCH   1  21
ATOM     21  C   UNL A   1      31.386  32.170  26.564  1.00  0.00     0.023 C 
BRANCH  21  22
ATOM     22  C   UNL A   1      32.589  32.825  27.228  1.00  0.00     0.116 C 
BRANCH  22  23
ATOM     23  N   UNL A   1      32.352  34.204  27.627  1.00  0.00    -0.352 N 
ATOM     24  C   UNL A   1      33.009  34.954  28.572  1.00  0.00     0.251 C 
ATOM     25  H   UNL A   1      31.620  34.663  27.154  1.00  0.00     0.163 HD
ATOM     26  O   UNL A   1      32.620  36.086  28.847  1.00  0.00    -0.269 OA
BRANCH  24  27
ATOM     27  C   UNL A   1      34.162  34.375  29.289  1.00  0.00     0.039 A 
ATOM     28  C   UNL A   1      33.928  33.632  30.448  1.00  0.00     0.014 A 
ATOM     29  C   UNL A   1      35.462  34.531  28.802  1.00  0.00     0.014 A 
ATOM     30  C   UNL A   1      34.989  32.980  31.077  1.00  0.00     0.010 A 
ATOM     31  C   UNL A   1      36.507  33.821  29.385  1.00  0.00     0.010 A 
ATOM     32  C   UNL A   1      36.279  33.035  30.526  1.00  0.00    -0.014 A 
BRANCH  32  33
ATOM     33  C   UNL A   1      37.406  32.278  31.124  1.00  0.00     0.031 A 
ATOM     34  C   UNL A   1      37.905  32.632  32.496  1.00  0.00     0.074 A 
ATOM     35  C   UNL A   1      38.025  31.323  30.403  1.00  0.00     0.049 A 
ATOM     36  N   UNL A   1      38.928  32.149  33.156  1.00  0.00    -0.248 NA
ATOM     37  C   UNL A   1      37.174  33.690  33.211  1.00  0.00     0.031 C 
ATOM     38  C   UNL A   1      37.664  30.923  29.042  1.00  0.00     0.029 A 
ATOM     39  N   UNL A   1      39.097  30.523  30.711  1.00  0.00    -0.354 N 
ATOM     40  C   UNL A   1      38.969  32.852  34.352  1.00  0.00     0.074 A 
ATOM     41  C   UNL A   1      37.905  33.830  34.307  1.00  0.00     0.031 C 
ATOM     42  C   UNL A   1      38.487  29.940  28.640  1.00  0.00     0.029 A 
ATOM     43  C   UNL A   1      39.454  29.667  29.699  1.00  0.00     0.049 A 
ATOM     44  H   UNL A   1      39.565  30.560  31.576  1.00  0.00     0.167 HD
ATOM     45  C   UNL A   1      39.804  32.678  35.405  1.00  0.00     0.037 A 
ATOM     46  C   UNL A   1      40.454  28.767  29.632  1.00  0.00     0.037 A 
ATOM     47  C   UNL A   1      40.844  31.686  35.458  1.00  0.00     0.049 A 
ATOM     48  C   UNL A   1      41.367  28.595  30.815  1.00  0.00     0.074 A 
ATOM     49  C   UNL A   1      41.710  31.398  36.498  1.00  0.00     0.029 A 
ATOM     50  N   UNL A   1      41.159  30.818  34.423  1.00  0.00    -0.354 N 
ATOM     51  N   UNL A   1      41.358  29.223  31.965  1.00  0.00    -0.248 NA
ATOM     52  C   UNL A   1      42.427  27.585  30.692  1.00  0.00     0.031 C 
ATOM     53  C   UNL A   1      42.572  30.379  36.080  1.00  0.00     0.029 A 
ATOM     54  C   UNL A   1      42.215  30.003  34.795  1.00  0.00     0.049 A 
ATOM     55  H   UNL A   1      40.699  30.786  33.553  1.00  0.00     0.167 HD
ATOM     56  C   UNL A   1      42.387  28.666  32.713  1.00  0.00     0.074 A 
ATOM     57  C   UNL A   1      42.993  27.640  31.889  1.00  0.00     0.031 C 
ATOM     58  C   UNL A   1      42.795  28.977  33.967  1.00  0.00     0.037 A 
BRANCH  45  59
ATOM     59  C   UNL A   1      39.614  33.578  36.591  1.00  0.00     0.064 A 
ATOM     60  C   UNL A   1      40.241  34.830  36.668  1.00  0.00     0.173 A 
ATOM     61  C   UNL A   1      38.775  33.198  37.648  1.00  0.00     0.173 A 
ATOM     62  F   UNL A   1      41.065  35.234  35.688  1.00  0.00    -0.203 F 
ATOM     63  C   UNL A   1      40.057  35.658  37.772  1.00  0.00     0.198 A 
ATOM     64  C   UNL A   1      38.569  34.040  38.738  1.00  0.00     0.198 A 
ATOM     65  F   UNL A   1      38.147  32.012  37.622  1.00  0.00    -0.203 F 
ATOM     66  F   UNL A   1      40.706  36.828  37.846  1.00  0.00    -0.200 F 
ATOM     67  C   UNL A   1      39.217  35.266  38.803  1.00  0.00     0.200 A 
ATOM     68  F   UNL A   1      37.747  33.665  39.728  1.00  0.00    -0.200 F 
ATOM     69  F   UNL A   1      39.036  36.065  39.863  1.00  0.00    -0.200 F 
ENDBRANCH  45  59
BRANCH  46  70
ATOM     70  C   UNL A   1      40.627  27.937  28.412  1.00  0.00     0.064 A 
ATOM     71  C   UNL A   1      40.028  26.673  28.312  1.00  0.00     0.173 A 
ATOM     72  C   UNL A   1      41.401  28.380  27.330  1.00  0.00     0.173 A 
ATOM     73  F   UNL A   1      39.296  26.199  29.331  1.00  0.00    -0.203 F 
ATOM     74  C   UNL A   1      40.213  25.875  27.186  1.00  0.00     0.198 A 
ATOM     75  C   UNL A   1      41.564  27.592  26.192  1.00  0.00     0.198 A 
ATOM     76  F   UNL A   1      41.991  29.583  27.374  1.00  0.00    -0.203 F 
ATOM     77  F   UNL A   1      39.667  24.653  27.137  1.00  0.00    -0.200 F 
ATOM     78  C   UNL A   1      40.977  26.337  26.124  1.00  0.00     0.200 A 
ATOM     79  F   UNL A   1      42.292  28.046  25.163  1.00  0.00    -0.200 F 
ATOM     80  F   UNL A   1      41.155  25.569  25.041  1.00  0.00    -0.200 F 
ENDBRANCH  46  70
BRANCH  58  81
ATOM     81  C   UNL A   1      43.924  28.174  34.540  1.00  0.00     0.064 A 
ATOM     82  C   UNL A   1      45.256  28.599  34.436  1.00  0.00     0.173 A 
ATOM     83  C   UNL A   1      43.665  26.983  35.236  1.00  0.00     0.173 A 
ATOM     84  F   UNL A   1      45.556  29.722  33.767  1.00  0.00    -0.203 F 
ATOM     85  C   UNL A   1      46.291  27.847  34.989  1.00  0.00     0.198 A 
ATOM     86  C   UNL A   1      44.698  26.250  35.810  1.00  0.00     0.198 A 
ATOM     87  F   UNL A   1      42.406  26.538  35.367  1.00  0.00    -0.203 F 
ATOM     88  F   UNL A   1      47.561  28.248  34.839  1.00  0.00    -0.200 F 
ATOM     89  C   UNL A   1      46.011  26.679  35.681  1.00  0.00     0.200 A 
ATOM     90  F   UNL A   1      44.424  25.127  36.489  1.00  0.00    -0.200 F 
ATOM     91  F   UNL A   1      47.007  25.962  36.217  1.00  0.00    -0.200 F 
ENDBRANCH  58  81
ENDBRANCH  32  33
ENDBRANCH  24  27
ENDBRANCH  22  23
ENDBRANCH  21  22
ENDBRANCH   1  21
TORSDOF 14
ENDMDL
MODEL 3
REMARK VINA RESULT:     -11.6      1.277      7.888
REMARK SMILES C[C@@H]1[C@@H](C)CC[C@H]1[NH2+][C@@H](C)[C@@H](C)C(=O)NCCCCNC(=O)c1ccc(-c2c3nc(c(-c4c(F)c(F)c(F)c(F)c4F)c4ccc([nH]4)c(-c4c(F)c(F)c(F)c(F)c4F)c4nc(c(-c5c(F)c(F)c(F)c(F)c5F)c5ccc2[nH]5)C=C4)C=C3)cc1
REMARK SMILES IDX 17 1 16 2 15 3 13 4 14 5 11 7 12 8 9 9 10 10 8 11 7 14 1 15
REMARK SMILES IDX 2 16 3 17 5 18 4 19 6 20 18 21 19 22 20 23 21 24 22 26 23 27
REMARK SMILES IDX 24 28 85 29 25 30 84 31 26 32 27 33 28 34 78 35 29 36 83 37
REMARK SMILES IDX 77 38 79 39 30 40 82 41 76 42 75 43 31 45 63 46 43 47 62 48
REMARK SMILES IDX 44 49 47 50 61 51 80 52 45 53 46 54 60 56 81 57 48 58 32 59
REMARK SMILES IDX 33 60 41 61 34 62 35 63 39 64 42 65 36 66 37 67 40 68 38 69
REMARK SMILES IDX 64 70 65 71 73 72 66 73 67 74 71 75 74 76 68 77 69 78 72 79
REMARK SMILES IDX 70 80 49 81 50 82 58 83 51 84 52 85 56 86 59 87 53 88 54 89
REMARK SMILES IDX 57 90 55 91
REMARK H PARENT 15 6 8 12 8 13 20 25 79 44 47 55
REMARK Flexibility Score: inf
ROOT
ATOM      1  C   UNL A   1      31.853  30.630  26.192  1.00  0.00     0.023 C 
ENDROOT
BRANCH   1   2
ATOM      2  C   UNL A   1      32.582  29.614  27.070  1.00  0.00     0.116 C 
BRANCH   2   3
ATOM      3  N   UNL A   1      31.864  28.359  27.192  1.00  0.00    -0.356 N 
ATOM      4  C   UNL A   1      31.477  27.449  26.257  1.00  0.00     0.228 C 
ATOM      5  O   UNL A   1      30.908  26.433  26.670  1.00  0.00    -0.275 OA
ATOM      6  H   UNL A   1      31.613  28.124  28.115  1.00  0.00     0.163 HD
BRANCH   4   7
ATOM      7  C   UNL A   1      31.710  27.645  24.757  1.00  0.00     0.133 C 
ATOM      8  C   UNL A   1      30.383  27.555  23.999  1.00  0.00     0.024 C 
BRANCH   7   9
ATOM      9  C   UNL A   1      32.871  26.757  24.229  1.00  0.00     0.191 C 
ATOM     10  C   UNL A   1      33.347  27.311  22.875  1.00  0.00     0.076 C 
BRANCH   9  11
ATOM     11  N   UNL A   1      32.459  25.348  24.127  1.00  0.00    -0.341 N 
ATOM     12  H   UNL A   1      31.568  25.247  24.612  1.00  0.00     0.346 HD
ATOM     13  H   UNL A   1      32.414  25.144  23.129  1.00  0.00     0.346 HD
BRANCH  11  14
ATOM     14  C   UNL A   1      33.392  24.371  24.693  1.00  0.00     0.185 C 
ATOM     15  C   UNL A   1      33.173  22.472  22.990  1.00  0.00     0.014 C 
ATOM     16  C   UNL A   1      34.071  23.561  23.567  1.00  0.00     0.047 C 
ATOM     17  C   UNL A   1      35.348  22.976  24.210  1.00  0.00    -0.005 C 
ATOM     18  C   UNL A   1      35.602  23.808  25.472  1.00  0.00     0.010 C 
ATOM     19  C   UNL A   1      36.536  23.020  23.254  1.00  0.00     0.008 C 
ATOM     20  C   UNL A   1      34.600  24.954  25.425  1.00  0.00     0.065 C 
ENDBRANCH  11  14
ENDBRANCH   9  11
ENDBRANCH   7   9
ENDBRANCH   4   7
ENDBRANCH   2   3
ENDBRANCH   1   2
BRANCH   1  21
ATOM     21  C   UNL A   1      31.521  31.961  26.865  1.00  0.00     0.023 C 
BRANCH  21  22
ATOM     22  C   UNL A   1      32.717  32.762  27.357  1.00  0.00     0.116 C 
BRANCH  22  23
ATOM     23  N   UNL A   1      32.403  34.151  27.655  1.00  0.00    -0.352 N 
ATOM     24  C   UNL A   1      33.006  34.999  28.553  1.00  0.00     0.251 C 
ATOM     25  H   UNL A   1      31.655  34.537  27.143  1.00  0.00     0.163 HD
ATOM     26  O   UNL A   1      32.554  36.125  28.743  1.00  0.00    -0.269 OA
BRANCH  24  27
ATOM     27  C   UNL A   1      34.177  34.532  29.322  1.00  0.00     0.039 A 
ATOM     28  C   UNL A   1      33.972  33.978  30.587  1.00  0.00     0.014 A 
ATOM     29  C   UNL A   1      35.464  34.608  28.785  1.00  0.00     0.014 A 
ATOM     30  C   UNL A   1      35.049  33.426  31.282  1.00  0.00     0.010 A 
ATOM     31  C   UNL A   1      36.523  33.992  29.444  1.00  0.00     0.010 A 
ATOM     32  C   UNL A   1      36.324  33.392  30.698  1.00  0.00    -0.014 A 
BRANCH  32  33
ATOM     33  C   UNL A   1      37.466  32.732  31.377  1.00  0.00     0.031 A 
ATOM     34  C   UNL A   1      38.174  31.585  30.715  1.00  0.00     0.074 A 
ATOM     35  C   UNL A   1      37.817  33.119  32.620  1.00  0.00     0.049 A 
ATOM     36  N   UNL A   1      39.134  30.825  31.179  1.00  0.00    -0.248 NA
ATOM     37  C   UNL A   1      37.725  31.226  29.360  1.00  0.00     0.031 C 
ATOM     38  C   UNL A   1      37.173  34.187  33.386  1.00  0.00     0.029 A 
ATOM     39  N   UNL A   1      38.793  32.647  33.461  1.00  0.00    -0.354 N 
ATOM     40  C   UNL A   1      39.391  29.893  30.181  1.00  0.00     0.074 A 
ATOM     41  C   UNL A   1      38.452  30.148  29.111  1.00  0.00     0.031 C 
ATOM     42  C   UNL A   1      37.785  34.302  34.577  1.00  0.00     0.029 A 
ATOM     43  C   UNL A   1      38.838  33.295  34.671  1.00  0.00     0.049 A 
ATOM     44  H   UNL A   1      39.404  31.914  33.219  1.00  0.00     0.167 HD
ATOM     45  C   UNL A   1      40.341  28.929  30.151  1.00  0.00     0.037 A 
ATOM     46  C   UNL A   1      39.634  33.093  35.738  1.00  0.00     0.037 A 
ATOM     47  C   UNL A   1      41.292  28.696  31.206  1.00  0.00     0.049 A 
ATOM     48  C   UNL A   1      40.681  32.015  35.678  1.00  0.00     0.074 A 
ATOM     49  C   UNL A   1      42.325  27.777  31.250  1.00  0.00     0.029 A 
ATOM     50  N   UNL A   1      41.323  29.391  32.406  1.00  0.00    -0.354 N 
ATOM     51  N   UNL A   1      40.956  31.181  34.705  1.00  0.00    -0.248 NA
ATOM     52  C   UNL A   1      41.534  31.854  36.864  1.00  0.00     0.031 C 
ATOM     53  C   UNL A   1      42.960  27.892  32.491  1.00  0.00     0.029 A 
ATOM     54  C   UNL A   1      42.349  28.911  33.203  1.00  0.00     0.049 A 
ATOM     55  H   UNL A   1      40.706  30.117  32.655  1.00  0.00     0.167 HD
ATOM     56  C   UNL A   1      42.028  30.418  35.147  1.00  0.00     0.074 A 
ATOM     57  C   UNL A   1      42.363  30.897  36.472  1.00  0.00     0.031 C 
ATOM     58  C   UNL A   1      42.676  29.410  34.514  1.00  0.00     0.037 A 
BRANCH  45  59
ATOM     59  C   UNL A   1      40.407  28.062  28.928  1.00  0.00     0.064 A 
ATOM     60  C   UNL A   1      39.703  26.851  28.851  1.00  0.00     0.173 A 
ATOM     61  C   UNL A   1      41.154  28.459  27.810  1.00  0.00     0.173 A 
ATOM     62  F   UNL A   1      38.983  26.421  29.899  1.00  0.00    -0.203 F 
ATOM     63  C   UNL A   1      39.768  26.055  27.711  1.00  0.00     0.198 A 
ATOM     64  C   UNL A   1      41.195  27.675  26.661  1.00  0.00     0.198 A 
ATOM     65  F   UNL A   1      41.842  29.610  27.830  1.00  0.00    -0.203 F 
ATOM     66  F   UNL A   1      39.127  24.878  27.680  1.00  0.00    -0.200 F 
ATOM     67  C   UNL A   1      40.508  26.470  26.614  1.00  0.00     0.200 A 
ATOM     68  F   UNL A   1      41.901  28.083  25.597  1.00  0.00    -0.200 F 
ATOM     69  F   UNL A   1      40.566  25.706  25.515  1.00  0.00    -0.200 F 
ENDBRANCH  45  59
BRANCH  46  70
ATOM     70  C   UNL A   1      39.493  33.949  36.944  1.00  0.00     0.064 A 
ATOM     71  C   UNL A   1      38.728  33.523  38.040  1.00  0.00     0.173 A 
ATOM     72  C   UNL A   1      40.104  35.207  37.024  1.00  0.00     0.173 A 
ATOM     73  F   UNL A   1      38.107  32.334  38.000  1.00  0.00    -0.203 F 
ATOM     74  C   UNL A   1      38.562  34.333  39.161  1.00  0.00     0.198 A 
ATOM     75  C   UNL A   1      39.960  36.006  38.157  1.00  0.00     0.198 A 
ATOM     76  F   UNL A   1      40.850  35.659  36.005  1.00  0.00    -0.203 F 
ATOM     77  F   UNL A   1      37.789  33.921  40.173  1.00  0.00    -0.200 F 
ATOM     78  C   UNL A   1      39.182  35.572  39.221  1.00  0.00     0.200 A 
ATOM     79  F   UNL A   1      40.571  37.197  38.218  1.00  0.00    -0.200 F 
ATOM     80  F   UNL A   1      39.024  36.351  40.300  1.00  0.00    -0.200 F 
ENDBRANCH  46  70
BRANCH  58  81
ATOM     81  C   UNL A   1      43.837  28.785  35.229  1.00  0.00     0.064 A 
ATOM     82  C   UNL A   1      45.139  29.288  35.099  1.00  0.00     0.173 A 
ATOM     83  C   UNL A   1      43.635  27.692  36.087  1.00  0.00     0.173 A 
ATOM     84  F   UNL A   1      45.385  30.320  34.278  1.00  0.00    -0.203 F 
ATOM     85  C   UNL A   1      46.202  28.704  35.784  1.00  0.00     0.198 A 
ATOM     86  C   UNL A   1      44.694  27.130  36.791  1.00  0.00     0.198 A 
ATOM     87  F   UNL A   1      42.406  27.179  36.249  1.00  0.00    -0.203 F 
ATOM     88  F   UNL A   1      47.446  29.172  35.610  1.00  0.00    -0.200 F 
ATOM     89  C   UNL A   1      45.978  27.632  36.634  1.00  0.00     0.200 A 
ATOM     90  F   UNL A   1      44.475  26.101  37.621  1.00  0.00    -0.200 F 
ATOM     91  F   UNL A   1      47.001  27.076  37.297  1.00  0.00    -0.200 F 
ENDBRANCH  58  81
ENDBRANCH  32  33
ENDBRANCH  24  27
ENDBRANCH  22  23
ENDBRANCH  21  22
ENDBRANCH   1  21
TORSDOF 14
ENDMDL
