MODEL 1
REMARK VINA RESULT:     -13.1      0.000      0.000
REMARK SMILES Cc1cc(O[C@@H]2C[C@H](C)C[C@H](C)C2)cc(C(=O)NCCCCNC(=O)c2ccc(-c3c4nc(c(-c5c(F)c(F)c(F)c(F)c5F)c5ccc([nH]5)c(-c5c(F)c(F)c(F)c(F)c5F)c5nc(c(-c6c(F)c(F)c(F)c(F)c6F)c6ccc3[nH]6)C=C5)C=C4)cc2)c1N
REMARK SMILES IDX 20 1 19 2 18 3 16 4 17 5 15 7 1 8 2 9 3 10 89 11 4 12 14 13
REMARK SMILES IDX 90 14 5 17 6 18 13 19 7 20 11 21 8 22 12 23 10 24 9 25 21 26
REMARK SMILES IDX 22 27 23 28 24 29 25 31 26 32 27 33 88 34 28 35 87 36 29 37
REMARK SMILES IDX 30 38 31 39 81 40 32 41 86 42 80 43 82 44 33 45 85 46 79 47
REMARK SMILES IDX 78 48 34 50 66 51 46 52 65 53 47 54 50 55 64 56 83 57 48 58
REMARK SMILES IDX 49 59 63 61 84 62 51 63 35 64 36 65 44 66 37 67 38 68 42 69
REMARK SMILES IDX 45 70 39 71 40 72 43 73 41 74 67 75 68 76 76 77 69 78 70 79
REMARK SMILES IDX 74 80 77 81 71 82 72 83 75 84 73 85 52 86 53 87 61 88 54 89
REMARK SMILES IDX 55 90 59 91 62 92 56 93 57 94 60 95 58 96
REMARK H PARENT 18 6 90 15 90 16 23 30 82 49 50 60
REMARK Flexibility Score: inf
ROOT
ATOM      1  C   UNL A   1      31.749  30.572  26.495  1.00  0.00     0.023 C 
ENDROOT
BRANCH   1   2
ATOM      2  C   UNL A   1      33.184  30.060  26.562  1.00  0.00     0.116 C 
BRANCH   2   3
ATOM      3  N   UNL A   1      33.714  29.622  25.291  1.00  0.00    -0.352 N 
ATOM      4  C   UNL A   1      33.344  28.605  24.444  1.00  0.00     0.253 C 
ATOM      5  O   UNL A   1      34.014  28.496  23.412  1.00  0.00    -0.269 OA
ATOM      6  H   UNL A   1      34.482  30.151  24.972  1.00  0.00     0.163 HD
BRANCH   4   7
ATOM      7  C   UNL A   1      32.230  27.635  24.713  1.00  0.00     0.066 A 
ATOM      8  C   UNL A   1      28.608  27.039  23.596  1.00  0.00     0.047 C 
ATOM      9  C   UNL A   1      29.898  27.005  24.376  1.00  0.00    -0.024 A 
ATOM     10  C   UNL A   1      30.060  25.985  25.321  1.00  0.00     0.052 A 
ATOM     11  C   UNL A   1      30.979  27.856  24.070  1.00  0.00     0.048 A 
ATOM     12  C   UNL A   1      31.336  25.583  25.652  1.00  0.00     0.120 A 
ATOM     13  C   UNL A   1      32.380  26.498  25.523  1.00  0.00     0.062 A 
BRANCH  11  14
ATOM     14  N   UNL A   1      30.863  28.742  22.991  1.00  0.00    -0.398 N 
ATOM     15  H   UNL A   1      30.645  29.689  23.151  1.00  0.00     0.156 HD
ATOM     16  H   UNL A   1      31.000  28.419  22.071  1.00  0.00     0.156 HD
ENDBRANCH  11  14
BRANCH  12  17
ATOM     17  O   UNL A   1      31.670  24.289  25.962  1.00  0.00    -0.490 OA
BRANCH  17  18
ATOM     18  C   UNL A   1      31.122  23.171  25.185  1.00  0.00     0.173 C 
ATOM     19  C   UNL A   1      30.988  23.270  23.660  1.00  0.00     0.048 C 
ATOM     20  C   UNL A   1      31.924  21.869  25.527  1.00  0.00     0.048 C 
ATOM     21  C   UNL A   1      32.279  22.985  22.896  1.00  0.00    -0.010 C 
ATOM     22  C   UNL A   1      32.348  20.902  24.355  1.00  0.00    -0.010 C 
ATOM     23  C   UNL A   1      33.576  23.627  23.391  1.00  0.00     0.008 C 
ATOM     24  C   UNL A   1      32.411  21.478  22.924  1.00  0.00     0.007 C 
ATOM     25  C   UNL A   1      33.676  20.194  24.669  1.00  0.00     0.008 C 
ENDBRANCH  17  18
ENDBRANCH  12  17
ENDBRANCH   4   7
ENDBRANCH   2   3
ENDBRANCH   1   2
BRANCH   1  26
ATOM     26  C   UNL A   1      31.548  32.070  26.710  1.00  0.00     0.023 C 
BRANCH  26  27
ATOM     27  C   UNL A   1      32.717  32.818  27.337  1.00  0.00     0.116 C 
BRANCH  27  28
ATOM     28  N   UNL A   1      32.407  34.200  27.675  1.00  0.00    -0.352 N 
ATOM     29  C   UNL A   1      32.994  35.031  28.601  1.00  0.00     0.251 C 
ATOM     30  H   UNL A   1      31.666  34.600  27.165  1.00  0.00     0.163 HD
ATOM     31  O   UNL A   1      32.529  36.145  28.821  1.00  0.00    -0.269 OA
BRANCH  29  32
ATOM     32  C   UNL A   1      34.163  34.558  29.370  1.00  0.00     0.039 A 
ATOM     33  C   UNL A   1      33.959  34.002  30.634  1.00  0.00     0.014 A 
ATOM     34  C   UNL A   1      35.446  34.609  28.821  1.00  0.00     0.014 A 
ATOM     35  C   UNL A   1      35.026  33.396  31.302  1.00  0.00     0.010 A 
ATOM     36  C   UNL A   1      36.488  33.933  29.447  1.00  0.00     0.010 A 
ATOM     37  C   UNL A   1      36.285  33.306  30.686  1.00  0.00    -0.014 A 
BRANCH  37  38
ATOM     38  C   UNL A   1      37.391  32.528  31.301  1.00  0.00     0.031 A 
ATOM     39  C   UNL A   1      37.902  32.887  32.667  1.00  0.00     0.074 A 
ATOM     40  C   UNL A   1      37.992  31.552  30.592  1.00  0.00     0.049 A 
ATOM     41  N   UNL A   1      38.908  32.380  33.335  1.00  0.00    -0.248 NA
ATOM     42  C   UNL A   1      37.211  33.984  33.362  1.00  0.00     0.031 C 
ATOM     43  C   UNL A   1      37.630  31.149  29.231  1.00  0.00     0.029 A 
ATOM     44  N   UNL A   1      39.045  30.730  30.910  1.00  0.00    -0.354 N 
ATOM     45  C   UNL A   1      38.978  33.105  34.518  1.00  0.00     0.074 A 
ATOM     46  C   UNL A   1      37.952  34.123  34.451  1.00  0.00     0.031 C 
ATOM     47  C   UNL A   1      38.429  30.143  28.842  1.00  0.00     0.029 A 
ATOM     48  C   UNL A   1      39.385  29.855  29.906  1.00  0.00     0.049 A 
ATOM     49  H   UNL A   1      39.513  30.765  31.776  1.00  0.00     0.167 HD
ATOM     50  C   UNL A   1      39.807  32.922  35.572  1.00  0.00     0.037 A 
ATOM     51  C   UNL A   1      40.362  28.930  29.849  1.00  0.00     0.037 A 
ATOM     52  C   UNL A   1      40.811  31.893  35.644  1.00  0.00     0.049 A 
ATOM     53  C   UNL A   1      41.268  28.744  31.034  1.00  0.00     0.074 A 
ATOM     54  C   UNL A   1      41.658  31.584  36.694  1.00  0.00     0.029 A 
ATOM     55  N   UNL A   1      41.108  31.007  34.618  1.00  0.00    -0.354 N 
ATOM     56  N   UNL A   1      41.274  29.383  32.179  1.00  0.00    -0.248 NA
ATOM     57  C   UNL A   1      42.299  27.703  30.924  1.00  0.00     0.031 C 
ATOM     58  C   UNL A   1      42.497  30.542  36.288  1.00  0.00     0.029 A 
ATOM     59  C   UNL A   1      42.139  30.166  35.003  1.00  0.00     0.049 A 
ATOM     60  H   UNL A   1      40.653  30.981  33.745  1.00  0.00     0.167 HD
ATOM     61  C   UNL A   1      42.285  28.805  32.934  1.00  0.00     0.074 A 
ATOM     62  C   UNL A   1      42.863  27.754  32.123  1.00  0.00     0.031 C 
ATOM     63  C   UNL A   1      42.697  29.117  34.187  1.00  0.00     0.037 A 
BRANCH  50  64
ATOM     64  C   UNL A   1      39.658  33.856  36.738  1.00  0.00     0.064 A 
ATOM     65  C   UNL A   1      40.284  35.113  36.758  1.00  0.00     0.173 A 
ATOM     66  C   UNL A   1      38.860  33.506  37.836  1.00  0.00     0.173 A 
ATOM     67  F   UNL A   1      41.068  35.494  35.738  1.00  0.00    -0.203 F 
ATOM     68  C   UNL A   1      40.145  35.967  37.848  1.00  0.00     0.198 A 
ATOM     69  C   UNL A   1      38.695  34.376  38.911  1.00  0.00     0.198 A 
ATOM     70  F   UNL A   1      38.233  32.320  37.868  1.00  0.00    -0.203 F 
ATOM     71  F   UNL A   1      40.796  37.138  37.868  1.00  0.00    -0.200 F 
ATOM     72  C   UNL A   1      39.346  35.602  38.921  1.00  0.00     0.200 A 
ATOM     73  F   UNL A   1      37.912  34.027  39.941  1.00  0.00    -0.200 F 
ATOM     74  F   UNL A   1      39.207  36.427  39.968  1.00  0.00    -0.200 F 
ENDBRANCH  50  64
BRANCH  51  75
ATOM     75  C   UNL A   1      40.512  28.085  28.634  1.00  0.00     0.064 A 
ATOM     76  C   UNL A   1      41.296  28.512  27.554  1.00  0.00     0.173 A 
ATOM     77  C   UNL A   1      39.879  26.838  28.528  1.00  0.00     0.173 A 
ATOM     78  F   UNL A   1      41.905  29.707  27.600  1.00  0.00    -0.203 F 
ATOM     79  C   UNL A   1      41.427  27.733  26.407  1.00  0.00     0.198 A 
ATOM     80  C   UNL A   1      40.034  26.048  27.391  1.00  0.00     0.198 A 
ATOM     81  F   UNL A   1      39.122  26.380  29.536  1.00  0.00    -0.203 F 
ATOM     82  F   UNL A   1      42.148  28.186  25.371  1.00  0.00    -0.200 F 
ATOM     83  C   UNL A   1      40.801  26.499  26.328  1.00  0.00     0.200 A 
ATOM     84  F   UNL A   1      39.438  24.848  27.324  1.00  0.00    -0.200 F 
ATOM     85  F   UNL A   1      40.931  25.748  25.226  1.00  0.00    -0.200 F 
ENDBRANCH  51  75
BRANCH  63  86
ATOM     86  C   UNL A   1      43.801  28.287  34.777  1.00  0.00     0.064 A 
ATOM     87  C   UNL A   1      43.538  27.095  35.467  1.00  0.00     0.173 A 
ATOM     88  C   UNL A   1      45.140  28.670  34.610  1.00  0.00     0.173 A 
ATOM     89  F   UNL A   1      42.274  26.694  35.667  1.00  0.00    -0.203 F 
ATOM     90  C   UNL A   1      44.577  26.329  35.990  1.00  0.00     0.198 A 
ATOM     91  C   UNL A   1      46.177  27.886  35.107  1.00  0.00     0.198 A 
ATOM     92  F   UNL A   1      45.445  29.799  33.953  1.00  0.00    -0.203 F 
ATOM     93  F   UNL A   1      44.301  25.217  36.685  1.00  0.00    -0.200 F 
ATOM     94  C   UNL A   1      45.894  26.720  35.802  1.00  0.00     0.200 A 
ATOM     95  F   UNL A   1      47.450  28.258  34.914  1.00  0.00    -0.200 F 
ATOM     96  F   UNL A   1      46.892  25.976  36.298  1.00  0.00    -0.200 F 
ENDBRANCH  63  86
ENDBRANCH  37  38
ENDBRANCH  29  32
ENDBRANCH  27  28
ENDBRANCH  26  27
ENDBRANCH   1  26
TORSDOF 14
ENDMDL
MODEL 2
REMARK VINA RESULT:     -13.1      0.602      1.471
REMARK SMILES Cc1cc(O[C@@H]2C[C@H](C)C[C@H](C)C2)cc(C(=O)NCCCCNC(=O)c2ccc(-c3c4nc(c(-c5c(F)c(F)c(F)c(F)c5F)c5ccc([nH]5)c(-c5c(F)c(F)c(F)c(F)c5F)c5nc(c(-c6c(F)c(F)c(F)c(F)c6F)c6ccc3[nH]6)C=C5)C=C4)cc2)c1N
REMARK SMILES IDX 20 1 19 2 18 3 16 4 17 5 15 7 1 8 2 9 3 10 89 11 4 12 14 13
REMARK SMILES IDX 90 14 5 17 6 18 13 19 7 20 11 21 8 22 12 23 10 24 9 25 21 26
REMARK SMILES IDX 22 27 23 28 24 29 25 31 26 32 27 33 88 34 28 35 87 36 29 37
REMARK SMILES IDX 30 38 31 39 81 40 32 41 86 42 80 43 82 44 33 45 85 46 79 47
REMARK SMILES IDX 78 48 34 50 66 51 46 52 65 53 47 54 50 55 64 56 83 57 48 58
REMARK SMILES IDX 49 59 63 61 84 62 51 63 35 64 36 65 44 66 37 67 38 68 42 69
REMARK SMILES IDX 45 70 39 71 40 72 43 73 41 74 67 75 68 76 76 77 69 78 70 79
REMARK SMILES IDX 74 80 77 81 71 82 72 83 75 84 73 85 52 86 53 87 61 88 54 89
REMARK SMILES IDX 55 90 59 91 62 92 56 93 57 94 60 95 58 96
REMARK H PARENT 18 6 90 15 90 16 23 30 82 49 50 60
REMARK Flexibility Score: inf
ROOT
ATOM      1  C   UNL A   1      31.758  30.546  26.524  1.00  0.00     0.023 C 
ENDROOT
BRANCH   1   2
ATOM      2  C   UNL A   1      33.201  30.057  26.566  1.00  0.00     0.116 C 
BRANCH   2   3
ATOM      3  N   UNL A   1      33.727  29.660  25.279  1.00  0.00    -0.352 N 
ATOM      4  C   UNL A   1      33.450  28.588  24.465  1.00  0.00     0.253 C 
ATOM      5  O   UNL A   1      34.083  28.541  23.406  1.00  0.00    -0.269 OA
ATOM      6  H   UNL A   1      34.411  30.272  24.919  1.00  0.00     0.163 HD
BRANCH   4   7
ATOM      7  C   UNL A   1      32.474  27.497  24.797  1.00  0.00     0.066 A 
ATOM      8  C   UNL A   1      28.872  26.500  23.933  1.00  0.00     0.047 C 
ATOM      9  C   UNL A   1      30.210  26.607  24.618  1.00  0.00    -0.024 A 
ATOM     10  C   UNL A   1      30.555  25.606  25.533  1.00  0.00     0.052 A 
ATOM     11  C   UNL A   1      31.163  27.578  24.248  1.00  0.00     0.048 A 
ATOM     12  C   UNL A   1      31.888  25.349  25.766  1.00  0.00     0.120 A 
ATOM     13  C   UNL A   1      32.810  26.378  25.578  1.00  0.00     0.062 A 
BRANCH  11  14
ATOM     14  N   UNL A   1      30.870  28.454  23.194  1.00  0.00    -0.398 N 
ATOM     15  H   UNL A   1      31.079  28.196  22.267  1.00  0.00     0.156 HD
ATOM     16  H   UNL A   1      30.455  29.326  23.380  1.00  0.00     0.156 HD
ENDBRANCH  11  14
BRANCH  12  17
ATOM     17  O   UNL A   1      32.388  24.100  26.031  1.00  0.00    -0.490 OA
BRANCH  17  18
ATOM     18  C   UNL A   1      33.277  23.433  25.072  1.00  0.00     0.173 C 
ATOM     19  C   UNL A   1      34.747  23.170  25.422  1.00  0.00     0.048 C 
ATOM     20  C   UNL A   1      32.626  22.079  24.627  1.00  0.00     0.048 C 
ATOM     21  C   UNL A   1      34.976  21.930  26.283  1.00  0.00    -0.010 C 
ATOM     22  C   UNL A   1      33.530  20.791  24.527  1.00  0.00    -0.010 C 
ATOM     23  C   UNL A   1      34.060  21.699  27.487  1.00  0.00     0.008 C 
ATOM     24  C   UNL A   1      34.856  20.771  25.319  1.00  0.00     0.007 C 
ATOM     25  C   UNL A   1      32.731  19.520  24.858  1.00  0.00     0.008 C 
ENDBRANCH  17  18
ENDBRANCH  12  17
ENDBRANCH   4   7
ENDBRANCH   2   3
ENDBRANCH   1   2
BRANCH   1  26
ATOM     26  C   UNL A   1      31.533  32.035  26.771  1.00  0.00     0.023 C 
BRANCH  26  27
ATOM     27  C   UNL A   1      32.722  32.805  27.333  1.00  0.00     0.116 C 
BRANCH  27  28
ATOM     28  N   UNL A   1      32.408  34.185  27.678  1.00  0.00    -0.352 N 
ATOM     29  C   UNL A   1      32.988  35.009  28.614  1.00  0.00     0.251 C 
ATOM     30  H   UNL A   1      31.671  34.588  27.165  1.00  0.00     0.163 HD
ATOM     31  O   UNL A   1      32.520  36.122  28.838  1.00  0.00    -0.269 OA
BRANCH  29  32
ATOM     32  C   UNL A   1      34.152  34.532  29.389  1.00  0.00     0.039 A 
ATOM     33  C   UNL A   1      33.935  33.924  30.626  1.00  0.00     0.014 A 
ATOM     34  C   UNL A   1      35.444  34.632  28.868  1.00  0.00     0.014 A 
ATOM     35  C   UNL A   1      35.002  33.316  31.292  1.00  0.00     0.010 A 
ATOM     36  C   UNL A   1      36.488  33.954  29.488  1.00  0.00     0.010 A 
ATOM     37  C   UNL A   1      36.274  33.275  30.699  1.00  0.00    -0.014 A 
BRANCH  37  38
ATOM     38  C   UNL A   1      37.385  32.498  31.306  1.00  0.00     0.031 A 
ATOM     39  C   UNL A   1      37.908  32.861  32.667  1.00  0.00     0.074 A 
ATOM     40  C   UNL A   1      37.979  31.520  30.594  1.00  0.00     0.049 A 
ATOM     41  N   UNL A   1      38.918  32.354  33.328  1.00  0.00    -0.248 NA
ATOM     42  C   UNL A   1      37.223  33.960  33.366  1.00  0.00     0.031 C 
ATOM     43  C   UNL A   1      37.604  31.114  29.238  1.00  0.00     0.029 A 
ATOM     44  N   UNL A   1      39.034  30.698  30.905  1.00  0.00    -0.354 N 
ATOM     45  C   UNL A   1      39.000  33.082  34.508  1.00  0.00     0.074 A 
ATOM     46  C   UNL A   1      37.973  34.100  34.448  1.00  0.00     0.031 C 
ATOM     47  C   UNL A   1      38.399  30.107  28.845  1.00  0.00     0.029 A 
ATOM     48  C   UNL A   1      39.365  29.821  29.901  1.00  0.00     0.049 A 
ATOM     49  H   UNL A   1      39.509  30.734  31.767  1.00  0.00     0.167 HD
ATOM     50  C   UNL A   1      39.838  32.900  35.556  1.00  0.00     0.037 A 
ATOM     51  C   UNL A   1      40.340  28.894  29.837  1.00  0.00     0.037 A 
ATOM     52  C   UNL A   1      40.841  31.871  35.622  1.00  0.00     0.049 A 
ATOM     53  C   UNL A   1      41.256  28.711  31.016  1.00  0.00     0.074 A 
ATOM     54  C   UNL A   1      41.696  31.563  36.665  1.00  0.00     0.029 A 
ATOM     55  N   UNL A   1      41.128  30.982  34.595  1.00  0.00    -0.354 N 
ATOM     56  N   UNL A   1      41.272  29.352  32.158  1.00  0.00    -0.248 NA
ATOM     57  C   UNL A   1      42.285  27.668  30.899  1.00  0.00     0.031 C 
ATOM     58  C   UNL A   1      42.531  30.520  36.254  1.00  0.00     0.029 A 
ATOM     59  C   UNL A   1      42.162  30.141  34.973  1.00  0.00     0.049 A 
ATOM     60  H   UNL A   1      40.666  30.954  33.726  1.00  0.00     0.167 HD
ATOM     61  C   UNL A   1      42.289  28.775  32.906  1.00  0.00     0.074 A 
ATOM     62  C   UNL A   1      42.859  27.721  32.092  1.00  0.00     0.031 C 
ATOM     63  C   UNL A   1      42.712  29.090  34.155  1.00  0.00     0.037 A 
BRANCH  50  64
ATOM     64  C   UNL A   1      39.700  33.838  36.721  1.00  0.00     0.064 A 
ATOM     65  C   UNL A   1      40.350  35.082  36.745  1.00  0.00     0.173 A 
ATOM     66  C   UNL A   1      38.887  33.503  37.814  1.00  0.00     0.173 A 
ATOM     67  F   UNL A   1      41.148  35.447  35.729  1.00  0.00    -0.203 F 
ATOM     68  C   UNL A   1      40.220  35.938  37.834  1.00  0.00     0.198 A 
ATOM     69  C   UNL A   1      38.732  34.377  38.887  1.00  0.00     0.198 A 
ATOM     70  F   UNL A   1      38.237  32.329  37.841  1.00  0.00    -0.203 F 
ATOM     71  F   UNL A   1      40.894  37.096  37.857  1.00  0.00    -0.200 F 
ATOM     72  C   UNL A   1      39.407  35.589  38.901  1.00  0.00     0.200 A 
ATOM     73  F   UNL A   1      37.936  34.043  39.912  1.00  0.00    -0.200 F 
ATOM     74  F   UNL A   1      39.278  36.417  39.947  1.00  0.00    -0.200 F 
ENDBRANCH  50  64
BRANCH  51  75
ATOM     75  C   UNL A   1      40.479  28.046  28.624  1.00  0.00     0.064 A 
ATOM     76  C   UNL A   1      41.251  28.472  27.534  1.00  0.00     0.173 A 
ATOM     77  C   UNL A   1      39.847  26.798  28.527  1.00  0.00     0.173 A 
ATOM     78  F   UNL A   1      41.858  29.668  27.571  1.00  0.00    -0.203 F 
ATOM     79  C   UNL A   1      41.371  27.690  26.387  1.00  0.00     0.198 A 
ATOM     80  C   UNL A   1      39.991  26.005  27.390  1.00  0.00     0.198 A 
ATOM     81  F   UNL A   1      39.101  26.341  29.544  1.00  0.00    -0.203 F 
ATOM     82  F   UNL A   1      42.081  28.141  25.344  1.00  0.00    -0.200 F 
ATOM     83  C   UNL A   1      40.747  26.455  26.319  1.00  0.00     0.200 A 
ATOM     84  F   UNL A   1      39.397  24.804  27.334  1.00  0.00    -0.200 F 
ATOM     85  F   UNL A   1      40.867  25.701  25.218  1.00  0.00    -0.200 F 
ENDBRANCH  51  75
BRANCH  63  86
ATOM     86  C   UNL A   1      43.820  28.260  34.737  1.00  0.00     0.064 A 
ATOM     87  C   UNL A   1      45.165  28.642  34.623  1.00  0.00     0.173 A 
ATOM     88  C   UNL A   1      43.526  27.091  35.455  1.00  0.00     0.173 A 
ATOM     89  F   UNL A   1      45.499  29.742  33.934  1.00  0.00    -0.203 F 
ATOM     90  C   UNL A   1      46.177  27.869  35.188  1.00  0.00     0.198 A 
ATOM     91  C   UNL A   1      44.537  26.338  36.044  1.00  0.00     0.198 A 
ATOM     92  F   UNL A   1      42.256  26.686  35.598  1.00  0.00    -0.203 F 
ATOM     93  F   UNL A   1      47.458  28.228  35.028  1.00  0.00    -0.200 F 
ATOM     94  C   UNL A   1      45.862  26.724  35.904  1.00  0.00     0.200 A 
ATOM     95  F   UNL A   1      44.231  25.239  36.747  1.00  0.00    -0.200 F 
ATOM     96  F   UNL A   1      46.837  25.987  36.454  1.00  0.00    -0.200 F 
ENDBRANCH  63  86
ENDBRANCH  37  38
ENDBRANCH  29  32
ENDBRANCH  27  28
ENDBRANCH  26  27
ENDBRANCH   1  26
TORSDOF 14
ENDMDL
MODEL 3
REMARK VINA RESULT:     -13.1      0.442      7.281
REMARK SMILES Cc1cc(O[C@@H]2C[C@H](C)C[C@H](C)C2)cc(C(=O)NCCCCNC(=O)c2ccc(-c3c4nc(c(-c5c(F)c(F)c(F)c(F)c5F)c5ccc([nH]5)c(-c5c(F)c(F)c(F)c(F)c5F)c5nc(c(-c6c(F)c(F)c(F)c(F)c6F)c6ccc3[nH]6)C=C5)C=C4)cc2)c1N
REMARK SMILES IDX 20 1 19 2 18 3 16 4 17 5 15 7 1 8 2 9 3 10 89 11 4 12 14 13
REMARK SMILES IDX 90 14 5 17 6 18 13 19 7 20 11 21 8 22 12 23 10 24 9 25 21 26
REMARK SMILES IDX 22 27 23 28 24 29 25 31 26 32 27 33 88 34 28 35 87 36 29 37
REMARK SMILES IDX 30 38 31 39 81 40 32 41 86 42 80 43 82 44 33 45 85 46 79 47
REMARK SMILES IDX 78 48 34 50 66 51 46 52 65 53 47 54 50 55 64 56 83 57 48 58
REMARK SMILES IDX 49 59 63 61 84 62 51 63 35 64 36 65 44 66 37 67 38 68 42 69
REMARK SMILES IDX 45 70 39 71 40 72 43 73 41 74 67 75 68 76 76 77 69 78 70 79
REMARK SMILES IDX 74 80 77 81 71 82 72 83 75 84 73 85 52 86 53 87 61 88 54 89
REMARK SMILES IDX 55 90 59 91 62 92 56 93 57 94 60 95 58 96
REMARK H PARENT 18 6 90 15 90 16 23 30 82 49 50 60
REMARK Flexibility Score: inf
ROOT
ATOM      1  C   UNL A   1      32.003  30.237  26.881  1.00  0.00     0.023 C 
ENDROOT
BRANCH   1   2
ATOM      2  C   UNL A   1      33.456  29.777  26.864  1.00  0.00     0.116 C 
BRANCH   2   3
ATOM      3  N   UNL A   1      33.951  29.432  25.550  1.00  0.00    -0.352 N 
ATOM      4  C   UNL A   1      33.519  28.520  24.617  1.00  0.00     0.253 C 
ATOM      5  O   UNL A   1      34.172  28.474  23.570  1.00  0.00    -0.269 OA
ATOM      6  H   UNL A   1      34.743  29.947  25.272  1.00  0.00     0.163 HD
BRANCH   4   7
ATOM      7  C   UNL A   1      32.356  27.591  24.809  1.00  0.00     0.066 A 
ATOM      8  C   UNL A   1      28.759  27.186  23.536  1.00  0.00     0.047 C 
ATOM      9  C   UNL A   1      30.014  27.072  24.362  1.00  0.00    -0.024 A 
ATOM     10  C   UNL A   1      30.097  26.016  25.277  1.00  0.00     0.052 A 
ATOM     11  C   UNL A   1      31.141  27.886  24.127  1.00  0.00     0.048 A 
ATOM     12  C   UNL A   1      31.341  25.549  25.643  1.00  0.00     0.120 A 
ATOM     13  C   UNL A   1      32.426  26.422  25.585  1.00  0.00     0.062 A 
BRANCH  11  14
ATOM     14  N   UNL A   1      31.105  28.811  23.076  1.00  0.00    -0.398 N 
ATOM     15  H   UNL A   1      30.249  29.215  22.804  1.00  0.00     0.156 HD
ATOM     16  H   UNL A   1      31.935  29.058  22.608  1.00  0.00     0.156 HD
ENDBRANCH  11  14
BRANCH  12  17
ATOM     17  O   UNL A   1      31.609  24.232  25.920  1.00  0.00    -0.490 OA
BRANCH  17  18
ATOM     18  C   UNL A   1      31.091  23.167  25.053  1.00  0.00     0.173 C 
ATOM     19  C   UNL A   1      31.095  23.329  23.529  1.00  0.00     0.048 C 
ATOM     20  C   UNL A   1      31.812  21.822  25.409  1.00  0.00     0.048 C 
ATOM     21  C   UNL A   1      32.437  23.022  22.867  1.00  0.00    -0.010 C 
ATOM     22  C   UNL A   1      32.302  20.884  24.240  1.00  0.00    -0.010 C 
ATOM     23  C   UNL A   1      33.708  23.594  23.498  1.00  0.00     0.008 C 
ATOM     24  C   UNL A   1      32.511  21.511  22.844  1.00  0.00     0.007 C 
ATOM     25  C   UNL A   1      33.571  20.113  24.637  1.00  0.00     0.008 C 
ENDBRANCH  17  18
ENDBRANCH  12  17
ENDBRANCH   4   7
ENDBRANCH   2   3
ENDBRANCH   1   2
BRANCH   1  26
ATOM     26  C   UNL A   1      31.762  31.744  26.829  1.00  0.00     0.023 C 
BRANCH  26  27
ATOM     27  C   UNL A   1      32.895  32.619  27.350  1.00  0.00     0.116 C 
BRANCH  27  28
ATOM     28  N   UNL A   1      32.488  33.990  27.626  1.00  0.00    -0.352 N 
ATOM     29  C   UNL A   1      33.003  34.895  28.524  1.00  0.00     0.251 C 
ATOM     30  H   UNL A   1      31.731  34.318  27.089  1.00  0.00     0.163 HD
ATOM     31  O   UNL A   1      32.461  35.984  28.691  1.00  0.00    -0.269 OA
BRANCH  29  32
ATOM     32  C   UNL A   1      34.189  34.533  29.329  1.00  0.00     0.039 A 
ATOM     33  C   UNL A   1      34.002  34.040  30.621  1.00  0.00     0.014 A 
ATOM     34  C   UNL A   1      35.472  34.625  28.787  1.00  0.00     0.014 A 
ATOM     35  C   UNL A   1      35.094  33.535  31.331  1.00  0.00     0.010 A 
ATOM     36  C   UNL A   1      36.544  34.045  29.459  1.00  0.00     0.010 A 
ATOM     37  C   UNL A   1      36.362  33.479  30.731  1.00  0.00    -0.014 A 
BRANCH  37  38
ATOM     38  C   UNL A   1      37.503  32.801  31.399  1.00  0.00     0.031 A 
ATOM     39  C   UNL A   1      38.187  31.639  30.736  1.00  0.00     0.074 A 
ATOM     40  C   UNL A   1      37.865  33.178  32.641  1.00  0.00     0.049 A 
ATOM     41  N   UNL A   1      39.144  30.871  31.193  1.00  0.00    -0.248 NA
ATOM     42  C   UNL A   1      37.711  31.272  29.393  1.00  0.00     0.031 C 
ATOM     43  C   UNL A   1      37.239  34.251  33.416  1.00  0.00     0.029 A 
ATOM     44  N   UNL A   1      38.840  32.692  33.478  1.00  0.00    -0.354 N 
ATOM     45  C   UNL A   1      39.371  29.924  30.204  1.00  0.00     0.074 A 
ATOM     46  C   UNL A   1      38.416  30.179  29.147  1.00  0.00     0.031 C 
ATOM     47  C   UNL A   1      37.859  34.357  34.602  1.00  0.00     0.029 A 
ATOM     48  C   UNL A   1      38.899  33.337  34.689  1.00  0.00     0.049 A 
ATOM     49  H   UNL A   1      39.439  31.950  33.232  1.00  0.00     0.167 HD
ATOM     50  C   UNL A   1      40.308  28.947  30.169  1.00  0.00     0.037 A 
ATOM     51  C   UNL A   1      39.698  33.125  35.752  1.00  0.00     0.037 A 
ATOM     52  C   UNL A   1      41.272  28.712  31.211  1.00  0.00     0.049 A 
ATOM     53  C   UNL A   1      40.733  32.036  35.688  1.00  0.00     0.074 A 
ATOM     54  C   UNL A   1      42.303  27.791  31.243  1.00  0.00     0.029 A 
ATOM     55  N   UNL A   1      41.319  29.405  32.413  1.00  0.00    -0.354 N 
ATOM     56  N   UNL A   1      40.991  31.197  34.714  1.00  0.00    -0.248 NA
ATOM     57  C   UNL A   1      41.593  31.868  36.868  1.00  0.00     0.031 C 
ATOM     58  C   UNL A   1      42.945  27.893  32.481  1.00  0.00     0.029 A 
ATOM     59  C   UNL A   1      42.348  28.915  33.201  1.00  0.00     0.049 A 
ATOM     60  H   UNL A   1      40.710  30.137  32.668  1.00  0.00     0.167 HD
ATOM     61  C   UNL A   1      42.058  30.424  35.149  1.00  0.00     0.074 A 
ATOM     62  C   UNL A   1      42.408  30.901  36.471  1.00  0.00     0.031 C 
ATOM     63  C   UNL A   1      42.691  29.408  34.511  1.00  0.00     0.037 A 
BRANCH  50  64
ATOM     64  C   UNL A   1      40.336  28.059  28.958  1.00  0.00     0.064 A 
ATOM     65  C   UNL A   1      41.076  28.399  27.814  1.00  0.00     0.173 A 
ATOM     66  C   UNL A   1      39.639  26.843  28.949  1.00  0.00     0.173 A 
ATOM     67  F   UNL A   1      41.753  29.557  27.766  1.00  0.00    -0.203 F 
ATOM     68  C   UNL A   1      41.087  27.571  26.695  1.00  0.00     0.198 A 
ATOM     69  C   UNL A   1      39.679  26.001  27.841  1.00  0.00     0.198 A 
ATOM     70  F   UNL A   1      38.921  26.466  30.018  1.00  0.00    -0.203 F 
ATOM     71  F   UNL A   1      41.757  27.943  25.595  1.00  0.00    -0.200 F 
ATOM     72  C   UNL A   1      40.395  26.370  26.711  1.00  0.00     0.200 A 
ATOM     73  F   UNL A   1      39.020  24.834  27.862  1.00  0.00    -0.200 F 
ATOM     74  F   UNL A   1      40.411  25.571  25.635  1.00  0.00    -0.200 F 
ENDBRANCH  50  64
BRANCH  51  75
ATOM     75  C   UNL A   1      39.572  33.987  36.958  1.00  0.00     0.064 A 
ATOM     76  C   UNL A   1      38.781  33.591  38.044  1.00  0.00     0.173 A 
ATOM     77  C   UNL A   1      40.237  35.218  37.049  1.00  0.00     0.173 A 
ATOM     78  F   UNL A   1      38.109  32.431  37.995  1.00  0.00    -0.203 F 
ATOM     79  C   UNL A   1      38.645  34.401  39.169  1.00  0.00     0.198 A 
ATOM     80  C   UNL A   1      40.122  36.015  38.187  1.00  0.00     0.198 A 
ATOM     81  F   UNL A   1      41.011  35.642  36.039  1.00  0.00    -0.203 F 
ATOM     82  F   UNL A   1      37.847  34.017  40.176  1.00  0.00    -0.200 F 
ATOM     83  C   UNL A   1      39.320  35.609  39.243  1.00  0.00     0.200 A 
ATOM     84  F   UNL A   1      40.788  37.176  38.260  1.00  0.00    -0.200 F 
ATOM     85  F   UNL A   1      39.193  36.386  40.327  1.00  0.00    -0.200 F 
ENDBRANCH  51  75
BRANCH  63  86
ATOM     86  C   UNL A   1      43.853  28.770  35.214  1.00  0.00     0.064 A 
ATOM     87  C   UNL A   1      43.684  27.673  36.072  1.00  0.00     0.173 A 
ATOM     88  C   UNL A   1      45.157  29.236  34.992  1.00  0.00     0.173 A 
ATOM     89  F   UNL A   1      42.456  27.200  36.330  1.00  0.00    -0.203 F 
ATOM     90  C   UNL A   1      44.778  27.082  36.700  1.00  0.00     0.198 A 
ATOM     91  C   UNL A   1      46.251  28.624  35.596  1.00  0.00     0.198 A 
ATOM     92  F   UNL A   1      45.374  30.279  34.176  1.00  0.00    -0.203 F 
ATOM     93  F   UNL A   1      44.589  26.064  37.550  1.00  0.00    -0.200 F 
ATOM     94  C   UNL A   1      46.060  27.552  36.454  1.00  0.00     0.200 A 
ATOM     95  F   UNL A   1      47.490  29.071  35.349  1.00  0.00    -0.200 F 
ATOM     96  F   UNL A   1      47.112  26.975  37.053  1.00  0.00    -0.200 F 
ENDBRANCH  63  86
ENDBRANCH  37  38
ENDBRANCH  29  32
ENDBRANCH  27  28
ENDBRANCH  26  27
ENDBRANCH   1  26
TORSDOF 14
ENDMDL
