MODEL 1
REMARK VINA RESULT:     -14.5      0.000      0.000
REMARK SMILES Cc1ccc(NC(=O)CN2C(=O)S/C(=C\c3cc(Cl)c(OCC(=O)NCCCCNC(=O)c4ccc(-c5c6nc(c(-c7c(F)c(F)c(F)c(F)c7F)c7ccc([nH]7)c(-c7c(F)c(F)c(F)c(F)c7F)c7nc(c(-c8c(F)c(F)c(F)c(F)c8F)c8ccc5[nH]8)C=C7)C=C6)cc4)c(Cl)c3)C2=O)cc1
REMARK SMILES IDX 23 1 24 2 25 3 22 5 21 6 20 7 16 8 17 9 98 10 18 11 96 12
REMARK SMILES IDX 19 13 97 14 15 15 10 16 11 17 99 18 12 19 13 20 14 21 100 22
REMARK SMILES IDX 9 23 7 24 6 25 8 27 5 28 1 29 2 30 3 31 102 32 4 33 101 34
REMARK SMILES IDX 26 35 27 36 28 37 29 38 30 39 31 40 32 42 33 43 34 44 95 45
REMARK SMILES IDX 35 46 94 47 36 48 37 49 38 50 88 51 39 52 93 53 87 54 89 55
REMARK SMILES IDX 40 56 92 57 86 58 85 59 41 61 73 62 53 63 72 64 54 65 57 66
REMARK SMILES IDX 71 67 90 68 55 69 56 70 70 72 91 73 58 74 42 75 43 76 51 77
REMARK SMILES IDX 44 78 45 79 49 80 52 81 46 82 47 83 50 84 48 85 74 86 75 87
REMARK SMILES IDX 83 88 76 89 77 90 81 91 84 92 78 93 79 94 82 95 80 96 59 97
REMARK SMILES IDX 60 98 68 99 61 100 62 101 66 102 69 103 63 104 64 105 67 106
REMARK SMILES IDX 65 107
REMARK H PARENT 25 4 6 26 30 41 89 60 57 71
REMARK Flexibility Score: inf
ROOT
ATOM      1  C   UNL A   1      35.302  33.936  28.486  1.00  0.00     0.257 C 
ATOM      2  O   UNL A   1      36.492  33.641  28.374  1.00  0.00    -0.271 OA
ATOM      3  N   UNL A   1      35.004  35.243  28.742  1.00  0.00    -0.353 N 
ATOM      4  H   UNL A   1      35.775  35.821  28.945  1.00  0.00     0.163 HD
ENDROOT
BRANCH   1   5
ATOM      5  C   UNL A   1      34.172  32.911  28.290  1.00  0.00     0.329 C 
BRANCH   5   6
ATOM      6  O   UNL A   1      34.360  31.878  27.341  1.00  0.00    -0.481 OA
BRANCH   6   7
ATOM      7  C   UNL A   1      33.468  30.856  27.154  1.00  0.00     0.157 A 
ATOM      8  C   UNL A   1      31.910  28.472  26.846  1.00  0.00    -0.021 A 
ATOM      9  C   UNL A   1      33.213  28.393  27.318  1.00  0.00     0.032 A 
ATOM     10  C   UNL A   1      31.417  29.737  26.503  1.00  0.00     0.032 A 
ATOM     11  C   UNL A   1      33.975  29.568  27.465  1.00  0.00     0.085 A 
ATOM     12  C   UNL A   1      32.145  30.918  26.714  1.00  0.00     0.085 A 
ATOM     13  Cl  UNL A   1      35.590  29.369  28.078  1.00  0.00    -0.080 Cl
ATOM     14  Cl  UNL A   1      31.200  32.344  26.489  1.00  0.00    -0.080 Cl
BRANCH   8  15
ATOM     15  C   UNL A   1      31.053  27.287  26.637  1.00  0.00     0.029 C 
ATOM     16  N   UNL A   1      31.603  24.165  25.022  1.00  0.00    -0.259 N 
ATOM     17  C   UNL A   1      32.652  24.800  24.406  1.00  0.00     0.294 C 
ATOM     18  C   UNL A   1      30.759  24.977  25.753  1.00  0.00     0.268 C 
ATOM     19  O   UNL A   1      33.707  24.318  24.035  1.00  0.00    -0.261 OA
ATOM     20  S   UNL A   1      32.324  26.512  24.318  1.00  0.00    -0.022 SA
ATOM     21  C   UNL A   1      31.233  26.394  25.647  1.00  0.00     0.083 C 
ATOM     22  O   UNL A   1      29.871  24.609  26.509  1.00  0.00    -0.268 OA
BRANCH  16  23
ATOM     23  C   UNL A   1      31.683  22.735  25.278  1.00  0.00     0.230 C 
BRANCH  23  24
ATOM     24  C   UNL A   1      32.600  22.382  26.452  1.00  0.00     0.244 C 
ATOM     25  N   UNL A   1      33.575  21.435  26.330  1.00  0.00    -0.325 N 
ATOM     26  H   UNL A   1      34.366  21.590  26.896  1.00  0.00     0.169 HD
ATOM     27  O   UNL A   1      32.487  22.976  27.529  1.00  0.00    -0.273 OA
BRANCH  25  28
ATOM     28  C   UNL A   1      33.646  20.282  25.538  1.00  0.00     0.041 A 
ATOM     29  C   UNL A   1      34.123  16.564  23.399  1.00  0.00     0.044 C 
ATOM     30  C   UNL A   1      33.972  17.864  24.132  1.00  0.00    -0.051 A 
ATOM     31  C   UNL A   1      32.714  18.252  24.604  1.00  0.00     0.005 A 
ATOM     32  C   UNL A   1      35.068  18.695  24.371  1.00  0.00     0.005 A 
ATOM     33  C   UNL A   1      32.553  19.452  25.303  1.00  0.00     0.026 A 
ATOM     34  C   UNL A   1      34.908  19.888  25.082  1.00  0.00     0.026 A 
ENDBRANCH  25  28
ENDBRANCH  23  24
ENDBRANCH  16  23
ENDBRANCH   8  15
ENDBRANCH   6   7
ENDBRANCH   5   6
ENDBRANCH   1   5
BRANCH   3  35
ATOM     35  C   UNL A   1      33.714  35.900  28.755  1.00  0.00     0.116 C 
BRANCH  35  36
ATOM     36  C   UNL A   1      33.023  35.863  30.118  1.00  0.00     0.023 C 
BRANCH  36  37
ATOM     37  C   UNL A   1      33.367  37.004  31.071  1.00  0.00     0.023 C 
BRANCH  37  38
ATOM     38  C   UNL A   1      33.402  36.634  32.545  1.00  0.00     0.116 C 
BRANCH  38  39
ATOM     39  N   UNL A   1      32.969  35.274  32.848  1.00  0.00    -0.352 N 
ATOM     40  C   UNL A   1      33.719  34.124  33.044  1.00  0.00     0.251 C 
ATOM     41  H   UNL A   1      31.994  35.154  32.926  1.00  0.00     0.163 HD
ATOM     42  O   UNL A   1      33.155  33.045  33.201  1.00  0.00    -0.269 OA
BRANCH  40  43
ATOM     43  C   UNL A   1      35.187  34.220  33.245  1.00  0.00     0.039 A 
ATOM     44  C   UNL A   1      35.962  34.658  32.161  1.00  0.00     0.014 A 
ATOM     45  C   UNL A   1      35.794  33.600  34.326  1.00  0.00     0.014 A 
ATOM     46  C   UNL A   1      37.262  34.184  32.022  1.00  0.00     0.010 A 
ATOM     47  C   UNL A   1      37.006  32.994  34.117  1.00  0.00     0.010 A 
ATOM     48  C   UNL A   1      37.706  33.235  32.931  1.00  0.00    -0.014 A 
BRANCH  48  49
ATOM     49  C   UNL A   1      38.871  32.393  32.743  1.00  0.00     0.031 A 
ATOM     50  C   UNL A   1      38.727  31.155  31.960  1.00  0.00     0.074 A 
ATOM     51  C   UNL A   1      40.083  32.882  33.086  1.00  0.00     0.049 A 
ATOM     52  N   UNL A   1      39.601  30.215  31.929  1.00  0.00    -0.248 NA
ATOM     53  C   UNL A   1      37.542  30.859  31.164  1.00  0.00     0.031 C 
ATOM     54  C   UNL A   1      41.390  32.425  32.622  1.00  0.00     0.029 A 
ATOM     55  N   UNL A   1      40.383  33.825  34.083  1.00  0.00    -0.354 N 
ATOM     56  C   UNL A   1      39.260  29.356  30.908  1.00  0.00     0.074 A 
ATOM     57  C   UNL A   1      37.926  29.749  30.528  1.00  0.00     0.031 C 
ATOM     58  C   UNL A   1      42.329  32.831  33.492  1.00  0.00     0.029 A 
ATOM     59  C   UNL A   1      41.629  33.417  34.620  1.00  0.00     0.049 A 
ATOM     60  H   UNL A   1      39.843  34.604  34.350  1.00  0.00     0.167 HD
ATOM     61  C   UNL A   1      40.221  28.515  30.430  1.00  0.00     0.037 A 
ATOM     62  C   UNL A   1      41.734  32.979  35.909  1.00  0.00     0.037 A 
ATOM     63  C   UNL A   1      41.440  28.642  31.231  1.00  0.00     0.049 A 
ATOM     64  C   UNL A   1      42.246  31.562  36.017  1.00  0.00     0.074 A 
ATOM     65  C   UNL A   1      42.619  29.345  31.038  1.00  0.00     0.029 A 
ATOM     66  N   UNL A   1      41.415  28.269  32.570  1.00  0.00    -0.354 N 
ATOM     67  N   UNL A   1      42.127  30.674  35.068  1.00  0.00    -0.248 NA
ATOM     68  C   UNL A   1      42.951  31.042  37.183  1.00  0.00     0.031 C 
ATOM     69  C   UNL A   1      43.297  29.409  32.282  1.00  0.00     0.029 A 
ATOM     70  C   UNL A   1      42.540  28.731  33.222  1.00  0.00     0.049 A 
ATOM     71  H   UNL A   1      40.695  27.748  32.993  1.00  0.00     0.167 HD
ATOM     72  C   UNL A   1      42.734  29.504  35.452  1.00  0.00     0.074 A 
ATOM     73  C   UNL A   1      43.233  29.788  36.785  1.00  0.00     0.031 C 
ATOM     74  C   UNL A   1      42.774  28.415  34.624  1.00  0.00     0.037 A 
BRANCH  61  75
ATOM     75  C   UNL A   1      40.188  27.786  29.101  1.00  0.00     0.064 A 
ATOM     76  C   UNL A   1      39.533  26.536  28.993  1.00  0.00     0.173 A 
ATOM     77  C   UNL A   1      40.813  28.212  27.915  1.00  0.00     0.173 A 
ATOM     78  F   UNL A   1      38.807  26.034  30.001  1.00  0.00    -0.203 F 
ATOM     79  C   UNL A   1      39.590  25.746  27.841  1.00  0.00     0.198 A 
ATOM     80  C   UNL A   1      40.903  27.407  26.773  1.00  0.00     0.198 A 
ATOM     81  F   UNL A   1      41.311  29.443  27.782  1.00  0.00    -0.203 F 
ATOM     82  F   UNL A   1      38.958  24.564  27.814  1.00  0.00    -0.200 F 
ATOM     83  C   UNL A   1      40.301  26.168  26.740  1.00  0.00     0.200 A 
ATOM     84  F   UNL A   1      41.575  27.852  25.702  1.00  0.00    -0.200 F 
ATOM     85  F   UNL A   1      40.380  25.402  25.644  1.00  0.00    -0.200 F 
ENDBRANCH  61  75
BRANCH  62  86
ATOM     86  C   UNL A   1      40.728  33.617  36.804  1.00  0.00     0.064 A 
ATOM     87  C   UNL A   1      39.593  32.853  37.146  1.00  0.00     0.173 A 
ATOM     88  C   UNL A   1      41.079  34.671  37.656  1.00  0.00     0.173 A 
ATOM     89  F   UNL A   1      39.209  31.836  36.356  1.00  0.00    -0.203 F 
ATOM     90  C   UNL A   1      38.949  33.022  38.370  1.00  0.00     0.198 A 
ATOM     91  C   UNL A   1      40.410  34.856  38.868  1.00  0.00     0.198 A 
ATOM     92  F   UNL A   1      42.149  35.433  37.388  1.00  0.00    -0.203 F 
ATOM     93  F   UNL A   1      37.977  32.175  38.735  1.00  0.00    -0.200 F 
ATOM     94  C   UNL A   1      39.383  34.001  39.245  1.00  0.00     0.200 A 
ATOM     95  F   UNL A   1      40.836  35.794  39.727  1.00  0.00    -0.200 F 
ATOM     96  F   UNL A   1      38.847  34.091  40.471  1.00  0.00    -0.200 F 
ENDBRANCH  62  86
BRANCH  74  97
ATOM     97  C   UNL A   1      43.127  26.979  34.978  1.00  0.00     0.064 A 
ATOM     98  C   UNL A   1      42.200  25.935  35.113  1.00  0.00     0.173 A 
ATOM     99  C   UNL A   1      44.490  26.572  35.052  1.00  0.00     0.173 A 
ATOM    100  F   UNL A   1      40.887  26.134  34.949  1.00  0.00    -0.203 F 
ATOM    101  C   UNL A   1      42.592  24.614  35.358  1.00  0.00     0.198 A 
ATOM    102  C   UNL A   1      44.877  25.244  35.224  1.00  0.00     0.198 A 
ATOM    103  F   UNL A   1      45.502  27.442  34.925  1.00  0.00    -0.203 F 
ATOM    104  F   UNL A   1      41.657  23.667  35.523  1.00  0.00    -0.200 F 
ATOM    105  C   UNL A   1      43.928  24.265  35.398  1.00  0.00     0.200 A 
ATOM    106  F   UNL A   1      46.180  24.923  35.198  1.00  0.00    -0.200 F 
ATOM    107  F   UNL A   1      44.296  22.990  35.576  1.00  0.00    -0.200 F 
ENDBRANCH  74  97
ENDBRANCH  48  49
ENDBRANCH  40  43
ENDBRANCH  38  39
ENDBRANCH  37  38
ENDBRANCH  36  37
ENDBRANCH  35  36
ENDBRANCH   3  35
TORSDOF 17
ENDMDL
MODEL 2
REMARK VINA RESULT:     -13.7      5.940     11.989
REMARK SMILES Cc1ccc(NC(=O)CN2C(=O)S/C(=C\c3cc(Cl)c(OCC(=O)NCCCCNC(=O)c4ccc(-c5c6nc(c(-c7c(F)c(F)c(F)c(F)c7F)c7ccc([nH]7)c(-c7c(F)c(F)c(F)c(F)c7F)c7nc(c(-c8c(F)c(F)c(F)c(F)c8F)c8ccc5[nH]8)C=C7)C=C6)cc4)c(Cl)c3)C2=O)cc1
REMARK SMILES IDX 23 1 24 2 25 3 22 5 21 6 20 7 16 8 17 9 98 10 18 11 96 12
REMARK SMILES IDX 19 13 97 14 15 15 10 16 11 17 99 18 12 19 13 20 14 21 100 22
REMARK SMILES IDX 9 23 7 24 6 25 8 27 5 28 1 29 2 30 3 31 102 32 4 33 101 34
REMARK SMILES IDX 26 35 27 36 28 37 29 38 30 39 31 40 32 42 33 43 34 44 95 45
REMARK SMILES IDX 35 46 94 47 36 48 37 49 38 50 88 51 39 52 93 53 87 54 89 55
REMARK SMILES IDX 40 56 92 57 86 58 85 59 41 61 73 62 53 63 72 64 54 65 57 66
REMARK SMILES IDX 71 67 90 68 55 69 56 70 70 72 91 73 58 74 42 75 43 76 51 77
REMARK SMILES IDX 44 78 45 79 49 80 52 81 46 82 47 83 50 84 48 85 74 86 75 87
REMARK SMILES IDX 83 88 76 89 77 90 81 91 84 92 78 93 79 94 82 95 80 96 59 97
REMARK SMILES IDX 60 98 68 99 61 100 62 101 66 102 69 103 63 104 64 105 67 106
REMARK SMILES IDX 65 107
REMARK H PARENT 25 4 6 26 30 41 89 60 57 71
REMARK Flexibility Score: inf
ROOT
ATOM      1  C   UNL A   1      41.724  21.501  27.283  1.00  0.00     0.257 C 
ATOM      2  O   UNL A   1      41.930  22.332  28.169  1.00  0.00    -0.271 OA
ATOM      3  N   UNL A   1      42.537  20.406  27.253  1.00  0.00    -0.353 N 
ATOM      4  H   UNL A   1      43.308  20.435  27.865  1.00  0.00     0.163 HD
ENDROOT
BRANCH   1   5
ATOM      5  C   UNL A   1      40.566  21.631  26.279  1.00  0.00     0.329 C 
BRANCH   5   6
ATOM      6  O   UNL A   1      39.265  21.873  26.781  1.00  0.00    -0.481 OA
BRANCH   6   7
ATOM      7  C   UNL A   1      38.194  22.170  25.982  1.00  0.00     0.157 A 
ATOM      8  C   UNL A   1      35.965  23.160  24.480  1.00  0.00    -0.021 A 
ATOM      9  C   UNL A   1      36.696  24.023  25.284  1.00  0.00     0.032 A 
ATOM     10  C   UNL A   1      36.337  21.810  24.464  1.00  0.00     0.032 A 
ATOM     11  C   UNL A   1      37.790  23.531  26.022  1.00  0.00     0.085 A 
ATOM     12  C   UNL A   1      37.467  21.327  25.140  1.00  0.00     0.085 A 
ATOM     13  Cl  UNL A   1      38.654  24.690  26.988  1.00  0.00    -0.080 Cl
ATOM     14  Cl  UNL A   1      37.867  19.704  24.715  1.00  0.00    -0.080 Cl
BRANCH   8  15
ATOM     15  C   UNL A   1      34.788  23.589  23.695  1.00  0.00     0.029 C 
ATOM     16  N   UNL A   1      31.738  25.185  24.596  1.00  0.00    -0.259 N 
ATOM     17  C   UNL A   1      32.032  24.769  25.869  1.00  0.00     0.294 C 
ATOM     18  C   UNL A   1      32.551  24.679  23.600  1.00  0.00     0.268 C 
ATOM     19  O   UNL A   1      31.747  25.315  26.920  1.00  0.00    -0.261 OA
ATOM     20  S   UNL A   1      33.027  23.337  25.799  1.00  0.00    -0.022 SA
ATOM     21  C   UNL A   1      33.558  23.758  24.214  1.00  0.00     0.083 C 
ATOM     22  O   UNL A   1      32.578  25.039  22.431  1.00  0.00    -0.268 OA
BRANCH  16  23
ATOM     23  C   UNL A   1      30.979  26.411  24.399  1.00  0.00     0.230 C 
BRANCH  23  24
ATOM     24  C   UNL A   1      29.473  26.227  24.605  1.00  0.00     0.244 C 
ATOM     25  N   UNL A   1      28.566  26.852  23.798  1.00  0.00    -0.325 N 
ATOM     26  H   UNL A   1      27.723  26.358  23.675  1.00  0.00     0.169 HD
ATOM     27  O   UNL A   1      29.054  25.480  25.495  1.00  0.00    -0.273 OA
BRANCH  25  28
ATOM     28  C   UNL A   1      28.628  28.073  23.116  1.00  0.00     0.041 A 
ATOM     29  C   UNL A   1      28.729  32.027  21.389  1.00  0.00     0.044 C 
ATOM     30  C   UNL A   1      28.675  30.652  21.984  1.00  0.00    -0.051 A 
ATOM     31  C   UNL A   1      29.823  29.853  21.991  1.00  0.00     0.005 A 
ATOM     32  C   UNL A   1      27.501  30.151  22.551  1.00  0.00     0.005 A 
ATOM     33  C   UNL A   1      29.799  28.574  22.554  1.00  0.00     0.026 A 
ATOM     34  C   UNL A   1      27.483  28.876  23.126  1.00  0.00     0.026 A 
ENDBRANCH  25  28
ENDBRANCH  23  24
ENDBRANCH  16  23
ENDBRANCH   8  15
ENDBRANCH   6   7
ENDBRANCH   5   6
ENDBRANCH   1   5
BRANCH   3  35
ATOM     35  C   UNL A   1      42.425  19.207  26.449  1.00  0.00     0.116 C 
BRANCH  35  36
ATOM     36  C   UNL A   1      43.682  18.338  26.470  1.00  0.00     0.023 C 
BRANCH  36  37
ATOM     37  C   UNL A   1      44.510  18.332  25.188  1.00  0.00     0.023 C 
BRANCH  37  38
ATOM     38  C   UNL A   1      45.364  19.568  24.959  1.00  0.00     0.116 C 
BRANCH  38  39
ATOM     39  N   UNL A   1      44.935  20.416  23.851  1.00  0.00    -0.352 N 
ATOM     40  C   UNL A   1      44.836  21.796  23.773  1.00  0.00     0.251 C 
ATOM     41  H   UNL A   1      44.675  19.932  23.033  1.00  0.00     0.163 HD
ATOM     42  O   UNL A   1      44.360  22.320  22.771  1.00  0.00    -0.269 OA
BRANCH  40  43
ATOM     43  C   UNL A   1      45.466  22.646  24.815  1.00  0.00     0.039 A 
ATOM     44  C   UNL A   1      45.118  22.400  26.151  1.00  0.00     0.014 A 
ATOM     45  C   UNL A   1      46.104  23.828  24.472  1.00  0.00     0.014 A 
ATOM     46  C   UNL A   1      45.111  23.455  27.056  1.00  0.00     0.010 A 
ATOM     47  C   UNL A   1      45.941  24.907  25.303  1.00  0.00     0.010 A 
ATOM     48  C   UNL A   1      45.379  24.726  26.569  1.00  0.00    -0.014 A 
BRANCH  48  49
ATOM     49  C   UNL A   1      45.082  25.959  27.272  1.00  0.00     0.031 A 
ATOM     50  C   UNL A   1      43.719  26.510  27.184  1.00  0.00     0.074 A 
ATOM     51  C   UNL A   1      45.983  26.428  28.163  1.00  0.00     0.049 A 
ATOM     52  N   UNL A   1      43.397  27.699  27.546  1.00  0.00    -0.248 NA
ATOM     53  C   UNL A   1      42.599  25.757  26.633  1.00  0.00     0.031 C 
ATOM     54  C   UNL A   1      45.747  27.366  29.257  1.00  0.00     0.029 A 
ATOM     55  N   UNL A   1      47.378  26.260  28.150  1.00  0.00    -0.354 N 
ATOM     56  C   UNL A   1      42.022  27.773  27.569  1.00  0.00     0.074 A 
ATOM     57  C   UNL A   1      41.577  26.573  26.905  1.00  0.00     0.031 C 
ATOM     58  C   UNL A   1      46.916  27.920  29.617  1.00  0.00     0.029 A 
ATOM     59  C   UNL A   1      47.905  27.474  28.654  1.00  0.00     0.049 A 
ATOM     60  H   UNL A   1      47.881  25.466  27.855  1.00  0.00     0.167 HD
ATOM     61  C   UNL A   1      41.447  28.785  28.281  1.00  0.00     0.037 A 
ATOM     62  C   UNL A   1      48.647  28.305  27.864  1.00  0.00     0.037 A 
ATOM     63  C   UNL A   1      42.481  29.683  28.797  1.00  0.00     0.049 A 
ATOM     64  C   UNL A   1      48.041  29.680  27.713  1.00  0.00     0.074 A 
ATOM     65  C   UNL A   1      43.097  29.791  30.034  1.00  0.00     0.029 A 
ATOM     66  N   UNL A   1      43.260  30.408  27.903  1.00  0.00    -0.354 N 
ATOM     67  N   UNL A   1      46.768  29.931  27.854  1.00  0.00    -0.248 NA
ATOM     68  C   UNL A   1      48.816  30.879  27.417  1.00  0.00     0.031 C 
ATOM     69  C   UNL A   1      44.268  30.572  29.873  1.00  0.00     0.029 A 
ATOM     70  C   UNL A   1      44.353  30.954  28.545  1.00  0.00     0.049 A 
ATOM     71  H   UNL A   1      43.060  30.517  26.945  1.00  0.00     0.167 HD
ATOM     72  C   UNL A   1      46.543  31.278  27.703  1.00  0.00     0.074 A 
ATOM     73  C   UNL A   1      47.859  31.825  27.431  1.00  0.00     0.031 C 
ATOM     74  C   UNL A   1      45.289  31.810  27.829  1.00  0.00     0.037 A 
BRANCH  61  75
ATOM     75  C   UNL A   1      40.007  28.838  28.753  1.00  0.00     0.064 A 
ATOM     76  C   UNL A   1      38.986  29.270  27.873  1.00  0.00     0.173 A 
ATOM     77  C   UNL A   1      39.558  28.538  30.052  1.00  0.00     0.173 A 
ATOM     78  F   UNL A   1      39.227  29.501  26.576  1.00  0.00    -0.203 F 
ATOM     79  C   UNL A   1      37.668  29.480  28.287  1.00  0.00     0.198 A 
ATOM     80  C   UNL A   1      38.247  28.783  30.478  1.00  0.00     0.198 A 
ATOM     81  F   UNL A   1      40.344  27.940  30.950  1.00  0.00    -0.203 F 
ATOM     82  F   UNL A   1      36.754  29.906  27.403  1.00  0.00    -0.200 F 
ATOM     83  C   UNL A   1      37.304  29.266  29.597  1.00  0.00     0.200 A 
ATOM     84  F   UNL A   1      37.909  28.538  31.751  1.00  0.00    -0.200 F 
ATOM     85  F   UNL A   1      36.048  29.492  30.003  1.00  0.00    -0.200 F 
ENDBRANCH  61  75
BRANCH  62  86
ATOM     86  C   UNL A   1      49.402  27.561  26.817  1.00  0.00     0.064 A 
ATOM     87  C   UNL A   1      48.870  27.569  25.510  1.00  0.00     0.173 A 
ATOM     88  C   UNL A   1      50.770  27.298  26.958  1.00  0.00     0.173 A 
ATOM     89  F   UNL A   1      47.562  27.808  25.323  1.00  0.00    -0.203 F 
ATOM     90  C   UNL A   1      49.698  27.495  24.393  1.00  0.00     0.198 A 
ATOM     91  C   UNL A   1      51.591  27.193  25.832  1.00  0.00     0.198 A 
ATOM     92  F   UNL A   1      51.336  27.278  28.172  1.00  0.00    -0.203 F 
ATOM     93  F   UNL A   1      49.182  27.668  23.168  1.00  0.00    -0.200 F 
ATOM     94  C   UNL A   1      51.063  27.343  24.556  1.00  0.00     0.200 A 
ATOM     95  F   UNL A   1      52.916  27.061  25.986  1.00  0.00    -0.200 F 
ATOM     96  F   UNL A   1      51.877  27.391  23.492  1.00  0.00    -0.200 F 
ENDBRANCH  62  86
BRANCH  74  97
ATOM     97  C   UNL A   1      44.811  33.193  27.414  1.00  0.00     0.064 A 
ATOM     98  C   UNL A   1      44.087  33.473  26.245  1.00  0.00     0.173 A 
ATOM     99  C   UNL A   1      44.952  34.298  28.300  1.00  0.00     0.173 A 
ATOM    100  F   UNL A   1      43.766  32.514  25.370  1.00  0.00    -0.203 F 
ATOM    101  C   UNL A   1      43.600  34.753  25.957  1.00  0.00     0.198 A 
ATOM    102  C   UNL A   1      44.404  35.554  28.042  1.00  0.00     0.198 A 
ATOM    103  F   UNL A   1      45.601  34.197  29.469  1.00  0.00    -0.203 F 
ATOM    104  F   UNL A   1      42.955  34.969  24.801  1.00  0.00    -0.200 F 
ATOM    105  C   UNL A   1      43.744  35.788  26.860  1.00  0.00     0.200 A 
ATOM    106  F   UNL A   1      44.505  36.525  28.962  1.00  0.00    -0.200 F 
ATOM    107  F   UNL A   1      43.226  36.996  26.602  1.00  0.00    -0.200 F 
ENDBRANCH  74  97
ENDBRANCH  48  49
ENDBRANCH  40  43
ENDBRANCH  38  39
ENDBRANCH  37  38
ENDBRANCH  36  37
ENDBRANCH  35  36
ENDBRANCH   3  35
TORSDOF 17
ENDMDL
MODEL 3
REMARK VINA RESULT:     -13.3      1.861      3.453
REMARK SMILES Cc1ccc(NC(=O)CN2C(=O)S/C(=C\c3cc(Cl)c(OCC(=O)NCCCCNC(=O)c4ccc(-c5c6nc(c(-c7c(F)c(F)c(F)c(F)c7F)c7ccc([nH]7)c(-c7c(F)c(F)c(F)c(F)c7F)c7nc(c(-c8c(F)c(F)c(F)c(F)c8F)c8ccc5[nH]8)C=C7)C=C6)cc4)c(Cl)c3)C2=O)cc1
REMARK SMILES IDX 23 1 24 2 25 3 22 5 21 6 20 7 16 8 17 9 98 10 18 11 96 12
REMARK SMILES IDX 19 13 97 14 15 15 10 16 11 17 99 18 12 19 13 20 14 21 100 22
REMARK SMILES IDX 9 23 7 24 6 25 8 27 5 28 1 29 2 30 3 31 102 32 4 33 101 34
REMARK SMILES IDX 26 35 27 36 28 37 29 38 30 39 31 40 32 42 33 43 34 44 95 45
REMARK SMILES IDX 35 46 94 47 36 48 37 49 38 50 88 51 39 52 93 53 87 54 89 55
REMARK SMILES IDX 40 56 92 57 86 58 85 59 41 61 73 62 53 63 72 64 54 65 57 66
REMARK SMILES IDX 71 67 90 68 55 69 56 70 70 72 91 73 58 74 42 75 43 76 51 77
REMARK SMILES IDX 44 78 45 79 49 80 52 81 46 82 47 83 50 84 48 85 74 86 75 87
REMARK SMILES IDX 83 88 76 89 77 90 81 91 84 92 78 93 79 94 82 95 80 96 59 97
REMARK SMILES IDX 60 98 68 99 61 100 62 101 66 102 69 103 63 104 64 105 67 106
REMARK SMILES IDX 65 107
REMARK H PARENT 25 4 6 26 30 41 89 60 57 71
REMARK Flexibility Score: inf
ROOT
ATOM      1  C   UNL A   1      35.062  34.491  28.881  1.00  0.00     0.257 C 
ATOM      2  O   UNL A   1      36.249  34.257  29.115  1.00  0.00    -0.271 OA
ATOM      3  N   UNL A   1      34.461  35.466  29.622  1.00  0.00    -0.353 N 
ATOM      4  H   UNL A   1      34.992  35.814  30.375  1.00  0.00     0.163 HD
ENDROOT
BRANCH   1   5
ATOM      5  C   UNL A   1      34.281  33.778  27.764  1.00  0.00     0.329 C 
BRANCH   5   6
ATOM      6  O   UNL A   1      33.587  32.587  28.085  1.00  0.00    -0.481 OA
BRANCH   6   7
ATOM      7  C   UNL A   1      33.931  31.359  27.588  1.00  0.00     0.157 A 
ATOM      8  C   UNL A   1      34.261  28.755  26.440  1.00  0.00    -0.021 A 
ATOM      9  C   UNL A   1      33.052  29.423  26.306  1.00  0.00     0.032 A 
ATOM     10  C   UNL A   1      35.275  29.383  27.174  1.00  0.00     0.032 A 
ATOM     11  C   UNL A   1      32.894  30.702  26.875  1.00  0.00     0.085 A 
ATOM     12  C   UNL A   1      35.150  30.685  27.681  1.00  0.00     0.085 A 
ATOM     13  Cl  UNL A   1      31.349  31.466  26.641  1.00  0.00    -0.080 Cl
ATOM     14  Cl  UNL A   1      36.637  31.326  28.275  1.00  0.00    -0.080 Cl
BRANCH   8  15
ATOM     15  C   UNL A   1      34.500  27.401  25.898  1.00  0.00     0.029 C 
ATOM     16  N   UNL A   1      32.313  24.834  24.764  1.00  0.00    -0.259 N 
ATOM     17  C   UNL A   1      31.347  25.507  25.467  1.00  0.00     0.294 C 
ATOM     18  C   UNL A   1      33.607  25.277  24.954  1.00  0.00     0.268 C 
ATOM     19  O   UNL A   1      30.156  25.584  25.221  1.00  0.00    -0.261 OA
ATOM     20  S   UNL A   1      32.090  26.393  26.775  1.00  0.00    -0.022 SA
ATOM     21  C   UNL A   1      33.597  26.404  25.939  1.00  0.00     0.083 C 
ATOM     22  O   UNL A   1      34.592  24.939  24.312  1.00  0.00    -0.268 OA
BRANCH  16  23
ATOM     23  C   UNL A   1      31.940  24.082  23.575  1.00  0.00     0.230 C 
BRANCH  23  24
ATOM     24  C   UNL A   1      32.560  24.638  22.290  1.00  0.00     0.244 C 
ATOM     25  N   UNL A   1      32.629  25.982  22.061  1.00  0.00    -0.325 N 
ATOM     26  H   UNL A   1      33.398  26.263  21.515  1.00  0.00     0.169 HD
ATOM     27  O   UNL A   1      33.037  23.872  21.448  1.00  0.00    -0.273 OA
BRANCH  25  28
ATOM     28  C   UNL A   1      31.794  27.030  22.470  1.00  0.00     0.041 A 
ATOM     29  C   UNL A   1      29.404  30.496  23.419  1.00  0.00     0.044 C 
ATOM     30  C   UNL A   1      30.247  29.297  23.102  1.00  0.00    -0.051 A 
ATOM     31  C   UNL A   1      29.640  28.120  22.653  1.00  0.00     0.005 A 
ATOM     32  C   UNL A   1      31.638  29.332  23.230  1.00  0.00     0.005 A 
ATOM     33  C   UNL A   1      30.408  26.996  22.338  1.00  0.00     0.026 A 
ATOM     34  C   UNL A   1      32.406  28.211  22.902  1.00  0.00     0.026 A 
ENDBRANCH  25  28
ENDBRANCH  23  24
ENDBRANCH  16  23
ENDBRANCH   8  15
ENDBRANCH   6   7
ENDBRANCH   5   6
ENDBRANCH   1   5
BRANCH   3  35
ATOM     35  C   UNL A   1      33.152  36.063  29.456  1.00  0.00     0.116 C 
BRANCH  35  36
ATOM     36  C   UNL A   1      32.515  36.513  30.771  1.00  0.00     0.023 C 
BRANCH  36  37
ATOM     37  C   UNL A   1      33.417  37.305  31.713  1.00  0.00     0.023 C 
BRANCH  37  38
ATOM     38  C   UNL A   1      33.653  36.672  33.075  1.00  0.00     0.116 C 
BRANCH  38  39
ATOM     39  N   UNL A   1      33.191  35.293  33.201  1.00  0.00    -0.352 N 
ATOM     40  C   UNL A   1      33.918  34.115  33.277  1.00  0.00     0.251 C 
ATOM     41  H   UNL A   1      32.213  35.183  33.238  1.00  0.00     0.163 HD
ATOM     42  O   UNL A   1      33.334  33.036  33.288  1.00  0.00    -0.269 OA
BRANCH  40  43
ATOM     43  C   UNL A   1      35.381  34.159  33.526  1.00  0.00     0.039 A 
ATOM     44  C   UNL A   1      36.194  34.707  32.523  1.00  0.00     0.014 A 
ATOM     45  C   UNL A   1      35.947  33.405  34.542  1.00  0.00     0.014 A 
ATOM     46  C   UNL A   1      37.490  34.230  32.364  1.00  0.00     0.010 A 
ATOM     47  C   UNL A   1      37.156  32.805  34.295  1.00  0.00     0.010 A 
ATOM     48  C   UNL A   1      37.892  33.171  33.165  1.00  0.00    -0.014 A 
BRANCH  48  49
ATOM     49  C   UNL A   1      39.049  32.335  32.910  1.00  0.00     0.031 A 
ATOM     50  C   UNL A   1      38.867  31.097  32.136  1.00  0.00     0.074 A 
ATOM     51  C   UNL A   1      40.277  32.831  33.182  1.00  0.00     0.049 A 
ATOM     52  N   UNL A   1      39.743  30.162  32.054  1.00  0.00    -0.248 NA
ATOM     53  C   UNL A   1      37.640  30.794  31.409  1.00  0.00     0.031 C 
ATOM     54  C   UNL A   1      41.557  32.382  32.643  1.00  0.00     0.029 A 
ATOM     55  N   UNL A   1      40.629  33.776  34.160  1.00  0.00    -0.354 N 
ATOM     56  C   UNL A   1      39.348  29.301  31.054  1.00  0.00     0.074 A 
ATOM     57  C   UNL A   1      37.992  29.686  30.752  1.00  0.00     0.031 C 
ATOM     58  C   UNL A   1      42.542  32.793  33.458  1.00  0.00     0.029 A 
ATOM     59  C   UNL A   1      41.905  33.374  34.624  1.00  0.00     0.049 A 
ATOM     60  H   UNL A   1      40.101  34.552  34.459  1.00  0.00     0.167 HD
ATOM     61  C   UNL A   1      40.285  28.466  30.520  1.00  0.00     0.037 A 
ATOM     62  C   UNL A   1      42.087  32.937  35.905  1.00  0.00     0.037 A 
ATOM     63  C   UNL A   1      41.547  28.599  31.250  1.00  0.00     0.049 A 
ATOM     64  C   UNL A   1      42.613  31.523  35.982  1.00  0.00     0.074 A 
ATOM     65  C   UNL A   1      42.710  29.308  30.990  1.00  0.00     0.029 A 
ATOM     66  N   UNL A   1      41.602  28.226  32.588  1.00  0.00    -0.354 N 
ATOM     67  N   UNL A   1      42.444  30.635  35.042  1.00  0.00    -0.248 NA
ATOM     68  C   UNL A   1      43.386  31.007  37.105  1.00  0.00     0.031 C 
ATOM     69  C   UNL A   1      43.458  29.376  32.192  1.00  0.00     0.029 A 
ATOM     70  C   UNL A   1      42.760  28.694  33.173  1.00  0.00     0.049 A 
ATOM     71  H   UNL A   1      40.911  27.701  33.052  1.00  0.00     0.167 HD
ATOM     72  C   UNL A   1      43.078  29.467  35.390  1.00  0.00     0.074 A 
ATOM     73  C   UNL A   1      43.653  29.755  36.691  1.00  0.00     0.031 C 
ATOM     74  C   UNL A   1      43.076  28.379  34.560  1.00  0.00     0.037 A 
BRANCH  61  75
ATOM     75  C   UNL A   1      40.179  27.736  29.196  1.00  0.00     0.064 A 
ATOM     76  C   UNL A   1      39.445  26.529  29.106  1.00  0.00     0.173 A 
ATOM     77  C   UNL A   1      40.804  28.119  27.995  1.00  0.00     0.173 A 
ATOM     78  F   UNL A   1      38.711  26.075  30.130  1.00  0.00    -0.203 F 
ATOM     79  C   UNL A   1      39.430  25.734  27.956  1.00  0.00     0.198 A 
ATOM     80  C   UNL A   1      40.820  27.308  26.855  1.00  0.00     0.198 A 
ATOM     81  F   UNL A   1      41.374  29.318  27.847  1.00  0.00    -0.203 F 
ATOM     82  F   UNL A   1      38.726  24.593  27.947  1.00  0.00    -0.200 F 
ATOM     83  C   UNL A   1      40.142  26.108  26.839  1.00  0.00     0.200 A 
ATOM     84  F   UNL A   1      41.496  27.707  25.768  1.00  0.00    -0.200 F 
ATOM     85  F   UNL A   1      40.151  25.336  25.745  1.00  0.00    -0.200 F 
ENDBRANCH  61  75
BRANCH  62  86
ATOM     86  C   UNL A   1      41.132  33.569  36.857  1.00  0.00     0.064 A 
ATOM     87  C   UNL A   1      39.988  32.824  37.213  1.00  0.00     0.173 A 
ATOM     88  C   UNL A   1      41.542  34.584  37.731  1.00  0.00     0.173 A 
ATOM     89  F   UNL A   1      39.549  31.846  36.403  1.00  0.00    -0.203 F 
ATOM     90  C   UNL A   1      39.393  32.967  38.464  1.00  0.00     0.198 A 
ATOM     91  C   UNL A   1      40.920  34.743  38.973  1.00  0.00     0.198 A 
ATOM     92  F   UNL A   1      42.622  35.326  37.451  1.00  0.00    -0.203 F 
ATOM     93  F   UNL A   1      38.411  32.133  38.835  1.00  0.00    -0.200 F 
ATOM     94  C   UNL A   1      39.884  33.903  39.357  1.00  0.00     0.200 A 
ATOM     95  F   UNL A   1      41.402  35.638  39.847  1.00  0.00    -0.200 F 
ATOM     96  F   UNL A   1      39.394  33.963  40.603  1.00  0.00    -0.200 F 
ENDBRANCH  62  86
BRANCH  74  97
ATOM     97  C   UNL A   1      43.458  26.945  34.893  1.00  0.00     0.064 A 
ATOM     98  C   UNL A   1      44.759  26.509  35.180  1.00  0.00     0.173 A 
ATOM     99  C   UNL A   1      42.449  25.958  35.079  1.00  0.00     0.173 A 
ATOM    100  F   UNL A   1      45.802  27.347  35.169  1.00  0.00    -0.203 F 
ATOM    101  C   UNL A   1      45.038  25.191  35.563  1.00  0.00     0.198 A 
ATOM    102  C   UNL A   1      42.723  24.667  35.529  1.00  0.00     0.198 A 
ATOM    103  F   UNL A   1      41.151  26.216  34.865  1.00  0.00    -0.203 F 
ATOM    104  F   UNL A   1      46.309  24.821  35.780  1.00  0.00    -0.200 F 
ATOM    105  C   UNL A   1      44.021  24.276  35.752  1.00  0.00     0.200 A 
ATOM    106  F   UNL A   1      41.712  23.817  35.764  1.00  0.00    -0.200 F 
ATOM    107  F   UNL A   1      44.290  23.033  36.173  1.00  0.00    -0.200 F 
ENDBRANCH  74  97
ENDBRANCH  48  49
ENDBRANCH  40  43
ENDBRANCH  38  39
ENDBRANCH  37  38
ENDBRANCH  36  37
ENDBRANCH  35  36
ENDBRANCH   3  35
TORSDOF 17
ENDMDL
