MODEL 1
REMARK VINA RESULT:     -13.4      0.000      0.000
REMARK SMILES O=C(NCCCCNC(=O)c1ccnc(-n2cnnn2)c1)c1ccc(-c2c3nc(c(-c4c(F)c(F)c(F)c(F)c4F)c4ccc([nH]4)c(-c4c(F)c(F)c(F)c(F)c4F)c4nc(c(-c5c(F)c(F)c(F)c(F)c5F)c5ccc2[nH]5)C=C4)C=C3)cc1
REMARK SMILES IDX 5 1 4 2 3 3 1 4 2 5 22 7 23 8 84 9 24 10 83 11 25 12 26 13
REMARK SMILES IDX 27 14 77 15 28 16 82 17 76 18 78 19 29 20 81 21 75 22 74 23
REMARK SMILES IDX 30 25 62 26 42 27 61 28 43 29 46 30 60 31 79 32 44 33 45 34
REMARK SMILES IDX 59 36 80 37 47 38 31 39 32 40 40 41 33 42 34 43 38 44 41 45
REMARK SMILES IDX 35 46 36 47 39 48 37 49 63 50 64 51 72 52 65 53 66 54 70 55
REMARK SMILES IDX 73 56 67 57 68 58 71 59 69 60 48 61 49 62 57 63 50 64 51 65
REMARK SMILES IDX 55 66 58 67 52 68 53 69 56 70 54 71 6 72 7 73 8 74 9 75
REMARK SMILES IDX 10 77 11 78 12 79 21 80 13 81 15 82 14 83 16 84 17 85 20 86
REMARK SMILES IDX 18 87 19 88
REMARK H PARENT 3 6 78 24 46 35 8 76
REMARK Flexibility Score: inf
ROOT
ATOM      1  C   UNL A   1      32.387  28.930  27.234  1.00  0.00     0.023 C 
ENDROOT
BRANCH   1   2
ATOM      2  C   UNL A   1      33.425  30.005  26.905  1.00  0.00     0.116 C 
BRANCH   2   3
ATOM      3  N   UNL A   1      33.622  30.987  27.949  1.00  0.00    -0.352 N 
ATOM      4  O   UNL A   1      34.520  32.472  29.313  1.00  0.00    -0.269 OA
ATOM      5  C   UNL A   1      34.716  31.489  28.594  1.00  0.00     0.251 C 
ATOM      6  H   UNL A   1      32.777  31.381  28.266  1.00  0.00     0.163 HD
BRANCH   5   7
ATOM      7  C   UNL A   1      36.074  30.887  28.561  1.00  0.00     0.039 A 
ATOM      8  C   UNL A   1      36.370  29.557  28.253  1.00  0.00     0.014 A 
ATOM      9  C   UNL A   1      37.121  31.737  28.960  1.00  0.00     0.014 A 
ATOM     10  C   UNL A   1      37.643  29.049  28.480  1.00  0.00     0.010 A 
ATOM     11  C   UNL A   1      38.399  31.244  29.166  1.00  0.00     0.010 A 
ATOM     12  C   UNL A   1      38.637  29.885  28.983  1.00  0.00    -0.014 A 
BRANCH  12  13
ATOM     13  C   UNL A   1      39.959  29.322  29.219  1.00  0.00     0.031 A 
ATOM     14  C   UNL A   1      40.316  29.143  30.657  1.00  0.00     0.074 A 
ATOM     15  C   UNL A   1      40.715  28.861  28.202  1.00  0.00     0.049 A 
ATOM     16  N   UNL A   1      41.354  29.578  31.296  1.00  0.00    -0.248 NA
ATOM     17  C   UNL A   1      39.328  28.465  31.517  1.00  0.00     0.031 C 
ATOM     18  C   UNL A   1      40.347  28.736  26.788  1.00  0.00     0.029 A 
ATOM     19  N   UNL A   1      41.951  28.295  28.241  1.00  0.00    -0.354 N 
ATOM     20  C   UNL A   1      41.235  29.088  32.598  1.00  0.00     0.074 A 
ATOM     21  C   UNL A   1      39.914  28.531  32.712  1.00  0.00     0.031 C 
ATOM     22  C   UNL A   1      41.231  27.925  26.167  1.00  0.00     0.029 A 
ATOM     23  C   UNL A   1      42.287  27.579  27.101  1.00  0.00     0.049 A 
ATOM     24  H   UNL A   1      42.556  28.386  29.013  1.00  0.00     0.167 HD
ATOM     25  C   UNL A   1      42.312  28.975  33.424  1.00  0.00     0.037 A 
ATOM     26  C   UNL A   1      43.310  26.696  26.978  1.00  0.00     0.037 A 
ATOM     27  C   UNL A   1      43.384  29.841  33.018  1.00  0.00     0.049 A 
ATOM     28  C   UNL A   1      44.261  26.960  28.087  1.00  0.00     0.074 A 
ATOM     29  C   UNL A   1      43.539  31.208  32.900  1.00  0.00     0.029 A 
ATOM     30  N   UNL A   1      44.437  29.296  32.328  1.00  0.00    -0.354 N 
ATOM     31  N   UNL A   1      44.976  28.047  28.186  1.00  0.00    -0.248 NA
ATOM     32  C   UNL A   1      44.066  26.224  29.328  1.00  0.00     0.031 C 
ATOM     33  C   UNL A   1      44.354  31.389  31.744  1.00  0.00     0.029 A 
ATOM     34  C   UNL A   1      44.685  30.122  31.263  1.00  0.00     0.049 A 
ATOM     35  H   UNL A   1      44.922  28.469  32.554  1.00  0.00     0.167 HD
ATOM     36  C   UNL A   1      44.963  28.357  29.538  1.00  0.00     0.074 A 
ATOM     37  C   UNL A   1      44.444  27.162  30.200  1.00  0.00     0.031 C 
ATOM     38  C   UNL A   1      45.102  29.645  29.969  1.00  0.00     0.037 A 
BRANCH  25  39
ATOM     39  C   UNL A   1      42.526  27.819  34.373  1.00  0.00     0.064 A 
ATOM     40  C   UNL A   1      43.085  26.621  33.885  1.00  0.00     0.173 A 
ATOM     41  C   UNL A   1      41.917  27.732  35.644  1.00  0.00     0.173 A 
ATOM     42  F   UNL A   1      43.678  26.582  32.683  1.00  0.00    -0.203 F 
ATOM     43  C   UNL A   1      42.956  25.412  34.575  1.00  0.00     0.198 A 
ATOM     44  C   UNL A   1      41.837  26.535  36.353  1.00  0.00     0.198 A 
ATOM     45  F   UNL A   1      41.274  28.765  36.200  1.00  0.00    -0.203 F 
ATOM     46  F   UNL A   1      43.383  24.274  34.010  1.00  0.00    -0.200 F 
ATOM     47  C   UNL A   1      42.323  25.369  35.804  1.00  0.00     0.200 A 
ATOM     48  F   UNL A   1      41.205  26.512  37.535  1.00  0.00    -0.200 F 
ATOM     49  F   UNL A   1      42.136  24.202  36.434  1.00  0.00    -0.200 F 
ENDBRANCH  25  39
BRANCH  26  50
ATOM     50  C   UNL A   1      43.308  25.423  26.215  1.00  0.00     0.064 A 
ATOM     51  C   UNL A   1      44.319  25.126  25.286  1.00  0.00     0.173 A 
ATOM     52  C   UNL A   1      42.459  24.357  26.576  1.00  0.00     0.173 A 
ATOM     53  F   UNL A   1      45.205  26.067  24.931  1.00  0.00    -0.203 F 
ATOM     54  C   UNL A   1      44.473  23.838  24.758  1.00  0.00     0.198 A 
ATOM     55  C   UNL A   1      42.610  23.077  26.043  1.00  0.00     0.198 A 
ATOM     56  F   UNL A   1      41.526  24.513  27.525  1.00  0.00    -0.203 F 
ATOM     57  F   UNL A   1      45.482  23.577  23.915  1.00  0.00    -0.200 F 
ATOM     58  C   UNL A   1      43.623  22.815  25.142  1.00  0.00     0.200 A 
ATOM     59  F   UNL A   1      41.804  22.089  26.456  1.00  0.00    -0.200 F 
ATOM     60  F   UNL A   1      43.804  21.569  24.680  1.00  0.00    -0.200 F 
ENDBRANCH  26  50
BRANCH  38  61
ATOM     61  C   UNL A   1      45.474  30.684  28.949  1.00  0.00     0.064 A 
ATOM     62  C   UNL A   1      44.533  31.375  28.165  1.00  0.00     0.173 A 
ATOM     63  C   UNL A   1      46.807  31.100  28.869  1.00  0.00     0.173 A 
ATOM     64  F   UNL A   1      43.224  31.111  28.267  1.00  0.00    -0.203 F 
ATOM     65  C   UNL A   1      44.918  32.403  27.307  1.00  0.00     0.198 A 
ATOM     66  C   UNL A   1      47.186  32.151  28.038  1.00  0.00     0.198 A 
ATOM     67  F   UNL A   1      47.739  30.521  29.642  1.00  0.00    -0.203 F 
ATOM     68  F   UNL A   1      44.000  33.041  26.566  1.00  0.00    -0.200 F 
ATOM     69  C   UNL A   1      46.244  32.794  27.249  1.00  0.00     0.200 A 
ATOM     70  F   UNL A   1      48.461  32.563  28.025  1.00  0.00    -0.200 F 
ATOM     71  F   UNL A   1      46.611  33.813  26.458  1.00  0.00    -0.200 F 
ENDBRANCH  38  61
ENDBRANCH  12  13
ENDBRANCH   5   7
ENDBRANCH   2   3
ENDBRANCH   1   2
BRANCH   1  72
ATOM     72  C   UNL A   1      31.678  28.317  26.022  1.00  0.00     0.023 C 
BRANCH  72  73
ATOM     73  C   UNL A   1      31.964  28.995  24.686  1.00  0.00     0.116 C 
BRANCH  73  74
ATOM     74  N   UNL A   1      32.030  28.036  23.597  1.00  0.00    -0.352 N 
ATOM     75  C   UNL A   1      31.026  27.579  22.798  1.00  0.00     0.251 C 
ATOM     76  H   UNL A   1      32.923  27.667  23.410  1.00  0.00     0.163 HD
ATOM     77  O   UNL A   1      31.213  26.609  22.054  1.00  0.00    -0.269 OA
BRANCH  75  78
ATOM     78  C   UNL A   1      29.700  28.220  22.810  1.00  0.00     0.045 A 
ATOM     79  C   UNL A   1      28.594  27.567  23.349  1.00  0.00     0.034 A 
ATOM     80  C   UNL A   1      29.602  29.539  22.365  1.00  0.00     0.063 A 
ATOM     81  C   UNL A   1      27.409  28.269  23.413  1.00  0.00     0.114 A 
ATOM     82  C   UNL A   1      28.374  30.174  22.494  1.00  0.00     0.157 A 
ATOM     83  N   UNL A   1      27.283  29.553  23.017  1.00  0.00    -0.237 NA
BRANCH  82  84
ATOM     84  N   UNL A   1      28.251  31.530  22.101  1.00  0.00    -0.182 N 
ATOM     85  C   UNL A   1      28.479  32.665  22.836  1.00  0.00     0.254 A 
ATOM     86  N   UNL A   1      27.855  31.904  20.865  1.00  0.00    -0.039 NA
ATOM     87  N   UNL A   1      28.155  33.717  22.122  1.00  0.00    -0.117 NA
ATOM     88  N   UNL A   1      27.749  33.226  20.906  1.00  0.00    -0.024 NA
ENDBRANCH  82  84
ENDBRANCH  75  78
ENDBRANCH  73  74
ENDBRANCH  72  73
ENDBRANCH   1  72
TORSDOF 12
ENDMDL
MODEL 2
REMARK VINA RESULT:     -13.4      5.155      9.780
REMARK SMILES O=C(NCCCCNC(=O)c1ccnc(-n2cnnn2)c1)c1ccc(-c2c3nc(c(-c4c(F)c(F)c(F)c(F)c4F)c4ccc([nH]4)c(-c4c(F)c(F)c(F)c(F)c4F)c4nc(c(-c5c(F)c(F)c(F)c(F)c5F)c5ccc2[nH]5)C=C4)C=C3)cc1
REMARK SMILES IDX 5 1 4 2 3 3 1 4 2 5 22 7 23 8 84 9 24 10 83 11 25 12 26 13
REMARK SMILES IDX 27 14 77 15 28 16 82 17 76 18 78 19 29 20 81 21 75 22 74 23
REMARK SMILES IDX 30 25 62 26 42 27 61 28 43 29 46 30 60 31 79 32 44 33 45 34
REMARK SMILES IDX 59 36 80 37 47 38 31 39 32 40 40 41 33 42 34 43 38 44 41 45
REMARK SMILES IDX 35 46 36 47 39 48 37 49 63 50 64 51 72 52 65 53 66 54 70 55
REMARK SMILES IDX 73 56 67 57 68 58 71 59 69 60 48 61 49 62 57 63 50 64 51 65
REMARK SMILES IDX 55 66 58 67 52 68 53 69 56 70 54 71 6 72 7 73 8 74 9 75
REMARK SMILES IDX 10 77 11 78 12 79 21 80 13 81 15 82 14 83 16 84 17 85 20 86
REMARK SMILES IDX 18 87 19 88
REMARK H PARENT 3 6 78 24 46 35 8 76
REMARK Flexibility Score: inf
ROOT
ATOM      1  C   UNL A   1      36.976  22.918  24.246  1.00  0.00     0.023 C 
ENDROOT
BRANCH   1   2
ATOM      2  C   UNL A   1      37.325  22.119  25.504  1.00  0.00     0.116 C 
BRANCH   2   3
ATOM      3  N   UNL A   1      38.693  21.652  25.557  1.00  0.00    -0.352 N 
ATOM      4  O   UNL A   1      40.771  21.263  26.190  1.00  0.00    -0.269 OA
ATOM      5  C   UNL A   1      39.801  22.021  26.264  1.00  0.00     0.251 C 
ATOM      6  H   UNL A   1      38.864  20.901  24.944  1.00  0.00     0.163 HD
BRANCH   5   7
ATOM      7  C   UNL A   1      39.943  23.291  27.023  1.00  0.00     0.039 A 
ATOM      8  C   UNL A   1      39.131  24.419  26.885  1.00  0.00     0.014 A 
ATOM      9  C   UNL A   1      41.052  23.359  27.886  1.00  0.00     0.014 A 
ATOM     10  C   UNL A   1      39.496  25.624  27.471  1.00  0.00     0.010 A 
ATOM     11  C   UNL A   1      41.409  24.551  28.494  1.00  0.00     0.010 A 
ATOM     12  C   UNL A   1      40.661  25.694  28.231  1.00  0.00    -0.014 A 
BRANCH  12  13
ATOM     13  C   UNL A   1      41.022  26.973  28.826  1.00  0.00     0.031 A 
ATOM     14  C   UNL A   1      42.280  27.578  28.296  1.00  0.00     0.074 A 
ATOM     15  C   UNL A   1      40.188  27.614  29.669  1.00  0.00     0.049 A 
ATOM     16  N   UNL A   1      43.324  27.979  28.947  1.00  0.00    -0.248 NA
ATOM     17  C   UNL A   1      42.426  27.654  26.831  1.00  0.00     0.031 C 
ATOM     18  C   UNL A   1      38.818  27.243  30.038  1.00  0.00     0.029 A 
ATOM     19  N   UNL A   1      40.354  28.809  30.297  1.00  0.00    -0.354 N 
ATOM     20  C   UNL A   1      44.190  28.513  27.990  1.00  0.00     0.074 A 
ATOM     21  C   UNL A   1      43.650  28.164  26.703  1.00  0.00     0.031 C 
ATOM     22  C   UNL A   1      38.209  28.302  30.618  1.00  0.00     0.029 A 
ATOM     23  C   UNL A   1      39.178  29.372  30.774  1.00  0.00     0.049 A 
ATOM     24  H   UNL A   1      41.234  29.239  30.403  1.00  0.00     0.167 HD
ATOM     25  C   UNL A   1      45.172  29.396  28.323  1.00  0.00     0.037 A 
ATOM     26  C   UNL A   1      39.007  30.656  31.176  1.00  0.00     0.037 A 
ATOM     27  C   UNL A   1      45.518  29.303  29.714  1.00  0.00     0.049 A 
ATOM     28  C   UNL A   1      40.353  31.220  31.452  1.00  0.00     0.074 A 
ATOM     29  C   UNL A   1      46.047  28.315  30.520  1.00  0.00     0.029 A 
ATOM     30  N   UNL A   1      45.017  30.245  30.575  1.00  0.00    -0.354 N 
ATOM     31  N   UNL A   1      41.116  30.825  32.434  1.00  0.00    -0.248 NA
ATOM     32  C   UNL A   1      41.038  31.887  30.355  1.00  0.00     0.031 C 
ATOM     33  C   UNL A   1      45.385  28.469  31.774  1.00  0.00     0.029 A 
ATOM     34  C   UNL A   1      44.536  29.570  31.667  1.00  0.00     0.049 A 
ATOM     35  H   UNL A   1      45.004  31.220  30.437  1.00  0.00     0.167 HD
ATOM     36  C   UNL A   1      42.397  30.810  31.901  1.00  0.00     0.074 A 
ATOM     37  C   UNL A   1      42.296  31.538  30.638  1.00  0.00     0.031 C 
ATOM     38  C   UNL A   1      43.355  29.969  32.389  1.00  0.00     0.037 A 
BRANCH  25  39
ATOM     39  C   UNL A   1      45.553  30.587  27.475  1.00  0.00     0.064 A 
ATOM     40  C   UNL A   1      46.912  30.822  27.185  1.00  0.00     0.173 A 
ATOM     41  C   UNL A   1      44.681  31.667  27.213  1.00  0.00     0.173 A 
ATOM     42  F   UNL A   1      47.832  29.871  27.406  1.00  0.00    -0.203 F 
ATOM     43  C   UNL A   1      47.371  32.071  26.759  1.00  0.00     0.198 A 
ATOM     44  C   UNL A   1      45.136  32.896  26.738  1.00  0.00     0.198 A 
ATOM     45  F   UNL A   1      43.378  31.622  27.514  1.00  0.00    -0.203 F 
ATOM     46  F   UNL A   1      48.686  32.287  26.627  1.00  0.00    -0.200 F 
ATOM     47  C   UNL A   1      46.483  33.110  26.546  1.00  0.00     0.200 A 
ATOM     48  F   UNL A   1      44.261  33.894  26.553  1.00  0.00    -0.200 F 
ATOM     49  F   UNL A   1      46.926  34.327  26.206  1.00  0.00    -0.200 F 
ENDBRANCH  25  39
BRANCH  26  50
ATOM     50  C   UNL A   1      37.814  31.511  30.960  1.00  0.00     0.064 A 
ATOM     51  C   UNL A   1      37.382  31.854  29.669  1.00  0.00     0.173 A 
ATOM     52  C   UNL A   1      36.918  31.792  32.013  1.00  0.00     0.173 A 
ATOM     53  F   UNL A   1      38.147  31.570  28.606  1.00  0.00    -0.203 F 
ATOM     54  C   UNL A   1      36.127  32.433  29.445  1.00  0.00     0.198 A 
ATOM     55  C   UNL A   1      35.671  32.377  31.789  1.00  0.00     0.198 A 
ATOM     56  F   UNL A   1      37.194  31.417  33.269  1.00  0.00    -0.203 F 
ATOM     57  F   UNL A   1      35.725  32.697  28.194  1.00  0.00    -0.200 F 
ATOM     58  C   UNL A   1      35.271  32.688  30.504  1.00  0.00     0.200 A 
ATOM     59  F   UNL A   1      34.839  32.579  32.820  1.00  0.00    -0.200 F 
ATOM     60  F   UNL A   1      34.048  33.191  30.285  1.00  0.00    -0.200 F 
ENDBRANCH  26  50
BRANCH  38  61
ATOM     61  C   UNL A   1      43.041  29.212  33.648  1.00  0.00     0.064 A 
ATOM     62  C   UNL A   1      42.355  27.984  33.666  1.00  0.00     0.173 A 
ATOM     63  C   UNL A   1      43.580  29.664  34.858  1.00  0.00     0.173 A 
ATOM     64  F   UNL A   1      41.906  27.430  32.533  1.00  0.00    -0.203 F 
ATOM     65  C   UNL A   1      42.177  27.269  34.848  1.00  0.00     0.198 A 
ATOM     66  C   UNL A   1      43.433  28.931  36.032  1.00  0.00     0.198 A 
ATOM     67  F   UNL A   1      44.300  30.796  34.889  1.00  0.00    -0.203 F 
ATOM     68  F   UNL A   1      41.513  26.104  34.837  1.00  0.00    -0.200 F 
ATOM     69  C   UNL A   1      42.723  27.741  36.029  1.00  0.00     0.200 A 
ATOM     70  F   UNL A   1      44.009  29.363  37.162  1.00  0.00    -0.200 F 
ATOM     71  F   UNL A   1      42.593  27.032  37.160  1.00  0.00    -0.200 F 
ENDBRANCH  38  61
ENDBRANCH  12  13
ENDBRANCH   5   7
ENDBRANCH   2   3
ENDBRANCH   1   2
BRANCH   1  72
ATOM     72  C   UNL A   1      35.502  23.312  24.114  1.00  0.00     0.023 C 
BRANCH  72  73
ATOM     73  C   UNL A   1      34.545  22.167  23.803  1.00  0.00     0.116 C 
BRANCH  73  74
ATOM     74  N   UNL A   1      33.415  22.143  24.714  1.00  0.00    -0.352 N 
ATOM     75  C   UNL A   1      32.398  21.239  24.794  1.00  0.00     0.251 C 
ATOM     76  H   UNL A   1      33.379  22.881  25.365  1.00  0.00     0.163 HD
ATOM     77  O   UNL A   1      31.404  21.478  25.490  1.00  0.00    -0.269 OA
BRANCH  75  78
ATOM     78  C   UNL A   1      32.456  19.971  24.049  1.00  0.00     0.045 A 
ATOM     79  C   UNL A   1      32.103  19.915  22.703  1.00  0.00     0.034 A 
ATOM     80  C   UNL A   1      32.974  18.849  24.697  1.00  0.00     0.063 A 
ATOM     81  C   UNL A   1      32.276  18.713  22.049  1.00  0.00     0.114 A 
ATOM     82  C   UNL A   1      33.137  17.690  23.950  1.00  0.00     0.157 A 
ATOM     83  N   UNL A   1      32.798  17.616  22.636  1.00  0.00    -0.237 NA
BRANCH  82  84
ATOM     84  N   UNL A   1      33.709  16.547  24.562  1.00  0.00    -0.182 N 
ATOM     85  C   UNL A   1      35.023  16.298  24.868  1.00  0.00     0.254 A 
ATOM     86  N   UNL A   1      32.980  15.474  24.942  1.00  0.00    -0.039 NA
ATOM     87  N   UNL A   1      35.135  15.080  25.341  1.00  0.00    -0.117 NA
ATOM     88  N   UNL A   1      33.859  14.573  25.362  1.00  0.00    -0.024 NA
ENDBRANCH  82  84
ENDBRANCH  75  78
ENDBRANCH  73  74
ENDBRANCH  72  73
ENDBRANCH   1  72
TORSDOF 12
ENDMDL
MODEL 3
REMARK VINA RESULT:     -13.3      5.925     11.357
REMARK SMILES O=C(NCCCCNC(=O)c1ccnc(-n2cnnn2)c1)c1ccc(-c2c3nc(c(-c4c(F)c(F)c(F)c(F)c4F)c4ccc([nH]4)c(-c4c(F)c(F)c(F)c(F)c4F)c4nc(c(-c5c(F)c(F)c(F)c(F)c5F)c5ccc2[nH]5)C=C4)C=C3)cc1
REMARK SMILES IDX 5 1 4 2 3 3 1 4 2 5 22 7 23 8 84 9 24 10 83 11 25 12 26 13
REMARK SMILES IDX 27 14 77 15 28 16 82 17 76 18 78 19 29 20 81 21 75 22 74 23
REMARK SMILES IDX 30 25 62 26 42 27 61 28 43 29 46 30 60 31 79 32 44 33 45 34
REMARK SMILES IDX 59 36 80 37 47 38 31 39 32 40 40 41 33 42 34 43 38 44 41 45
REMARK SMILES IDX 35 46 36 47 39 48 37 49 63 50 64 51 72 52 65 53 66 54 70 55
REMARK SMILES IDX 73 56 67 57 68 58 71 59 69 60 48 61 49 62 57 63 50 64 51 65
REMARK SMILES IDX 55 66 58 67 52 68 53 69 56 70 54 71 6 72 7 73 8 74 9 75
REMARK SMILES IDX 10 77 11 78 12 79 21 80 13 81 15 82 14 83 16 84 17 85 20 86
REMARK SMILES IDX 18 87 19 88
REMARK H PARENT 3 6 78 24 46 35 8 76
REMARK Flexibility Score: inf
ROOT
ATOM      1  C   UNL A   1      42.189  19.513  27.238  1.00  0.00     0.023 C 
ENDROOT
BRANCH   1   2
ATOM      2  C   UNL A   1      41.813  20.686  26.329  1.00  0.00     0.116 C 
BRANCH   2   3
ATOM      3  N   UNL A   1      40.404  21.014  26.327  1.00  0.00    -0.352 N 
ATOM      4  O   UNL A   1      38.488  22.103  26.221  1.00  0.00    -0.269 OA
ATOM      5  C   UNL A   1      39.694  22.171  26.471  1.00  0.00     0.251 C 
ATOM      6  H   UNL A   1      39.830  20.226  26.193  1.00  0.00     0.163 HD
BRANCH   5   7
ATOM      7  C   UNL A   1      40.246  23.451  26.985  1.00  0.00     0.039 A 
ATOM      8  C   UNL A   1      41.273  23.579  27.923  1.00  0.00     0.014 A 
ATOM      9  C   UNL A   1      39.599  24.615  26.528  1.00  0.00     0.014 A 
ATOM     10  C   UNL A   1      41.547  24.812  28.502  1.00  0.00     0.010 A 
ATOM     11  C   UNL A   1      39.884  25.851  27.083  1.00  0.00     0.010 A 
ATOM     12  C   UNL A   1      40.815  25.932  28.114  1.00  0.00    -0.014 A 
BRANCH  12  13
ATOM     13  C   UNL A   1      41.120  27.208  28.744  1.00  0.00     0.031 A 
ATOM     14  C   UNL A   1      42.373  27.861  28.263  1.00  0.00     0.074 A 
ATOM     15  C   UNL A   1      40.243  27.806  29.576  1.00  0.00     0.049 A 
ATOM     16  N   UNL A   1      43.386  28.279  28.952  1.00  0.00    -0.248 NA
ATOM     17  C   UNL A   1      42.558  27.972  26.805  1.00  0.00     0.031 C 
ATOM     18  C   UNL A   1      38.875  27.387  29.897  1.00  0.00     0.029 A 
ATOM     19  N   UNL A   1      40.355  28.992  30.232  1.00  0.00    -0.354 N 
ATOM     20  C   UNL A   1      44.262  28.858  28.031  1.00  0.00     0.074 A 
ATOM     21  C   UNL A   1      43.769  28.521  26.723  1.00  0.00     0.031 C 
ATOM     22  C   UNL A   1      38.219  28.415  30.481  1.00  0.00     0.029 A 
ATOM     23  C   UNL A   1      39.150  29.510  30.686  1.00  0.00     0.049 A 
ATOM     24  H   UNL A   1      41.218  29.445  30.372  1.00  0.00     0.167 HD
ATOM     25  C   UNL A   1      45.207  29.762  28.410  1.00  0.00     0.037 A 
ATOM     26  C   UNL A   1      38.929  30.779  31.109  1.00  0.00     0.037 A 
ATOM     27  C   UNL A   1      45.517  29.652  29.808  1.00  0.00     0.049 A 
ATOM     28  C   UNL A   1      40.249  31.377  31.435  1.00  0.00     0.074 A 
ATOM     29  C   UNL A   1      46.052  28.663  30.610  1.00  0.00     0.029 A 
ATOM     30  N   UNL A   1      44.963  30.560  30.674  1.00  0.00    -0.354 N 
ATOM     31  N   UNL A   1      40.995  30.984  32.430  1.00  0.00    -0.248 NA
ATOM     32  C   UNL A   1      40.945  32.087  30.372  1.00  0.00     0.031 C 
ATOM     33  C   UNL A   1      45.351  28.770  31.847  1.00  0.00     0.029 A 
ATOM     34  C   UNL A   1      44.472  29.848  31.737  1.00  0.00     0.049 A 
ATOM     35  H   UNL A   1      44.924  31.537  30.555  1.00  0.00     0.167 HD
ATOM     36  C   UNL A   1      42.291  31.019  31.935  1.00  0.00     0.074 A 
ATOM     37  C   UNL A   1      42.204  31.770  30.684  1.00  0.00     0.031 C 
ATOM     38  C   UNL A   1      43.259  30.197  32.434  1.00  0.00     0.037 A 
BRANCH  25  39
ATOM     39  C   UNL A   1      45.576  30.983  27.598  1.00  0.00     0.064 A 
ATOM     40  C   UNL A   1      46.921  31.186  27.230  1.00  0.00     0.173 A 
ATOM     41  C   UNL A   1      44.729  32.103  27.448  1.00  0.00     0.173 A 
ATOM     42  F   UNL A   1      47.818  30.195  27.343  1.00  0.00    -0.203 F 
ATOM     43  C   UNL A   1      47.397  32.439  26.836  1.00  0.00     0.198 A 
ATOM     44  C   UNL A   1      45.197  33.338  27.004  1.00  0.00     0.198 A 
ATOM     45  F   UNL A   1      43.447  32.086  27.832  1.00  0.00    -0.203 F 
ATOM     46  F   UNL A   1      48.708  32.618  26.627  1.00  0.00    -0.200 F 
ATOM     47  C   UNL A   1      46.536  33.517  26.733  1.00  0.00     0.200 A 
ATOM     48  F   UNL A   1      44.349  34.373  26.927  1.00  0.00    -0.200 F 
ATOM     49  F   UNL A   1      47.000  34.734  26.424  1.00  0.00    -0.200 F 
ENDBRANCH  25  39
BRANCH  26  50
ATOM     50  C   UNL A   1      37.717  31.603  30.876  1.00  0.00     0.064 A 
ATOM     51  C   UNL A   1      37.337  31.998  29.583  1.00  0.00     0.173 A 
ATOM     52  C   UNL A   1      36.760  31.797  31.894  1.00  0.00     0.173 A 
ATOM     53  F   UNL A   1      38.163  31.796  28.547  1.00  0.00    -0.203 F 
ATOM     54  C   UNL A   1      36.073  32.545  29.325  1.00  0.00     0.198 A 
ATOM     55  C   UNL A   1      35.506  32.350  31.637  1.00  0.00     0.198 A 
ATOM     56  F   UNL A   1      36.988  31.367  33.143  1.00  0.00    -0.203 F 
ATOM     57  F   UNL A   1      35.724  32.859  28.070  1.00  0.00    -0.200 F 
ATOM     58  C   UNL A   1      35.158  32.714  30.351  1.00  0.00     0.200 A 
ATOM     59  F   UNL A   1      34.617  32.469  32.633  1.00  0.00    -0.200 F 
ATOM     60  F   UNL A   1      33.929  33.186  30.095  1.00  0.00    -0.200 F 
ENDBRANCH  26  50
BRANCH  38  61
ATOM     61  C   UNL A   1      42.933  29.404  33.667  1.00  0.00     0.064 A 
ATOM     62  C   UNL A   1      42.291  28.153  33.640  1.00  0.00     0.173 A 
ATOM     63  C   UNL A   1      43.417  29.851  34.901  1.00  0.00     0.173 A 
ATOM     64  F   UNL A   1      41.898  27.606  32.483  1.00  0.00    -0.203 F 
ATOM     65  C   UNL A   1      42.101  27.409  34.802  1.00  0.00     0.198 A 
ATOM     66  C   UNL A   1      43.259  29.090  36.057  1.00  0.00     0.198 A 
ATOM     67  F   UNL A   1      44.095  31.007  34.978  1.00  0.00    -0.203 F 
ATOM     68  F   UNL A   1      41.480  26.221  34.747  1.00  0.00    -0.200 F 
ATOM     69  C   UNL A   1      42.592  27.876  36.009  1.00  0.00     0.200 A 
ATOM     70  F   UNL A   1      43.783  29.519  37.213  1.00  0.00    -0.200 F 
ATOM     71  F   UNL A   1      42.452  27.141  37.122  1.00  0.00    -0.200 F 
ENDBRANCH  38  61
ENDBRANCH  12  13
ENDBRANCH   5   7
ENDBRANCH   2   3
ENDBRANCH   1   2
BRANCH   1  72
ATOM     72  C   UNL A   1      43.025  18.416  26.573  1.00  0.00     0.023 C 
BRANCH  72  73
ATOM     73  C   UNL A   1      43.604  18.773  25.208  1.00  0.00     0.116 C 
BRANCH  73  74
ATOM     74  N   UNL A   1      45.056  18.739  25.211  1.00  0.00    -0.352 N 
ATOM     75  C   UNL A   1      45.936  19.767  25.045  1.00  0.00     0.251 C 
ATOM     76  H   UNL A   1      45.460  17.853  25.354  1.00  0.00     0.163 HD
ATOM     77  O   UNL A   1      47.138  19.535  24.868  1.00  0.00    -0.269 OA
BRANCH  75  78
ATOM     78  C   UNL A   1      45.476  21.165  25.061  1.00  0.00     0.045 A 
ATOM     79  C   UNL A   1      44.897  21.741  23.934  1.00  0.00     0.034 A 
ATOM     80  C   UNL A   1      45.538  21.865  26.267  1.00  0.00     0.063 A 
ATOM     81  C   UNL A   1      44.403  23.022  24.056  1.00  0.00     0.114 A 
ATOM     82  C   UNL A   1      44.990  23.140  26.303  1.00  0.00     0.157 A 
ATOM     83  N   UNL A   1      44.422  23.719  25.212  1.00  0.00    -0.237 NA
BRANCH  82  84
ATOM     84  N   UNL A   1      44.989  23.859  27.523  1.00  0.00    -0.182 N 
ATOM     85  C   UNL A   1      45.120  25.209  27.729  1.00  0.00     0.254 A 
ATOM     86  N   UNL A   1      44.861  23.262  28.729  1.00  0.00    -0.039 NA
ATOM     87  N   UNL A   1      45.161  25.449  29.018  1.00  0.00    -0.117 NA
ATOM     88  N   UNL A   1      45.020  24.227  29.626  1.00  0.00    -0.024 NA
ENDBRANCH  82  84
ENDBRANCH  75  78
ENDBRANCH  73  74
ENDBRANCH  72  73
ENDBRANCH   1  72
TORSDOF 12
ENDMDL
