MODEL 1
REMARK VINA RESULT:     -12.7      0.000      0.000
REMARK SMILES CCCCN(c1ccccc1C(=O)NCCCCNC(=O)c1ccc(-c2c3nc(c(-c4c(F)c(F)c(F)c(F)c4F)c4ccc([nH]4)c(-c4c(F)c(F)c(F)c(F)c4F)c4nc(c(-c5c(F)c(F)c(F)c(F)c5F)c5ccc2[nH]5)C=C4)C=C3)cc1)S(=O)(=O)c1ccc2c(c1)oc(=O)n2C
REMARK SMILES IDX 15 1 14 2 12 3 13 4 11 6 6 7 7 8 8 9 10 10 9 11 5 12 4 13
REMARK SMILES IDX 3 14 2 15 1 16 85 17 86 18 87 19 88 20 89 21 93 22 90 23
REMARK SMILES IDX 92 24 91 25 94 26 97 27 95 28 98 29 96 30 16 31 17 32 18 33
REMARK SMILES IDX 19 34 20 35 21 37 22 38 23 39 84 40 24 41 83 42 25 43 26 44
REMARK SMILES IDX 27 45 77 46 28 47 82 48 76 49 78 50 29 51 81 52 75 53 74 54
REMARK SMILES IDX 30 56 62 57 42 58 61 59 43 60 46 61 60 62 79 63 44 64 45 65
REMARK SMILES IDX 59 67 80 68 47 69 31 70 32 71 40 72 33 73 34 74 38 75 41 76
REMARK SMILES IDX 35 77 36 78 39 79 37 80 63 81 64 82 72 83 65 84 66 85 70 86
REMARK SMILES IDX 73 87 67 88 68 89 71 90 69 91 48 92 49 93 57 94 50 95 51 96
REMARK SMILES IDX 55 97 58 98 52 99 53 100 56 101 54 102
REMARK H PARENT 14 5 19 36 78 55 46 66
REMARK Flexibility Score: inf
ROOT
ATOM      1  C   UNL A   1      36.558  22.470  25.723  1.00  0.00     0.116 C 
ENDROOT
BRANCH   1   2
ATOM      2  N   UNL A   1      35.537  22.184  26.651  1.00  0.00    -0.352 N 
ATOM      3  C   UNL A   1      34.300  21.666  26.344  1.00  0.00     0.253 C 
ATOM      4  O   UNL A   1      33.779  21.085  27.308  1.00  0.00    -0.269 OA
ATOM      5  H   UNL A   1      35.725  22.370  27.600  1.00  0.00     0.163 HD
BRANCH   3   6
ATOM      6  C   UNL A   1      33.509  21.727  25.019  1.00  0.00     0.064 A 
ATOM      7  C   UNL A   1      33.110  22.723  24.063  1.00  0.00     0.065 A 
ATOM      8  C   UNL A   1      32.512  22.294  22.845  1.00  0.00     0.028 A 
ATOM      9  C   UNL A   1      32.162  20.970  22.591  1.00  0.00     0.002 A 
ATOM     10  C   UNL A   1      33.115  20.387  24.703  1.00  0.00     0.016 A 
ATOM     11  C   UNL A   1      32.438  20.014  23.541  1.00  0.00     0.001 A 
BRANCH   7  12
ATOM     12  N   UNL A   1      32.960  24.191  24.161  1.00  0.00    -0.266 N 
BRANCH  12  13
ATOM     13  C   UNL A   1      33.986  25.095  23.561  1.00  0.00     0.136 C 
BRANCH  13  14
ATOM     14  C   UNL A   1      33.663  25.828  22.262  1.00  0.00     0.022 C 
BRANCH  14  15
ATOM     15  C   UNL A   1      33.143  27.284  22.282  1.00  0.00    -0.002 C 
ATOM     16  C   UNL A   1      34.037  28.445  22.720  1.00  0.00     0.004 C 
ENDBRANCH  14  15
ENDBRANCH  13  14
ENDBRANCH  12  13
BRANCH  12  17
ATOM     17  S   UNL A   1      32.169  24.662  25.632  1.00  0.00     0.264 S 
ATOM     18  O   UNL A   1      30.780  24.279  25.580  1.00  0.00    -0.201 OA
ATOM     19  O   UNL A   1      32.980  24.269  26.767  1.00  0.00    -0.201 OA
BRANCH  17  20
ATOM     20  C   UNL A   1      32.219  26.439  25.646  1.00  0.00     0.091 A 
ATOM     21  C   UNL A   1      31.126  27.155  25.108  1.00  0.00     0.025 A 
ATOM     22  C   UNL A   1      33.229  27.079  26.376  1.00  0.00     0.071 A 
ATOM     23  C   UNL A   1      31.031  28.536  25.292  1.00  0.00     0.032 A 
ATOM     24  C   UNL A   1      33.094  28.436  26.555  1.00  0.00     0.157 A 
ATOM     25  C   UNL A   1      32.023  29.139  26.036  1.00  0.00     0.090 A 
ATOM     26  O   UNL A   1      33.946  29.229  27.307  1.00  0.00    -0.408 OA
ATOM     27  N   UNL A   1      32.187  30.434  26.462  1.00  0.00    -0.277 N 
ATOM     28  C   UNL A   1      33.322  30.484  27.246  1.00  0.00     0.419 A 
ATOM     29  C   UNL A   1      31.291  31.530  26.240  1.00  0.00     0.157 C 
ATOM     30  O   UNL A   1      33.751  31.471  27.830  1.00  0.00    -0.223 OA
ENDBRANCH  17  20
ENDBRANCH  12  17
ENDBRANCH   7  12
ENDBRANCH   3   6
ENDBRANCH   1   2
BRANCH   1  31
ATOM     31  C   UNL A   1      36.910  21.504  24.612  1.00  0.00     0.023 C 
BRANCH  31  32
ATOM     32  C   UNL A   1      37.785  20.306  24.982  1.00  0.00     0.023 C 
BRANCH  32  33
ATOM     33  C   UNL A   1      39.086  20.532  25.756  1.00  0.00     0.116 C 
BRANCH  33  34
ATOM     34  N   UNL A   1      40.006  19.399  25.837  1.00  0.00    -0.352 N 
ATOM     35  C   UNL A   1      41.358  19.375  26.107  1.00  0.00     0.251 C 
ATOM     36  H   UNL A   1      39.597  18.518  25.676  1.00  0.00     0.163 HD
ATOM     37  O   UNL A   1      41.998  18.337  26.214  1.00  0.00    -0.269 OA
BRANCH  35  38
ATOM     38  C   UNL A   1      42.051  20.640  26.317  1.00  0.00     0.039 A 
ATOM     39  C   UNL A   1      42.324  21.490  25.243  1.00  0.00     0.014 A 
ATOM     40  C   UNL A   1      42.385  20.974  27.626  1.00  0.00     0.014 A 
ATOM     41  C   UNL A   1      42.871  22.740  25.506  1.00  0.00     0.010 A 
ATOM     42  C   UNL A   1      42.795  22.259  27.893  1.00  0.00     0.010 A 
ATOM     43  C   UNL A   1      43.064  23.142  26.837  1.00  0.00    -0.014 A 
BRANCH  43  44
ATOM     44  C   UNL A   1      43.585  24.472  27.201  1.00  0.00     0.031 A 
ATOM     45  C   UNL A   1      42.618  25.499  27.714  1.00  0.00     0.074 A 
ATOM     46  C   UNL A   1      44.861  24.780  26.912  1.00  0.00     0.049 A 
ATOM     47  N   UNL A   1      42.783  26.783  27.878  1.00  0.00    -0.248 NA
ATOM     48  C   UNL A   1      41.255  25.023  28.016  1.00  0.00     0.031 C 
ATOM     49  C   UNL A   1      45.850  23.858  26.349  1.00  0.00     0.029 A 
ATOM     50  N   UNL A   1      45.534  25.966  27.023  1.00  0.00    -0.354 N 
ATOM     51  C   UNL A   1      41.541  27.268  28.265  1.00  0.00     0.074 A 
ATOM     52  C   UNL A   1      40.616  26.160  28.233  1.00  0.00     0.031 C 
ATOM     53  C   UNL A   1      47.012  24.510  26.184  1.00  0.00     0.029 A 
ATOM     54  C   UNL A   1      46.832  25.900  26.581  1.00  0.00     0.049 A 
ATOM     55  H   UNL A   1      45.127  26.785  27.385  1.00  0.00     0.167 HD
ATOM     56  C   UNL A   1      41.217  28.525  28.643  1.00  0.00     0.037 A 
ATOM     57  C   UNL A   1      47.761  26.870  26.497  1.00  0.00     0.037 A 
ATOM     58  C   UNL A   1      42.172  29.598  28.696  1.00  0.00     0.049 A 
ATOM     59  C   UNL A   1      47.382  28.257  26.941  1.00  0.00     0.074 A 
ATOM     60  C   UNL A   1      41.991  30.898  29.129  1.00  0.00     0.029 A 
ATOM     61  N   UNL A   1      43.499  29.486  28.297  1.00  0.00    -0.354 N 
ATOM     62  N   UNL A   1      46.227  28.699  27.378  1.00  0.00    -0.248 NA
ATOM     63  C   UNL A   1      48.436  29.276  26.888  1.00  0.00     0.031 C 
ATOM     64  C   UNL A   1      43.195  31.586  28.944  1.00  0.00     0.029 A 
ATOM     65  C   UNL A   1      44.144  30.700  28.454  1.00  0.00     0.049 A 
ATOM     66  H   UNL A   1      43.918  28.664  27.954  1.00  0.00     0.167 HD
ATOM     67  C   UNL A   1      46.420  30.039  27.683  1.00  0.00     0.074 A 
ATOM     68  C   UNL A   1      47.811  30.330  27.391  1.00  0.00     0.031 C 
ATOM     69  C   UNL A   1      45.533  30.948  28.160  1.00  0.00     0.037 A 
BRANCH  56  70
ATOM     70  C   UNL A   1      39.789  28.790  29.027  1.00  0.00     0.064 A 
ATOM     71  C   UNL A   1      38.859  29.311  28.112  1.00  0.00     0.173 A 
ATOM     72  C   UNL A   1      39.340  28.524  30.329  1.00  0.00     0.173 A 
ATOM     73  F   UNL A   1      39.237  29.600  26.857  1.00  0.00    -0.203 F 
ATOM     74  C   UNL A   1      37.552  29.595  28.495  1.00  0.00     0.198 A 
ATOM     75  C   UNL A   1      38.020  28.772  30.699  1.00  0.00     0.198 A 
ATOM     76  F   UNL A   1      40.181  28.026  31.248  1.00  0.00    -0.203 F 
ATOM     77  F   UNL A   1      36.707  30.160  27.622  1.00  0.00    -0.200 F 
ATOM     78  C   UNL A   1      37.130  29.319  29.787  1.00  0.00     0.200 A 
ATOM     79  F   UNL A   1      37.611  28.491  31.945  1.00  0.00    -0.200 F 
ATOM     80  F   UNL A   1      35.871  29.589  30.155  1.00  0.00    -0.200 F 
ENDBRANCH  56  70
BRANCH  57  81
ATOM     81  C   UNL A   1      49.130  26.547  26.023  1.00  0.00     0.064 A 
ATOM     82  C   UNL A   1      49.516  26.835  24.706  1.00  0.00     0.173 A 
ATOM     83  C   UNL A   1      50.089  25.975  26.871  1.00  0.00     0.173 A 
ATOM     84  F   UNL A   1      48.632  27.374  23.854  1.00  0.00    -0.203 F 
ATOM     85  C   UNL A   1      50.800  26.546  24.249  1.00  0.00     0.198 A 
ATOM     86  C   UNL A   1      51.383  25.712  26.422  1.00  0.00     0.198 A 
ATOM     87  F   UNL A   1      49.778  25.692  28.145  1.00  0.00    -0.203 F 
ATOM     88  F   UNL A   1      51.127  26.796  22.975  1.00  0.00    -0.200 F 
ATOM     89  C   UNL A   1      51.735  25.991  25.110  1.00  0.00     0.200 A 
ATOM     90  F   UNL A   1      52.290  25.195  27.262  1.00  0.00    -0.200 F 
ATOM     91  F   UNL A   1      52.972  25.720  24.673  1.00  0.00    -0.200 F 
ENDBRANCH  57  81
BRANCH  69  92
ATOM     92  C   UNL A   1      46.056  32.328  28.436  1.00  0.00     0.064 A 
ATOM     93  C   UNL A   1      46.622  32.668  29.673  1.00  0.00     0.173 A 
ATOM     94  C   UNL A   1      46.030  33.305  27.430  1.00  0.00     0.173 A 
ATOM     95  F   UNL A   1      46.655  31.771  30.670  1.00  0.00    -0.203 F 
ATOM     96  C   UNL A   1      47.120  33.946  29.901  1.00  0.00     0.198 A 
ATOM     97  C   UNL A   1      46.564  34.571  27.650  1.00  0.00     0.198 A 
ATOM     98  F   UNL A   1      45.507  33.025  26.227  1.00  0.00    -0.203 F 
ATOM     99  F   UNL A   1      47.609  34.267  31.106  1.00  0.00    -0.200 F 
ATOM    100  C   UNL A   1      47.098  34.893  28.887  1.00  0.00     0.200 A 
ATOM    101  F   UNL A   1      46.559  35.478  26.664  1.00  0.00    -0.200 F 
ATOM    102  F   UNL A   1      47.590  36.120  29.105  1.00  0.00    -0.200 F 
ENDBRANCH  69  92
ENDBRANCH  43  44
ENDBRANCH  35  38
ENDBRANCH  33  34
ENDBRANCH  32  33
ENDBRANCH  31  32
ENDBRANCH   1  31
TORSDOF 17
ENDMDL
MODEL 2
REMARK VINA RESULT:     -12.6      1.813      2.921
REMARK SMILES CCCCN(c1ccccc1C(=O)NCCCCNC(=O)c1ccc(-c2c3nc(c(-c4c(F)c(F)c(F)c(F)c4F)c4ccc([nH]4)c(-c4c(F)c(F)c(F)c(F)c4F)c4nc(c(-c5c(F)c(F)c(F)c(F)c5F)c5ccc2[nH]5)C=C4)C=C3)cc1)S(=O)(=O)c1ccc2c(c1)oc(=O)n2C
REMARK SMILES IDX 15 1 14 2 12 3 13 4 11 6 6 7 7 8 8 9 10 10 9 11 5 12 4 13
REMARK SMILES IDX 3 14 2 15 1 16 85 17 86 18 87 19 88 20 89 21 93 22 90 23
REMARK SMILES IDX 92 24 91 25 94 26 97 27 95 28 98 29 96 30 16 31 17 32 18 33
REMARK SMILES IDX 19 34 20 35 21 37 22 38 23 39 84 40 24 41 83 42 25 43 26 44
REMARK SMILES IDX 27 45 77 46 28 47 82 48 76 49 78 50 29 51 81 52 75 53 74 54
REMARK SMILES IDX 30 56 62 57 42 58 61 59 43 60 46 61 60 62 79 63 44 64 45 65
REMARK SMILES IDX 59 67 80 68 47 69 31 70 32 71 40 72 33 73 34 74 38 75 41 76
REMARK SMILES IDX 35 77 36 78 39 79 37 80 63 81 64 82 72 83 65 84 66 85 70 86
REMARK SMILES IDX 73 87 67 88 68 89 71 90 69 91 48 92 49 93 57 94 50 95 51 96
REMARK SMILES IDX 55 97 58 98 52 99 53 100 56 101 54 102
REMARK H PARENT 14 5 19 36 78 55 46 66
REMARK Flexibility Score: inf
ROOT
ATOM      1  C   UNL A   1      38.056  23.687  25.743  1.00  0.00     0.116 C 
ENDROOT
BRANCH   1   2
ATOM      2  N   UNL A   1      37.414  23.255  24.565  1.00  0.00    -0.352 N 
ATOM      3  C   UNL A   1      36.063  23.335  24.316  1.00  0.00     0.253 C 
ATOM      4  O   UNL A   1      35.806  23.337  23.102  1.00  0.00    -0.269 OA
ATOM      5  H   UNL A   1      37.980  22.863  23.861  1.00  0.00     0.163 HD
BRANCH   3   6
ATOM      6  C   UNL A   1      34.883  23.405  25.309  1.00  0.00     0.064 A 
ATOM      7  C   UNL A   1      33.701  24.200  25.505  1.00  0.00     0.065 A 
ATOM      8  C   UNL A   1      32.762  23.789  26.491  1.00  0.00     0.028 A 
ATOM      9  C   UNL A   1      32.993  22.738  27.375  1.00  0.00     0.002 A 
ATOM     10  C   UNL A   1      35.065  22.343  26.253  1.00  0.00     0.016 A 
ATOM     11  C   UNL A   1      34.168  22.029  27.274  1.00  0.00     0.001 A 
BRANCH   7  12
ATOM     12  N   UNL A   1      33.331  25.557  25.048  1.00  0.00    -0.266 N 
BRANCH  12  13
ATOM     13  C   UNL A   1      32.770  26.549  26.014  1.00  0.00     0.136 C 
BRANCH  13  14
ATOM     14  C   UNL A   1      33.654  27.692  26.504  1.00  0.00     0.022 C 
BRANCH  14  15
ATOM     15  C   UNL A   1      33.308  29.161  26.170  1.00  0.00    -0.002 C 
ATOM     16  C   UNL A   1      31.865  29.607  25.931  1.00  0.00     0.004 C 
ENDBRANCH  14  15
ENDBRANCH  13  14
ENDBRANCH  12  13
BRANCH  12  17
ATOM     17  S   UNL A   1      32.764  25.554  23.408  1.00  0.00     0.264 S 
ATOM     18  O   UNL A   1      33.838  25.933  22.524  1.00  0.00    -0.201 OA
ATOM     19  O   UNL A   1      32.020  24.336  23.153  1.00  0.00    -0.201 OA
BRANCH  17  20
ATOM     20  C   UNL A   1      31.544  26.844  23.328  1.00  0.00     0.091 A 
ATOM     21  C   UNL A   1      31.862  28.042  22.650  1.00  0.00     0.025 A 
ATOM     22  C   UNL A   1      30.237  26.563  23.747  1.00  0.00     0.071 A 
ATOM     23  C   UNL A   1      30.868  28.984  22.382  1.00  0.00     0.032 A 
ATOM     24  C   UNL A   1      29.278  27.503  23.449  1.00  0.00     0.157 A 
ATOM     25  C   UNL A   1      29.585  28.673  22.780  1.00  0.00     0.090 A 
ATOM     26  O   UNL A   1      27.924  27.372  23.713  1.00  0.00    -0.408 OA
ATOM     27  N   UNL A   1      28.390  29.326  22.607  1.00  0.00    -0.277 N 
ATOM     28  C   UNL A   1      27.391  28.535  23.141  1.00  0.00     0.419 A 
ATOM     29  C   UNL A   1      28.178  30.555  21.901  1.00  0.00     0.157 C 
ATOM     30  O   UNL A   1      26.192  28.783  23.125  1.00  0.00    -0.223 OA
ENDBRANCH  17  20
ENDBRANCH  12  17
ENDBRANCH   7  12
ENDBRANCH   3   6
ENDBRANCH   1   2
BRANCH   1  31
ATOM     31  C   UNL A   1      39.070  22.818  26.455  1.00  0.00     0.023 C 
BRANCH  31  32
ATOM     32  C   UNL A   1      39.325  21.427  25.875  1.00  0.00     0.023 C 
BRANCH  32  33
ATOM     33  C   UNL A   1      39.827  20.308  26.791  1.00  0.00     0.116 C 
BRANCH  33  34
ATOM     34  N   UNL A   1      40.759  19.348  26.204  1.00  0.00    -0.352 N 
ATOM     35  C   UNL A   1      42.096  19.489  25.894  1.00  0.00     0.251 C 
ATOM     36  H   UNL A   1      40.374  18.466  25.999  1.00  0.00     0.163 HD
ATOM     37  O   UNL A   1      42.780  18.568  25.465  1.00  0.00    -0.269 OA
BRANCH  35  38
ATOM     38  C   UNL A   1      42.735  20.777  26.126  1.00  0.00     0.039 A 
ATOM     39  C   UNL A   1      43.004  21.641  25.062  1.00  0.00     0.014 A 
ATOM     40  C   UNL A   1      43.022  21.118  27.444  1.00  0.00     0.014 A 
ATOM     41  C   UNL A   1      43.497  22.910  25.344  1.00  0.00     0.010 A 
ATOM     42  C   UNL A   1      43.378  22.416  27.726  1.00  0.00     0.010 A 
ATOM     43  C   UNL A   1      43.640  23.313  26.680  1.00  0.00    -0.014 A 
BRANCH  43  44
ATOM     44  C   UNL A   1      44.102  24.660  27.062  1.00  0.00     0.031 A 
ATOM     45  C   UNL A   1      43.085  25.646  27.559  1.00  0.00     0.074 A 
ATOM     46  C   UNL A   1      45.371  25.018  26.802  1.00  0.00     0.049 A 
ATOM     47  N   UNL A   1      43.197  26.934  27.733  1.00  0.00    -0.248 NA
ATOM     48  C   UNL A   1      41.735  25.117  27.829  1.00  0.00     0.031 C 
ATOM     49  C   UNL A   1      46.407  24.139  26.257  1.00  0.00     0.029 A 
ATOM     50  N   UNL A   1      45.996  26.228  26.935  1.00  0.00    -0.354 N 
ATOM     51  C   UNL A   1      41.929  27.369  28.095  1.00  0.00     0.074 A 
ATOM     52  C   UNL A   1      41.048  26.227  28.037  1.00  0.00     0.031 C 
ATOM     53  C   UNL A   1      47.546  24.835  26.121  1.00  0.00     0.029 A 
ATOM     54  C   UNL A   1      47.304  26.215  26.520  1.00  0.00     0.049 A 
ATOM     55  H   UNL A   1      45.549  27.030  27.292  1.00  0.00     0.167 HD
ATOM     56  C   UNL A   1      41.549  28.611  28.473  1.00  0.00     0.037 A 
ATOM     57  C   UNL A   1      48.196  27.220  26.462  1.00  0.00     0.037 A 
ATOM     58  C   UNL A   1      42.461  29.720  28.551  1.00  0.00     0.049 A 
ATOM     59  C   UNL A   1      47.755  28.589  26.904  1.00  0.00     0.074 A 
ATOM     60  C   UNL A   1      42.220  31.008  28.987  1.00  0.00     0.029 A 
ATOM     61  N   UNL A   1      43.799  29.661  28.181  1.00  0.00    -0.354 N 
ATOM     62  N   UNL A   1      46.574  28.985  27.318  1.00  0.00    -0.248 NA
ATOM     63  C   UNL A   1      48.770  29.649  26.879  1.00  0.00     0.031 C 
ATOM     64  C   UNL A   1      43.400  31.743  28.831  1.00  0.00     0.029 A 
ATOM     65  C   UNL A   1      44.394  30.897  28.358  1.00  0.00     0.049 A 
ATOM     66  H   UNL A   1      44.257  28.857  27.843  1.00  0.00     0.167 HD
ATOM     67  C   UNL A   1      46.709  30.329  27.633  1.00  0.00     0.074 A 
ATOM     68  C   UNL A   1      48.094  30.675  27.374  1.00  0.00     0.031 C 
ATOM     69  C   UNL A   1      45.778  31.201  28.095  1.00  0.00     0.037 A 
BRANCH  56  70
ATOM     70  C   UNL A   1      40.104  28.818  28.826  1.00  0.00     0.064 A 
ATOM     71  C   UNL A   1      39.619  28.595  30.126  1.00  0.00     0.173 A 
ATOM     72  C   UNL A   1      39.185  29.240  27.855  1.00  0.00     0.173 A 
ATOM     73  F   UNL A   1      40.449  28.174  31.093  1.00  0.00    -0.203 F 
ATOM     74  C   UNL A   1      38.269  28.745  30.428  1.00  0.00     0.198 A 
ATOM     75  C   UNL A   1      37.841  29.428  28.169  1.00  0.00     0.198 A 
ATOM     76  F   UNL A   1      39.588  29.469  26.595  1.00  0.00    -0.203 F 
ATOM     77  F   UNL A   1      37.822  28.455  31.657  1.00  0.00    -0.200 F 
ATOM     78  C   UNL A   1      37.381  29.169  29.451  1.00  0.00     0.200 A 
ATOM     79  F   UNL A   1      36.987  29.851  27.225  1.00  0.00    -0.200 F 
ATOM     80  F   UNL A   1      36.082  29.317  29.741  1.00  0.00    -0.200 F 
ENDBRANCH  56  70
BRANCH  57  81
ATOM     81  C   UNL A   1      49.587  26.953  26.016  1.00  0.00     0.064 A 
ATOM     82  C   UNL A   1      50.572  26.574  26.941  1.00  0.00     0.173 A 
ATOM     83  C   UNL A   1      49.960  27.037  24.668  1.00  0.00     0.173 A 
ATOM     84  F   UNL A   1      50.266  26.489  28.244  1.00  0.00    -0.203 F 
ATOM     85  C   UNL A   1      51.879  26.312  26.538  1.00  0.00     0.198 A 
ATOM     86  C   UNL A   1      51.262  26.745  24.260  1.00  0.00     0.198 A 
ATOM     87  F   UNL A   1      49.055  27.379  23.740  1.00  0.00    -0.203 F 
ATOM     88  F   UNL A   1      52.807  25.993  27.449  1.00  0.00    -0.200 F 
ATOM     89  C   UNL A   1      52.221  26.391  25.197  1.00  0.00     0.200 A 
ATOM     90  F   UNL A   1      51.584  26.803  22.961  1.00  0.00    -0.200 F 
ATOM     91  F   UNL A   1      53.477  26.130  24.808  1.00  0.00    -0.200 F 
ENDBRANCH  57  81
BRANCH  69  92
ATOM     92  C   UNL A   1      46.241  32.597  28.390  1.00  0.00     0.064 A 
ATOM     93  C   UNL A   1      46.762  32.953  29.642  1.00  0.00     0.173 A 
ATOM     94  C   UNL A   1      46.205  33.577  27.387  1.00  0.00     0.173 A 
ATOM     95  F   UNL A   1      46.803  32.054  30.637  1.00  0.00    -0.203 F 
ATOM     96  C   UNL A   1      47.205  34.249  29.887  1.00  0.00     0.198 A 
ATOM     97  C   UNL A   1      46.684  34.862  27.624  1.00  0.00     0.198 A 
ATOM     98  F   UNL A   1      45.724  33.284  26.169  1.00  0.00    -0.203 F 
ATOM     99  F   UNL A   1      47.651  34.582  31.106  1.00  0.00    -0.200 F 
ATOM    100  C   UNL A   1      47.174  35.198  28.876  1.00  0.00     0.200 A 
ATOM    101  F   UNL A   1      46.671  35.772  26.641  1.00  0.00    -0.200 F 
ATOM    102  F   UNL A   1      47.613  36.442  29.111  1.00  0.00    -0.200 F 
ENDBRANCH  69  92
ENDBRANCH  43  44
ENDBRANCH  35  38
ENDBRANCH  33  34
ENDBRANCH  32  33
ENDBRANCH  31  32
ENDBRANCH   1  31
TORSDOF 17
ENDMDL
MODEL 3
REMARK VINA RESULT:     -12.6      4.848      8.918
REMARK SMILES CCCCN(c1ccccc1C(=O)NCCCCNC(=O)c1ccc(-c2c3nc(c(-c4c(F)c(F)c(F)c(F)c4F)c4ccc([nH]4)c(-c4c(F)c(F)c(F)c(F)c4F)c4nc(c(-c5c(F)c(F)c(F)c(F)c5F)c5ccc2[nH]5)C=C4)C=C3)cc1)S(=O)(=O)c1ccc2c(c1)oc(=O)n2C
REMARK SMILES IDX 15 1 14 2 12 3 13 4 11 6 6 7 7 8 8 9 10 10 9 11 5 12 4 13
REMARK SMILES IDX 3 14 2 15 1 16 85 17 86 18 87 19 88 20 89 21 93 22 90 23
REMARK SMILES IDX 92 24 91 25 94 26 97 27 95 28 98 29 96 30 16 31 17 32 18 33
REMARK SMILES IDX 19 34 20 35 21 37 22 38 23 39 84 40 24 41 83 42 25 43 26 44
REMARK SMILES IDX 27 45 77 46 28 47 82 48 76 49 78 50 29 51 81 52 75 53 74 54
REMARK SMILES IDX 30 56 62 57 42 58 61 59 43 60 46 61 60 62 79 63 44 64 45 65
REMARK SMILES IDX 59 67 80 68 47 69 31 70 32 71 40 72 33 73 34 74 38 75 41 76
REMARK SMILES IDX 35 77 36 78 39 79 37 80 63 81 64 82 72 83 65 84 66 85 70 86
REMARK SMILES IDX 73 87 67 88 68 89 71 90 69 91 48 92 49 93 57 94 50 95 51 96
REMARK SMILES IDX 55 97 58 98 52 99 53 100 56 101 54 102
REMARK H PARENT 14 5 19 36 78 55 46 66
REMARK Flexibility Score: inf
ROOT
ATOM      1  C   UNL A   1      37.517  23.703  25.634  1.00  0.00     0.116 C 
ENDROOT
BRANCH   1   2
ATOM      2  N   UNL A   1      37.387  23.250  24.306  1.00  0.00    -0.352 N 
ATOM      3  C   UNL A   1      36.199  22.966  23.670  1.00  0.00     0.253 C 
ATOM      4  O   UNL A   1      36.295  23.041  22.436  1.00  0.00    -0.269 OA
ATOM      5  H   UNL A   1      38.215  23.125  23.789  1.00  0.00     0.163 HD
BRANCH   3   6
ATOM      6  C   UNL A   1      34.833  22.572  24.271  1.00  0.00     0.064 A 
ATOM      7  C   UNL A   1      33.530  23.159  24.428  1.00  0.00     0.065 A 
ATOM      8  C   UNL A   1      32.470  22.340  24.909  1.00  0.00     0.028 A 
ATOM      9  C   UNL A   1      32.659  21.040  25.371  1.00  0.00     0.002 A 
ATOM     10  C   UNL A   1      34.963  21.236  24.770  1.00  0.00     0.016 A 
ATOM     11  C   UNL A   1      33.921  20.495  25.330  1.00  0.00     0.001 A 
BRANCH   7  12
ATOM     12  N   UNL A   1      33.065  24.562  24.423  1.00  0.00    -0.266 N 
BRANCH  12  13
ATOM     13  C   UNL A   1      32.266  25.096  25.566  1.00  0.00     0.136 C 
BRANCH  13  14
ATOM     14  C   UNL A   1      32.766  26.330  26.312  1.00  0.00     0.022 C 
BRANCH  14  15
ATOM     15  C   UNL A   1      31.772  27.371  26.877  1.00  0.00    -0.002 C 
ATOM     16  C   UNL A   1      31.633  28.761  26.254  1.00  0.00     0.004 C 
ENDBRANCH  14  15
ENDBRANCH  13  14
ENDBRANCH  12  13
BRANCH  12  17
ATOM     17  S   UNL A   1      32.729  25.125  22.816  1.00  0.00     0.264 S 
ATOM     18  O   UNL A   1      33.950  25.567  22.191  1.00  0.00    -0.201 OA
ATOM     19  O   UNL A   1      31.879  24.170  22.135  1.00  0.00    -0.201 OA
BRANCH  17  20
ATOM     20  C   UNL A   1      31.702  26.562  23.025  1.00  0.00     0.091 A 
ATOM     21  C   UNL A   1      32.223  27.828  22.674  1.00  0.00     0.025 A 
ATOM     22  C   UNL A   1      30.346  26.383  23.324  1.00  0.00     0.071 A 
ATOM     23  C   UNL A   1      31.385  28.943  22.621  1.00  0.00     0.032 A 
ATOM     24  C   UNL A   1      29.544  27.498  23.243  1.00  0.00     0.157 A 
ATOM     25  C   UNL A   1      30.048  28.737  22.894  1.00  0.00     0.090 A 
ATOM     26  O   UNL A   1      28.171  27.508  23.428  1.00  0.00    -0.408 OA
ATOM     27  N   UNL A   1      28.967  29.581  22.855  1.00  0.00    -0.277 N 
ATOM     28  C   UNL A   1      27.838  28.841  23.148  1.00  0.00     0.419 A 
ATOM     29  C   UNL A   1      28.969  30.961  22.470  1.00  0.00     0.157 C 
ATOM     30  O   UNL A   1      26.687  29.258  23.161  1.00  0.00    -0.223 OA
ENDBRANCH  17  20
ENDBRANCH  12  17
ENDBRANCH   7  12
ENDBRANCH   3   6
ENDBRANCH   1   2
BRANCH   1  31
ATOM     31  C   UNL A   1      38.763  23.425  26.446  1.00  0.00     0.023 C 
BRANCH  31  32
ATOM     32  C   UNL A   1      39.518  22.130  26.144  1.00  0.00     0.023 C 
BRANCH  32  33
ATOM     33  C   UNL A   1      40.997  22.013  26.520  1.00  0.00     0.116 C 
BRANCH  33  34
ATOM     34  N   UNL A   1      41.967  22.371  25.488  1.00  0.00    -0.352 N 
ATOM     35  C   UNL A   1      42.781  23.480  25.386  1.00  0.00     0.251 C 
ATOM     36  H   UNL A   1      42.053  21.722  24.754  1.00  0.00     0.163 HD
ATOM     37  O   UNL A   1      43.607  23.619  24.493  1.00  0.00    -0.269 OA
BRANCH  35  38
ATOM     38  C   UNL A   1      42.687  24.513  26.409  1.00  0.00     0.039 A 
ATOM     39  C   UNL A   1      43.055  25.830  26.128  1.00  0.00     0.014 A 
ATOM     40  C   UNL A   1      42.180  24.137  27.649  1.00  0.00     0.014 A 
ATOM     41  C   UNL A   1      42.829  26.805  27.093  1.00  0.00     0.010 A 
ATOM     42  C   UNL A   1      41.832  25.122  28.544  1.00  0.00     0.010 A 
ATOM     43  C   UNL A   1      42.175  26.457  28.284  1.00  0.00    -0.014 A 
BRANCH  43  44
ATOM     44  C   UNL A   1      41.847  27.442  29.331  1.00  0.00     0.031 A 
ATOM     45  C   UNL A   1      42.627  27.402  30.613  1.00  0.00     0.074 A 
ATOM     46  C   UNL A   1      40.767  28.226  29.180  1.00  0.00     0.049 A 
ATOM     47  N   UNL A   1      42.382  27.994  31.750  1.00  0.00    -0.248 NA
ATOM     48  C   UNL A   1      43.806  26.517  30.637  1.00  0.00     0.031 C 
ATOM     49  C   UNL A   1      39.914  28.279  27.992  1.00  0.00     0.029 A 
ATOM     50  N   UNL A   1      40.184  29.109  30.048  1.00  0.00    -0.354 N 
ATOM     51  C   UNL A   1      43.351  27.525  32.626  1.00  0.00     0.074 A 
ATOM     52  C   UNL A   1      44.135  26.542  31.917  1.00  0.00     0.031 C 
ATOM     53  C   UNL A   1      38.928  29.166  28.197  1.00  0.00     0.029 A 
ATOM     54  C   UNL A   1      39.052  29.701  29.547  1.00  0.00     0.049 A 
ATOM     55  H   UNL A   1      40.542  29.301  30.945  1.00  0.00     0.167 HD
ATOM     56  C   UNL A   1      43.579  27.911  33.903  1.00  0.00     0.037 A 
ATOM     57  C   UNL A   1      38.207  30.571  30.130  1.00  0.00     0.037 A 
ATOM     58  C   UNL A   1      42.799  28.918  34.568  1.00  0.00     0.049 A 
ATOM     59  C   UNL A   1      38.492  30.999  31.544  1.00  0.00     0.074 A 
ATOM     60  C   UNL A   1      42.970  29.450  35.831  1.00  0.00     0.029 A 
ATOM     61  N   UNL A   1      41.691  29.545  34.011  1.00  0.00    -0.354 N 
ATOM     62  N   UNL A   1      39.453  30.610  32.349  1.00  0.00    -0.248 NA
ATOM     63  C   UNL A   1      37.582  31.989  32.129  1.00  0.00     0.031 C 
ATOM     64  C   UNL A   1      41.934  30.363  36.058  1.00  0.00     0.029 A 
ATOM     65  C   UNL A   1      41.154  30.446  34.913  1.00  0.00     0.049 A 
ATOM     66  H   UNL A   1      41.340  29.374  33.107  1.00  0.00     0.167 HD
ATOM     67  C   UNL A   1      39.285  31.331  33.523  1.00  0.00     0.074 A 
ATOM     68  C   UNL A   1      38.134  32.190  33.316  1.00  0.00     0.031 C 
ATOM     69  C   UNL A   1      40.011  31.290  34.668  1.00  0.00     0.037 A 
BRANCH  56  70
ATOM     70  C   UNL A   1      44.708  27.246  34.638  1.00  0.00     0.064 A 
ATOM     71  C   UNL A   1      44.513  26.082  35.400  1.00  0.00     0.173 A 
ATOM     72  C   UNL A   1      46.004  27.780  34.588  1.00  0.00     0.173 A 
ATOM     73  F   UNL A   1      43.291  25.536  35.498  1.00  0.00    -0.203 F 
ATOM     74  C   UNL A   1      45.559  25.505  36.115  1.00  0.00     0.198 A 
ATOM     75  C   UNL A   1      47.057  27.177  35.272  1.00  0.00     0.198 A 
ATOM     76  F   UNL A   1      46.252  28.891  33.877  1.00  0.00    -0.203 F 
ATOM     77  F   UNL A   1      45.329  24.437  36.891  1.00  0.00    -0.200 F 
ATOM     78  C   UNL A   1      46.833  26.048  36.044  1.00  0.00     0.200 A 
ATOM     79  F   UNL A   1      48.291  27.697  35.192  1.00  0.00    -0.200 F 
ATOM     80  F   UNL A   1      47.839  25.491  36.729  1.00  0.00    -0.200 F 
ENDBRANCH  56  70
BRANCH  57  81
ATOM     81  C   UNL A   1      37.060  31.118  29.363  1.00  0.00     0.064 A 
ATOM     82  C   UNL A   1      37.090  32.434  28.876  1.00  0.00     0.173 A 
ATOM     83  C   UNL A   1      35.928  30.343  29.073  1.00  0.00     0.173 A 
ATOM     84  F   UNL A   1      38.146  33.218  29.136  1.00  0.00    -0.203 F 
ATOM     85  C   UNL A   1      36.025  32.959  28.149  1.00  0.00     0.198 A 
ATOM     86  C   UNL A   1      34.875  30.860  28.319  1.00  0.00     0.198 A 
ATOM     87  F   UNL A   1      35.854  29.075  29.501  1.00  0.00    -0.203 F 
ATOM     88  F   UNL A   1      36.064  34.231  27.732  1.00  0.00    -0.200 F 
ATOM     89  C   UNL A   1      34.921  32.169  27.864  1.00  0.00     0.200 A 
ATOM     90  F   UNL A   1      33.820  30.087  28.029  1.00  0.00    -0.200 F 
ATOM     91  F   UNL A   1      33.900  32.672  27.157  1.00  0.00    -0.200 F 
ENDBRANCH  57  81
BRANCH  69  92
ATOM     92  C   UNL A   1      39.607  32.231  35.764  1.00  0.00     0.064 A 
ATOM     93  C   UNL A   1      38.623  31.891  36.703  1.00  0.00     0.173 A 
ATOM     94  C   UNL A   1      40.251  33.470  35.901  1.00  0.00     0.173 A 
ATOM     95  F   UNL A   1      37.970  30.723  36.604  1.00  0.00    -0.203 F 
ATOM     96  C   UNL A   1      38.279  32.771  37.724  1.00  0.00     0.198 A 
ATOM     97  C   UNL A   1      39.930  34.331  36.946  1.00  0.00     0.198 A 
ATOM     98  F   UNL A   1      41.206  33.837  35.033  1.00  0.00    -0.203 F 
ATOM     99  F   UNL A   1      37.299  32.449  38.580  1.00  0.00    -0.200 F 
ATOM    100  C   UNL A   1      38.938  33.985  37.850  1.00  0.00     0.200 A 
ATOM    101  F   UNL A   1      40.581  35.494  37.076  1.00  0.00    -0.200 F 
ATOM    102  F   UNL A   1      38.614  34.824  38.842  1.00  0.00    -0.200 F 
ENDBRANCH  69  92
ENDBRANCH  43  44
ENDBRANCH  35  38
ENDBRANCH  33  34
ENDBRANCH  32  33
ENDBRANCH  31  32
ENDBRANCH   1  31
TORSDOF 17
ENDMDL
