MODEL 1
REMARK VINA RESULT:     -12.8      0.000      0.000
REMARK SMILES C[C@@H]1CCCN(C(=O)NC2(CC(=O)NCCCCNC(=O)c3ccc(-c4c5nc(c(-c6c(F)c(F)c(F)c(F)c6F)c6ccc([nH]6)c(-c6c(F)c(F)c(F)c(F)c6F)c6nc(c(-c7c(F)c(F)c(F)c(F)c7F)c7ccc4[nH]7)C=C6)C=C5)cc3)CCC2)[C@@H]1C
REMARK SMILES IDX 16 1 15 2 14 3 12 4 13 5 11 7 10 8 85 9 87 10 86 11 9 12
REMARK SMILES IDX 7 13 8 14 6 16 1 17 2 18 3 19 88 20 4 21 89 22 5 23 17 24
REMARK SMILES IDX 18 25 19 26 20 27 21 29 22 30 23 31 84 32 24 33 83 34 25 35
REMARK SMILES IDX 26 36 27 37 77 38 28 39 82 40 76 41 78 42 29 43 81 44 75 45
REMARK SMILES IDX 74 46 30 48 62 49 42 50 61 51 43 52 46 53 60 54 79 55 44 56
REMARK SMILES IDX 45 57 59 59 80 60 47 61 31 62 32 63 40 64 33 65 34 66 38 67
REMARK SMILES IDX 41 68 35 69 36 70 39 71 37 72 63 73 64 74 72 75 65 76 66 77
REMARK SMILES IDX 70 78 73 79 67 80 68 81 71 82 69 83 48 84 49 85 57 86 50 87
REMARK SMILES IDX 51 88 55 89 58 90 52 91 53 92 56 93 54 94
REMARK H PARENT 14 6 9 15 19 28 78 47 46 58
REMARK Flexibility Score: inf
ROOT
ATOM      1  C   UNL A   1      31.700  30.587  26.674  1.00  0.00     0.023 C 
ENDROOT
BRANCH   1   2
ATOM      2  C   UNL A   1      33.094  29.976  26.838  1.00  0.00     0.116 C 
BRANCH   2   3
ATOM      3  N   UNL A   1      33.691  29.713  25.549  1.00  0.00    -0.356 N 
ATOM      4  C   UNL A   1      33.372  28.753  24.642  1.00  0.00     0.222 C 
ATOM      5  O   UNL A   1      34.132  28.582  23.686  1.00  0.00    -0.275 OA
ATOM      6  H   UNL A   1      34.430  30.311  25.294  1.00  0.00     0.163 HD
BRANCH   4   7
ATOM      7  C   UNL A   1      32.124  27.903  24.786  1.00  0.00     0.128 C 
BRANCH   7   8
ATOM      8  C   UNL A   1      31.428  27.452  23.470  1.00  0.00     0.051 C 
ATOM      9  C   UNL A   1      30.834  28.674  22.716  1.00  0.00     0.029 C 
ATOM     10  C   UNL A   1      29.990  26.954  23.737  1.00  0.00     0.029 C 
ATOM     11  C   UNL A   1      29.432  28.286  23.208  1.00  0.00     0.005 C 
BRANCH   8  12
ATOM     12  N   UNL A   1      32.380  26.655  22.662  1.00  0.00    -0.332 N 
ATOM     13  C   UNL A   1      32.944  25.446  22.483  1.00  0.00     0.318 C 
ATOM     14  O   UNL A   1      33.674  25.443  21.484  1.00  0.00    -0.249 OA
ATOM     15  H   UNL A   1      32.755  27.255  21.977  1.00  0.00     0.165 HD
BRANCH  13  16
ATOM     16  N   UNL A   1      32.784  24.336  23.258  1.00  0.00    -0.322 N 
ATOM     17  C   UNL A   1      35.453  22.791  23.260  1.00  0.00     0.010 C 
ATOM     18  C   UNL A   1      34.396  22.779  24.370  1.00  0.00     0.008 C 
ATOM     19  C   UNL A   1      33.404  21.622  24.175  1.00  0.00     0.007 C 
ATOM     20  C   UNL A   1      33.611  24.113  24.481  1.00  0.00     0.086 C 
ATOM     21  C   UNL A   1      32.474  21.874  22.998  1.00  0.00     0.022 C 
ATOM     22  C   UNL A   1      34.515  25.235  25.009  1.00  0.00     0.031 C 
ATOM     23  C   UNL A   1      31.832  23.257  23.059  1.00  0.00     0.121 C 
ENDBRANCH  13  16
ENDBRANCH   8  12
ENDBRANCH   7   8
ENDBRANCH   4   7
ENDBRANCH   2   3
ENDBRANCH   1   2
BRANCH   1  24
ATOM     24  C   UNL A   1      31.673  32.107  26.549  1.00  0.00     0.023 C 
BRANCH  24  25
ATOM     25  C   UNL A   1      32.662  32.831  27.451  1.00  0.00     0.116 C 
BRANCH  25  26
ATOM     26  N   UNL A   1      32.308  34.214  27.737  1.00  0.00    -0.352 N 
ATOM     27  C   UNL A   1      32.927  35.087  28.603  1.00  0.00     0.251 C 
ATOM     28  H   UNL A   1      31.529  34.570  27.250  1.00  0.00     0.163 HD
ATOM     29  O   UNL A   1      32.473  36.204  28.801  1.00  0.00    -0.269 OA
BRANCH  27  30
ATOM     30  C   UNL A   1      34.120  34.619  29.334  1.00  0.00     0.039 A 
ATOM     31  C   UNL A   1      33.949  34.043  30.594  1.00  0.00     0.014 A 
ATOM     32  C   UNL A   1      35.379  34.660  28.734  1.00  0.00     0.014 A 
ATOM     33  C   UNL A   1      35.036  33.429  31.216  1.00  0.00     0.010 A 
ATOM     34  C   UNL A   1      36.437  33.970  29.311  1.00  0.00     0.010 A 
ATOM     35  C   UNL A   1      36.275  33.345  30.555  1.00  0.00    -0.014 A 
BRANCH  35  36
ATOM     36  C   UNL A   1      37.405  32.590  31.148  1.00  0.00     0.031 A 
ATOM     37  C   UNL A   1      37.911  32.940  32.517  1.00  0.00     0.074 A 
ATOM     38  C   UNL A   1      38.014  31.633  30.420  1.00  0.00     0.049 A 
ATOM     39  N   UNL A   1      38.902  32.415  33.192  1.00  0.00    -0.248 NA
ATOM     40  C   UNL A   1      37.238  34.051  33.210  1.00  0.00     0.031 C 
ATOM     41  C   UNL A   1      37.664  31.261  29.048  1.00  0.00     0.029 A 
ATOM     42  N   UNL A   1      39.060  30.801  30.733  1.00  0.00    -0.354 N 
ATOM     43  C   UNL A   1      38.979  33.139  34.374  1.00  0.00     0.074 A 
ATOM     44  C   UNL A   1      37.977  34.180  34.301  1.00  0.00     0.031 C 
ATOM     45  C   UNL A   1      38.457  30.253  28.650  1.00  0.00     0.029 A 
ATOM     46  C   UNL A   1      39.387  29.927  29.725  1.00  0.00     0.049 A 
ATOM     47  H   UNL A   1      39.530  30.828  31.597  1.00  0.00     0.167 HD
ATOM     48  C   UNL A   1      39.789  32.933  35.438  1.00  0.00     0.037 A 
ATOM     49  C   UNL A   1      40.330  28.967  29.680  1.00  0.00     0.037 A 
ATOM     50  C   UNL A   1      40.760  31.874  35.520  1.00  0.00     0.049 A 
ATOM     51  C   UNL A   1      41.195  28.737  30.890  1.00  0.00     0.074 A 
ATOM     52  C   UNL A   1      41.578  31.531  36.581  1.00  0.00     0.029 A 
ATOM     53  N   UNL A   1      41.042  30.985  34.493  1.00  0.00    -0.354 N 
ATOM     54  N   UNL A   1      41.195  29.370  32.039  1.00  0.00    -0.248 NA
ATOM     55  C   UNL A   1      42.179  27.652  30.801  1.00  0.00     0.031 C 
ATOM     56  C   UNL A   1      42.384  30.459  36.183  1.00  0.00     0.029 A 
ATOM     57  C   UNL A   1      42.037  30.106  34.889  1.00  0.00     0.049 A 
ATOM     58  H   UNL A   1      40.602  30.980  33.612  1.00  0.00     0.167 HD
ATOM     59  C   UNL A   1      42.163  28.748  32.815  1.00  0.00     0.074 A 
ATOM     60  C   UNL A   1      42.711  27.671  32.014  1.00  0.00     0.031 C 
ATOM     61  C   UNL A   1      42.569  29.044  34.075  1.00  0.00     0.037 A 
BRANCH  48  62
ATOM     62  C   UNL A   1      39.648  33.864  36.607  1.00  0.00     0.064 A 
ATOM     63  C   UNL A   1      38.865  33.530  37.723  1.00  0.00     0.173 A 
ATOM     64  C   UNL A   1      40.327  35.092  36.627  1.00  0.00     0.173 A 
ATOM     65  F   UNL A   1      38.182  32.374  37.746  1.00  0.00    -0.203 F 
ATOM     66  C   UNL A   1      38.742  34.401  38.801  1.00  0.00     0.198 A 
ATOM     67  C   UNL A   1      40.226  35.948  37.722  1.00  0.00     0.198 A 
ATOM     68  F   UNL A   1      41.091  35.461  35.588  1.00  0.00    -0.203 F 
ATOM     69  F   UNL A   1      37.947  34.082  39.832  1.00  0.00    -0.200 F 
ATOM     70  C   UNL A   1      39.428  35.606  38.803  1.00  0.00     0.200 A 
ATOM     71  F   UNL A   1      40.899  37.107  37.728  1.00  0.00    -0.200 F 
ATOM     72  F   UNL A   1      39.316  36.441  39.846  1.00  0.00    -0.200 F 
ENDBRANCH  48  62
BRANCH  49  73
ATOM     73  C   UNL A   1      40.480  28.126  28.464  1.00  0.00     0.064 A 
ATOM     74  C   UNL A   1      39.847  26.879  28.372  1.00  0.00     0.173 A 
ATOM     75  C   UNL A   1      41.261  28.544  27.377  1.00  0.00     0.173 A 
ATOM     76  F   UNL A   1      39.105  26.427  29.394  1.00  0.00    -0.203 F 
ATOM     77  C   UNL A   1      40.009  26.070  27.249  1.00  0.00     0.198 A 
ATOM     78  C   UNL A   1      41.399  27.747  26.243  1.00  0.00     0.198 A 
ATOM     79  F   UNL A   1      41.881  29.732  27.413  1.00  0.00    -0.203 F 
ATOM     80  F   UNL A   1      39.431  24.862  27.207  1.00  0.00    -0.200 F 
ATOM     81  C   UNL A   1      40.781  26.507  26.183  1.00  0.00     0.200 A 
ATOM     82  F   UNL A   1      42.134  28.178  25.209  1.00  0.00    -0.200 F 
ATOM     83  F   UNL A   1      40.935  25.730  25.103  1.00  0.00    -0.200 F 
ENDBRANCH  49  73
BRANCH  61  84
ATOM     84  C   UNL A   1      43.642  28.177  34.665  1.00  0.00     0.064 A 
ATOM     85  C   UNL A   1      43.335  26.980  35.331  1.00  0.00     0.173 A 
ATOM     86  C   UNL A   1      44.992  28.538  34.548  1.00  0.00     0.173 A 
ATOM     87  F   UNL A   1      42.058  26.600  35.481  1.00  0.00    -0.203 F 
ATOM     88  C   UNL A   1      44.340  26.194  35.886  1.00  0.00     0.198 A 
ATOM     89  C   UNL A   1      45.996  27.733  35.078  1.00  0.00     0.198 A 
ATOM     90  F   UNL A   1      45.339  29.669  33.915  1.00  0.00    -0.203 F 
ATOM     91  F   UNL A   1      44.021  25.084  36.566  1.00  0.00    -0.200 F 
ATOM     92  C   UNL A   1      45.670  26.568  35.755  1.00  0.00     0.200 A 
ATOM     93  F   UNL A   1      47.281  28.089  34.940  1.00  0.00    -0.200 F 
ATOM     94  F   UNL A   1      46.636  25.809  36.291  1.00  0.00    -0.200 F 
ENDBRANCH  61  84
ENDBRANCH  35  36
ENDBRANCH  27  30
ENDBRANCH  25  26
ENDBRANCH  24  25
ENDBRANCH   1  24
TORSDOF 14
ENDMDL
MODEL 2
REMARK VINA RESULT:     -12.7      0.796      1.877
REMARK SMILES C[C@@H]1CCCN(C(=O)NC2(CC(=O)NCCCCNC(=O)c3ccc(-c4c5nc(c(-c6c(F)c(F)c(F)c(F)c6F)c6ccc([nH]6)c(-c6c(F)c(F)c(F)c(F)c6F)c6nc(c(-c7c(F)c(F)c(F)c(F)c7F)c7ccc4[nH]7)C=C6)C=C5)cc3)CCC2)[C@@H]1C
REMARK SMILES IDX 16 1 15 2 14 3 12 4 13 5 11 7 10 8 85 9 87 10 86 11 9 12
REMARK SMILES IDX 7 13 8 14 6 16 1 17 2 18 3 19 88 20 4 21 89 22 5 23 17 24
REMARK SMILES IDX 18 25 19 26 20 27 21 29 22 30 23 31 84 32 24 33 83 34 25 35
REMARK SMILES IDX 26 36 27 37 77 38 28 39 82 40 76 41 78 42 29 43 81 44 75 45
REMARK SMILES IDX 74 46 30 48 62 49 42 50 61 51 43 52 46 53 60 54 79 55 44 56
REMARK SMILES IDX 45 57 59 59 80 60 47 61 31 62 32 63 40 64 33 65 34 66 38 67
REMARK SMILES IDX 41 68 35 69 36 70 39 71 37 72 63 73 64 74 72 75 65 76 66 77
REMARK SMILES IDX 70 78 73 79 67 80 68 81 71 82 69 83 48 84 49 85 57 86 50 87
REMARK SMILES IDX 51 88 55 89 58 90 52 91 53 92 56 93 54 94
REMARK H PARENT 14 6 9 15 19 28 78 47 46 58
REMARK Flexibility Score: inf
ROOT
ATOM      1  C   UNL A   1      31.875  30.449  26.693  1.00  0.00     0.023 C 
ENDROOT
BRANCH   1   2
ATOM      2  C   UNL A   1      33.365  30.123  26.552  1.00  0.00     0.116 C 
BRANCH   2   3
ATOM      3  N   UNL A   1      33.655  29.623  25.228  1.00  0.00    -0.356 N 
ATOM      4  C   UNL A   1      33.799  28.337  24.815  1.00  0.00     0.222 C 
ATOM      5  O   UNL A   1      34.234  28.137  23.678  1.00  0.00    -0.275 OA
ATOM      6  H   UNL A   1      33.762  30.309  24.530  1.00  0.00     0.163 HD
BRANCH   4   7
ATOM      7  C   UNL A   1      33.447  27.166  25.713  1.00  0.00     0.128 C 
BRANCH   7   8
ATOM      8  C   UNL A   1      32.501  26.086  25.118  1.00  0.00     0.051 C 
ATOM      9  C   UNL A   1      31.253  26.744  24.469  1.00  0.00     0.029 C 
ATOM     10  C   UNL A   1      31.584  25.481  26.203  1.00  0.00     0.029 C 
ATOM     11  C   UNL A   1      30.415  26.338  25.690  1.00  0.00     0.005 C 
BRANCH   8  12
ATOM     12  N   UNL A   1      33.270  25.221  24.192  1.00  0.00    -0.332 N 
ATOM     13  C   UNL A   1      33.576  23.956  23.850  1.00  0.00     0.318 C 
ATOM     14  O   UNL A   1      34.289  23.931  22.839  1.00  0.00    -0.249 OA
ATOM     15  H   UNL A   1      33.758  25.814  23.575  1.00  0.00     0.165 HD
BRANCH  13  16
ATOM     16  N   UNL A   1      33.196  22.812  24.487  1.00  0.00    -0.322 N 
ATOM     17  C   UNL A   1      35.676  20.998  24.738  1.00  0.00     0.010 C 
ATOM     18  C   UNL A   1      34.463  21.011  25.675  1.00  0.00     0.008 C 
ATOM     19  C   UNL A   1      33.411  19.985  25.230  1.00  0.00     0.007 C 
ATOM     20  C   UNL A   1      33.798  22.409  25.793  1.00  0.00     0.086 C 
ATOM     21  C   UNL A   1      32.703  20.424  23.958  1.00  0.00     0.022 C 
ATOM     22  C   UNL A   1      34.709  23.384  26.549  1.00  0.00     0.031 C 
ATOM     23  C   UNL A   1      32.190  21.858  24.052  1.00  0.00     0.121 C 
ENDBRANCH  13  16
ENDBRANCH   8  12
ENDBRANCH   7   8
ENDBRANCH   4   7
ENDBRANCH   2   3
ENDBRANCH   1   2
BRANCH   1  24
ATOM     24  C   UNL A   1      31.551  31.931  26.849  1.00  0.00     0.023 C 
BRANCH  24  25
ATOM     25  C   UNL A   1      32.695  32.771  27.400  1.00  0.00     0.116 C 
BRANCH  25  26
ATOM     26  N   UNL A   1      32.343  34.158  27.667  1.00  0.00    -0.352 N 
ATOM     27  C   UNL A   1      32.954  35.038  28.532  1.00  0.00     0.251 C 
ATOM     28  H   UNL A   1      31.571  34.512  27.166  1.00  0.00     0.163 HD
ATOM     29  O   UNL A   1      32.502  36.158  28.714  1.00  0.00    -0.269 OA
BRANCH  27  30
ATOM     30  C   UNL A   1      34.136  34.572  29.284  1.00  0.00     0.039 A 
ATOM     31  C   UNL A   1      33.943  33.960  30.523  1.00  0.00     0.014 A 
ATOM     32  C   UNL A   1      35.410  34.653  28.719  1.00  0.00     0.014 A 
ATOM     33  C   UNL A   1      35.024  33.350  31.158  1.00  0.00     0.010 A 
ATOM     34  C   UNL A   1      36.465  33.967  29.307  1.00  0.00     0.010 A 
ATOM     35  C   UNL A   1      36.282  33.307  30.530  1.00  0.00    -0.014 A 
BRANCH  35  36
ATOM     36  C   UNL A   1      37.410  32.557  31.133  1.00  0.00     0.031 A 
ATOM     37  C   UNL A   1      37.901  32.910  32.507  1.00  0.00     0.074 A 
ATOM     38  C   UNL A   1      38.031  31.604  30.412  1.00  0.00     0.049 A 
ATOM     39  N   UNL A   1      38.888  32.390  33.192  1.00  0.00    -0.248 NA
ATOM     40  C   UNL A   1      37.215  34.018  33.193  1.00  0.00     0.031 C 
ATOM     41  C   UNL A   1      37.696  31.230  29.036  1.00  0.00     0.029 A 
ATOM     42  N   UNL A   1      39.077  30.777  30.734  1.00  0.00    -0.354 N 
ATOM     43  C   UNL A   1      38.949  33.115  34.374  1.00  0.00     0.074 A 
ATOM     44  C   UNL A   1      37.943  34.151  34.292  1.00  0.00     0.031 C 
ATOM     45  C   UNL A   1      38.497  30.226  28.645  1.00  0.00     0.029 A 
ATOM     46  C   UNL A   1      39.419  29.904  29.730  1.00  0.00     0.049 A 
ATOM     47  H   UNL A   1      39.539  30.806  31.603  1.00  0.00     0.167 HD
ATOM     48  C   UNL A   1      39.750  32.913  35.446  1.00  0.00     0.037 A 
ATOM     49  C   UNL A   1      40.367  28.949  29.694  1.00  0.00     0.037 A 
ATOM     50  C   UNL A   1      40.726  31.859  35.537  1.00  0.00     0.049 A 
ATOM     51  C   UNL A   1      41.221  28.724  30.912  1.00  0.00     0.074 A 
ATOM     52  C   UNL A   1      41.535  31.520  36.606  1.00  0.00     0.029 A 
ATOM     53  N   UNL A   1      41.023  30.971  34.513  1.00  0.00    -0.354 N 
ATOM     54  N   UNL A   1      41.207  29.356  32.061  1.00  0.00    -0.248 NA
ATOM     55  C   UNL A   1      42.212  27.643  30.832  1.00  0.00     0.031 C 
ATOM     56  C   UNL A   1      42.351  30.452  36.216  1.00  0.00     0.029 A 
ATOM     57  C   UNL A   1      42.018  30.097  34.918  1.00  0.00     0.049 A 
ATOM     58  H   UNL A   1      40.591  30.964  33.628  1.00  0.00     0.167 HD
ATOM     59  C   UNL A   1      42.171  28.739  32.846  1.00  0.00     0.074 A 
ATOM     60  C   UNL A   1      42.731  27.665  32.051  1.00  0.00     0.031 C 
ATOM     61  C   UNL A   1      42.562  29.037  34.110  1.00  0.00     0.037 A 
BRANCH  48  62
ATOM     62  C   UNL A   1      39.594  33.843  36.613  1.00  0.00     0.064 A 
ATOM     63  C   UNL A   1      38.794  33.509  37.717  1.00  0.00     0.173 A 
ATOM     64  C   UNL A   1      40.274  35.070  36.644  1.00  0.00     0.173 A 
ATOM     65  F   UNL A   1      38.109  32.354  37.729  1.00  0.00    -0.203 F 
ATOM     66  C   UNL A   1      38.657  34.380  38.794  1.00  0.00     0.198 A 
ATOM     67  C   UNL A   1      40.159  35.925  37.738  1.00  0.00     0.198 A 
ATOM     68  F   UNL A   1      41.054  35.438  35.617  1.00  0.00    -0.203 F 
ATOM     69  F   UNL A   1      37.846  34.061  39.813  1.00  0.00    -0.200 F 
ATOM     70  C   UNL A   1      39.345  35.583  38.807  1.00  0.00     0.200 A 
ATOM     71  F   UNL A   1      40.833  37.083  37.755  1.00  0.00    -0.200 F 
ATOM     72  F   UNL A   1      39.218  36.418  39.849  1.00  0.00    -0.200 F 
ENDBRANCH  48  62
BRANCH  49  73
ATOM     73  C   UNL A   1      40.532  28.109  28.480  1.00  0.00     0.064 A 
ATOM     74  C   UNL A   1      41.321  28.546  27.406  1.00  0.00     0.173 A 
ATOM     75  C   UNL A   1      39.904  26.860  28.363  1.00  0.00     0.173 A 
ATOM     76  F   UNL A   1      41.926  29.741  27.463  1.00  0.00    -0.203 F 
ATOM     77  C   UNL A   1      41.455  27.778  26.251  1.00  0.00     0.198 A 
ATOM     78  C   UNL A   1      40.061  26.081  27.219  1.00  0.00     0.198 A 
ATOM     79  F   UNL A   1      39.145  26.395  29.365  1.00  0.00    -0.203 F 
ATOM     80  F   UNL A   1      42.176  28.241  25.221  1.00  0.00    -0.200 F 
ATOM     81  C   UNL A   1      40.829  26.544  26.160  1.00  0.00     0.200 A 
ATOM     82  F   UNL A   1      39.468  24.883  27.140  1.00  0.00    -0.200 F 
ATOM     83  F   UNL A   1      40.960  25.805  25.050  1.00  0.00    -0.200 F 
ENDBRANCH  49  73
BRANCH  61  84
ATOM     84  C   UNL A   1      43.635  28.176  34.710  1.00  0.00     0.064 A 
ATOM     85  C   UNL A   1      44.986  28.556  34.676  1.00  0.00     0.173 A 
ATOM     86  C   UNL A   1      43.307  26.967  35.341  1.00  0.00     0.173 A 
ATOM     87  F   UNL A   1      45.351  29.695  34.069  1.00  0.00    -0.203 F 
ATOM     88  C   UNL A   1      45.971  27.740  35.223  1.00  0.00     0.198 A 
ATOM     89  C   UNL A   1      44.292  26.170  35.915  1.00  0.00     0.198 A 
ATOM     90  F   UNL A   1      42.029  26.563  35.407  1.00  0.00    -0.203 F 
ATOM     91  F   UNL A   1      47.260  28.095  35.129  1.00  0.00    -0.200 F 
ATOM     92  C   UNL A   1      45.623  26.551  35.846  1.00  0.00     0.200 A 
ATOM     93  F   UNL A   1      43.954  25.027  36.529  1.00  0.00    -0.200 F 
ATOM     94  F   UNL A   1      46.574  25.767  36.373  1.00  0.00    -0.200 F 
ENDBRANCH  61  84
ENDBRANCH  35  36
ENDBRANCH  27  30
ENDBRANCH  25  26
ENDBRANCH  24  25
ENDBRANCH   1  24
TORSDOF 14
ENDMDL
MODEL 3
REMARK VINA RESULT:     -12.7      0.708      7.433
REMARK SMILES C[C@@H]1CCCN(C(=O)NC2(CC(=O)NCCCCNC(=O)c3ccc(-c4c5nc(c(-c6c(F)c(F)c(F)c(F)c6F)c6ccc([nH]6)c(-c6c(F)c(F)c(F)c(F)c6F)c6nc(c(-c7c(F)c(F)c(F)c(F)c7F)c7ccc4[nH]7)C=C6)C=C5)cc3)CCC2)[C@@H]1C
REMARK SMILES IDX 16 1 15 2 14 3 12 4 13 5 11 7 10 8 85 9 87 10 86 11 9 12
REMARK SMILES IDX 7 13 8 14 6 16 1 17 2 18 3 19 88 20 4 21 89 22 5 23 17 24
REMARK SMILES IDX 18 25 19 26 20 27 21 29 22 30 23 31 84 32 24 33 83 34 25 35
REMARK SMILES IDX 26 36 27 37 77 38 28 39 82 40 76 41 78 42 29 43 81 44 75 45
REMARK SMILES IDX 74 46 30 48 62 49 42 50 61 51 43 52 46 53 60 54 79 55 44 56
REMARK SMILES IDX 45 57 59 59 80 60 47 61 31 62 32 63 40 64 33 65 34 66 38 67
REMARK SMILES IDX 41 68 35 69 36 70 39 71 37 72 63 73 64 74 72 75 65 76 66 77
REMARK SMILES IDX 70 78 73 79 67 80 68 81 71 82 69 83 48 84 49 85 57 86 50 87
REMARK SMILES IDX 51 88 55 89 58 90 52 91 53 92 56 93 54 94
REMARK H PARENT 14 6 9 15 19 28 78 47 46 58
REMARK Flexibility Score: inf
ROOT
ATOM      1  C   UNL A   1      32.072  30.305  27.097  1.00  0.00     0.023 C 
ENDROOT
BRANCH   1   2
ATOM      2  C   UNL A   1      33.368  29.680  26.573  1.00  0.00     0.116 C 
BRANCH   2   3
ATOM      3  N   UNL A   1      33.427  29.761  25.132  1.00  0.00    -0.356 N 
ATOM      4  C   UNL A   1      32.789  28.997  24.208  1.00  0.00     0.222 C 
ATOM      5  O   UNL A   1      33.126  29.111  23.027  1.00  0.00    -0.275 OA
ATOM      6  H   UNL A   1      34.010  30.467  24.771  1.00  0.00     0.163 HD
BRANCH   4   7
ATOM      7  C   UNL A   1      31.694  28.021  24.598  1.00  0.00     0.128 C 
BRANCH   7   8
ATOM      8  C   UNL A   1      31.023  27.223  23.444  1.00  0.00     0.051 C 
ATOM      9  C   UNL A   1      30.113  28.149  22.591  1.00  0.00     0.029 C 
ATOM     10  C   UNL A   1      29.761  26.481  23.934  1.00  0.00     0.029 C 
ATOM     11  C   UNL A   1      28.877  27.557  23.283  1.00  0.00     0.005 C 
BRANCH   8  12
ATOM     12  N   UNL A   1      32.070  26.526  22.660  1.00  0.00    -0.332 N 
ATOM     13  C   UNL A   1      32.770  25.386  22.509  1.00  0.00     0.318 C 
ATOM     14  O   UNL A   1      33.507  25.449  21.518  1.00  0.00    -0.249 OA
ATOM     15  H   UNL A   1      32.381  27.152  21.967  1.00  0.00     0.165 HD
BRANCH  13  16
ATOM     16  N   UNL A   1      32.729  24.279  23.303  1.00  0.00    -0.322 N 
ATOM     17  C   UNL A   1      35.552  23.040  23.346  1.00  0.00     0.010 C 
ATOM     18  C   UNL A   1      34.496  22.930  24.452  1.00  0.00     0.008 C 
ATOM     19  C   UNL A   1      33.639  21.667  24.272  1.00  0.00     0.007 C 
ATOM     20  C   UNL A   1      33.567  24.170  24.535  1.00  0.00     0.086 C 
ATOM     21  C   UNL A   1      32.695  21.794  23.087  1.00  0.00     0.022 C 
ATOM     22  C   UNL A   1      34.338  25.395  25.046  1.00  0.00     0.031 C 
ATOM     23  C   UNL A   1      31.904  23.098  23.119  1.00  0.00     0.121 C 
ENDBRANCH  13  16
ENDBRANCH   8  12
ENDBRANCH   7   8
ENDBRANCH   4   7
ENDBRANCH   2   3
ENDBRANCH   1   2
BRANCH   1  24
ATOM     24  C   UNL A   1      31.900  31.788  26.784  1.00  0.00     0.023 C 
BRANCH  24  25
ATOM     25  C   UNL A   1      32.945  32.692  27.423  1.00  0.00     0.116 C 
BRANCH  25  26
ATOM     26  N   UNL A   1      32.483  34.049  27.682  1.00  0.00    -0.352 N 
ATOM     27  C   UNL A   1      32.980  34.955  28.591  1.00  0.00     0.251 C 
ATOM     28  H   UNL A   1      31.721  34.356  27.139  1.00  0.00     0.163 HD
ATOM     29  O   UNL A   1      32.443  36.040  28.756  1.00  0.00    -0.269 OA
BRANCH  27  30
ATOM     30  C   UNL A   1      34.145  34.560  29.408  1.00  0.00     0.039 A 
ATOM     31  C   UNL A   1      33.923  34.076  30.697  1.00  0.00     0.014 A 
ATOM     32  C   UNL A   1      35.429  34.578  28.862  1.00  0.00     0.014 A 
ATOM     33  C   UNL A   1      34.988  33.526  31.411  1.00  0.00     0.010 A 
ATOM     34  C   UNL A   1      36.468  33.949  29.536  1.00  0.00     0.010 A 
ATOM     35  C   UNL A   1      36.257  33.414  30.815  1.00  0.00    -0.014 A 
BRANCH  35  36
ATOM     36  C   UNL A   1      37.368  32.722  31.511  1.00  0.00     0.031 A 
ATOM     37  C   UNL A   1      38.067  31.566  30.855  1.00  0.00     0.074 A 
ATOM     38  C   UNL A   1      37.699  33.097  32.762  1.00  0.00     0.049 A 
ATOM     39  N   UNL A   1      39.039  30.819  31.314  1.00  0.00    -0.248 NA
ATOM     40  C   UNL A   1      37.589  31.173  29.520  1.00  0.00     0.031 C 
ATOM     41  C   UNL A   1      37.036  34.152  33.533  1.00  0.00     0.029 A 
ATOM     42  N   UNL A   1      38.674  32.631  33.608  1.00  0.00    -0.354 N 
ATOM     43  C   UNL A   1      39.275  29.865  30.334  1.00  0.00     0.074 A 
ATOM     44  C   UNL A   1      38.306  30.085  29.283  1.00  0.00     0.031 C 
ATOM     45  C   UNL A   1      37.646  34.275  34.724  1.00  0.00     0.029 A 
ATOM     46  C   UNL A   1      38.720  33.292  34.811  1.00  0.00     0.049 A 
ATOM     47  H   UNL A   1      39.281  31.892  33.375  1.00  0.00     0.167 HD
ATOM     48  C   UNL A   1      40.235  28.912  30.299  1.00  0.00     0.037 A 
ATOM     49  C   UNL A   1      39.544  33.125  35.863  1.00  0.00     0.037 A 
ATOM     50  C   UNL A   1      41.219  28.720  31.332  1.00  0.00     0.049 A 
ATOM     51  C   UNL A   1      40.625  32.080  35.783  1.00  0.00     0.074 A 
ATOM     52  C   UNL A   1      42.281  27.835  31.360  1.00  0.00     0.029 A 
ATOM     53  N   UNL A   1      41.258  29.431  32.523  1.00  0.00    -0.354 N 
ATOM     54  N   UNL A   1      40.897  31.244  34.811  1.00  0.00    -0.248 NA
ATOM     55  C   UNL A   1      41.520  31.968  36.942  1.00  0.00     0.031 C 
ATOM     56  C   UNL A   1      42.940  27.981  32.585  1.00  0.00     0.029 A 
ATOM     57  C   UNL A   1      42.316  28.990  33.302  1.00  0.00     0.049 A 
ATOM     58  H   UNL A   1      40.628  30.143  32.777  1.00  0.00     0.167 HD
ATOM     59  C   UNL A   1      42.004  30.520  35.231  1.00  0.00     0.074 A 
ATOM     60  C   UNL A   1      42.368  31.035  36.535  1.00  0.00     0.031 C 
ATOM     61  C   UNL A   1      42.658  29.514  34.598  1.00  0.00     0.037 A 
BRANCH  48  62
ATOM     62  C   UNL A   1      40.277  28.014  29.097  1.00  0.00     0.064 A 
ATOM     63  C   UNL A   1      39.565  26.805  29.059  1.00  0.00     0.173 A 
ATOM     64  C   UNL A   1      41.011  28.378  27.959  1.00  0.00     0.173 A 
ATOM     65  F   UNL A   1      38.860  26.402  30.128  1.00  0.00    -0.203 F 
ATOM     66  C   UNL A   1      39.611  25.980  27.939  1.00  0.00     0.198 A 
ATOM     67  C   UNL A   1      41.029  27.566  26.828  1.00  0.00     0.198 A 
ATOM     68  F   UNL A   1      41.707  29.525  27.940  1.00  0.00    -0.203 F 
ATOM     69  F   UNL A   1      38.964  24.806  27.946  1.00  0.00    -0.200 F 
ATOM     70  C   UNL A   1      40.336  26.364  26.822  1.00  0.00     0.200 A 
ATOM     71  F   UNL A   1      41.722  27.943  25.744  1.00  0.00    -0.200 F 
ATOM     72  F   UNL A   1      40.373  25.573  25.740  1.00  0.00    -0.200 F 
ENDBRANCH  48  62
BRANCH  49  73
ATOM     73  C   UNL A   1      39.406  33.990  37.063  1.00  0.00     0.064 A 
ATOM     74  C   UNL A   1      39.992  35.263  37.101  1.00  0.00     0.173 A 
ATOM     75  C   UNL A   1      38.696  33.564  38.194  1.00  0.00     0.173 A 
ATOM     76  F   UNL A   1      40.698  35.707  36.050  1.00  0.00    -0.203 F 
ATOM     77  C   UNL A   1      39.894  36.067  38.235  1.00  0.00     0.198 A 
ATOM     78  C   UNL A   1      38.575  34.380  39.317  1.00  0.00     0.198 A 
ATOM     79  F   UNL A   1      38.111  32.358  38.205  1.00  0.00    -0.203 F 
ATOM     80  F   UNL A   1      40.505  37.260  38.262  1.00  0.00    -0.200 F 
ATOM     81  C   UNL A   1      39.182  35.628  39.340  1.00  0.00     0.200 A 
ATOM     82  F   UNL A   1      37.874  33.959  40.377  1.00  0.00    -0.200 F 
ATOM     83  F   UNL A   1      39.087  36.402  40.429  1.00  0.00    -0.200 F 
ENDBRANCH  49  73
BRANCH  61  84
ATOM     84  C   UNL A   1      43.843  28.923  35.304  1.00  0.00     0.064 A 
ATOM     85  C   UNL A   1      45.141  29.414  35.097  1.00  0.00     0.173 A 
ATOM     86  C   UNL A   1      43.676  27.867  36.211  1.00  0.00     0.173 A 
ATOM     87  F   UNL A   1      45.353  30.413  34.227  1.00  0.00    -0.203 F 
ATOM     88  C   UNL A   1      46.232  28.846  35.747  1.00  0.00     0.198 A 
ATOM     89  C   UNL A   1      44.766  27.322  36.883  1.00  0.00     0.198 A 
ATOM     90  F   UNL A   1      42.455  27.366  36.451  1.00  0.00    -0.203 F 
ATOM     91  F   UNL A   1      47.469  29.294  35.491  1.00  0.00    -0.200 F 
ATOM     92  C   UNL A   1      46.044  27.804  36.643  1.00  0.00     0.200 A 
ATOM     93  F   UNL A   1      44.581  26.325  37.759  1.00  0.00    -0.200 F 
ATOM     94  F   UNL A   1      47.096  27.259  37.269  1.00  0.00    -0.200 F 
ENDBRANCH  61  84
ENDBRANCH  35  36
ENDBRANCH  27  30
ENDBRANCH  25  26
ENDBRANCH  24  25
ENDBRANCH   1  24
TORSDOF 14
ENDMDL
