MODEL 1
REMARK VINA RESULT:     -12.4      0.000      0.000
REMARK SMILES CC1(C)C(n2c(SCC(=O)NCCCCNC(=O)c3ccc(-c4c5nc(c(-c6c(F)c(F)c(F)c(F)c6F)c6ccc([nH]6)c(-c6c(F)c(F)c(F)c(F)c6F)c6nc(c(-c7c(F)c(F)c(F)c(F)c7F)c7ccc4[nH]7)C=C6)C=C5)cc3)nc3cnccc32)C1(C)C
REMARK SMILES IDX 13 1 12 2 11 3 9 4 10 5 8 7 7 8 6 9 5 10 88 11 82 12 83 13
REMARK SMILES IDX 87 14 84 15 86 16 85 17 4 18 1 19 2 20 3 21 89 22 90 23
REMARK SMILES IDX 91 24 14 25 15 26 16 27 17 28 18 30 19 31 20 32 81 33 21 34
REMARK SMILES IDX 80 35 22 36 23 37 24 38 74 39 25 40 79 41 73 42 75 43 26 44
REMARK SMILES IDX 78 45 72 46 71 47 27 49 59 50 39 51 58 52 40 53 43 54 57 55
REMARK SMILES IDX 76 56 41 57 42 58 56 60 77 61 44 62 28 63 29 64 37 65 30 66
REMARK SMILES IDX 31 67 35 68 38 69 32 70 33 71 36 72 34 73 60 74 61 75 69 76
REMARK SMILES IDX 62 77 63 78 67 79 70 80 64 81 65 82 68 83 66 84 45 85 46 86
REMARK SMILES IDX 54 87 47 88 48 89 52 90 55 91 49 92 50 93 53 94 51 95
REMARK H PARENT 11 6 16 29 75 48 43 59
REMARK Flexibility Score: inf
ROOT
ATOM      1  C   UNL A   1      41.828  20.991  27.386  1.00  0.00     0.023 C 
ENDROOT
BRANCH   1   2
ATOM      2  C   UNL A   1      40.565  21.147  26.540  1.00  0.00     0.116 C 
BRANCH   2   3
ATOM      3  N   UNL A   1      39.759  22.218  27.068  1.00  0.00    -0.355 N 
ATOM      4  C   UNL A   1      38.770  22.887  26.429  1.00  0.00     0.230 C 
ATOM      5  O   UNL A   1      38.568  24.034  26.809  1.00  0.00    -0.274 OA
ATOM      6  H   UNL A   1      39.947  22.495  27.994  1.00  0.00     0.163 HD
BRANCH   4   7
ATOM      7  C   UNL A   1      37.933  22.161  25.406  1.00  0.00     0.178 C 
BRANCH   7   8
ATOM      8  S   UNL A   1      36.380  22.903  25.004  1.00  0.00    -0.078 SA
BRANCH   8   9
ATOM      9  C   UNL A   1      35.133  21.735  24.758  1.00  0.00     0.169 A 
ATOM     10  N   UNL A   1      33.793  21.825  24.404  1.00  0.00    -0.315 N 
ATOM     11  C   UNL A   1      33.367  20.522  24.162  1.00  0.00     0.072 A 
ATOM     12  N   UNL A   1      35.477  20.482  24.983  1.00  0.00    -0.221 NA
ATOM     13  C   UNL A   1      34.422  19.719  24.586  1.00  0.00     0.108 A 
ATOM     14  C   UNL A   1      32.213  19.951  23.615  1.00  0.00     0.049 A 
ATOM     15  C   UNL A   1      34.311  18.328  24.516  1.00  0.00     0.141 A 
ATOM     16  C   UNL A   1      32.195  18.561  23.578  1.00  0.00     0.113 A 
ATOM     17  N   UNL A   1      33.189  17.755  24.014  1.00  0.00    -0.262 NA
BRANCH  10  18
ATOM     18  C   UNL A   1      33.023  22.971  23.937  1.00  0.00     0.102 C 
ATOM     19  C   UNL A   1      30.606  23.741  23.336  1.00  0.00     0.014 C 
ATOM     20  C   UNL A   1      31.631  23.385  24.404  1.00  0.00    -0.007 C 
ATOM     21  C   UNL A   1      30.995  22.799  25.641  1.00  0.00     0.014 C 
ATOM     22  C   UNL A   1      32.834  24.345  24.582  1.00  0.00    -0.007 C 
ATOM     23  C   UNL A   1      32.848  25.591  23.701  1.00  0.00     0.014 C 
ATOM     24  C   UNL A   1      33.352  24.618  25.984  1.00  0.00     0.014 C 
ENDBRANCH  10  18
ENDBRANCH   8   9
ENDBRANCH   7   8
ENDBRANCH   4   7
ENDBRANCH   2   3
ENDBRANCH   1   2
BRANCH   1  25
ATOM     25  C   UNL A   1      42.744  19.828  26.968  1.00  0.00     0.023 C 
BRANCH  25  26
ATOM     26  C   UNL A   1      42.773  19.518  25.467  1.00  0.00     0.116 C 
BRANCH  26  27
ATOM     27  N   UNL A   1      44.073  19.682  24.857  1.00  0.00    -0.352 N 
ATOM     28  C   UNL A   1      44.997  20.678  24.809  1.00  0.00     0.251 C 
ATOM     29  H   UNL A   1      44.354  18.883  24.355  1.00  0.00     0.163 HD
ATOM     30  O   UNL A   1      46.032  20.428  24.186  1.00  0.00    -0.269 OA
BRANCH  28  31
ATOM     31  C   UNL A   1      44.819  22.025  25.399  1.00  0.00     0.039 A 
ATOM     32  C   UNL A   1      45.487  22.509  26.521  1.00  0.00     0.014 A 
ATOM     33  C   UNL A   1      43.854  22.839  24.778  1.00  0.00     0.014 A 
ATOM     34  C   UNL A   1      45.116  23.718  27.085  1.00  0.00     0.010 A 
ATOM     35  C   UNL A   1      43.501  24.067  25.316  1.00  0.00     0.010 A 
ATOM     36  C   UNL A   1      44.096  24.472  26.502  1.00  0.00    -0.014 A 
BRANCH  36  37
ATOM     37  C   UNL A   1      43.758  25.729  27.151  1.00  0.00     0.031 A 
ATOM     38  C   UNL A   1      44.688  26.849  26.840  1.00  0.00     0.074 A 
ATOM     39  C   UNL A   1      42.681  25.882  27.943  1.00  0.00     0.049 A 
ATOM     40  N   UNL A   1      45.462  27.488  27.656  1.00  0.00    -0.248 NA
ATOM     41  C   UNL A   1      44.877  27.211  25.426  1.00  0.00     0.031 C 
ATOM     42  C   UNL A   1      41.559  24.966  28.154  1.00  0.00     0.029 A 
ATOM     43  N   UNL A   1      42.334  26.966  28.688  1.00  0.00    -0.354 N 
ATOM     44  C   UNL A   1      46.128  28.441  26.890  1.00  0.00     0.074 A 
ATOM     45  C   UNL A   1      45.824  28.145  25.513  1.00  0.00     0.031 C 
ATOM     46  C   UNL A   1      40.558  25.624  28.782  1.00  0.00     0.029 A 
ATOM     47  C   UNL A   1      41.025  26.951  29.144  1.00  0.00     0.049 A 
ATOM     48  H   UNL A   1      42.960  27.699  28.886  1.00  0.00     0.167 HD
ATOM     49  C   UNL A   1      46.723  29.522  27.462  1.00  0.00     0.037 A 
ATOM     50  C   UNL A   1      40.368  27.992  29.715  1.00  0.00     0.037 A 
ATOM     51  C   UNL A   1      46.990  29.296  28.858  1.00  0.00     0.049 A 
ATOM     52  C   UNL A   1      41.396  28.928  30.238  1.00  0.00     0.074 A 
ATOM     53  C   UNL A   1      47.785  28.413  29.562  1.00  0.00     0.029 A 
ATOM     54  N   UNL A   1      46.122  29.826  29.779  1.00  0.00    -0.354 N 
ATOM     55  N   UNL A   1      42.186  28.656  31.239  1.00  0.00    -0.248 NA
ATOM     56  C   UNL A   1      41.843  29.998  29.359  1.00  0.00     0.031 C 
ATOM     57  C   UNL A   1      47.037  28.095  30.733  1.00  0.00     0.029 A 
ATOM     58  C   UNL A   1      45.860  28.843  30.699  1.00  0.00     0.049 A 
ATOM     59  H   UNL A   1      45.757  30.740  29.781  1.00  0.00     0.167 HD
ATOM     60  C   UNL A   1      43.409  29.202  30.877  1.00  0.00     0.074 A 
ATOM     61  C   UNL A   1      43.116  30.086  29.753  1.00  0.00     0.031 C 
ATOM     62  C   UNL A   1      44.578  28.673  31.339  1.00  0.00     0.037 A 
BRANCH  49  63
ATOM     63  C   UNL A   1      46.740  30.899  26.849  1.00  0.00     0.064 A 
ATOM     64  C   UNL A   1      47.942  31.636  26.833  1.00  0.00     0.173 A 
ATOM     65  C   UNL A   1      45.571  31.637  26.562  1.00  0.00     0.173 A 
ATOM     66  F   UNL A   1      49.112  31.042  27.109  1.00  0.00    -0.203 F 
ATOM     67  C   UNL A   1      47.957  33.018  26.630  1.00  0.00     0.198 A 
ATOM     68  C   UNL A   1      45.597  33.007  26.308  1.00  0.00     0.198 A 
ATOM     69  F   UNL A   1      44.351  31.092  26.628  1.00  0.00    -0.203 F 
ATOM     70  F   UNL A   1      49.107  33.696  26.752  1.00  0.00    -0.200 F 
ATOM     71  C   UNL A   1      46.784  33.704  26.374  1.00  0.00     0.200 A 
ATOM     72  F   UNL A   1      44.446  33.655  26.082  1.00  0.00    -0.200 F 
ATOM     73  F   UNL A   1      46.787  35.036  26.243  1.00  0.00    -0.200 F 
ENDBRANCH  49  63
BRANCH  50  74
ATOM     74  C   UNL A   1      38.966  28.417  29.478  1.00  0.00     0.064 A 
ATOM     75  C   UNL A   1      38.094  28.633  30.558  1.00  0.00     0.173 A 
ATOM     76  C   UNL A   1      38.550  28.917  28.228  1.00  0.00     0.173 A 
ATOM     77  F   UNL A   1      38.433  28.225  31.790  1.00  0.00    -0.203 F 
ATOM     78  C   UNL A   1      36.900  29.346  30.407  1.00  0.00     0.198 A 
ATOM     79  C   UNL A   1      37.354  29.622  28.077  1.00  0.00     0.198 A 
ATOM     80  F   UNL A   1      39.338  28.824  27.149  1.00  0.00    -0.203 F 
ATOM     81  F   UNL A   1      36.133  29.600  31.476  1.00  0.00    -0.200 F 
ATOM     82  C   UNL A   1      36.540  29.853  29.170  1.00  0.00     0.200 A 
ATOM     83  F   UNL A   1      37.034  30.137  26.882  1.00  0.00    -0.200 F 
ATOM     84  F   UNL A   1      35.435  30.600  29.039  1.00  0.00    -0.200 F 
ENDBRANCH  50  74
BRANCH  62  85
ATOM     85  C   UNL A   1      44.502  27.655  32.443  1.00  0.00     0.064 A 
ATOM     86  C   UNL A   1      44.394  27.980  33.806  1.00  0.00     0.173 A 
ATOM     87  C   UNL A   1      44.384  26.305  32.090  1.00  0.00     0.173 A 
ATOM     88  F   UNL A   1      44.398  29.255  34.215  1.00  0.00    -0.203 F 
ATOM     89  C   UNL A   1      44.216  26.991  34.772  1.00  0.00     0.198 A 
ATOM     90  C   UNL A   1      44.167  25.322  33.054  1.00  0.00     0.198 A 
ATOM     91  F   UNL A   1      44.425  25.940  30.799  1.00  0.00    -0.203 F 
ATOM     92  F   UNL A   1      44.123  27.325  36.068  1.00  0.00    -0.200 F 
ATOM     93  C   UNL A   1      44.094  25.665  34.394  1.00  0.00     0.200 A 
ATOM     94  F   UNL A   1      44.001  24.047  32.678  1.00  0.00    -0.200 F 
ATOM     95  F   UNL A   1      43.877  24.718  35.318  1.00  0.00    -0.200 F 
ENDBRANCH  62  85
ENDBRANCH  36  37
ENDBRANCH  28  31
ENDBRANCH  26  27
ENDBRANCH  25  26
ENDBRANCH   1  25
TORSDOF 14
ENDMDL
MODEL 2
REMARK VINA RESULT:     -12.3      3.089      8.721
REMARK SMILES CC1(C)C(n2c(SCC(=O)NCCCCNC(=O)c3ccc(-c4c5nc(c(-c6c(F)c(F)c(F)c(F)c6F)c6ccc([nH]6)c(-c6c(F)c(F)c(F)c(F)c6F)c6nc(c(-c7c(F)c(F)c(F)c(F)c7F)c7ccc4[nH]7)C=C6)C=C5)cc3)nc3cnccc32)C1(C)C
REMARK SMILES IDX 13 1 12 2 11 3 9 4 10 5 8 7 7 8 6 9 5 10 88 11 82 12 83 13
REMARK SMILES IDX 87 14 84 15 86 16 85 17 4 18 1 19 2 20 3 21 89 22 90 23
REMARK SMILES IDX 91 24 14 25 15 26 16 27 17 28 18 30 19 31 20 32 81 33 21 34
REMARK SMILES IDX 80 35 22 36 23 37 24 38 74 39 25 40 79 41 73 42 75 43 26 44
REMARK SMILES IDX 78 45 72 46 71 47 27 49 59 50 39 51 58 52 40 53 43 54 57 55
REMARK SMILES IDX 76 56 41 57 42 58 56 60 77 61 44 62 28 63 29 64 37 65 30 66
REMARK SMILES IDX 31 67 35 68 38 69 32 70 33 71 36 72 34 73 60 74 61 75 69 76
REMARK SMILES IDX 62 77 63 78 67 79 70 80 64 81 65 82 68 83 66 84 45 85 46 86
REMARK SMILES IDX 54 87 47 88 48 89 52 90 55 91 49 92 50 93 53 94 51 95
REMARK H PARENT 11 6 16 29 75 48 43 59
REMARK Flexibility Score: inf
ROOT
ATOM      1  C   UNL A   1      31.399  30.391  25.510  1.00  0.00     0.023 C 
ENDROOT
BRANCH   1   2
ATOM      2  C   UNL A   1      31.294  29.217  24.538  1.00  0.00     0.116 C 
BRANCH   2   3
ATOM      3  N   UNL A   1      32.385  29.269  23.598  1.00  0.00    -0.355 N 
ATOM      4  C   UNL A   1      33.393  28.373  23.468  1.00  0.00     0.230 C 
ATOM      5  O   UNL A   1      34.444  28.814  23.018  1.00  0.00    -0.274 OA
ATOM      6  H   UNL A   1      32.400  30.038  22.985  1.00  0.00     0.163 HD
BRANCH   4   7
ATOM      7  C   UNL A   1      33.128  26.919  23.764  1.00  0.00     0.178 C 
BRANCH   7   8
ATOM      8  S   UNL A   1      33.625  26.347  25.361  1.00  0.00    -0.078 SA
BRANCH   8   9
ATOM      9  C   UNL A   1      34.526  24.876  25.285  1.00  0.00     0.169 A 
ATOM     10  N   UNL A   1      34.255  23.612  24.778  1.00  0.00    -0.315 N 
ATOM     11  C   UNL A   1      35.454  22.907  24.830  1.00  0.00     0.072 A 
ATOM     12  N   UNL A   1      35.715  24.909  25.856  1.00  0.00    -0.221 NA
ATOM     13  C   UNL A   1      36.316  23.726  25.555  1.00  0.00     0.108 A 
ATOM     14  C   UNL A   1      35.895  21.680  24.324  1.00  0.00     0.049 A 
ATOM     15  C   UNL A   1      37.618  23.298  25.828  1.00  0.00     0.141 A 
ATOM     16  C   UNL A   1      37.206  21.341  24.639  1.00  0.00     0.113 A 
ATOM     17  N   UNL A   1      38.055  22.099  25.369  1.00  0.00    -0.262 NA
BRANCH  10  18
ATOM     18  C   UNL A   1      33.142  23.152  23.956  1.00  0.00     0.102 C 
ATOM     19  C   UNL A   1      32.138  21.030  22.824  1.00  0.00     0.014 C 
ATOM     20  C   UNL A   1      32.393  21.831  24.094  1.00  0.00    -0.007 C 
ATOM     21  C   UNL A   1      32.540  20.951  25.310  1.00  0.00     0.014 C 
ATOM     22  C   UNL A   1      31.642  23.177  24.248  1.00  0.00    -0.007 C 
ATOM     23  C   UNL A   1      30.670  23.547  23.130  1.00  0.00     0.014 C 
ATOM     24  C   UNL A   1      31.128  23.575  25.621  1.00  0.00     0.014 C 
ENDBRANCH  10  18
ENDBRANCH   8   9
ENDBRANCH   7   8
ENDBRANCH   4   7
ENDBRANCH   2   3
ENDBRANCH   1   2
BRANCH   1  25
ATOM     25  C   UNL A   1      32.028  30.046  26.871  1.00  0.00     0.023 C 
BRANCH  25  26
ATOM     26  C   UNL A   1      33.538  30.286  26.978  1.00  0.00     0.116 C 
BRANCH  26  27
ATOM     27  N   UNL A   1      33.900  31.380  27.852  1.00  0.00    -0.352 N 
ATOM     28  C   UNL A   1      35.029  31.755  28.511  1.00  0.00     0.251 C 
ATOM     29  H   UNL A   1      33.151  31.999  28.006  1.00  0.00     0.163 HD
ATOM     30  O   UNL A   1      34.954  32.799  29.162  1.00  0.00    -0.269 OA
BRANCH  28  31
ATOM     31  C   UNL A   1      36.290  30.979  28.535  1.00  0.00     0.039 A 
ATOM     32  C   UNL A   1      36.423  29.644  28.162  1.00  0.00     0.014 A 
ATOM     33  C   UNL A   1      37.418  31.664  29.026  1.00  0.00     0.014 A 
ATOM     34  C   UNL A   1      37.613  28.973  28.387  1.00  0.00     0.010 A 
ATOM     35  C   UNL A   1      38.623  31.008  29.222  1.00  0.00     0.010 A 
ATOM     36  C   UNL A   1      38.695  29.649  28.954  1.00  0.00    -0.014 A 
BRANCH  36  37
ATOM     37  C   UNL A   1      39.911  28.879  29.165  1.00  0.00     0.031 A 
ATOM     38  C   UNL A   1      40.273  28.686  30.596  1.00  0.00     0.074 A 
ATOM     39  C   UNL A   1      40.635  28.356  28.159  1.00  0.00     0.049 A 
ATOM     40  N   UNL A   1      41.323  29.122  31.215  1.00  0.00    -0.248 NA
ATOM     41  C   UNL A   1      39.282  28.046  31.475  1.00  0.00     0.031 C 
ATOM     42  C   UNL A   1      40.293  28.252  26.740  1.00  0.00     0.029 A 
ATOM     43  N   UNL A   1      41.838  27.725  28.230  1.00  0.00    -0.354 N 
ATOM     44  C   UNL A   1      41.206  28.682  32.530  1.00  0.00     0.074 A 
ATOM     45  C   UNL A   1      39.880  28.135  32.663  1.00  0.00     0.031 C 
ATOM     46  C   UNL A   1      41.153  27.400  26.136  1.00  0.00     0.029 A 
ATOM     47  C   UNL A   1      42.184  27.022  27.086  1.00  0.00     0.049 A 
ATOM     48  H   UNL A   1      42.415  27.766  29.027  1.00  0.00     0.167 HD
ATOM     49  C   UNL A   1      42.285  28.626  33.358  1.00  0.00     0.037 A 
ATOM     50  C   UNL A   1      43.210  26.143  26.972  1.00  0.00     0.037 A 
ATOM     51  C   UNL A   1      43.345  29.483  32.898  1.00  0.00     0.049 A 
ATOM     52  C   UNL A   1      44.178  26.451  28.055  1.00  0.00     0.074 A 
ATOM     53  C   UNL A   1      43.481  30.845  32.718  1.00  0.00     0.029 A 
ATOM     54  N   UNL A   1      44.386  28.914  32.208  1.00  0.00    -0.354 N 
ATOM     55  N   UNL A   1      44.894  27.540  28.103  1.00  0.00    -0.248 NA
ATOM     56  C   UNL A   1      44.025  25.746  29.318  1.00  0.00     0.031 C 
ATOM     57  C   UNL A   1      44.278  30.986  31.545  1.00  0.00     0.029 A 
ATOM     58  C   UNL A   1      44.625  29.706  31.113  1.00  0.00     0.049 A 
ATOM     59  H   UNL A   1      44.871  28.094  32.452  1.00  0.00     0.167 HD
ATOM     60  C   UNL A   1      44.912  27.888  29.445  1.00  0.00     0.074 A 
ATOM     61  C   UNL A   1      44.434  26.704  30.154  1.00  0.00     0.031 C 
ATOM     62  C   UNL A   1      45.043  29.189  29.833  1.00  0.00     0.037 A 
BRANCH  49  63
ATOM     63  C   UNL A   1      42.510  27.537  34.377  1.00  0.00     0.064 A 
ATOM     64  C   UNL A   1      43.089  26.318  33.970  1.00  0.00     0.173 A 
ATOM     65  C   UNL A   1      41.903  27.526  35.651  1.00  0.00     0.173 A 
ATOM     66  F   UNL A   1      43.678  26.206  32.770  1.00  0.00    -0.203 F 
ATOM     67  C   UNL A   1      42.991  25.160  34.746  1.00  0.00     0.198 A 
ATOM     68  C   UNL A   1      41.853  26.382  36.445  1.00  0.00     0.198 A 
ATOM     69  F   UNL A   1      41.236  28.583  36.131  1.00  0.00    -0.203 F 
ATOM     70  F   UNL A   1      43.443  23.994  34.262  1.00  0.00    -0.200 F 
ATOM     71  C   UNL A   1      42.367  25.191  35.979  1.00  0.00     0.200 A 
ATOM     72  F   UNL A   1      41.225  26.429  37.628  1.00  0.00    -0.200 F 
ATOM     73  F   UNL A   1      42.215  24.070  36.695  1.00  0.00    -0.200 F 
ENDBRANCH  49  63
BRANCH  50  74
ATOM     74  C   UNL A   1      43.206  24.834  26.270  1.00  0.00     0.064 A 
ATOM     75  C   UNL A   1      44.140  24.567  25.254  1.00  0.00     0.173 A 
ATOM     76  C   UNL A   1      42.508  23.725  26.785  1.00  0.00     0.173 A 
ATOM     77  F   UNL A   1      44.877  25.562  24.739  1.00  0.00    -0.203 F 
ATOM     78  C   UNL A   1      44.394  23.264  24.814  1.00  0.00     0.198 A 
ATOM     79  C   UNL A   1      42.756  22.426  26.338  1.00  0.00     0.198 A 
ATOM     80  F   UNL A   1      41.645  23.861  27.801  1.00  0.00    -0.203 F 
ATOM     81  F   UNL A   1      45.347  23.041  23.900  1.00  0.00    -0.200 F 
ATOM     82  C   UNL A   1      43.712  22.194  25.367  1.00  0.00     0.200 A 
ATOM     83  F   UNL A   1      42.115  21.395  26.906  1.00  0.00    -0.200 F 
ATOM     84  F   UNL A   1      44.006  20.939  25.000  1.00  0.00    -0.200 F 
ENDBRANCH  50  74
BRANCH  62  85
ATOM     85  C   UNL A   1      45.422  30.199  28.786  1.00  0.00     0.064 A 
ATOM     86  C   UNL A   1      44.505  30.808  27.911  1.00  0.00     0.173 A 
ATOM     87  C   UNL A   1      46.739  30.675  28.772  1.00  0.00     0.173 A 
ATOM     88  F   UNL A   1      43.207  30.478  27.933  1.00  0.00    -0.203 F 
ATOM     89  C   UNL A   1      44.902  31.818  27.037  1.00  0.00     0.198 A 
ATOM     90  C   UNL A   1      47.125  31.711  27.925  1.00  0.00     0.198 A 
ATOM     91  F   UNL A   1      47.646  30.170  29.623  1.00  0.00    -0.203 F 
ATOM     92  F   UNL A   1      44.010  32.378  26.206  1.00  0.00    -0.200 F 
ATOM     93  C   UNL A   1      46.209  32.275  27.052  1.00  0.00     0.200 A 
ATOM     94  F   UNL A   1      48.378  32.182  27.978  1.00  0.00    -0.200 F 
ATOM     95  F   UNL A   1      46.581  33.278  26.244  1.00  0.00    -0.200 F 
ENDBRANCH  62  85
ENDBRANCH  36  37
ENDBRANCH  28  31
ENDBRANCH  26  27
ENDBRANCH  25  26
ENDBRANCH   1  25
TORSDOF 14
ENDMDL
MODEL 3
REMARK VINA RESULT:     -12.2      3.101      5.020
REMARK SMILES CC1(C)C(n2c(SCC(=O)NCCCCNC(=O)c3ccc(-c4c5nc(c(-c6c(F)c(F)c(F)c(F)c6F)c6ccc([nH]6)c(-c6c(F)c(F)c(F)c(F)c6F)c6nc(c(-c7c(F)c(F)c(F)c(F)c7F)c7ccc4[nH]7)C=C6)C=C5)cc3)nc3cnccc32)C1(C)C
REMARK SMILES IDX 13 1 12 2 11 3 9 4 10 5 8 7 7 8 6 9 5 10 88 11 82 12 83 13
REMARK SMILES IDX 87 14 84 15 86 16 85 17 4 18 1 19 2 20 3 21 89 22 90 23
REMARK SMILES IDX 91 24 14 25 15 26 16 27 17 28 18 30 19 31 20 32 81 33 21 34
REMARK SMILES IDX 80 35 22 36 23 37 24 38 74 39 25 40 79 41 73 42 75 43 26 44
REMARK SMILES IDX 78 45 72 46 71 47 27 49 59 50 39 51 58 52 40 53 43 54 57 55
REMARK SMILES IDX 76 56 41 57 42 58 56 60 77 61 44 62 28 63 29 64 37 65 30 66
REMARK SMILES IDX 31 67 35 68 38 69 32 70 33 71 36 72 34 73 60 74 61 75 69 76
REMARK SMILES IDX 62 77 63 78 67 79 70 80 64 81 65 82 68 83 66 84 45 85 46 86
REMARK SMILES IDX 54 87 47 88 48 89 52 90 55 91 49 92 50 93 53 94 51 95
REMARK H PARENT 11 6 16 29 75 48 43 59
REMARK Flexibility Score: inf
ROOT
ATOM      1  C   UNL A   1      37.496  23.558  25.929  1.00  0.00     0.023 C 
ENDROOT
BRANCH   1   2
ATOM      2  C   UNL A   1      36.002  23.361  26.174  1.00  0.00     0.116 C 
BRANCH   2   3
ATOM      3  N   UNL A   1      35.440  22.562  25.114  1.00  0.00    -0.355 N 
ATOM      4  C   UNL A   1      34.303  22.808  24.421  1.00  0.00     0.230 C 
ATOM      5  O   UNL A   1      33.734  21.825  23.961  1.00  0.00    -0.274 OA
ATOM      6  H   UNL A   1      35.936  21.748  24.867  1.00  0.00     0.163 HD
BRANCH   4   7
ATOM      7  C   UNL A   1      33.889  24.236  24.170  1.00  0.00     0.178 C 
BRANCH   7   8
ATOM      8  S   UNL A   1      32.645  24.886  25.245  1.00  0.00    -0.078 SA
BRANCH   8   9
ATOM      9  C   UNL A   1      32.853  26.572  25.553  1.00  0.00     0.169 A 
ATOM     10  N   UNL A   1      32.107  27.701  25.243  1.00  0.00    -0.315 N 
ATOM     11  C   UNL A   1      32.688  28.755  25.943  1.00  0.00     0.072 A 
ATOM     12  N   UNL A   1      33.966  26.901  26.181  1.00  0.00    -0.221 NA
ATOM     13  C   UNL A   1      33.866  28.228  26.464  1.00  0.00     0.108 A 
ATOM     14  C   UNL A   1      32.326  30.081  26.199  1.00  0.00     0.049 A 
ATOM     15  C   UNL A   1      34.726  29.043  27.206  1.00  0.00     0.141 A 
ATOM     16  C   UNL A   1      33.238  30.813  26.952  1.00  0.00     0.113 A 
ATOM     17  N   UNL A   1      34.406  30.340  27.442  1.00  0.00    -0.262 NA
BRANCH  10  18
ATOM     18  C   UNL A   1      30.765  27.812  24.685  1.00  0.00     0.102 C 
ATOM     19  C   UNL A   1      29.144  29.469  23.495  1.00  0.00     0.014 C 
ATOM     20  C   UNL A   1      30.363  28.560  23.419  1.00  0.00    -0.007 C 
ATOM     21  C   UNL A   1      31.383  29.047  22.420  1.00  0.00     0.014 C 
ATOM     22  C   UNL A   1      30.120  27.035  23.537  1.00  0.00    -0.007 C 
ATOM     23  C   UNL A   1      28.668  26.583  23.664  1.00  0.00     0.014 C 
ATOM     24  C   UNL A   1      30.950  26.094  22.680  1.00  0.00     0.014 C 
ENDBRANCH  10  18
ENDBRANCH   8   9
ENDBRANCH   7   8
ENDBRANCH   4   7
ENDBRANCH   2   3
ENDBRANCH   1   2
BRANCH   1  25
ATOM     25  C   UNL A   1      38.243  22.303  25.446  1.00  0.00     0.023 C 
BRANCH  25  26
ATOM     26  C   UNL A   1      39.348  21.794  26.378  1.00  0.00     0.116 C 
BRANCH  26  27
ATOM     27  N   UNL A   1      40.687  22.050  25.897  1.00  0.00    -0.352 N 
ATOM     28  C   UNL A   1      41.562  23.087  25.986  1.00  0.00     0.251 C 
ATOM     29  H   UNL A   1      41.051  21.294  25.382  1.00  0.00     0.163 HD
ATOM     30  O   UNL A   1      42.658  22.919  25.448  1.00  0.00    -0.269 OA
BRANCH  28  31
ATOM     31  C   UNL A   1      41.266  24.389  26.628  1.00  0.00     0.039 A 
ATOM     32  C   UNL A   1      40.565  25.438  26.038  1.00  0.00     0.014 A 
ATOM     33  C   UNL A   1      41.792  24.564  27.921  1.00  0.00     0.014 A 
ATOM     34  C   UNL A   1      40.496  26.670  26.666  1.00  0.00     0.010 A 
ATOM     35  C   UNL A   1      41.698  25.785  28.572  1.00  0.00     0.010 A 
ATOM     36  C   UNL A   1      41.098  26.849  27.913  1.00  0.00    -0.014 A 
BRANCH  36  37
ATOM     37  C   UNL A   1      40.989  28.170  28.510  1.00  0.00     0.031 A 
ATOM     38  C   UNL A   1      42.089  29.102  28.141  1.00  0.00     0.074 A 
ATOM     39  C   UNL A   1      39.967  28.536  29.306  1.00  0.00     0.049 A 
ATOM     40  N   UNL A   1      42.975  29.633  28.920  1.00  0.00    -0.248 NA
ATOM     41  C   UNL A   1      42.312  29.368  26.711  1.00  0.00     0.031 C 
ATOM     42  C   UNL A   1      38.711  27.833  29.568  1.00  0.00     0.029 A 
ATOM     43  N   UNL A   1      39.822  29.693  30.006  1.00  0.00    -0.354 N 
ATOM     44  C   UNL A   1      43.779  30.427  28.107  1.00  0.00     0.074 A 
ATOM     45  C   UNL A   1      43.406  30.131  26.748  1.00  0.00     0.031 C 
ATOM     46  C   UNL A   1      37.847  28.677  30.176  1.00  0.00     0.029 A 
ATOM     47  C   UNL A   1      38.537  29.919  30.476  1.00  0.00     0.049 A 
ATOM     48  H   UNL A   1      40.567  30.316  30.166  1.00  0.00     0.167 HD
ATOM     49  C   UNL A   1      44.559  31.414  28.626  1.00  0.00     0.037 A 
ATOM     50  C   UNL A   1      38.077  31.079  31.008  1.00  0.00     0.037 A 
ATOM     51  C   UNL A   1      44.808  31.204  30.028  1.00  0.00     0.049 A 
ATOM     52  C   UNL A   1      39.257  31.847  31.479  1.00  0.00     0.074 A 
ATOM     53  C   UNL A   1      45.454  30.228  30.761  1.00  0.00     0.029 A 
ATOM     54  N   UNL A   1      44.058  31.910  30.933  1.00  0.00    -0.354 N 
ATOM     55  N   UNL A   1      40.007  31.487  32.483  1.00  0.00    -0.248 NA
ATOM     56  C   UNL A   1      39.863  32.789  30.550  1.00  0.00     0.031 C 
ATOM     57  C   UNL A   1      44.683  30.090  31.952  1.00  0.00     0.029 A 
ATOM     58  C   UNL A   1      43.649  31.025  31.898  1.00  0.00     0.049 A 
ATOM     59  H   UNL A   1      43.853  32.872  30.899  1.00  0.00     0.167 HD
ATOM     60  C   UNL A   1      41.297  31.802  32.085  1.00  0.00     0.074 A 
ATOM     61  C   UNL A   1      41.139  32.676  30.927  1.00  0.00     0.031 C 
ATOM     62  C   UNL A   1      42.369  31.102  32.557  1.00  0.00     0.037 A 
BRANCH  49  63
ATOM     63  C   UNL A   1      44.797  32.742  27.953  1.00  0.00     0.064 A 
ATOM     64  C   UNL A   1      46.057  33.011  27.380  1.00  0.00     0.173 A 
ATOM     65  C   UNL A   1      43.954  33.862  28.120  1.00  0.00     0.173 A 
ATOM     66  F   UNL A   1      46.947  32.026  27.191  1.00  0.00    -0.203 F 
ATOM     67  C   UNL A   1      46.467  34.312  27.079  1.00  0.00     0.198 A 
ATOM     68  C   UNL A   1      44.347  35.152  27.770  1.00  0.00     0.198 A 
ATOM     69  F   UNL A   1      42.767  33.773  28.731  1.00  0.00    -0.203 F 
ATOM     70  F   UNL A   1      47.719  34.534  26.656  1.00  0.00    -0.200 F 
ATOM     71  C   UNL A   1      45.615  35.382  27.280  1.00  0.00     0.200 A 
ATOM     72  F   UNL A   1      43.513  36.177  27.992  1.00  0.00    -0.200 F 
ATOM     73  F   UNL A   1      46.028  36.635  27.054  1.00  0.00    -0.200 F 
ENDBRANCH  49  63
BRANCH  50  74
ATOM     74  C   UNL A   1      36.762  31.726  30.766  1.00  0.00     0.064 A 
ATOM     75  C   UNL A   1      35.892  31.993  31.837  1.00  0.00     0.173 A 
ATOM     76  C   UNL A   1      36.471  32.370  29.548  1.00  0.00     0.173 A 
ATOM     77  F   UNL A   1      36.121  31.452  33.043  1.00  0.00    -0.203 F 
ATOM     78  C   UNL A   1      34.824  32.887  31.709  1.00  0.00     0.198 A 
ATOM     79  C   UNL A   1      35.400  33.255  29.420  1.00  0.00     0.198 A 
ATOM     80  F   UNL A   1      37.277  32.236  28.486  1.00  0.00    -0.203 F 
ATOM     81  F   UNL A   1      34.063  33.176  32.773  1.00  0.00    -0.200 F 
ATOM     82  C   UNL A   1      34.589  33.528  30.505  1.00  0.00     0.200 A 
ATOM     83  F   UNL A   1      35.204  33.896  28.259  1.00  0.00    -0.200 F 
ATOM     84  F   UNL A   1      33.612  34.441  30.401  1.00  0.00    -0.200 F 
ENDBRANCH  50  74
BRANCH  62  85
ATOM     85  C   UNL A   1      42.140  30.157  33.705  1.00  0.00     0.064 A 
ATOM     86  C   UNL A   1      41.719  28.824  33.555  1.00  0.00     0.173 A 
ATOM     87  C   UNL A   1      42.507  30.576  34.990  1.00  0.00     0.173 A 
ATOM     88  F   UNL A   1      41.446  28.319  32.345  1.00  0.00    -0.203 F 
ATOM     89  C   UNL A   1      41.632  27.967  34.651  1.00  0.00     0.198 A 
ATOM     90  C   UNL A   1      42.456  29.706  36.077  1.00  0.00     0.198 A 
ATOM     91  F   UNL A   1      42.969  31.822  35.185  1.00  0.00    -0.203 F 
ATOM     92  F   UNL A   1      41.220  26.701  34.483  1.00  0.00    -0.200 F 
ATOM     93  C   UNL A   1      42.010  28.406  35.908  1.00  0.00     0.200 A 
ATOM     94  F   UNL A   1      42.869  30.122  37.282  1.00  0.00    -0.200 F 
ATOM     95  F   UNL A   1      41.970  27.569  36.954  1.00  0.00    -0.200 F 
ENDBRANCH  62  85
ENDBRANCH  36  37
ENDBRANCH  28  31
ENDBRANCH  26  27
ENDBRANCH  25  26
ENDBRANCH   1  25
TORSDOF 14
ENDMDL
