MODEL 1
REMARK VINA RESULT:     -10.7      0.000      0.000
REMARK SMILES CCN(C(=O)N(CCOC)CC(=O)NCCCCNC(=O)c1ccc(-c2c3nc(c(-c4c(F)c(F)c(F)c(F)c4F)c4ccc([nH]4)c(-c4c(F)c(F)c(F)c(F)c4F)c4nc(c(-c5c(F)c(F)c(F)c(F)c5F)c5ccc2[nH]5)C=C4)C=C3)cc1)C1CCCC1
REMARK SMILES IDX 15 1 14 2 12 3 13 4 11 6 6 7 4 8 5 9 3 10 2 11 1 12 85 13
REMARK SMILES IDX 86 14 89 15 87 16 88 17 7 18 8 19 9 20 10 21 16 22 17 23
REMARK SMILES IDX 18 24 19 25 20 26 21 28 22 29 23 30 84 31 24 32 83 33 25 34
REMARK SMILES IDX 26 35 27 36 77 37 28 38 82 39 76 40 78 41 29 42 81 43 75 44
REMARK SMILES IDX 74 45 30 47 62 48 42 49 61 50 43 51 46 52 60 53 79 54 44 55
REMARK SMILES IDX 45 56 59 58 80 59 47 60 31 61 32 62 40 63 33 64 34 65 38 66
REMARK SMILES IDX 41 67 35 68 36 69 39 70 37 71 63 72 64 73 72 74 65 75 66 76
REMARK SMILES IDX 70 77 73 78 67 79 68 80 71 81 69 82 48 83 49 84 57 85 50 86
REMARK SMILES IDX 51 87 55 88 58 89 52 90 53 91 56 92 54 93
REMARK H PARENT 14 5 19 27 78 46 46 57
REMARK Flexibility Score: inf
ROOT
ATOM      1  C   UNL A   1      37.001  22.413  25.394  1.00  0.00     0.116 C 
ENDROOT
BRANCH   1   2
ATOM      2  N   UNL A   1      36.166  22.161  26.536  1.00  0.00    -0.355 N 
ATOM      3  C   UNL A   1      34.829  22.408  26.684  1.00  0.00     0.239 C 
ATOM      4  O   UNL A   1      34.255  21.808  27.601  1.00  0.00    -0.273 OA
ATOM      5  H   UNL A   1      36.614  21.757  27.314  1.00  0.00     0.163 HD
BRANCH   3   6
ATOM      6  C   UNL A   1      34.005  23.220  25.652  1.00  0.00     0.221 C 
BRANCH   6   7
ATOM      7  N   UNL A   1      32.532  23.126  25.603  1.00  0.00    -0.313 N 
BRANCH   7   8
ATOM      8  C   UNL A   1      31.916  24.177  26.271  1.00  0.00     0.320 C 
ATOM      9  O   UNL A   1      31.434  23.966  27.390  1.00  0.00    -0.248 OA
BRANCH   8  10
ATOM     10  N   UNL A   1      31.794  25.443  25.711  1.00  0.00    -0.322 N 
BRANCH  10  11
ATOM     11  C   UNL A   1      31.609  25.663  24.272  1.00  0.00     0.118 C 
ATOM     12  C   UNL A   1      30.199  25.356  23.776  1.00  0.00     0.027 C 
ENDBRANCH  10  11
BRANCH  10  13
ATOM     13  C   UNL A   1      32.454  26.522  26.491  1.00  0.00     0.087 C 
ATOM     14  C   UNL A   1      33.552  27.337  25.800  1.00  0.00     0.025 C 
ATOM     15  C   UNL A   1      31.504  27.653  26.942  1.00  0.00     0.025 C 
ATOM     16  C   UNL A   1      33.784  28.498  26.758  1.00  0.00     0.002 C 
ATOM     17  C   UNL A   1      32.401  28.838  27.297  1.00  0.00     0.002 C 
ENDBRANCH  10  13
ENDBRANCH   8  10
ENDBRANCH   7   8
BRANCH   7  18
ATOM     18  C   UNL A   1      32.002  21.777  25.303  1.00  0.00     0.150 C 
BRANCH  18  19
ATOM     19  C   UNL A   1      32.405  21.170  23.939  1.00  0.00     0.181 C 
BRANCH  19  20
ATOM     20  O   UNL A   1      32.343  19.740  23.948  1.00  0.00    -0.383 OA
ATOM     21  C   UNL A   1      32.952  19.110  25.063  1.00  0.00     0.194 C 
ENDBRANCH  19  20
ENDBRANCH  18  19
ENDBRANCH   7  18
ENDBRANCH   6   7
ENDBRANCH   3   6
ENDBRANCH   1   2
BRANCH   1  22
ATOM     22  C   UNL A   1      37.144  21.243  24.433  1.00  0.00     0.023 C 
BRANCH  22  23
ATOM     23  C   UNL A   1      37.895  20.046  25.004  1.00  0.00     0.023 C 
BRANCH  23  24
ATOM     24  C   UNL A   1      39.196  20.373  25.730  1.00  0.00     0.116 C 
BRANCH  24  25
ATOM     25  N   UNL A   1      40.110  19.246  25.844  1.00  0.00    -0.352 N 
ATOM     26  C   UNL A   1      41.462  19.252  26.110  1.00  0.00     0.251 C 
ATOM     27  H   UNL A   1      39.706  18.357  25.713  1.00  0.00     0.163 HD
ATOM     28  O   UNL A   1      42.106  18.213  26.077  1.00  0.00    -0.269 OA
BRANCH  26  29
ATOM     29  C   UNL A   1      42.138  20.537  26.393  1.00  0.00     0.039 A 
ATOM     30  C   UNL A   1      42.548  21.333  25.323  1.00  0.00     0.014 A 
ATOM     31  C   UNL A   1      42.315  20.978  27.706  1.00  0.00     0.014 A 
ATOM     32  C   UNL A   1      43.058  22.610  25.569  1.00  0.00     0.010 A 
ATOM     33  C   UNL A   1      42.735  22.283  27.946  1.00  0.00     0.010 A 
ATOM     34  C   UNL A   1      43.112  23.113  26.880  1.00  0.00    -0.014 A 
BRANCH  34  35
ATOM     35  C   UNL A   1      43.561  24.504  27.153  1.00  0.00     0.031 A 
ATOM     36  C   UNL A   1      42.590  25.521  27.687  1.00  0.00     0.074 A 
ATOM     37  C   UNL A   1      44.825  24.869  26.860  1.00  0.00     0.049 A 
ATOM     38  N   UNL A   1      42.779  26.791  27.947  1.00  0.00    -0.248 NA
ATOM     39  C   UNL A   1      41.216  25.058  27.934  1.00  0.00     0.031 C 
ATOM     40  C   UNL A   1      45.846  23.997  26.276  1.00  0.00     0.029 A 
ATOM     41  N   UNL A   1      45.466  26.074  27.009  1.00  0.00    -0.354 N 
ATOM     42  C   UNL A   1      41.550  27.276  28.371  1.00  0.00     0.074 A 
ATOM     43  C   UNL A   1      40.607  26.184  28.272  1.00  0.00     0.031 C 
ATOM     44  C   UNL A   1      46.991  24.685  26.146  1.00  0.00     0.029 A 
ATOM     45  C   UNL A   1      46.779  26.054  26.604  1.00  0.00     0.049 A 
ATOM     46  H   UNL A   1      45.027  26.877  27.372  1.00  0.00     0.167 HD
ATOM     47  C   UNL A   1      41.239  28.512  28.830  1.00  0.00     0.037 A 
ATOM     48  C   UNL A   1      47.707  27.031  26.602  1.00  0.00     0.037 A 
ATOM     49  C   UNL A   1      42.185  29.591  28.954  1.00  0.00     0.049 A 
ATOM     50  C   UNL A   1      47.340  28.393  27.127  1.00  0.00     0.074 A 
ATOM     51  C   UNL A   1      41.985  30.859  29.468  1.00  0.00     0.029 A 
ATOM     52  N   UNL A   1      43.513  29.524  28.557  1.00  0.00    -0.354 N 
ATOM     53  N   UNL A   1      46.194  28.817  27.603  1.00  0.00    -0.248 NA
ATOM     54  C   UNL A   1      48.400  29.410  27.126  1.00  0.00     0.031 C 
ATOM     55  C   UNL A   1      43.179  31.577  29.339  1.00  0.00     0.029 A 
ATOM     56  C   UNL A   1      44.138  30.738  28.795  1.00  0.00     0.049 A 
ATOM     57  H   UNL A   1      43.946  28.733  28.164  1.00  0.00     0.167 HD
ATOM     58  C   UNL A   1      46.402  30.136  27.982  1.00  0.00     0.074 A 
ATOM     59  C   UNL A   1      47.790  30.437  27.699  1.00  0.00     0.031 C 
ATOM     60  C   UNL A   1      45.523  31.020  28.515  1.00  0.00     0.037 A 
BRANCH  47  61
ATOM     61  C   UNL A   1      39.816  28.761  29.241  1.00  0.00     0.064 A 
ATOM     62  C   UNL A   1      38.862  29.247  28.332  1.00  0.00     0.173 A 
ATOM     63  C   UNL A   1      39.392  28.482  30.549  1.00  0.00     0.173 A 
ATOM     64  F   UNL A   1      39.218  29.541  27.072  1.00  0.00    -0.203 F 
ATOM     65  C   UNL A   1      37.547  29.476  28.726  1.00  0.00     0.198 A 
ATOM     66  C   UNL A   1      38.068  28.681  30.931  1.00  0.00     0.198 A 
ATOM     67  F   UNL A   1      40.260  28.010  31.456  1.00  0.00    -0.203 F 
ATOM     68  F   UNL A   1      36.669  29.992  27.856  1.00  0.00    -0.200 F 
ATOM     69  C   UNL A   1      37.149  29.186  30.022  1.00  0.00     0.200 A 
ATOM     70  F   UNL A   1      37.681  28.388  32.179  1.00  0.00    -0.200 F 
ATOM     71  F   UNL A   1      35.880  29.400  30.399  1.00  0.00    -0.200 F 
ENDBRANCH  47  61
BRANCH  48  72
ATOM     72  C   UNL A   1      49.085  26.750  26.120  1.00  0.00     0.064 A 
ATOM     73  C   UNL A   1      49.464  27.057  24.805  1.00  0.00     0.173 A 
ATOM     74  C   UNL A   1      50.046  26.161  26.954  1.00  0.00     0.173 A 
ATOM     75  F   UNL A   1      48.574  27.603  23.963  1.00  0.00    -0.203 F 
ATOM     76  C   UNL A   1      50.742  26.763  24.335  1.00  0.00     0.198 A 
ATOM     77  C   UNL A   1      51.334  25.894  26.492  1.00  0.00     0.198 A 
ATOM     78  F   UNL A   1      49.737  25.852  28.222  1.00  0.00    -0.203 F 
ATOM     79  F   UNL A   1      51.061  27.021  23.061  1.00  0.00    -0.200 F 
ATOM     80  C   UNL A   1      51.678  26.187  25.181  1.00  0.00     0.200 A 
ATOM     81  F   UNL A   1      52.239  25.350  27.316  1.00  0.00    -0.200 F 
ATOM     82  F   UNL A   1      52.908  25.906  24.730  1.00  0.00    -0.200 F 
ENDBRANCH  48  72
BRANCH  60  83
ATOM     83  C   UNL A   1      46.045  32.385  28.862  1.00  0.00     0.064 A 
ATOM     84  C   UNL A   1      45.994  33.448  27.948  1.00  0.00     0.173 A 
ATOM     85  C   UNL A   1      46.577  32.638  30.135  1.00  0.00     0.173 A 
ATOM     86  F   UNL A   1      45.508  33.254  26.712  1.00  0.00    -0.203 F 
ATOM     87  C   UNL A   1      46.486  34.705  28.286  1.00  0.00     0.198 A 
ATOM     88  C   UNL A   1      47.038  33.905  30.481  1.00  0.00     0.198 A 
ATOM     89  F   UNL A   1      46.641  31.658  31.049  1.00  0.00    -0.203 F 
ATOM     90  F   UNL A   1      46.479  35.692  27.379  1.00  0.00    -0.200 F 
ATOM     91  C   UNL A   1      47.001  34.935  29.553  1.00  0.00     0.200 A 
ATOM     92  F   UNL A   1      47.521  34.128  31.711  1.00  0.00    -0.200 F 
ATOM     93  F   UNL A   1      47.471  36.148  29.878  1.00  0.00    -0.200 F 
ENDBRANCH  60  83
ENDBRANCH  34  35
ENDBRANCH  26  29
ENDBRANCH  24  25
ENDBRANCH  23  24
ENDBRANCH  22  23
ENDBRANCH   1  22
TORSDOF 19
ENDMDL
MODEL 2
REMARK VINA RESULT:     -10.6      5.725     11.038
REMARK SMILES CCN(C(=O)N(CCOC)CC(=O)NCCCCNC(=O)c1ccc(-c2c3nc(c(-c4c(F)c(F)c(F)c(F)c4F)c4ccc([nH]4)c(-c4c(F)c(F)c(F)c(F)c4F)c4nc(c(-c5c(F)c(F)c(F)c(F)c5F)c5ccc2[nH]5)C=C4)C=C3)cc1)C1CCCC1
REMARK SMILES IDX 15 1 14 2 12 3 13 4 11 6 6 7 4 8 5 9 3 10 2 11 1 12 85 13
REMARK SMILES IDX 86 14 89 15 87 16 88 17 7 18 8 19 9 20 10 21 16 22 17 23
REMARK SMILES IDX 18 24 19 25 20 26 21 28 22 29 23 30 84 31 24 32 83 33 25 34
REMARK SMILES IDX 26 35 27 36 77 37 28 38 82 39 76 40 78 41 29 42 81 43 75 44
REMARK SMILES IDX 74 45 30 47 62 48 42 49 61 50 43 51 46 52 60 53 79 54 44 55
REMARK SMILES IDX 45 56 59 58 80 59 47 60 31 61 32 62 40 63 33 64 34 65 38 66
REMARK SMILES IDX 41 67 35 68 36 69 39 70 37 71 63 72 64 73 72 74 65 75 66 76
REMARK SMILES IDX 70 77 73 78 67 79 68 80 71 81 69 82 48 83 49 84 57 85 50 86
REMARK SMILES IDX 51 87 55 88 58 89 52 90 53 91 56 92 54 93
REMARK H PARENT 14 5 19 27 78 46 46 57
REMARK Flexibility Score: inf
ROOT
ATOM      1  C   UNL A   1      33.047  29.575  26.589  1.00  0.00     0.116 C 
ENDROOT
BRANCH   1   2
ATOM      2  N   UNL A   1      33.577  29.699  25.259  1.00  0.00    -0.355 N 
ATOM      3  C   UNL A   1      33.407  28.860  24.193  1.00  0.00     0.239 C 
ATOM      4  O   UNL A   1      33.660  29.328  23.076  1.00  0.00    -0.273 OA
ATOM      5  H   UNL A   1      34.137  30.492  25.094  1.00  0.00     0.163 HD
BRANCH   3   6
ATOM      6  C   UNL A   1      32.732  27.469  24.317  1.00  0.00     0.221 C 
BRANCH   6   7
ATOM      7  N   UNL A   1      32.480  26.632  23.127  1.00  0.00    -0.313 N 
BRANCH   7   8
ATOM      8  C   UNL A   1      31.244  26.899  22.550  1.00  0.00     0.320 C 
ATOM      9  O   UNL A   1      31.127  26.785  21.324  1.00  0.00    -0.248 OA
BRANCH   8  10
ATOM     10  N   UNL A   1      30.150  27.319  23.296  1.00  0.00    -0.322 N 
BRANCH  10  11
ATOM     11  C   UNL A   1      29.267  26.388  24.009  1.00  0.00     0.118 C 
ATOM     12  C   UNL A   1      29.831  25.897  25.339  1.00  0.00     0.027 C 
ENDBRANCH  10  11
BRANCH  10  13
ATOM     13  C   UNL A   1      29.568  28.613  22.853  1.00  0.00     0.087 C 
ATOM     14  C   UNL A   1      28.042  28.735  22.807  1.00  0.00     0.025 C 
ATOM     15  C   UNL A   1      29.921  29.812  23.760  1.00  0.00     0.025 C 
ATOM     16  C   UNL A   1      27.814  30.226  22.604  1.00  0.00     0.002 C 
ATOM     17  C   UNL A   1      28.900  30.901  23.432  1.00  0.00     0.002 C 
ENDBRANCH  10  13
ENDBRANCH   8  10
ENDBRANCH   7   8
BRANCH   7  18
ATOM     18  C   UNL A   1      33.299  25.403  23.041  1.00  0.00     0.150 C 
BRANCH  18  19
ATOM     19  C   UNL A   1      32.644  24.103  23.564  1.00  0.00     0.181 C 
BRANCH  19  20
ATOM     20  O   UNL A   1      33.594  23.241  24.199  1.00  0.00    -0.383 OA
ATOM     21  C   UNL A   1      34.029  23.654  25.484  1.00  0.00     0.194 C 
ENDBRANCH  19  20
ENDBRANCH  18  19
ENDBRANCH   7  18
ENDBRANCH   6   7
ENDBRANCH   3   6
ENDBRANCH   1   2
BRANCH   1  22
ATOM     22  C   UNL A   1      31.749  30.329  26.835  1.00  0.00     0.023 C 
BRANCH  22  23
ATOM     23  C   UNL A   1      31.814  31.817  26.513  1.00  0.00     0.023 C 
BRANCH  23  24
ATOM     24  C   UNL A   1      32.877  32.605  27.269  1.00  0.00     0.116 C 
BRANCH  24  25
ATOM     25  N   UNL A   1      32.486  33.971  27.591  1.00  0.00    -0.352 N 
ATOM     26  C   UNL A   1      33.004  34.817  28.547  1.00  0.00     0.251 C 
ATOM     27  H   UNL A   1      31.751  34.339  27.050  1.00  0.00     0.163 HD
ATOM     28  O   UNL A   1      32.493  35.908  28.753  1.00  0.00    -0.269 OA
BRANCH  26  29
ATOM     29  C   UNL A   1      34.160  34.373  29.357  1.00  0.00     0.039 A 
ATOM     30  C   UNL A   1      33.925  33.761  30.590  1.00  0.00     0.014 A 
ATOM     31  C   UNL A   1      35.464  34.508  28.876  1.00  0.00     0.014 A 
ATOM     32  C   UNL A   1      34.993  33.210  31.300  1.00  0.00     0.010 A 
ATOM     33  C   UNL A   1      36.513  33.878  29.538  1.00  0.00     0.010 A 
ATOM     34  C   UNL A   1      36.289  33.222  30.758  1.00  0.00    -0.014 A 
BRANCH  34  35
ATOM     35  C   UNL A   1      37.422  32.555  31.454  1.00  0.00     0.031 A 
ATOM     36  C   UNL A   1      38.131  31.397  30.807  1.00  0.00     0.074 A 
ATOM     37  C   UNL A   1      37.771  32.950  32.695  1.00  0.00     0.049 A 
ATOM     38  N   UNL A   1      39.108  30.660  31.272  1.00  0.00    -0.248 NA
ATOM     39  C   UNL A   1      37.659  30.993  29.474  1.00  0.00     0.031 C 
ATOM     40  C   UNL A   1      37.120  34.016  33.459  1.00  0.00     0.029 A 
ATOM     41  N   UNL A   1      38.757  32.496  33.535  1.00  0.00    -0.354 N 
ATOM     42  C   UNL A   1      39.355  29.702  30.298  1.00  0.00     0.074 A 
ATOM     43  C   UNL A   1      38.384  29.909  29.246  1.00  0.00     0.031 C 
ATOM     44  C   UNL A   1      37.744  34.155  34.639  1.00  0.00     0.029 A 
ATOM     45  C   UNL A   1      38.815  33.168  34.732  1.00  0.00     0.049 A 
ATOM     46  H   UNL A   1      39.366  31.759  33.301  1.00  0.00     0.167 HD
ATOM     47  C   UNL A   1      40.322  28.754  30.267  1.00  0.00     0.037 A 
ATOM     48  C   UNL A   1      39.639  33.004  35.785  1.00  0.00     0.037 A 
ATOM     49  C   UNL A   1      41.305  28.567  31.302  1.00  0.00     0.049 A 
ATOM     50  C   UNL A   1      40.712  31.951  35.722  1.00  0.00     0.074 A 
ATOM     51  C   UNL A   1      42.365  27.679  31.334  1.00  0.00     0.029 A 
ATOM     52  N   UNL A   1      41.347  29.284  32.488  1.00  0.00    -0.354 N 
ATOM     53  N   UNL A   1      40.987  31.105  34.759  1.00  0.00    -0.248 NA
ATOM     54  C   UNL A   1      41.597  31.838  36.889  1.00  0.00     0.031 C 
ATOM     55  C   UNL A   1      43.020  27.825  32.562  1.00  0.00     0.029 A 
ATOM     56  C   UNL A   1      42.402  28.843  33.270  1.00  0.00     0.049 A 
ATOM     57  H   UNL A   1      40.719  30.000  32.739  1.00  0.00     0.167 HD
ATOM     58  C   UNL A   1      42.090  30.381  35.190  1.00  0.00     0.074 A 
ATOM     59  C   UNL A   1      42.446  30.901  36.494  1.00  0.00     0.031 C 
ATOM     60  C   UNL A   1      42.749  29.374  34.564  1.00  0.00     0.037 A 
BRANCH  47  61
ATOM     61  C   UNL A   1      40.367  27.850  29.068  1.00  0.00     0.064 A 
ATOM     62  C   UNL A   1      41.135  28.168  27.936  1.00  0.00     0.173 A 
ATOM     63  C   UNL A   1      39.661  26.638  29.061  1.00  0.00     0.173 A 
ATOM     64  F   UNL A   1      41.819  29.321  27.887  1.00  0.00    -0.203 F 
ATOM     65  C   UNL A   1      41.166  27.324  26.830  1.00  0.00     0.198 A 
ATOM     66  C   UNL A   1      39.722  25.779  27.967  1.00  0.00     0.198 A 
ATOM     67  F   UNL A   1      38.917  26.281  30.119  1.00  0.00    -0.203 F 
ATOM     68  F   UNL A   1      41.862  27.676  25.740  1.00  0.00    -0.200 F 
ATOM     69  C   UNL A   1      40.466  26.127  26.849  1.00  0.00     0.200 A 
ATOM     70  F   UNL A   1      39.056  24.617  27.991  1.00  0.00    -0.200 F 
ATOM     71  F   UNL A   1      40.503  25.310  25.786  1.00  0.00    -0.200 F 
ENDBRANCH  47  61
BRANCH  48  72
ATOM     72  C   UNL A   1      39.507  33.883  36.978  1.00  0.00     0.064 A 
ATOM     73  C   UNL A   1      38.785  33.462  38.105  1.00  0.00     0.173 A 
ATOM     74  C   UNL A   1      40.086  35.159  37.014  1.00  0.00     0.173 A 
ATOM     75  F   UNL A   1      38.195  32.257  38.110  1.00  0.00    -0.203 F 
ATOM     76  C   UNL A   1      38.627  34.294  39.211  1.00  0.00     0.198 A 
ATOM     77  C   UNL A   1      39.952  35.979  38.134  1.00  0.00     0.198 A 
ATOM     78  F   UNL A   1      40.791  35.607  35.965  1.00  0.00    -0.203 F 
ATOM     79  F   UNL A   1      37.890  33.886  40.253  1.00  0.00    -0.200 F 
ATOM     80  C   UNL A   1      39.216  35.549  39.227  1.00  0.00     0.200 A 
ATOM     81  F   UNL A   1      40.534  37.185  38.151  1.00  0.00    -0.200 F 
ATOM     82  F   UNL A   1      39.065  36.348  40.293  1.00  0.00    -0.200 F 
ENDBRANCH  48  72
BRANCH  60  83
ATOM     83  C   UNL A   1      43.944  28.795  35.264  1.00  0.00     0.064 A 
ATOM     84  C   UNL A   1      45.237  29.299  35.056  1.00  0.00     0.173 A 
ATOM     85  C   UNL A   1      43.789  27.740  36.175  1.00  0.00     0.173 A 
ATOM     86  F   UNL A   1      45.440  30.298  34.183  1.00  0.00    -0.203 F 
ATOM     87  C   UNL A   1      46.333  28.746  35.711  1.00  0.00     0.198 A 
ATOM     88  C   UNL A   1      44.884  27.211  36.854  1.00  0.00     0.198 A 
ATOM     89  F   UNL A   1      42.574  27.227  36.417  1.00  0.00    -0.203 F 
ATOM     90  F   UNL A   1      47.566  29.206  35.455  1.00  0.00    -0.200 F 
ATOM     91  C   UNL A   1      46.156  27.709  36.613  1.00  0.00     0.200 A 
ATOM     92  F   UNL A   1      44.708  26.219  37.737  1.00  0.00    -0.200 F 
ATOM     93  F   UNL A   1      47.213  27.181  37.246  1.00  0.00    -0.200 F 
ENDBRANCH  60  83
ENDBRANCH  34  35
ENDBRANCH  26  29
ENDBRANCH  24  25
ENDBRANCH  23  24
ENDBRANCH  22  23
ENDBRANCH   1  22
TORSDOF 19
ENDMDL
MODEL 3
REMARK VINA RESULT:     -10.6      1.154      2.691
REMARK SMILES CCN(C(=O)N(CCOC)CC(=O)NCCCCNC(=O)c1ccc(-c2c3nc(c(-c4c(F)c(F)c(F)c(F)c4F)c4ccc([nH]4)c(-c4c(F)c(F)c(F)c(F)c4F)c4nc(c(-c5c(F)c(F)c(F)c(F)c5F)c5ccc2[nH]5)C=C4)C=C3)cc1)C1CCCC1
REMARK SMILES IDX 15 1 14 2 12 3 13 4 11 6 6 7 4 8 5 9 3 10 2 11 1 12 85 13
REMARK SMILES IDX 86 14 89 15 87 16 88 17 7 18 8 19 9 20 10 21 16 22 17 23
REMARK SMILES IDX 18 24 19 25 20 26 21 28 22 29 23 30 84 31 24 32 83 33 25 34
REMARK SMILES IDX 26 35 27 36 77 37 28 38 82 39 76 40 78 41 29 42 81 43 75 44
REMARK SMILES IDX 74 45 30 47 62 48 42 49 61 50 43 51 46 52 60 53 79 54 44 55
REMARK SMILES IDX 45 56 59 58 80 59 47 60 31 61 32 62 40 63 33 64 34 65 38 66
REMARK SMILES IDX 41 67 35 68 36 69 39 70 37 71 63 72 64 73 72 74 65 75 66 76
REMARK SMILES IDX 70 77 73 78 67 79 68 80 71 81 69 82 48 83 49 84 57 85 50 86
REMARK SMILES IDX 51 87 55 88 58 89 52 90 53 91 56 92 54 93
REMARK H PARENT 14 5 19 27 78 46 46 57
REMARK Flexibility Score: inf
ROOT
ATOM      1  C   UNL A   1      37.434  22.281  25.477  1.00  0.00     0.116 C 
ENDROOT
BRANCH   1   2
ATOM      2  N   UNL A   1      36.331  22.593  26.345  1.00  0.00    -0.355 N 
ATOM      3  C   UNL A   1      35.293  23.455  26.126  1.00  0.00     0.239 C 
ATOM      4  O   UNL A   1      34.295  23.312  26.844  1.00  0.00    -0.273 OA
ATOM      5  H   UNL A   1      36.322  22.124  27.211  1.00  0.00     0.163 HD
BRANCH   3   6
ATOM      6  C   UNL A   1      35.246  24.426  24.917  1.00  0.00     0.221 C 
BRANCH   6   7
ATOM      7  N   UNL A   1      33.961  24.865  24.338  1.00  0.00    -0.313 N 
BRANCH   7   8
ATOM      8  C   UNL A   1      33.493  23.985  23.369  1.00  0.00     0.320 C 
ATOM      9  O   UNL A   1      34.023  23.998  22.252  1.00  0.00    -0.248 OA
BRANCH   8  10
ATOM     10  N   UNL A   1      32.433  23.118  23.603  1.00  0.00    -0.322 N 
BRANCH  10  11
ATOM     11  C   UNL A   1      31.209  23.526  24.301  1.00  0.00     0.118 C 
ATOM     12  C   UNL A   1      30.332  24.484  23.501  1.00  0.00     0.027 C 
ENDBRANCH  10  11
BRANCH  10  13
ATOM     13  C   UNL A   1      32.821  21.685  23.680  1.00  0.00     0.087 C 
ATOM     14  C   UNL A   1      32.472  20.915  24.957  1.00  0.00     0.025 C 
ATOM     15  C   UNL A   1      32.152  20.787  22.617  1.00  0.00     0.025 C 
ATOM     16  C   UNL A   1      32.741  19.465  24.579  1.00  0.00     0.002 C 
ATOM     17  C   UNL A   1      32.295  19.353  23.127  1.00  0.00     0.002 C 
ENDBRANCH  10  13
ENDBRANCH   8  10
ENDBRANCH   7   8
BRANCH   7  18
ATOM     18  C   UNL A   1      33.654  26.302  24.513  1.00  0.00     0.150 C 
BRANCH  18  19
ATOM     19  C   UNL A   1      32.967  27.007  23.320  1.00  0.00     0.181 C 
BRANCH  19  20
ATOM     20  O   UNL A   1      32.343  28.235  23.710  1.00  0.00    -0.383 OA
ATOM     21  C   UNL A   1      31.178  28.586  22.982  1.00  0.00     0.194 C 
ENDBRANCH  19  20
ENDBRANCH  18  19
ENDBRANCH   7  18
ENDBRANCH   6   7
ENDBRANCH   3   6
ENDBRANCH   1   2
BRANCH   1  22
ATOM     22  C   UNL A   1      37.235  21.053  24.604  1.00  0.00     0.023 C 
BRANCH  22  23
ATOM     23  C   UNL A   1      38.085  19.851  25.001  1.00  0.00     0.023 C 
BRANCH  23  24
ATOM     24  C   UNL A   1      39.359  20.178  25.772  1.00  0.00     0.116 C 
BRANCH  24  25
ATOM     25  N   UNL A   1      40.293  19.064  25.872  1.00  0.00    -0.352 N 
ATOM     26  C   UNL A   1      41.647  19.090  26.127  1.00  0.00     0.251 C 
ATOM     27  H   UNL A   1      39.902  18.170  25.740  1.00  0.00     0.163 HD
ATOM     28  O   UNL A   1      42.306  18.061  26.083  1.00  0.00    -0.269 OA
BRANCH  26  29
ATOM     29  C   UNL A   1      42.305  20.384  26.411  1.00  0.00     0.039 A 
ATOM     30  C   UNL A   1      42.909  21.078  25.361  1.00  0.00     0.014 A 
ATOM     31  C   UNL A   1      42.277  20.934  27.695  1.00  0.00     0.014 A 
ATOM     32  C   UNL A   1      43.409  22.363  25.583  1.00  0.00     0.010 A 
ATOM     33  C   UNL A   1      42.690  22.248  27.892  1.00  0.00     0.010 A 
ATOM     34  C   UNL A   1      43.262  22.977  26.838  1.00  0.00    -0.014 A 
BRANCH  34  35
ATOM     35  C   UNL A   1      43.701  24.379  27.066  1.00  0.00     0.031 A 
ATOM     36  C   UNL A   1      42.722  25.407  27.565  1.00  0.00     0.074 A 
ATOM     37  C   UNL A   1      44.963  24.743  26.764  1.00  0.00     0.049 A 
ATOM     38  N   UNL A   1      42.902  26.685  27.783  1.00  0.00    -0.248 NA
ATOM     39  C   UNL A   1      41.351  24.943  27.824  1.00  0.00     0.031 C 
ATOM     40  C   UNL A   1      45.991  23.859  26.210  1.00  0.00     0.029 A 
ATOM     41  N   UNL A   1      45.596  25.957  26.874  1.00  0.00    -0.354 N 
ATOM     42  C   UNL A   1      41.669  27.177  28.188  1.00  0.00     0.074 A 
ATOM     43  C   UNL A   1      40.733  26.076  28.124  1.00  0.00     0.031 C 
ATOM     44  C   UNL A   1      47.132  24.550  26.060  1.00  0.00     0.029 A 
ATOM     45  C   UNL A   1      46.910  25.932  26.472  1.00  0.00     0.049 A 
ATOM     46  H   UNL A   1      45.151  26.768  27.209  1.00  0.00     0.167 HD
ATOM     47  C   UNL A   1      41.349  28.425  28.606  1.00  0.00     0.037 A 
ATOM     48  C   UNL A   1      47.831  26.915  26.440  1.00  0.00     0.037 A 
ATOM     49  C   UNL A   1      42.288  29.513  28.696  1.00  0.00     0.049 A 
ATOM     50  C   UNL A   1      47.454  28.291  26.919  1.00  0.00     0.074 A 
ATOM     51  C   UNL A   1      42.078  30.796  29.168  1.00  0.00     0.029 A 
ATOM     52  N   UNL A   1      43.616  29.443  28.304  1.00  0.00    -0.354 N 
ATOM     53  N   UNL A   1      46.304  28.722  27.379  1.00  0.00    -0.248 NA
ATOM     54  C   UNL A   1      48.507  29.314  26.886  1.00  0.00     0.031 C 
ATOM     55  C   UNL A   1      43.268  31.517  29.018  1.00  0.00     0.029 A 
ATOM     56  C   UNL A   1      44.233  30.667  28.503  1.00  0.00     0.049 A 
ATOM     57  H   UNL A   1      44.056  28.641  27.938  1.00  0.00     0.167 HD
ATOM     58  C   UNL A   1      46.503  30.055  27.714  1.00  0.00     0.074 A 
ATOM     59  C   UNL A   1      47.890  30.355  27.424  1.00  0.00     0.031 C 
ATOM     60  C   UNL A   1      45.617  30.950  28.216  1.00  0.00     0.037 A 
BRANCH  47  61
ATOM     61  C   UNL A   1      39.924  28.678  29.006  1.00  0.00     0.064 A 
ATOM     62  C   UNL A   1      38.968  29.123  28.079  1.00  0.00     0.173 A 
ATOM     63  C   UNL A   1      39.500  28.442  30.322  1.00  0.00     0.173 A 
ATOM     64  F   UNL A   1      39.324  29.376  26.810  1.00  0.00    -0.203 F 
ATOM     65  C   UNL A   1      37.650  29.357  28.463  1.00  0.00     0.198 A 
ATOM     66  C   UNL A   1      38.173  28.644  30.695  1.00  0.00     0.198 A 
ATOM     67  F   UNL A   1      40.370  28.009  31.247  1.00  0.00    -0.203 F 
ATOM     68  F   UNL A   1      36.770  29.835  27.574  1.00  0.00    -0.200 F 
ATOM     69  C   UNL A   1      37.252  29.110  29.768  1.00  0.00     0.200 A 
ATOM     70  F   UNL A   1      37.786  28.392  31.953  1.00  0.00    -0.200 F 
ATOM     71  F   UNL A   1      35.982  29.328  30.136  1.00  0.00    -0.200 F 
ENDBRANCH  47  61
BRANCH  48  72
ATOM     72  C   UNL A   1      49.212  26.627  25.970  1.00  0.00     0.064 A 
ATOM     73  C   UNL A   1      49.604  26.935  24.659  1.00  0.00     0.173 A 
ATOM     74  C   UNL A   1      50.162  26.030  26.812  1.00  0.00     0.173 A 
ATOM     75  F   UNL A   1      48.725  27.488  23.810  1.00  0.00    -0.203 F 
ATOM     76  C   UNL A   1      50.886  26.635  24.201  1.00  0.00     0.198 A 
ATOM     77  C   UNL A   1      51.453  25.757  26.361  1.00  0.00     0.198 A 
ATOM     78  F   UNL A   1      49.840  25.720  28.076  1.00  0.00    -0.203 F 
ATOM     79  F   UNL A   1      51.218  26.894  22.930  1.00  0.00    -0.200 F 
ATOM     80  C   UNL A   1      51.810  26.052  25.054  1.00  0.00     0.200 A 
ATOM     81  F   UNL A   1      52.347  25.206  27.192  1.00  0.00    -0.200 F 
ATOM     82  F   UNL A   1      53.043  25.765  24.613  1.00  0.00    -0.200 F 
ENDBRANCH  48  72
BRANCH  60  83
ATOM     83  C   UNL A   1      46.129  32.328  28.519  1.00  0.00     0.064 A 
ATOM     84  C   UNL A   1      46.072  33.361  27.571  1.00  0.00     0.173 A 
ATOM     85  C   UNL A   1      46.658  32.627  29.784  1.00  0.00     0.173 A 
ATOM     86  F   UNL A   1      45.589  33.123  26.342  1.00  0.00    -0.203 F 
ATOM     87  C   UNL A   1      46.555  34.632  27.869  1.00  0.00     0.198 A 
ATOM     88  C   UNL A   1      47.110  33.907  30.089  1.00  0.00     0.198 A 
ATOM     89  F   UNL A   1      46.728  31.678  30.730  1.00  0.00    -0.203 F 
ATOM     90  F   UNL A   1      46.542  35.588  26.929  1.00  0.00    -0.200 F 
ATOM     91  C   UNL A   1      47.067  34.906  29.128  1.00  0.00     0.200 A 
ATOM     92  F   UNL A   1      47.590  34.174  31.311  1.00  0.00    -0.200 F 
ATOM     93  F   UNL A   1      47.528  36.132  29.413  1.00  0.00    -0.200 F 
ENDBRANCH  60  83
ENDBRANCH  34  35
ENDBRANCH  26  29
ENDBRANCH  24  25
ENDBRANCH  23  24
ENDBRANCH  22  23
ENDBRANCH   1  22
TORSDOF 19
ENDMDL
