MODEL 1
REMARK VINA RESULT:     -12.4      0.000      0.000
REMARK SMILES CO[C@@H]1C[C@H](C(=O)NCCCCNC(=O)c2ccc(-c3c4nc(c(-c5c(F)c(F)c(F)c(F)c5F)c5ccc([nH]5)c(-c5c(F)c(F)c(F)c(F)c5F)c5nc(c(-c6c(F)c(F)c(F)c(F)c6F)c6ccc3[nH]6)C=C5)C=C4)cc2)N(C(=O)c2ccc([N+](=O)[O-])s2)C1
REMARK SMILES IDX 10 1 9 2 8 3 6 4 7 5 5 7 3 8 4 9 90 10 79 11 2 12 1 13 80 14
REMARK SMILES IDX 81 15 82 16 83 17 89 18 84 19 85 20 86 21 87 22 88 23 11 24
REMARK SMILES IDX 12 25 13 26 14 27 15 29 16 30 17 31 78 32 18 33 77 34 19 35
REMARK SMILES IDX 20 36 21 37 71 38 22 39 76 40 70 41 72 42 23 43 75 44 69 45
REMARK SMILES IDX 68 46 24 48 56 49 36 50 55 51 37 52 40 53 54 54 73 55 38 56
REMARK SMILES IDX 39 57 53 59 74 60 41 61 25 62 26 63 34 64 27 65 28 66 32 67
REMARK SMILES IDX 35 68 29 69 30 70 33 71 31 72 57 73 58 74 66 75 59 76 60 77
REMARK SMILES IDX 64 78 67 79 61 80 62 81 65 82 63 83 42 84 43 85 51 86 44 87
REMARK SMILES IDX 45 88 49 89 52 90 46 91 47 92 50 93 48 94
REMARK H PARENT 8 6 13 28 72 47 40 58
REMARK Flexibility Score: inf
ROOT
ATOM      1  C   UNL A   1      32.371  29.820  27.175  1.00  0.00     0.023 C 
ENDROOT
BRANCH   1   2
ATOM      2  C   UNL A   1      33.628  29.132  26.632  1.00  0.00     0.116 C 
BRANCH   2   3
ATOM      3  N   UNL A   1      33.840  29.416  25.230  1.00  0.00    -0.354 N 
ATOM      4  C   UNL A   1      33.242  28.926  24.113  1.00  0.00     0.242 C 
ATOM      5  O   UNL A   1      33.622  29.400  23.034  1.00  0.00    -0.273 OA
ATOM      6  H   UNL A   1      34.542  30.084  25.053  1.00  0.00     0.163 HD
BRANCH   4   7
ATOM      7  C   UNL A   1      32.143  27.833  24.111  1.00  0.00     0.177 C 
ATOM      8  C   UNL A   1      30.139  27.759  22.677  1.00  0.00     0.139 C 
ATOM      9  C   UNL A   1      30.711  28.349  23.973  1.00  0.00     0.069 C 
ATOM     10  C   UNL A   1      31.180  26.755  22.179  1.00  0.00     0.152 C 
ATOM     11  N   UNL A   1      32.298  26.796  23.099  1.00  0.00    -0.323 N 
BRANCH   8  12
ATOM     12  O   UNL A   1      29.893  28.838  21.778  1.00  0.00    -0.380 OA
ATOM     13  C   UNL A   1      29.575  30.073  22.404  1.00  0.00     0.195 C 
ENDBRANCH   8  12
BRANCH  11  14
ATOM     14  C   UNL A   1      33.284  25.821  23.007  1.00  0.00     0.264 C 
ATOM     15  O   UNL A   1      33.913  25.694  21.954  1.00  0.00    -0.268 OA
BRANCH  14  16
ATOM     16  C   UNL A   1      33.521  24.947  24.143  1.00  0.00     0.099 A 
ATOM     17  C   UNL A   1      34.716  24.534  24.706  1.00  0.00     0.033 A 
ATOM     18  S   UNL A   1      32.179  24.412  25.070  1.00  0.00    -0.058 S 
ATOM     19  C   UNL A   1      34.522  23.745  25.881  1.00  0.00     0.099 A 
ATOM     20  C   UNL A   1      33.184  23.620  26.186  1.00  0.00     0.324 A 
BRANCH  20  21
ATOM     21  N   UNL A   1      32.627  22.931  27.321  1.00  0.00     0.074 N 
ATOM     22  O   UNL A   1      33.430  22.312  28.034  1.00  0.00    -0.258 OA
ATOM     23  O   UNL A   1      31.408  23.007  27.518  1.00  0.00    -0.258 OA
ENDBRANCH  20  21
ENDBRANCH  14  16
ENDBRANCH  11  14
ENDBRANCH   4   7
ENDBRANCH   2   3
ENDBRANCH   1   2
BRANCH   1  24
ATOM     24  C   UNL A   1      32.196  31.275  26.753  1.00  0.00     0.023 C 
BRANCH  24  25
ATOM     25  C   UNL A   1      33.112  32.273  27.452  1.00  0.00     0.116 C 
BRANCH  25  26
ATOM     26  N   UNL A   1      32.556  33.613  27.611  1.00  0.00    -0.352 N 
ATOM     27  C   UNL A   1      33.005  34.624  28.432  1.00  0.00     0.251 C 
ATOM     28  H   UNL A   1      31.764  33.819  27.064  1.00  0.00     0.163 HD
ATOM     29  O   UNL A   1      32.415  35.698  28.493  1.00  0.00    -0.269 OA
BRANCH  27  30
ATOM     30  C   UNL A   1      34.179  34.367  29.292  1.00  0.00     0.039 A 
ATOM     31  C   UNL A   1      33.982  33.804  30.555  1.00  0.00     0.014 A 
ATOM     32  C   UNL A   1      35.469  34.557  28.792  1.00  0.00     0.014 A 
ATOM     33  C   UNL A   1      35.082  33.327  31.270  1.00  0.00     0.010 A 
ATOM     34  C   UNL A   1      36.549  33.996  29.463  1.00  0.00     0.010 A 
ATOM     35  C   UNL A   1      36.366  33.360  30.701  1.00  0.00    -0.014 A 
BRANCH  35  36
ATOM     36  C   UNL A   1      37.529  32.716  31.364  1.00  0.00     0.031 A 
ATOM     37  C   UNL A   1      38.224  31.559  30.703  1.00  0.00     0.074 A 
ATOM     38  C   UNL A   1      37.897  33.103  32.603  1.00  0.00     0.049 A 
ATOM     39  N   UNL A   1      39.177  30.790  31.164  1.00  0.00    -0.248 NA
ATOM     40  C   UNL A   1      37.759  31.193  29.355  1.00  0.00     0.031 C 
ATOM     41  C   UNL A   1      37.262  34.168  33.383  1.00  0.00     0.029 A 
ATOM     42  N   UNL A   1      38.885  32.632  33.432  1.00  0.00    -0.354 N 
ATOM     43  C   UNL A   1      39.404  29.839  30.178  1.00  0.00     0.074 A 
ATOM     44  C   UNL A   1      38.452  30.091  29.119  1.00  0.00     0.031 C 
ATOM     45  C   UNL A   1      37.893  34.287  34.562  1.00  0.00     0.029 A 
ATOM     46  C   UNL A   1      38.948  33.282  34.641  1.00  0.00     0.049 A 
ATOM     47  H   UNL A   1      39.491  31.898  33.184  1.00  0.00     0.167 HD
ATOM     48  C   UNL A   1      40.340  28.861  30.146  1.00  0.00     0.037 A 
ATOM     49  C   UNL A   1      39.761  33.085  35.697  1.00  0.00     0.037 A 
ATOM     50  C   UNL A   1      41.314  28.638  31.181  1.00  0.00     0.049 A 
ATOM     51  C   UNL A   1      40.805  32.003  35.629  1.00  0.00     0.074 A 
ATOM     52  C   UNL A   1      42.349  27.722  31.209  1.00  0.00     0.029 A 
ATOM     53  N   UNL A   1      41.370  29.343  32.375  1.00  0.00    -0.354 N 
ATOM     54  N   UNL A   1      41.059  31.158  34.659  1.00  0.00    -0.248 NA
ATOM     55  C   UNL A   1      41.680  31.851  36.800  1.00  0.00     0.031 C 
ATOM     56  C   UNL A   1      43.010  27.846  32.435  1.00  0.00     0.029 A 
ATOM     57  C   UNL A   1      42.413  28.870  33.153  1.00  0.00     0.049 A 
ATOM     58  H   UNL A   1      40.758  30.072  32.630  1.00  0.00     0.167 HD
ATOM     59  C   UNL A   1      42.136  30.396  35.089  1.00  0.00     0.074 A 
ATOM     60  C   UNL A   1      42.498  30.886  36.402  1.00  0.00     0.031 C 
ATOM     61  C   UNL A   1      42.768  29.380  34.453  1.00  0.00     0.037 A 
BRANCH  48  62
ATOM     62  C   UNL A   1      40.363  27.966  28.941  1.00  0.00     0.064 A 
ATOM     63  C   UNL A   1      41.118  28.286  27.802  1.00  0.00     0.173 A 
ATOM     64  C   UNL A   1      39.644  26.762  28.933  1.00  0.00     0.173 A 
ATOM     65  F   UNL A   1      41.813  29.433  27.754  1.00  0.00    -0.203 F 
ATOM     66  C   UNL A   1      41.126  27.451  26.689  1.00  0.00     0.198 A 
ATOM     67  C   UNL A   1      39.680  25.913  27.830  1.00  0.00     0.198 A 
ATOM     68  F   UNL A   1      38.910  26.405  29.999  1.00  0.00    -0.203 F 
ATOM     69  F   UNL A   1      41.810  27.806  25.593  1.00  0.00    -0.200 F 
ATOM     70  C   UNL A   1      40.413  26.262  26.705  1.00  0.00     0.200 A 
ATOM     71  F   UNL A   1      38.999  24.758  27.853  1.00  0.00    -0.200 F 
ATOM     72  F   UNL A   1      40.425  25.457  25.635  1.00  0.00    -0.200 F 
ENDBRANCH  48  62
BRANCH  49  73
ATOM     73  C   UNL A   1      39.644  33.950  36.900  1.00  0.00     0.064 A 
ATOM     74  C   UNL A   1      38.863  33.554  37.995  1.00  0.00     0.173 A 
ATOM     75  C   UNL A   1      40.297  35.189  36.980  1.00  0.00     0.173 A 
ATOM     76  F   UNL A   1      38.202  32.388  37.957  1.00  0.00    -0.203 F 
ATOM     77  C   UNL A   1      38.723  34.372  39.115  1.00  0.00     0.198 A 
ATOM     78  C   UNL A   1      40.178  35.993  38.111  1.00  0.00     0.198 A 
ATOM     79  F   UNL A   1      41.060  35.613  35.962  1.00  0.00    -0.203 F 
ATOM     80  F   UNL A   1      37.933  33.988  40.126  1.00  0.00    -0.200 F 
ATOM     81  C   UNL A   1      39.384  35.588  39.174  1.00  0.00     0.200 A 
ATOM     82  F   UNL A   1      40.829  37.163  38.171  1.00  0.00    -0.200 F 
ATOM     83  F   UNL A   1      39.251  36.373  40.252  1.00  0.00    -0.200 F 
ENDBRANCH  49  73
BRANCH  61  84
ATOM     84  C   UNL A   1      43.940  28.753  35.149  1.00  0.00     0.064 A 
ATOM     85  C   UNL A   1      45.247  29.223  34.960  1.00  0.00     0.173 A 
ATOM     86  C   UNL A   1      43.744  27.698  36.054  1.00  0.00     0.173 A 
ATOM     87  F   UNL A   1      45.486  30.220  34.094  1.00  0.00    -0.203 F 
ATOM     88  C   UNL A   1      46.319  28.648  35.636  1.00  0.00     0.198 A 
ATOM     89  C   UNL A   1      44.815  27.143  36.749  1.00  0.00     0.198 A 
ATOM     90  F   UNL A   1      42.513  27.215  36.273  1.00  0.00    -0.203 F 
ATOM     91  F   UNL A   1      47.566  29.086  35.409  1.00  0.00    -0.200 F 
ATOM     92  C   UNL A   1      46.102  27.615  36.536  1.00  0.00     0.200 A 
ATOM     93  F   UNL A   1      44.601  26.154  37.627  1.00  0.00    -0.200 F 
ATOM     94  F   UNL A   1      47.133  27.068  37.192  1.00  0.00    -0.200 F 
ENDBRANCH  61  84
ENDBRANCH  35  36
ENDBRANCH  27  30
ENDBRANCH  25  26
ENDBRANCH  24  25
ENDBRANCH   1  24
TORSDOF 15
ENDMDL
MODEL 2
REMARK VINA RESULT:     -12.3      0.489      7.375
REMARK SMILES CO[C@@H]1C[C@H](C(=O)NCCCCNC(=O)c2ccc(-c3c4nc(c(-c5c(F)c(F)c(F)c(F)c5F)c5ccc([nH]5)c(-c5c(F)c(F)c(F)c(F)c5F)c5nc(c(-c6c(F)c(F)c(F)c(F)c6F)c6ccc3[nH]6)C=C5)C=C4)cc2)N(C(=O)c2ccc([N+](=O)[O-])s2)C1
REMARK SMILES IDX 10 1 9 2 8 3 6 4 7 5 5 7 3 8 4 9 90 10 79 11 2 12 1 13 80 14
REMARK SMILES IDX 81 15 82 16 83 17 89 18 84 19 85 20 86 21 87 22 88 23 11 24
REMARK SMILES IDX 12 25 13 26 14 27 15 29 16 30 17 31 78 32 18 33 77 34 19 35
REMARK SMILES IDX 20 36 21 37 71 38 22 39 76 40 70 41 72 42 23 43 75 44 69 45
REMARK SMILES IDX 68 46 24 48 56 49 36 50 55 51 37 52 40 53 54 54 73 55 38 56
REMARK SMILES IDX 39 57 53 59 74 60 41 61 25 62 26 63 34 64 27 65 28 66 32 67
REMARK SMILES IDX 35 68 29 69 30 70 33 71 31 72 57 73 58 74 66 75 59 76 60 77
REMARK SMILES IDX 64 78 67 79 61 80 62 81 65 82 63 83 42 84 43 85 51 86 44 87
REMARK SMILES IDX 45 88 49 89 52 90 46 91 47 92 50 93 48 94
REMARK H PARENT 8 6 13 28 72 47 40 58
REMARK Flexibility Score: inf
ROOT
ATOM      1  C   UNL A   1      31.913  30.289  26.916  1.00  0.00     0.023 C 
ENDROOT
BRANCH   1   2
ATOM      2  C   UNL A   1      33.219  29.530  26.659  1.00  0.00     0.116 C 
BRANCH   2   3
ATOM      3  N   UNL A   1      33.645  29.630  25.280  1.00  0.00    -0.354 N 
ATOM      4  C   UNL A   1      33.196  29.018  24.154  1.00  0.00     0.242 C 
ATOM      5  O   UNL A   1      33.748  29.344  23.095  1.00  0.00    -0.273 OA
ATOM      6  H   UNL A   1      34.392  30.254  25.132  1.00  0.00     0.163 HD
BRANCH   4   7
ATOM      7  C   UNL A   1      32.065  27.958  24.119  1.00  0.00     0.177 C 
ATOM      8  C   UNL A   1      30.109  27.938  22.619  1.00  0.00     0.139 C 
ATOM      9  C   UNL A   1      30.655  28.517  23.931  1.00  0.00     0.069 C 
ATOM     10  C   UNL A   1      31.136  26.900  22.160  1.00  0.00     0.152 C 
ATOM     11  N   UNL A   1      32.222  26.912  23.118  1.00  0.00    -0.323 N 
BRANCH   8  12
ATOM     12  O   UNL A   1      29.927  29.019  21.707  1.00  0.00    -0.380 OA
ATOM     13  C   UNL A   1      29.013  30.016  22.142  1.00  0.00     0.195 C 
ENDBRANCH   8  12
BRANCH  11  14
ATOM     14  C   UNL A   1      33.181  25.907  23.063  1.00  0.00     0.264 C 
ATOM     15  O   UNL A   1      33.912  25.821  22.075  1.00  0.00    -0.268 OA
BRANCH  14  16
ATOM     16  C   UNL A   1      33.268  24.956  24.158  1.00  0.00     0.099 A 
ATOM     17  C   UNL A   1      34.352  24.217  24.602  1.00  0.00     0.033 A 
ATOM     18  S   UNL A   1      31.915  24.759  25.195  1.00  0.00    -0.058 S 
ATOM     19  C   UNL A   1      34.052  23.461  25.776  1.00  0.00     0.099 A 
ATOM     20  C   UNL A   1      32.761  23.683  26.200  1.00  0.00     0.324 A 
BRANCH  20  21
ATOM     21  N   UNL A   1      32.135  23.121  27.369  1.00  0.00     0.074 N 
ATOM     22  O   UNL A   1      30.900  23.209  27.425  1.00  0.00    -0.258 OA
ATOM     23  O   UNL A   1      32.853  22.586  28.224  1.00  0.00    -0.258 OA
ENDBRANCH  20  21
ENDBRANCH  14  16
ENDBRANCH  11  14
ENDBRANCH   4   7
ENDBRANCH   2   3
ENDBRANCH   1   2
BRANCH   1  24
ATOM     24  C   UNL A   1      31.950  31.774  26.567  1.00  0.00     0.023 C 
BRANCH  24  25
ATOM     25  C   UNL A   1      32.901  32.619  27.409  1.00  0.00     0.116 C 
BRANCH  25  26
ATOM     26  N   UNL A   1      32.441  33.976  27.681  1.00  0.00    -0.352 N 
ATOM     27  C   UNL A   1      32.966  34.885  28.574  1.00  0.00     0.251 C 
ATOM     28  H   UNL A   1      31.661  34.279  27.163  1.00  0.00     0.163 HD
ATOM     29  O   UNL A   1      32.452  35.989  28.729  1.00  0.00    -0.269 OA
BRANCH  27  30
ATOM     30  C   UNL A   1      34.126  34.479  29.394  1.00  0.00     0.039 A 
ATOM     31  C   UNL A   1      33.901  33.873  30.632  1.00  0.00     0.014 A 
ATOM     32  C   UNL A   1      35.420  34.578  28.877  1.00  0.00     0.014 A 
ATOM     33  C   UNL A   1      34.965  33.262  31.299  1.00  0.00     0.010 A 
ATOM     34  C   UNL A   1      36.455  33.888  29.495  1.00  0.00     0.010 A 
ATOM     35  C   UNL A   1      36.237  33.209  30.704  1.00  0.00    -0.014 A 
BRANCH  35  36
ATOM     36  C   UNL A   1      37.348  32.429  31.308  1.00  0.00     0.031 A 
ATOM     37  C   UNL A   1      37.867  32.793  32.670  1.00  0.00     0.074 A 
ATOM     38  C   UNL A   1      37.957  31.461  30.591  1.00  0.00     0.049 A 
ATOM     39  N   UNL A   1      38.898  32.315  33.321  1.00  0.00    -0.248 NA
ATOM     40  C   UNL A   1      37.153  33.865  33.383  1.00  0.00     0.031 C 
ATOM     41  C   UNL A   1      37.594  31.056  29.232  1.00  0.00     0.029 A 
ATOM     42  N   UNL A   1      39.022  30.653  30.903  1.00  0.00    -0.354 N 
ATOM     43  C   UNL A   1      38.970  33.045  34.500  1.00  0.00     0.074 A 
ATOM     44  C   UNL A   1      37.915  34.034  34.452  1.00  0.00     0.031 C 
ATOM     45  C   UNL A   1      38.403  30.060  28.838  1.00  0.00     0.029 A 
ATOM     46  C   UNL A   1      39.368  29.782  29.898  1.00  0.00     0.049 A 
ATOM     47  H   UNL A   1      39.495  30.693  31.765  1.00  0.00     0.167 HD
ATOM     48  C   UNL A   1      39.820  32.886  35.542  1.00  0.00     0.037 A 
ATOM     49  C   UNL A   1      40.356  28.868  29.834  1.00  0.00     0.037 A 
ATOM     50  C   UNL A   1      40.841  31.874  35.606  1.00  0.00     0.049 A 
ATOM     51  C   UNL A   1      41.276  28.699  31.013  1.00  0.00     0.074 A 
ATOM     52  C   UNL A   1      41.703  31.584  36.647  1.00  0.00     0.029 A 
ATOM     53  N   UNL A   1      41.135  30.985  34.582  1.00  0.00    -0.354 N 
ATOM     54  N   UNL A   1      41.286  29.345  32.154  1.00  0.00    -0.248 NA
ATOM     55  C   UNL A   1      42.319  27.670  30.898  1.00  0.00     0.031 C 
ATOM     56  C   UNL A   1      42.546  30.544  36.240  1.00  0.00     0.029 A 
ATOM     57  C   UNL A   1      42.177  30.157  34.963  1.00  0.00     0.049 A 
ATOM     58  H   UNL A   1      40.670  30.949  33.715  1.00  0.00     0.167 HD
ATOM     59  C   UNL A   1      42.313  28.783  32.901  1.00  0.00     0.074 A 
ATOM     60  C   UNL A   1      42.895  27.735  32.090  1.00  0.00     0.031 C 
ATOM     61  C   UNL A   1      42.736  29.108  34.147  1.00  0.00     0.037 A 
BRANCH  48  62
ATOM     62  C   UNL A   1      39.670  33.822  36.705  1.00  0.00     0.064 A 
ATOM     63  C   UNL A   1      40.291  35.080  36.722  1.00  0.00     0.173 A 
ATOM     64  C   UNL A   1      38.875  33.468  37.807  1.00  0.00     0.173 A 
ATOM     65  F   UNL A   1      41.072  35.460  35.699  1.00  0.00    -0.203 F 
ATOM     66  C   UNL A   1      40.149  35.935  37.810  1.00  0.00     0.198 A 
ATOM     67  C   UNL A   1      38.710  34.340  38.879  1.00  0.00     0.198 A 
ATOM     68  F   UNL A   1      38.255  32.279  37.839  1.00  0.00    -0.203 F 
ATOM     69  F   UNL A   1      40.796  37.109  37.826  1.00  0.00    -0.200 F 
ATOM     70  C   UNL A   1      39.354  35.569  38.885  1.00  0.00     0.200 A 
ATOM     71  F   UNL A   1      37.931  33.989  39.912  1.00  0.00    -0.200 F 
ATOM     72  F   UNL A   1      39.214  36.395  39.930  1.00  0.00    -0.200 F 
ENDBRANCH  48  62
BRANCH  49  73
ATOM     73  C   UNL A   1      40.510  28.019  28.624  1.00  0.00     0.064 A 
ATOM     74  C   UNL A   1      41.280  28.453  27.536  1.00  0.00     0.173 A 
ATOM     75  C   UNL A   1      39.887  26.766  28.524  1.00  0.00     0.173 A 
ATOM     76  F   UNL A   1      41.877  29.654  27.577  1.00  0.00    -0.203 F 
ATOM     77  C   UNL A   1      41.406  27.677  26.386  1.00  0.00     0.198 A 
ATOM     78  C   UNL A   1      40.036  25.979  27.383  1.00  0.00     0.198 A 
ATOM     79  F   UNL A   1      39.143  26.301  29.537  1.00  0.00    -0.203 F 
ATOM     80  F   UNL A   1      42.110  28.138  25.344  1.00  0.00    -0.200 F 
ATOM     81  C   UNL A   1      40.788  26.439  26.312  1.00  0.00     0.200 A 
ATOM     82  F   UNL A   1      39.449  24.776  27.320  1.00  0.00    -0.200 F 
ATOM     83  F   UNL A   1      40.911  25.691  25.206  1.00  0.00    -0.200 F 
ENDBRANCH  49  73
BRANCH  61  84
ATOM     84  C   UNL A   1      43.858  28.299  34.727  1.00  0.00     0.064 A 
ATOM     85  C   UNL A   1      43.623  27.096  35.408  1.00  0.00     0.173 A 
ATOM     86  C   UNL A   1      45.189  28.711  34.558  1.00  0.00     0.173 A 
ATOM     87  F   UNL A   1      42.367  26.669  35.608  1.00  0.00    -0.203 F 
ATOM     88  C   UNL A   1      44.679  26.344  35.916  1.00  0.00     0.198 A 
ATOM     89  C   UNL A   1      46.244  27.942  35.042  1.00  0.00     0.198 A 
ATOM     90  F   UNL A   1      45.466  29.852  33.910  1.00  0.00    -0.203 F 
ATOM     91  F   UNL A   1      44.429  25.218  36.599  1.00  0.00    -0.200 F 
ATOM     92  C   UNL A   1      45.988  26.763  35.725  1.00  0.00     0.200 A 
ATOM     93  F   UNL A   1      47.507  28.342  34.846  1.00  0.00    -0.200 F 
ATOM     94  F   UNL A   1      47.003  26.033  36.206  1.00  0.00    -0.200 F 
ENDBRANCH  61  84
ENDBRANCH  35  36
ENDBRANCH  27  30
ENDBRANCH  25  26
ENDBRANCH  24  25
ENDBRANCH   1  24
TORSDOF 15
ENDMDL
MODEL 3
REMARK VINA RESULT:     -12.2      0.663      7.210
REMARK SMILES CO[C@@H]1C[C@H](C(=O)NCCCCNC(=O)c2ccc(-c3c4nc(c(-c5c(F)c(F)c(F)c(F)c5F)c5ccc([nH]5)c(-c5c(F)c(F)c(F)c(F)c5F)c5nc(c(-c6c(F)c(F)c(F)c(F)c6F)c6ccc3[nH]6)C=C5)C=C4)cc2)N(C(=O)c2ccc([N+](=O)[O-])s2)C1
REMARK SMILES IDX 10 1 9 2 8 3 6 4 7 5 5 7 3 8 4 9 90 10 79 11 2 12 1 13 80 14
REMARK SMILES IDX 81 15 82 16 83 17 89 18 84 19 85 20 86 21 87 22 88 23 11 24
REMARK SMILES IDX 12 25 13 26 14 27 15 29 16 30 17 31 78 32 18 33 77 34 19 35
REMARK SMILES IDX 20 36 21 37 71 38 22 39 76 40 70 41 72 42 23 43 75 44 69 45
REMARK SMILES IDX 68 46 24 48 56 49 36 50 55 51 37 52 40 53 54 54 73 55 38 56
REMARK SMILES IDX 39 57 53 59 74 60 41 61 25 62 26 63 34 64 27 65 28 66 32 67
REMARK SMILES IDX 35 68 29 69 30 70 33 71 31 72 57 73 58 74 66 75 59 76 60 77
REMARK SMILES IDX 64 78 67 79 61 80 62 81 65 82 63 83 42 84 43 85 51 86 44 87
REMARK SMILES IDX 45 88 49 89 52 90 46 91 47 92 50 93 48 94
REMARK H PARENT 8 6 13 28 72 47 40 58
REMARK Flexibility Score: inf
ROOT
ATOM      1  C   UNL A   1      31.958  30.167  26.907  1.00  0.00     0.023 C 
ENDROOT
BRANCH   1   2
ATOM      2  C   UNL A   1      33.327  29.556  26.590  1.00  0.00     0.116 C 
BRANCH   2   3
ATOM      3  N   UNL A   1      33.659  29.664  25.186  1.00  0.00    -0.354 N 
ATOM      4  C   UNL A   1      33.191  29.000  24.098  1.00  0.00     0.242 C 
ATOM      5  O   UNL A   1      33.651  29.348  23.003  1.00  0.00    -0.273 OA
ATOM      6  H   UNL A   1      34.347  30.340  24.984  1.00  0.00     0.163 HD
BRANCH   4   7
ATOM      7  C   UNL A   1      32.143  27.859  24.148  1.00  0.00     0.177 C 
ATOM      8  C   UNL A   1      30.037  27.733  22.872  1.00  0.00     0.139 C 
ATOM      9  C   UNL A   1      30.684  28.313  24.137  1.00  0.00     0.069 C 
ATOM     10  C   UNL A   1      31.078  26.791  22.264  1.00  0.00     0.152 C 
ATOM     11  N   UNL A   1      32.262  26.857  23.096  1.00  0.00    -0.323 N 
BRANCH   8  12
ATOM     12  O   UNL A   1      29.675  28.824  22.028  1.00  0.00    -0.380 OA
ATOM     13  C   UNL A   1      29.287  30.004  22.714  1.00  0.00     0.195 C 
ENDBRANCH   8  12
BRANCH  11  14
ATOM     14  C   UNL A   1      33.279  25.931  22.898  1.00  0.00     0.264 C 
ATOM     15  O   UNL A   1      33.945  25.975  21.862  1.00  0.00    -0.268 OA
BRANCH  14  16
ATOM     16  C   UNL A   1      33.505  24.906  23.904  1.00  0.00     0.099 A 
ATOM     17  C   UNL A   1      34.426  24.870  24.937  1.00  0.00     0.033 A 
ATOM     18  S   UNL A   1      32.429  23.572  23.983  1.00  0.00    -0.058 S 
ATOM     19  C   UNL A   1      34.265  23.722  25.772  1.00  0.00     0.099 A 
ATOM     20  C   UNL A   1      33.203  22.948  25.359  1.00  0.00     0.324 A 
BRANCH  20  21
ATOM     21  N   UNL A   1      32.727  21.744  25.990  1.00  0.00     0.074 N 
ATOM     22  O   UNL A   1      33.239  21.459  27.083  1.00  0.00    -0.258 OA
ATOM     23  O   UNL A   1      31.847  21.087  25.420  1.00  0.00    -0.258 OA
ENDBRANCH  20  21
ENDBRANCH  14  16
ENDBRANCH  11  14
ENDBRANCH   4   7
ENDBRANCH   2   3
ENDBRANCH   1   2
BRANCH   1  24
ATOM     24  C   UNL A   1      31.847  31.668  26.659  1.00  0.00     0.023 C 
BRANCH  24  25
ATOM     25  C   UNL A   1      32.846  32.532  27.421  1.00  0.00     0.116 C 
BRANCH  25  26
ATOM     26  N   UNL A   1      32.415  33.905  27.662  1.00  0.00    -0.352 N 
ATOM     27  C   UNL A   1      32.972  34.829  28.520  1.00  0.00     0.251 C 
ATOM     28  H   UNL A   1      31.632  34.207  27.149  1.00  0.00     0.163 HD
ATOM     29  O   UNL A   1      32.480  35.946  28.651  1.00  0.00    -0.269 OA
BRANCH  27  30
ATOM     30  C   UNL A   1      34.138  34.425  29.332  1.00  0.00     0.039 A 
ATOM     31  C   UNL A   1      33.923  33.817  30.571  1.00  0.00     0.014 A 
ATOM     32  C   UNL A   1      35.428  34.527  28.806  1.00  0.00     0.014 A 
ATOM     33  C   UNL A   1      34.992  33.208  31.230  1.00  0.00     0.010 A 
ATOM     34  C   UNL A   1      36.469  33.840  29.417  1.00  0.00     0.010 A 
ATOM     35  C   UNL A   1      36.260  33.159  30.627  1.00  0.00    -0.014 A 
BRANCH  35  36
ATOM     36  C   UNL A   1      37.377  32.382  31.223  1.00  0.00     0.031 A 
ATOM     37  C   UNL A   1      37.897  32.738  32.587  1.00  0.00     0.074 A 
ATOM     38  C   UNL A   1      37.991  31.423  30.498  1.00  0.00     0.049 A 
ATOM     39  N   UNL A   1      38.932  32.262  33.232  1.00  0.00    -0.248 NA
ATOM     40  C   UNL A   1      37.178  33.800  33.309  1.00  0.00     0.031 C 
ATOM     41  C   UNL A   1      37.628  31.026  29.136  1.00  0.00     0.029 A 
ATOM     42  N   UNL A   1      39.062  30.619  30.801  1.00  0.00    -0.354 N 
ATOM     43  C   UNL A   1      39.001  32.983  34.417  1.00  0.00     0.074 A 
ATOM     44  C   UNL A   1      37.941  33.966  34.378  1.00  0.00     0.031 C 
ATOM     45  C   UNL A   1      38.443  30.038  28.733  1.00  0.00     0.029 A 
ATOM     46  C   UNL A   1      39.411  29.758  29.789  1.00  0.00     0.049 A 
ATOM     47  H   UNL A   1      39.536  30.656  31.663  1.00  0.00     0.167 HD
ATOM     48  C   UNL A   1      39.854  32.821  35.455  1.00  0.00     0.037 A 
ATOM     49  C   UNL A   1      40.404  28.851  29.717  1.00  0.00     0.037 A 
ATOM     50  C   UNL A   1      40.881  31.815  35.510  1.00  0.00     0.049 A 
ATOM     51  C   UNL A   1      41.328  28.679  30.893  1.00  0.00     0.074 A 
ATOM     52  C   UNL A   1      41.748  31.523  36.548  1.00  0.00     0.029 A 
ATOM     53  N   UNL A   1      41.179  30.936  34.479  1.00  0.00    -0.354 N 
ATOM     54  N   UNL A   1      41.336  29.315  32.039  1.00  0.00    -0.248 NA
ATOM     55  C   UNL A   1      42.377  27.656  30.768  1.00  0.00     0.031 C 
ATOM     56  C   UNL A   1      42.596  30.492  36.132  1.00  0.00     0.029 A 
ATOM     57  C   UNL A   1      42.227  30.111  34.851  1.00  0.00     0.049 A 
ATOM     58  H   UNL A   1      40.713  30.903  33.612  1.00  0.00     0.167 HD
ATOM     59  C   UNL A   1      42.368  28.755  32.779  1.00  0.00     0.074 A 
ATOM     60  C   UNL A   1      42.955  27.716  31.959  1.00  0.00     0.031 C 
ATOM     61  C   UNL A   1      42.791  29.073  34.027  1.00  0.00     0.037 A 
BRANCH  48  62
ATOM     62  C   UNL A   1      39.701  33.748  36.627  1.00  0.00     0.064 A 
ATOM     63  C   UNL A   1      40.343  34.994  36.667  1.00  0.00     0.173 A 
ATOM     64  C   UNL A   1      38.881  33.397  37.710  1.00  0.00     0.173 A 
ATOM     65  F   UNL A   1      41.149  35.371  35.662  1.00  0.00    -0.203 F 
ATOM     66  C   UNL A   1      40.198  35.840  37.762  1.00  0.00     0.198 A 
ATOM     67  C   UNL A   1      38.712  34.260  38.789  1.00  0.00     0.198 A 
ATOM     68  F   UNL A   1      38.239  32.218  37.719  1.00  0.00    -0.203 F 
ATOM     69  F   UNL A   1      40.865  37.001  37.802  1.00  0.00    -0.200 F 
ATOM     70  C   UNL A   1      39.378  35.477  38.819  1.00  0.00     0.200 A 
ATOM     71  F   UNL A   1      37.909  33.911  39.804  1.00  0.00    -0.200 F 
ATOM     72  F   UNL A   1      39.234  36.294  39.871  1.00  0.00    -0.200 F 
ENDBRANCH  48  62
BRANCH  49  73
ATOM     73  C   UNL A   1      40.561  28.012  28.500  1.00  0.00     0.064 A 
ATOM     74  C   UNL A   1      39.949  26.753  28.413  1.00  0.00     0.173 A 
ATOM     75  C   UNL A   1      41.329  28.441  27.407  1.00  0.00     0.173 A 
ATOM     76  F   UNL A   1      39.223  26.291  29.441  1.00  0.00    -0.203 F 
ATOM     77  C   UNL A   1      40.116  25.946  27.289  1.00  0.00     0.198 A 
ATOM     78  C   UNL A   1      41.472  27.644  26.272  1.00  0.00     0.198 A 
ATOM     79  F   UNL A   1      41.931  29.638  27.437  1.00  0.00    -0.203 F 
ATOM     80  F   UNL A   1      39.557  24.730  27.253  1.00  0.00    -0.200 F 
ATOM     81  C   UNL A   1      40.873  26.395  26.218  1.00  0.00     0.200 A 
ATOM     82  F   UNL A   1      42.193  28.086  25.233  1.00  0.00    -0.200 F 
ATOM     83  F   UNL A   1      41.030  25.620  25.135  1.00  0.00    -0.200 F 
ENDBRANCH  49  73
BRANCH  61  84
ATOM     84  C   UNL A   1      43.919  28.266  34.599  1.00  0.00     0.064 A 
ATOM     85  C   UNL A   1      45.252  28.687  34.495  1.00  0.00     0.173 A 
ATOM     86  C   UNL A   1      43.656  27.080  35.302  1.00  0.00     0.173 A 
ATOM     87  F   UNL A   1      45.555  29.807  33.820  1.00  0.00    -0.203 F 
ATOM     88  C   UNL A   1      46.284  27.940  35.056  1.00  0.00     0.198 A 
ATOM     89  C   UNL A   1      44.688  26.350  35.886  1.00  0.00     0.198 A 
ATOM     90  F   UNL A   1      42.397  26.637  35.433  1.00  0.00    -0.203 F 
ATOM     91  F   UNL A   1      47.555  28.340  34.909  1.00  0.00    -0.200 F 
ATOM     92  C   UNL A   1      46.001  26.778  35.758  1.00  0.00     0.200 A 
ATOM     93  F   UNL A   1      44.411  25.235  36.574  1.00  0.00    -0.200 F 
ATOM     94  F   UNL A   1      46.994  26.065  36.305  1.00  0.00    -0.200 F 
ENDBRANCH  61  84
ENDBRANCH  35  36
ENDBRANCH  27  30
ENDBRANCH  25  26
ENDBRANCH  24  25
ENDBRANCH   1  24
TORSDOF 15
ENDMDL
