MODEL 1
REMARK VINA RESULT:     -12.0      0.000      0.000
REMARK SMILES CC(C)(CNC(=O)[C@H]1CCC[C@H](C(=O)NCCCCNC(=O)c2ccc(-c3c4nc(c(-c5c(F)c(F)c(F)c(F)c5F)c5ccc([nH]5)c(-c5c(F)c(F)c(F)c(F)c5F)c5nc(c(-c6c(F)c(F)c(F)c(F)c6F)c6ccc3[nH]6)C=C5)C=C4)cc2)C1)S(C)(=O)=O
REMARK SMILES IDX 16 1 15 2 13 3 14 4 12 6 8 7 9 8 86 9 10 10 11 11 6 12 5 13
REMARK SMILES IDX 7 15 4 16 2 17 1 18 3 19 87 20 88 21 89 22 90 23 17 24 18 25
REMARK SMILES IDX 19 26 20 27 21 28 22 30 23 31 24 32 85 33 25 34 84 35 26 36
REMARK SMILES IDX 27 37 28 38 78 39 29 40 83 41 77 42 79 43 30 44 82 45 76 46
REMARK SMILES IDX 75 47 31 49 63 50 43 51 62 52 44 53 47 54 61 55 80 56 45 57
REMARK SMILES IDX 46 58 60 60 81 61 48 62 32 63 33 64 41 65 34 66 35 67 39 68
REMARK SMILES IDX 42 69 36 70 37 71 40 72 38 73 64 74 65 75 73 76 66 77 67 78
REMARK SMILES IDX 71 79 74 80 68 81 69 82 72 83 70 84 49 85 50 86 58 87 51 88
REMARK SMILES IDX 52 89 56 90 59 91 53 92 54 93 57 94 55 95
REMARK H PARENT 15 5 5 14 20 29 79 48 47 59
REMARK Flexibility Score: inf
ROOT
ATOM      1  C   UNL A   1      32.767  30.142  26.369  1.00  0.00     0.116 C 
ENDROOT
BRANCH   1   2
ATOM      2  N   UNL A   1      33.109  29.917  24.976  1.00  0.00    -0.356 N 
ATOM      3  C   UNL A   1      32.701  28.952  24.103  1.00  0.00     0.223 C 
ATOM      4  O   UNL A   1      33.190  28.966  22.972  1.00  0.00    -0.275 OA
ATOM      5  H   UNL A   1      33.741  30.571  24.599  1.00  0.00     0.163 HD
BRANCH   3   6
ATOM      6  C   UNL A   1      31.652  27.917  24.494  1.00  0.00     0.079 C 
ATOM      7  C   UNL A   1      31.154  25.392  24.238  1.00  0.00     0.079 C 
ATOM      8  C   UNL A   1      29.949  25.779  23.380  1.00  0.00     0.013 C 
ATOM      9  C   UNL A   1      32.206  26.501  24.263  1.00  0.00     0.027 C 
ATOM     10  C   UNL A   1      29.303  27.065  23.877  1.00  0.00     0.002 C 
ATOM     11  C   UNL A   1      30.280  28.230  23.878  1.00  0.00     0.013 C 
BRANCH   7  12
ATOM     12  C   UNL A   1      30.703  25.006  25.643  1.00  0.00     0.223 C 
ATOM     13  N   UNL A   1      30.621  23.687  25.981  1.00  0.00    -0.354 N 
ATOM     14  H   UNL A   1      30.272  23.502  26.883  1.00  0.00     0.163 HD
ATOM     15  O   UNL A   1      30.397  25.833  26.500  1.00  0.00    -0.275 OA
BRANCH  13  16
ATOM     16  C   UNL A   1      30.972  22.518  25.197  1.00  0.00     0.138 C 
BRANCH  16  17
ATOM     17  C   UNL A   1      32.427  22.041  25.364  1.00  0.00     0.084 C 
ATOM     18  C   UNL A   1      32.528  20.510  25.376  1.00  0.00     0.030 C 
ATOM     19  C   UNL A   1      33.223  22.573  24.150  1.00  0.00     0.030 C 
BRANCH  17  20
ATOM     20  S   UNL A   1      33.200  22.759  26.859  1.00  0.00     0.154 S 
ATOM     21  C   UNL A   1      34.653  21.805  27.251  1.00  0.00     0.158 C 
ATOM     22  O   UNL A   1      33.674  24.087  26.503  1.00  0.00    -0.229 OA
ATOM     23  O   UNL A   1      32.274  22.602  27.964  1.00  0.00    -0.229 OA
ENDBRANCH  17  20
ENDBRANCH  16  17
ENDBRANCH  13  16
ENDBRANCH   7  12
ENDBRANCH   3   6
ENDBRANCH   1   2
BRANCH   1  24
ATOM     24  C   UNL A   1      31.403  30.813  26.513  1.00  0.00     0.023 C 
BRANCH  24  25
ATOM     25  C   UNL A   1      31.450  32.338  26.515  1.00  0.00     0.023 C 
BRANCH  25  26
ATOM     26  C   UNL A   1      32.667  32.935  27.204  1.00  0.00     0.116 C 
BRANCH  26  27
ATOM     27  N   UNL A   1      32.436  34.288  27.689  1.00  0.00    -0.352 N 
ATOM     28  C   UNL A   1      33.057  34.950  28.719  1.00  0.00     0.251 C 
ATOM     29  H   UNL A   1      31.739  34.797  27.215  1.00  0.00     0.163 HD
ATOM     30  O   UNL A   1      32.640  36.038  29.100  1.00  0.00    -0.269 OA
BRANCH  28  31
ATOM     31  C   UNL A   1      34.215  34.323  29.386  1.00  0.00     0.039 A 
ATOM     32  C   UNL A   1      33.993  33.473  30.470  1.00  0.00     0.014 A 
ATOM     33  C   UNL A   1      35.513  34.554  28.922  1.00  0.00     0.014 A 
ATOM     34  C   UNL A   1      35.072  32.808  31.054  1.00  0.00     0.010 A 
ATOM     35  C   UNL A   1      36.572  33.820  29.443  1.00  0.00     0.010 A 
ATOM     36  C   UNL A   1      36.365  32.950  30.524  1.00  0.00    -0.014 A 
BRANCH  36  37
ATOM     37  C   UNL A   1      37.517  32.215  31.103  1.00  0.00     0.031 A 
ATOM     38  C   UNL A   1      37.998  32.545  32.488  1.00  0.00     0.074 A 
ATOM     39  C   UNL A   1      38.158  31.289  30.364  1.00  0.00     0.049 A 
ATOM     40  N   UNL A   1      39.003  32.041  33.159  1.00  0.00    -0.248 NA
ATOM     41  C   UNL A   1      37.273  33.605  33.205  1.00  0.00     0.031 C 
ATOM     42  C   UNL A   1      37.816  30.915  28.991  1.00  0.00     0.029 A 
ATOM     43  N   UNL A   1      39.233  30.492  30.667  1.00  0.00    -0.354 N 
ATOM     44  C   UNL A   1      39.037  32.730  34.364  1.00  0.00     0.074 A 
ATOM     45  C   UNL A   1      37.996  33.734  34.306  1.00  0.00     0.031 C 
ATOM     46  C   UNL A   1      38.639  29.936  28.584  1.00  0.00     0.029 A 
ATOM     47  C   UNL A   1      39.592  29.641  29.651  1.00  0.00     0.049 A 
ATOM     48  H   UNL A   1      39.704  30.527  31.531  1.00  0.00     0.167 HD
ATOM     49  C   UNL A   1      39.841  32.527  35.434  1.00  0.00     0.037 A 
ATOM     50  C   UNL A   1      40.577  28.726  29.589  1.00  0.00     0.037 A 
ATOM     51  C   UNL A   1      40.861  31.513  35.492  1.00  0.00     0.049 A 
ATOM     52  C   UNL A   1      41.471  28.532  30.785  1.00  0.00     0.074 A 
ATOM     53  C   UNL A   1      41.691  31.183  36.549  1.00  0.00     0.029 A 
ATOM     54  N   UNL A   1      41.195  30.669  34.443  1.00  0.00    -0.354 N 
ATOM     55  N   UNL A   1      41.441  29.133  31.950  1.00  0.00    -0.248 NA
ATOM     56  C   UNL A   1      42.532  27.524  30.658  1.00  0.00     0.031 C 
ATOM     57  C   UNL A   1      42.567  30.180  36.119  1.00  0.00     0.029 A 
ATOM     58  C   UNL A   1      42.240  29.838  34.817  1.00  0.00     0.049 A 
ATOM     59  H   UNL A   1      40.756  30.662  33.561  1.00  0.00     0.167 HD
ATOM     60  C   UNL A   1      42.450  28.551  32.705  1.00  0.00     0.074 A 
ATOM     61  C   UNL A   1      43.064  27.540  31.871  1.00  0.00     0.031 C 
ATOM     62  C   UNL A   1      42.833  28.828  33.977  1.00  0.00     0.037 A 
BRANCH  49  63
ATOM     63  C   UNL A   1      39.650  33.424  36.625  1.00  0.00     0.064 A 
ATOM     64  C   UNL A   1      40.331  34.646  36.749  1.00  0.00     0.173 A 
ATOM     65  C   UNL A   1      38.763  33.064  37.650  1.00  0.00     0.173 A 
ATOM     66  F   UNL A   1      41.198  35.034  35.802  1.00  0.00    -0.203 F 
ATOM     67  C   UNL A   1      40.162  35.452  37.871  1.00  0.00     0.198 A 
ATOM     68  C   UNL A   1      38.569  33.891  38.755  1.00  0.00     0.198 A 
ATOM     69  F   UNL A   1      38.081  31.911  37.583  1.00  0.00    -0.203 F 
ATOM     70  F   UNL A   1      40.872  36.581  37.996  1.00  0.00    -0.200 F 
ATOM     71  C   UNL A   1      39.277  35.077  38.869  1.00  0.00     0.200 A 
ATOM     72  F   UNL A   1      37.701  33.534  39.712  1.00  0.00    -0.200 F 
ATOM     73  F   UNL A   1      39.112  35.855  39.949  1.00  0.00    -0.200 F 
ENDBRANCH  49  63
BRANCH  50  74
ATOM     74  C   UNL A   1      40.747  27.893  28.368  1.00  0.00     0.064 A 
ATOM     75  C   UNL A   1      40.129  26.639  28.266  1.00  0.00     0.173 A 
ATOM     76  C   UNL A   1      41.535  28.322  27.291  1.00  0.00     0.173 A 
ATOM     77  F   UNL A   1      39.381  26.175  29.278  1.00  0.00    -0.203 F 
ATOM     78  C   UNL A   1      40.313  25.835  27.143  1.00  0.00     0.198 A 
ATOM     79  C   UNL A   1      41.693  27.531  26.154  1.00  0.00     0.198 A 
ATOM     80  F   UNL A   1      42.143  29.516  27.336  1.00  0.00    -0.203 F 
ATOM     81  F   UNL A   1      39.752  24.618  27.093  1.00  0.00    -0.200 F 
ATOM     82  C   UNL A   1      41.089  26.283  26.085  1.00  0.00     0.200 A 
ATOM     83  F   UNL A   1      42.431  27.975  25.129  1.00  0.00    -0.200 F 
ATOM     84  F   UNL A   1      41.264  25.511  25.004  1.00  0.00    -0.200 F 
ENDBRANCH  50  74
BRANCH  62  85
ATOM     85  C   UNL A   1      43.935  27.991  34.561  1.00  0.00     0.064 A 
ATOM     86  C   UNL A   1      45.277  28.396  34.519  1.00  0.00     0.173 A 
ATOM     87  C   UNL A   1      43.637  26.777  35.200  1.00  0.00     0.173 A 
ATOM     88  F   UNL A   1      45.618  29.540  33.908  1.00  0.00    -0.203 F 
ATOM     89  C   UNL A   1      46.284  27.600  35.062  1.00  0.00     0.198 A 
ATOM     90  C   UNL A   1      44.641  26.002  35.774  1.00  0.00     0.198 A 
ATOM     91  F   UNL A   1      42.370  26.346  35.278  1.00  0.00    -0.203 F 
ATOM     92  F   UNL A   1      47.565  27.979  34.956  1.00  0.00    -0.200 F 
ATOM     93  C   UNL A   1      45.964  26.409  35.696  1.00  0.00     0.200 A 
ATOM     94  F   UNL A   1      44.327  24.860  36.402  1.00  0.00    -0.200 F 
ATOM     95  F   UNL A   1      46.933  25.648  36.224  1.00  0.00    -0.200 F 
ENDBRANCH  62  85
ENDBRANCH  36  37
ENDBRANCH  28  31
ENDBRANCH  26  27
ENDBRANCH  25  26
ENDBRANCH  24  25
ENDBRANCH   1  24
TORSDOF 15
ENDMDL
MODEL 2
REMARK VINA RESULT:     -12.0      0.825      1.867
REMARK SMILES CC(C)(CNC(=O)[C@H]1CCC[C@H](C(=O)NCCCCNC(=O)c2ccc(-c3c4nc(c(-c5c(F)c(F)c(F)c(F)c5F)c5ccc([nH]5)c(-c5c(F)c(F)c(F)c(F)c5F)c5nc(c(-c6c(F)c(F)c(F)c(F)c6F)c6ccc3[nH]6)C=C5)C=C4)cc2)C1)S(C)(=O)=O
REMARK SMILES IDX 16 1 15 2 13 3 14 4 12 6 8 7 9 8 86 9 10 10 11 11 6 12 5 13
REMARK SMILES IDX 7 15 4 16 2 17 1 18 3 19 87 20 88 21 89 22 90 23 17 24 18 25
REMARK SMILES IDX 19 26 20 27 21 28 22 30 23 31 24 32 85 33 25 34 84 35 26 36
REMARK SMILES IDX 27 37 28 38 78 39 29 40 83 41 77 42 79 43 30 44 82 45 76 46
REMARK SMILES IDX 75 47 31 49 63 50 43 51 62 52 44 53 47 54 61 55 80 56 45 57
REMARK SMILES IDX 46 58 60 60 81 61 48 62 32 63 33 64 41 65 34 66 35 67 39 68
REMARK SMILES IDX 42 69 36 70 37 71 40 72 38 73 64 74 65 75 73 76 66 77 67 78
REMARK SMILES IDX 71 79 74 80 68 81 69 82 72 83 70 84 49 85 50 86 58 87 51 88
REMARK SMILES IDX 52 89 56 90 59 91 53 92 54 93 57 94 55 95
REMARK H PARENT 15 5 5 14 20 29 79 48 47 59
REMARK Flexibility Score: inf
ROOT
ATOM      1  C   UNL A   1      32.861  30.131  26.270  1.00  0.00     0.116 C 
ENDROOT
BRANCH   1   2
ATOM      2  N   UNL A   1      33.482  29.672  25.042  1.00  0.00    -0.356 N 
ATOM      3  C   UNL A   1      33.364  28.490  24.372  1.00  0.00     0.223 C 
ATOM      4  O   UNL A   1      34.051  28.339  23.359  1.00  0.00    -0.275 OA
ATOM      5  H   UNL A   1      34.091  30.322  24.622  1.00  0.00     0.163 HD
BRANCH   3   6
ATOM      6  C   UNL A   1      32.392  27.408  24.831  1.00  0.00     0.079 C 
ATOM      7  C   UNL A   1      31.993  24.863  24.600  1.00  0.00     0.079 C 
ATOM      8  C   UNL A   1      30.715  25.196  23.829  1.00  0.00     0.013 C 
ATOM      9  C   UNL A   1      32.992  26.019  24.556  1.00  0.00     0.027 C 
ATOM     10  C   UNL A   1      30.047  26.451  24.374  1.00  0.00     0.002 C 
ATOM     11  C   UNL A   1      30.969  27.660  24.312  1.00  0.00     0.013 C 
BRANCH   7  12
ATOM     12  C   UNL A   1      31.658  24.457  26.032  1.00  0.00     0.223 C 
ATOM     13  N   UNL A   1      31.634  23.134  26.363  1.00  0.00    -0.354 N 
ATOM     14  H   UNL A   1      31.359  22.934  27.287  1.00  0.00     0.163 HD
ATOM     15  O   UNL A   1      31.396  25.270  26.916  1.00  0.00    -0.275 OA
BRANCH  13  16
ATOM     16  C   UNL A   1      31.956  21.979  25.545  1.00  0.00     0.138 C 
BRANCH  16  17
ATOM     17  C   UNL A   1      33.303  21.310  25.873  1.00  0.00     0.084 C 
ATOM     18  C   UNL A   1      33.690  21.495  27.345  1.00  0.00     0.030 C 
ATOM     19  C   UNL A   1      33.138  19.797  25.599  1.00  0.00     0.030 C 
BRANCH  17  20
ATOM     20  S   UNL A   1      34.633  21.904  24.766  1.00  0.00     0.154 S 
ATOM     21  C   UNL A   1      35.375  23.345  25.507  1.00  0.00     0.158 C 
ATOM     22  O   UNL A   1      35.668  20.882  24.748  1.00  0.00    -0.229 OA
ATOM     23  O   UNL A   1      34.025  22.330  23.520  1.00  0.00    -0.229 OA
ENDBRANCH  17  20
ENDBRANCH  16  17
ENDBRANCH  13  16
ENDBRANCH   7  12
ENDBRANCH   3   6
ENDBRANCH   1   2
BRANCH   1  24
ATOM     24  C   UNL A   1      31.530  30.831  26.002  1.00  0.00     0.023 C 
BRANCH  24  25
ATOM     25  C   UNL A   1      31.327  32.120  26.794  1.00  0.00     0.023 C 
BRANCH  25  26
ATOM     26  C   UNL A   1      32.611  32.848  27.163  1.00  0.00     0.116 C 
BRANCH  26  27
ATOM     27  N   UNL A   1      32.379  34.216  27.601  1.00  0.00    -0.352 N 
ATOM     28  C   UNL A   1      33.007  34.916  28.600  1.00  0.00     0.251 C 
ATOM     29  H   UNL A   1      31.677  34.705  27.114  1.00  0.00     0.163 HD
ATOM     30  O   UNL A   1      32.589  36.017  28.945  1.00  0.00    -0.269 OA
BRANCH  28  31
ATOM     31  C   UNL A   1      34.172  34.318  29.280  1.00  0.00     0.039 A 
ATOM     32  C   UNL A   1      33.960  33.485  30.380  1.00  0.00     0.014 A 
ATOM     33  C   UNL A   1      35.468  34.556  28.813  1.00  0.00     0.014 A 
ATOM     34  C   UNL A   1      35.046  32.844  30.977  1.00  0.00     0.010 A 
ATOM     35  C   UNL A   1      36.535  33.846  29.349  1.00  0.00     0.010 A 
ATOM     36  C   UNL A   1      36.338  32.994  30.446  1.00  0.00    -0.014 A 
BRANCH  36  37
ATOM     37  C   UNL A   1      37.499  32.285  31.040  1.00  0.00     0.031 A 
ATOM     38  C   UNL A   1      37.979  32.653  32.416  1.00  0.00     0.074 A 
ATOM     39  C   UNL A   1      38.148  31.348  30.322  1.00  0.00     0.049 A 
ATOM     40  N   UNL A   1      38.990  32.174  33.096  1.00  0.00    -0.248 NA
ATOM     41  C   UNL A   1      37.244  33.721  33.109  1.00  0.00     0.031 C 
ATOM     42  C   UNL A   1      37.808  30.939  28.958  1.00  0.00     0.029 A 
ATOM     43  N   UNL A   1      39.232  30.570  30.641  1.00  0.00    -0.354 N 
ATOM     44  C   UNL A   1      39.019  32.893  34.285  1.00  0.00     0.074 A 
ATOM     45  C   UNL A   1      37.968  33.883  34.205  1.00  0.00     0.031 C 
ATOM     46  C   UNL A   1      38.640  29.959  28.573  1.00  0.00     0.029 A 
ATOM     47  C   UNL A   1      39.598  29.699  29.644  1.00  0.00     0.049 A 
ATOM     48  H   UNL A   1      39.704  30.630  31.503  1.00  0.00     0.167 HD
ATOM     49  C   UNL A   1      39.828  32.723  35.357  1.00  0.00     0.037 A 
ATOM     50  C   UNL A   1      40.593  28.794  29.602  1.00  0.00     0.037 A 
ATOM     51  C   UNL A   1      40.858  31.722  35.437  1.00  0.00     0.049 A 
ATOM     52  C   UNL A   1      41.491  28.637  30.801  1.00  0.00     0.074 A 
ATOM     53  C   UNL A   1      41.694  31.425  36.500  1.00  0.00     0.029 A 
ATOM     54  N   UNL A   1      41.199  30.857  34.407  1.00  0.00    -0.354 N 
ATOM     55  N   UNL A   1      41.457  29.265  31.950  1.00  0.00    -0.248 NA
ATOM     56  C   UNL A   1      42.562  27.637  30.695  1.00  0.00     0.031 C 
ATOM     57  C   UNL A   1      42.579  30.421  36.092  1.00  0.00     0.029 A 
ATOM     58  C   UNL A   1      42.253  30.045  34.799  1.00  0.00     0.049 A 
ATOM     59  H   UNL A   1      40.758  30.824  33.527  1.00  0.00     0.167 HD
ATOM     60  C   UNL A   1      42.473  28.712  32.718  1.00  0.00     0.074 A 
ATOM     61  C   UNL A   1      43.097  27.688  31.905  1.00  0.00     0.031 C 
ATOM     62  C   UNL A   1      42.856  29.022  33.982  1.00  0.00     0.037 A 
BRANCH  49  63
ATOM     63  C   UNL A   1      39.629  33.646  36.527  1.00  0.00     0.064 A 
ATOM     64  C   UNL A   1      38.820  33.293  37.619  1.00  0.00     0.173 A 
ATOM     65  C   UNL A   1      40.267  34.895  36.563  1.00  0.00     0.173 A 
ATOM     66  F   UNL A   1      38.179  32.116  37.632  1.00  0.00    -0.203 F 
ATOM     67  C   UNL A   1      38.626  34.172  38.682  1.00  0.00     0.198 A 
ATOM     68  C   UNL A   1      40.099  35.757  37.645  1.00  0.00     0.198 A 
ATOM     69  F   UNL A   1      41.056  35.283  35.550  1.00  0.00    -0.203 F 
ATOM     70  F   UNL A   1      37.797  33.838  39.681  1.00  0.00    -0.200 F 
ATOM     71  C   UNL A   1      39.270  35.398  38.697  1.00  0.00     0.200 A 
ATOM     72  F   UNL A   1      40.735  36.936  37.666  1.00  0.00    -0.200 F 
ATOM     73  F   UNL A   1      39.084  36.243  39.723  1.00  0.00    -0.200 F 
ENDBRANCH  49  63
BRANCH  50  74
ATOM     74  C   UNL A   1      40.769  27.934  28.401  1.00  0.00     0.064 A 
ATOM     75  C   UNL A   1      41.538  28.372  27.313  1.00  0.00     0.173 A 
ATOM     76  C   UNL A   1      40.168  26.671  28.308  1.00  0.00     0.173 A 
ATOM     77  F   UNL A   1      42.118  29.581  27.345  1.00  0.00    -0.203 F 
ATOM     78  C   UNL A   1      41.678  27.589  26.169  1.00  0.00     0.198 A 
ATOM     79  C   UNL A   1      40.335  25.875  27.175  1.00  0.00     0.198 A 
ATOM     80  F   UNL A   1      39.428  26.202  29.322  1.00  0.00    -0.203 F 
ATOM     81  F   UNL A   1      42.376  28.055  25.122  1.00  0.00    -0.200 F 
ATOM     82  C   UNL A   1      41.082  26.340  26.102  1.00  0.00     0.200 A 
ATOM     83  F   UNL A   1      39.770  24.662  27.122  1.00  0.00    -0.200 F 
ATOM     84  F   UNL A   1      41.219  25.587  25.003  1.00  0.00    -0.200 F 
ENDBRANCH  50  74
BRANCH  62  85
ATOM     85  C   UNL A   1      43.968  28.211  34.583  1.00  0.00     0.064 A 
ATOM     86  C   UNL A   1      45.305  28.630  34.531  1.00  0.00     0.173 A 
ATOM     87  C   UNL A   1      43.684  27.007  35.248  1.00  0.00     0.173 A 
ATOM     88  F   UNL A   1      45.633  29.765  33.895  1.00  0.00    -0.203 F 
ATOM     89  C   UNL A   1      46.321  27.858  35.090  1.00  0.00     0.198 A 
ATOM     90  C   UNL A   1      44.697  26.257  35.839  1.00  0.00     0.198 A 
ATOM     91  F   UNL A   1      42.421  26.564  35.336  1.00  0.00    -0.203 F 
ATOM     92  F   UNL A   1      47.597  28.249  34.975  1.00  0.00    -0.200 F 
ATOM     93  C   UNL A   1      46.015  26.678  35.750  1.00  0.00     0.200 A 
ATOM     94  F   UNL A   1      44.396  25.125  36.491  1.00  0.00    -0.200 F 
ATOM     95  F   UNL A   1      46.993  25.939  36.294  1.00  0.00    -0.200 F 
ENDBRANCH  62  85
ENDBRANCH  36  37
ENDBRANCH  28  31
ENDBRANCH  26  27
ENDBRANCH  25  26
ENDBRANCH  24  25
ENDBRANCH   1  24
TORSDOF 15
ENDMDL
MODEL 3
REMARK VINA RESULT:     -12.0      0.701      1.809
REMARK SMILES CC(C)(CNC(=O)[C@H]1CCC[C@H](C(=O)NCCCCNC(=O)c2ccc(-c3c4nc(c(-c5c(F)c(F)c(F)c(F)c5F)c5ccc([nH]5)c(-c5c(F)c(F)c(F)c(F)c5F)c5nc(c(-c6c(F)c(F)c(F)c(F)c6F)c6ccc3[nH]6)C=C5)C=C4)cc2)C1)S(C)(=O)=O
REMARK SMILES IDX 16 1 15 2 13 3 14 4 12 6 8 7 9 8 86 9 10 10 11 11 6 12 5 13
REMARK SMILES IDX 7 15 4 16 2 17 1 18 3 19 87 20 88 21 89 22 90 23 17 24 18 25
REMARK SMILES IDX 19 26 20 27 21 28 22 30 23 31 24 32 85 33 25 34 84 35 26 36
REMARK SMILES IDX 27 37 28 38 78 39 29 40 83 41 77 42 79 43 30 44 82 45 76 46
REMARK SMILES IDX 75 47 31 49 63 50 43 51 62 52 44 53 47 54 61 55 80 56 45 57
REMARK SMILES IDX 46 58 60 60 81 61 48 62 32 63 33 64 41 65 34 66 35 67 39 68
REMARK SMILES IDX 42 69 36 70 37 71 40 72 38 73 64 74 65 75 73 76 66 77 67 78
REMARK SMILES IDX 71 79 74 80 68 81 69 82 72 83 70 84 49 85 50 86 58 87 51 88
REMARK SMILES IDX 52 89 56 90 59 91 53 92 54 93 57 94 55 95
REMARK H PARENT 15 5 5 14 20 29 79 48 47 59
REMARK Flexibility Score: inf
ROOT
ATOM      1  C   UNL A   1      32.844  30.100  25.945  1.00  0.00     0.116 C 
ENDROOT
BRANCH   1   2
ATOM      2  N   UNL A   1      33.254  29.642  24.630  1.00  0.00    -0.356 N 
ATOM      3  C   UNL A   1      33.017  28.467  23.981  1.00  0.00     0.223 C 
ATOM      4  O   UNL A   1      33.530  28.316  22.871  1.00  0.00    -0.275 OA
ATOM      5  H   UNL A   1      33.795  30.289  24.121  1.00  0.00     0.163 HD
BRANCH   3   6
ATOM      6  C   UNL A   1      32.118  27.392  24.585  1.00  0.00     0.079 C 
ATOM      7  C   UNL A   1      31.753  24.833  24.515  1.00  0.00     0.079 C 
ATOM      8  C   UNL A   1      30.399  25.106  23.859  1.00  0.00     0.013 C 
ATOM      9  C   UNL A   1      32.718  26.002  24.318  1.00  0.00     0.027 C 
ATOM     10  C   UNL A   1      29.760  26.375  24.409  1.00  0.00     0.002 C 
ATOM     11  C   UNL A   1      30.645  27.594  24.198  1.00  0.00     0.013 C 
BRANCH   7  12
ATOM     12  C   UNL A   1      31.569  24.491  25.990  1.00  0.00     0.223 C 
ATOM     13  N   UNL A   1      31.684  23.194  26.395  1.00  0.00    -0.354 N 
ATOM     14  H   UNL A   1      31.502  23.031  27.349  1.00  0.00     0.163 HD
ATOM     15  O   UNL A   1      31.312  25.335  26.847  1.00  0.00    -0.275 OA
BRANCH  13  16
ATOM     16  C   UNL A   1      32.035  22.020  25.618  1.00  0.00     0.138 C 
BRANCH  16  17
ATOM     17  C   UNL A   1      33.449  21.469  25.882  1.00  0.00     0.084 C 
ATOM     18  C   UNL A   1      33.770  21.413  27.381  1.00  0.00     0.030 C 
ATOM     19  C   UNL A   1      33.488  20.029  25.321  1.00  0.00     0.030 C 
BRANCH  17  20
ATOM     20  S   UNL A   1      34.720  22.424  24.976  1.00  0.00     0.154 S 
ATOM     21  C   UNL A   1      36.230  21.478  24.968  1.00  0.00     0.158 C 
ATOM     22  O   UNL A   1      34.289  22.508  23.590  1.00  0.00    -0.229 OA
ATOM     23  O   UNL A   1      34.983  23.641  25.720  1.00  0.00    -0.229 OA
ENDBRANCH  17  20
ENDBRANCH  16  17
ENDBRANCH  13  16
ENDBRANCH   7  12
ENDBRANCH   3   6
ENDBRANCH   1   2
BRANCH   1  24
ATOM     24  C   UNL A   1      31.492  30.808  25.899  1.00  0.00     0.023 C 
BRANCH  24  25
ATOM     25  C   UNL A   1      31.362  31.978  26.870  1.00  0.00     0.023 C 
BRANCH  25  26
ATOM     26  C   UNL A   1      32.660  32.722  27.145  1.00  0.00     0.116 C 
BRANCH  26  27
ATOM     27  N   UNL A   1      32.445  34.097  27.570  1.00  0.00    -0.352 N 
ATOM     28  C   UNL A   1      33.085  34.801  28.559  1.00  0.00     0.251 C 
ATOM     29  H   UNL A   1      31.745  34.588  27.083  1.00  0.00     0.163 HD
ATOM     30  O   UNL A   1      32.681  35.910  28.895  1.00  0.00    -0.269 OA
BRANCH  28  31
ATOM     31  C   UNL A   1      34.249  34.198  29.238  1.00  0.00     0.039 A 
ATOM     32  C   UNL A   1      34.030  33.305  30.289  1.00  0.00     0.014 A 
ATOM     33  C   UNL A   1      35.549  34.491  28.818  1.00  0.00     0.014 A 
ATOM     34  C   UNL A   1      35.117  32.662  30.881  1.00  0.00     0.010 A 
ATOM     35  C   UNL A   1      36.621  33.781  29.345  1.00  0.00     0.010 A 
ATOM     36  C   UNL A   1      36.418  32.870  30.392  1.00  0.00    -0.014 A 
BRANCH  36  37
ATOM     37  C   UNL A   1      37.581  32.160  30.981  1.00  0.00     0.031 A 
ATOM     38  C   UNL A   1      38.059  32.517  32.361  1.00  0.00     0.074 A 
ATOM     39  C   UNL A   1      38.236  31.234  30.254  1.00  0.00     0.049 A 
ATOM     40  N   UNL A   1      39.071  32.036  33.038  1.00  0.00    -0.248 NA
ATOM     41  C   UNL A   1      37.317  33.574  33.065  1.00  0.00     0.031 C 
ATOM     42  C   UNL A   1      37.900  30.838  28.886  1.00  0.00     0.029 A 
ATOM     43  N   UNL A   1      39.324  30.459  30.566  1.00  0.00    -0.354 N 
ATOM     44  C   UNL A   1      39.095  32.742  34.234  1.00  0.00     0.074 A 
ATOM     45  C   UNL A   1      38.039  33.728  34.163  1.00  0.00     0.031 C 
ATOM     46  C   UNL A   1      38.738  29.866  28.491  1.00  0.00     0.029 A 
ATOM     47  C   UNL A   1      39.695  29.600  29.561  1.00  0.00     0.049 A 
ATOM     48  H   UNL A   1      39.794  30.512  31.429  1.00  0.00     0.167 HD
ATOM     49  C   UNL A   1      39.903  32.565  35.305  1.00  0.00     0.037 A 
ATOM     50  C   UNL A   1      40.695  28.700  29.510  1.00  0.00     0.037 A 
ATOM     51  C   UNL A   1      40.938  31.568  35.376  1.00  0.00     0.049 A 
ATOM     52  C   UNL A   1      41.592  28.535  30.709  1.00  0.00     0.074 A 
ATOM     53  C   UNL A   1      41.774  31.265  36.437  1.00  0.00     0.029 A 
ATOM     54  N   UNL A   1      41.285  30.715  34.338  1.00  0.00    -0.354 N 
ATOM     55  N   UNL A   1      41.553  29.151  31.865  1.00  0.00    -0.248 NA
ATOM     56  C   UNL A   1      42.668  27.541  30.594  1.00  0.00     0.031 C 
ATOM     57  C   UNL A   1      42.665  30.269  36.020  1.00  0.00     0.029 A 
ATOM     58  C   UNL A   1      42.342  29.905  34.722  1.00  0.00     0.049 A 
ATOM     59  H   UNL A   1      40.845  30.690  33.457  1.00  0.00     0.167 HD
ATOM     60  C   UNL A   1      42.571  28.595  32.628  1.00  0.00     0.074 A 
ATOM     61  C   UNL A   1      43.201  27.582  31.806  1.00  0.00     0.031 C 
ATOM     62  C   UNL A   1      42.951  28.894  33.895  1.00  0.00     0.037 A 
BRANCH  49  63
ATOM     63  C   UNL A   1      39.698  33.475  36.485  1.00  0.00     0.064 A 
ATOM     64  C   UNL A   1      38.834  33.138  37.538  1.00  0.00     0.173 A 
ATOM     65  C   UNL A   1      40.386  34.694  36.569  1.00  0.00     0.173 A 
ATOM     66  F   UNL A   1      38.143  31.989  37.503  1.00  0.00    -0.203 F 
ATOM     67  C   UNL A   1      38.636  34.005  38.609  1.00  0.00     0.198 A 
ATOM     68  C   UNL A   1      40.214  35.543  37.661  1.00  0.00     0.198 A 
ATOM     69  F   UNL A   1      41.230  35.066  35.595  1.00  0.00    -0.203 F 
ATOM     70  F   UNL A   1      37.755  33.689  39.570  1.00  0.00    -0.200 F 
ATOM     71  C   UNL A   1      39.330  35.202  38.673  1.00  0.00     0.200 A 
ATOM     72  F   UNL A   1      40.897  36.693  37.728  1.00  0.00    -0.200 F 
ATOM     73  F   UNL A   1      39.140  36.035  39.707  1.00  0.00    -0.200 F 
ENDBRANCH  49  63
BRANCH  50  74
ATOM     74  C   UNL A   1      40.877  27.853  28.301  1.00  0.00     0.064 A 
ATOM     75  C   UNL A   1      40.274  26.590  28.213  1.00  0.00     0.173 A 
ATOM     76  C   UNL A   1      41.661  28.278  27.219  1.00  0.00     0.173 A 
ATOM     77  F   UNL A   1      39.531  26.130  29.230  1.00  0.00    -0.203 F 
ATOM     78  C   UNL A   1      40.470  25.775  27.101  1.00  0.00     0.198 A 
ATOM     79  C   UNL A   1      41.830  27.475  26.093  1.00  0.00     0.198 A 
ATOM     80  F   UNL A   1      42.254  29.480  27.249  1.00  0.00    -0.203 F 
ATOM     81  F   UNL A   1      39.924  24.550  27.066  1.00  0.00    -0.200 F 
ATOM     82  C   UNL A   1      41.242  26.219  26.039  1.00  0.00     0.200 A 
ATOM     83  F   UNL A   1      42.564  27.915  25.062  1.00  0.00    -0.200 F 
ATOM     84  F   UNL A   1      41.428  25.435  24.968  1.00  0.00    -0.200 F 
ENDBRANCH  50  74
BRANCH  62  85
ATOM     85  C   UNL A   1      44.066  28.081  34.490  1.00  0.00     0.064 A 
ATOM     86  C   UNL A   1      43.830  26.863  35.142  1.00  0.00     0.173 A 
ATOM     87  C   UNL A   1      45.395  28.517  34.377  1.00  0.00     0.173 A 
ATOM     88  F   UNL A   1      42.577  26.407  35.290  1.00  0.00    -0.203 F 
ATOM     89  C   UNL A   1      44.879  26.129  35.691  1.00  0.00     0.198 A 
ATOM     90  C   UNL A   1      46.445  27.763  34.893  1.00  0.00     0.198 A 
ATOM     91  F   UNL A   1      45.679  29.671  33.754  1.00  0.00    -0.203 F 
ATOM     92  F   UNL A   1      44.623  24.997  36.362  1.00  0.00    -0.200 F 
ATOM     93  C   UNL A   1      46.185  26.575  35.559  1.00  0.00     0.200 A 
ATOM     94  F   UNL A   1      47.708  28.188  34.748  1.00  0.00    -0.200 F 
ATOM     95  F   UNL A   1      47.194  25.864  36.081  1.00  0.00    -0.200 F 
ENDBRANCH  62  85
ENDBRANCH  36  37
ENDBRANCH  28  31
ENDBRANCH  26  27
ENDBRANCH  25  26
ENDBRANCH  24  25
ENDBRANCH   1  24
TORSDOF 15
ENDMDL
