MODEL 1
REMARK VINA RESULT:     -12.3      0.000      0.000
REMARK SMILES O=C(CNC(=O)c1cccs1)N[C@@H]1C=C[C@H](C(=O)NCCCCNC(=O)c2ccc(-c3c4nc(c(-c5c(F)c(F)c(F)c(F)c5F)c5ccc([nH]5)c(-c5c(F)c(F)c(F)c(F)c5F)c5nc(c(-c6c(F)c(F)c(F)c(F)c6F)c6ccc3[nH]6)C=C5)C=C4)cc2)C1
REMARK SMILES IDX 20 1 19 2 17 3 18 4 16 6 13 7 14 8 90 9 15 10 12 11 1 12
REMARK SMILES IDX 2 13 3 15 4 16 5 17 6 19 7 20 8 21 11 22 9 23 10 24 21 25
REMARK SMILES IDX 22 26 23 27 24 28 25 29 26 31 27 32 28 33 89 34 29 35 88 36
REMARK SMILES IDX 30 37 31 38 32 39 82 40 33 41 87 42 81 43 83 44 34 45 86 46
REMARK SMILES IDX 80 47 79 48 35 50 67 51 47 52 66 53 48 54 51 55 65 56 84 57
REMARK SMILES IDX 49 58 50 59 64 61 85 62 52 63 36 64 37 65 45 66 38 67 39 68
REMARK SMILES IDX 43 69 46 70 40 71 41 72 44 73 42 74 68 75 69 76 77 77 70 78
REMARK SMILES IDX 71 79 75 80 78 81 72 82 73 83 76 84 74 85 53 86 54 87 62 88
REMARK SMILES IDX 55 89 56 90 60 91 63 92 57 93 58 94 61 95 59 96
REMARK H PARENT 19 5 12 14 4 18 24 30 83 49 51 60
REMARK Flexibility Score: inf
ROOT
ATOM      1  C   UNL A   1      31.780  29.551  27.085  1.00  0.00     0.116 C 
ENDROOT
BRANCH   1   2
ATOM      2  N   UNL A   1      32.718  28.533  26.663  1.00  0.00    -0.356 N 
ATOM      3  C   UNL A   1      32.566  27.570  25.708  1.00  0.00     0.227 C 
ATOM      4  O   UNL A   1      33.561  26.886  25.444  1.00  0.00    -0.274 OA
ATOM      5  H   UNL A   1      33.585  28.535  27.131  1.00  0.00     0.163 HD
BRANCH   3   6
ATOM      6  C   UNL A   1      31.178  27.283  25.101  1.00  0.00     0.103 C 
ATOM      7  C   UNL A   1      30.623  24.897  25.205  1.00  0.00     0.106 C 
ATOM      8  C   UNL A   1      30.848  25.333  23.801  1.00  0.00    -0.006 C 
ATOM      9  C   UNL A   1      30.422  26.230  25.935  1.00  0.00     0.047 C 
ATOM     10  C   UNL A   1      31.159  26.635  23.741  1.00  0.00    -0.016 C 
BRANCH   7  11
ATOM     11  N   UNL A   1      31.715  24.089  25.719  1.00  0.00    -0.348 N 
ATOM     12  O   UNL A   1      30.778  23.111  27.603  1.00  0.00    -0.273 OA
ATOM     13  C   UNL A   1      31.686  23.204  26.779  1.00  0.00     0.239 C 
ATOM     14  H   UNL A   1      32.579  24.183  25.256  1.00  0.00     0.164 HD
BRANCH  13  15
ATOM     15  C   UNL A   1      33.002  22.456  27.012  1.00  0.00     0.216 C 
BRANCH  15  16
ATOM     16  N   UNL A   1      33.001  21.098  26.484  1.00  0.00    -0.342 N 
ATOM     17  C   UNL A   1      33.732  20.538  25.470  1.00  0.00     0.261 C 
ATOM     18  H   UNL A   1      32.373  20.484  26.928  1.00  0.00     0.164 HD
ATOM     19  O   UNL A   1      33.401  19.403  25.109  1.00  0.00    -0.268 OA
BRANCH  17  20
ATOM     20  C   UNL A   1      34.797  21.295  24.850  1.00  0.00     0.092 A 
ATOM     21  C   UNL A   1      36.170  21.181  24.982  1.00  0.00     0.025 A 
ATOM     22  S   UNL A   1      34.383  22.518  23.720  1.00  0.00    -0.139 S 
ATOM     23  C   UNL A   1      36.874  22.152  24.210  1.00  0.00     0.012 A 
ATOM     24  C   UNL A   1      36.020  22.944  23.476  1.00  0.00     0.065 A 
ENDBRANCH  17  20
ENDBRANCH  15  16
ENDBRANCH  13  15
ENDBRANCH   7  11
ENDBRANCH   3   6
ENDBRANCH   1   2
BRANCH   1  25
ATOM     25  C   UNL A   1      31.689  30.721  26.110  1.00  0.00     0.023 C 
BRANCH  25  26
ATOM     26  C   UNL A   1      31.452  32.098  26.732  1.00  0.00     0.023 C 
BRANCH  26  27
ATOM     27  C   UNL A   1      32.704  32.863  27.150  1.00  0.00     0.116 C 
BRANCH  27  28
ATOM     28  N   UNL A   1      32.420  34.217  27.600  1.00  0.00    -0.352 N 
ATOM     29  C   UNL A   1      32.994  34.965  28.599  1.00  0.00     0.251 C 
ATOM     30  H   UNL A   1      31.698  34.672  27.109  1.00  0.00     0.163 HD
ATOM     31  O   UNL A   1      32.505  36.050  28.904  1.00  0.00    -0.269 OA
BRANCH  29  32
ATOM     32  C   UNL A   1      34.178  34.468  29.338  1.00  0.00     0.039 A 
ATOM     33  C   UNL A   1      33.983  33.864  30.585  1.00  0.00     0.014 A 
ATOM     34  C   UNL A   1      35.471  34.604  28.829  1.00  0.00     0.014 A 
ATOM     35  C   UNL A   1      35.071  33.327  31.277  1.00  0.00     0.010 A 
ATOM     36  C   UNL A   1      36.545  33.999  29.482  1.00  0.00     0.010 A 
ATOM     37  C   UNL A   1      36.356  33.350  30.710  1.00  0.00    -0.014 A 
BRANCH  37  38
ATOM     38  C   UNL A   1      37.501  32.679  31.381  1.00  0.00     0.031 A 
ATOM     39  C   UNL A   1      38.213  31.534  30.717  1.00  0.00     0.074 A 
ATOM     40  C   UNL A   1      37.863  33.066  32.620  1.00  0.00     0.049 A 
ATOM     41  N   UNL A   1      39.195  30.794  31.171  1.00  0.00    -0.248 NA
ATOM     42  C   UNL A   1      37.747  31.151  29.376  1.00  0.00     0.031 C 
ATOM     43  C   UNL A   1      37.216  34.125  33.398  1.00  0.00     0.029 A 
ATOM     44  N   UNL A   1      38.856  32.607  33.450  1.00  0.00    -0.354 N 
ATOM     45  C   UNL A   1      39.457  29.860  30.178  1.00  0.00     0.074 A 
ATOM     46  C   UNL A   1      38.494  30.087  29.121  1.00  0.00     0.031 C 
ATOM     47  C   UNL A   1      37.839  34.246  34.580  1.00  0.00     0.029 A 
ATOM     48  C   UNL A   1      38.905  33.253  34.661  1.00  0.00     0.049 A 
ATOM     49  H   UNL A   1      39.473  31.881  33.202  1.00  0.00     0.167 HD
ATOM     50  C   UNL A   1      40.428  28.916  30.136  1.00  0.00     0.037 A 
ATOM     51  C   UNL A   1      39.713  33.063  35.722  1.00  0.00     0.037 A 
ATOM     52  C   UNL A   1      41.396  28.700  31.180  1.00  0.00     0.049 A 
ATOM     53  C   UNL A   1      40.784  32.008  35.651  1.00  0.00     0.074 A 
ATOM     54  C   UNL A   1      42.446  27.798  31.212  1.00  0.00     0.029 A 
ATOM     55  N   UNL A   1      41.430  29.394  32.381  1.00  0.00    -0.354 N 
ATOM     56  N   UNL A   1      41.062  31.176  34.677  1.00  0.00    -0.248 NA
ATOM     57  C   UNL A   1      41.659  31.874  36.824  1.00  0.00     0.031 C 
ATOM     58  C   UNL A   1      43.091  27.917  32.448  1.00  0.00     0.029 A 
ATOM     59  C   UNL A   1      42.474  28.927  33.168  1.00  0.00     0.049 A 
ATOM     60  H   UNL A   1      40.806  30.111  32.638  1.00  0.00     0.167 HD
ATOM     61  C   UNL A   1      42.155  30.437  35.109  1.00  0.00     0.074 A 
ATOM     62  C   UNL A   1      42.504  30.934  36.423  1.00  0.00     0.031 C 
ATOM     63  C   UNL A   1      42.810  29.433  34.474  1.00  0.00     0.037 A 
BRANCH  50  64
ATOM     64  C   UNL A   1      40.502  28.052  28.911  1.00  0.00     0.064 A 
ATOM     65  C   UNL A   1      39.774  26.855  28.814  1.00  0.00     0.173 A 
ATOM     66  C   UNL A   1      41.274  28.440  27.805  1.00  0.00     0.173 A 
ATOM     67  F   UNL A   1      39.030  26.434  29.847  1.00  0.00    -0.203 F 
ATOM     68  C   UNL A   1      39.838  26.067  27.668  1.00  0.00     0.198 A 
ATOM     69  C   UNL A   1      41.311  27.665  26.649  1.00  0.00     0.198 A 
ATOM     70  F   UNL A   1      41.983  29.578  27.841  1.00  0.00    -0.203 F 
ATOM     71  F   UNL A   1      39.172  24.905  27.619  1.00  0.00    -0.200 F 
ATOM     72  C   UNL A   1      40.600  26.476  26.584  1.00  0.00     0.200 A 
ATOM     73  F   UNL A   1      42.037  28.067  25.597  1.00  0.00    -0.200 F 
ATOM     74  F   UNL A   1      40.654  25.721  25.478  1.00  0.00    -0.200 F 
ENDBRANCH  50  64
BRANCH  51  75
ATOM     75  C   UNL A   1      39.553  33.904  36.937  1.00  0.00     0.064 A 
ATOM     76  C   UNL A   1      38.798  33.457  38.031  1.00  0.00     0.173 A 
ATOM     77  C   UNL A   1      40.142  35.174  37.027  1.00  0.00     0.173 A 
ATOM     78  F   UNL A   1      38.198  32.258  37.984  1.00  0.00    -0.203 F 
ATOM     79  C   UNL A   1      38.620  34.256  39.158  1.00  0.00     0.198 A 
ATOM     80  C   UNL A   1      39.988  35.960  38.167  1.00  0.00     0.198 A 
ATOM     81  F   UNL A   1      40.878  35.646  36.011  1.00  0.00    -0.203 F 
ATOM     82  F   UNL A   1      37.853  33.824  40.168  1.00  0.00    -0.200 F 
ATOM     83  C   UNL A   1      39.220  35.504  39.227  1.00  0.00     0.200 A 
ATOM     84  F   UNL A   1      40.581  37.159  38.236  1.00  0.00    -0.200 F 
ATOM     85  F   UNL A   1      39.050  36.272  40.313  1.00  0.00    -0.200 F 
ENDBRANCH  51  75
BRANCH  63  86
ATOM     86  C   UNL A   1      43.986  28.826  35.182  1.00  0.00     0.064 A 
ATOM     87  C   UNL A   1      45.278  29.353  35.047  1.00  0.00     0.173 A 
ATOM     88  C   UNL A   1      43.812  27.721  36.029  1.00  0.00     0.173 A 
ATOM     89  F   UNL A   1      45.499  30.399  34.237  1.00  0.00    -0.203 F 
ATOM     90  C   UNL A   1      46.359  28.777  35.711  1.00  0.00     0.198 A 
ATOM     91  C   UNL A   1      44.889  27.167  36.715  1.00  0.00     0.198 A 
ATOM     92  F   UNL A   1      42.594  27.183  36.200  1.00  0.00    -0.203 F 
ATOM     93  F   UNL A   1      47.593  29.266  35.525  1.00  0.00    -0.200 F 
ATOM     94  C   UNL A   1      46.163  27.689  36.548  1.00  0.00     0.200 A 
ATOM     95  F   UNL A   1      44.696  26.125  37.536  1.00  0.00    -0.200 F 
ATOM     96  F   UNL A   1      47.204  27.140  37.189  1.00  0.00    -0.200 F 
ENDBRANCH  63  86
ENDBRANCH  37  38
ENDBRANCH  29  32
ENDBRANCH  27  28
ENDBRANCH  26  27
ENDBRANCH  25  26
ENDBRANCH   1  25
TORSDOF 15
ENDMDL
MODEL 2
REMARK VINA RESULT:     -12.2      5.482     11.102
REMARK SMILES O=C(CNC(=O)c1cccs1)N[C@@H]1C=C[C@H](C(=O)NCCCCNC(=O)c2ccc(-c3c4nc(c(-c5c(F)c(F)c(F)c(F)c5F)c5ccc([nH]5)c(-c5c(F)c(F)c(F)c(F)c5F)c5nc(c(-c6c(F)c(F)c(F)c(F)c6F)c6ccc3[nH]6)C=C5)C=C4)cc2)C1
REMARK SMILES IDX 20 1 19 2 17 3 18 4 16 6 13 7 14 8 90 9 15 10 12 11 1 12
REMARK SMILES IDX 2 13 3 15 4 16 5 17 6 19 7 20 8 21 11 22 9 23 10 24 21 25
REMARK SMILES IDX 22 26 23 27 24 28 25 29 26 31 27 32 28 33 89 34 29 35 88 36
REMARK SMILES IDX 30 37 31 38 32 39 82 40 33 41 87 42 81 43 83 44 34 45 86 46
REMARK SMILES IDX 80 47 79 48 35 50 67 51 47 52 66 53 48 54 51 55 65 56 84 57
REMARK SMILES IDX 49 58 50 59 64 61 85 62 52 63 36 64 37 65 45 66 38 67 39 68
REMARK SMILES IDX 43 69 46 70 40 71 41 72 44 73 42 74 68 75 69 76 77 77 70 78
REMARK SMILES IDX 71 79 75 80 78 81 72 82 73 83 76 84 74 85 53 86 54 87 62 88
REMARK SMILES IDX 55 89 56 90 60 91 63 92 57 93 58 94 61 95 59 96
REMARK H PARENT 19 5 12 14 4 18 24 30 83 49 51 60
REMARK Flexibility Score: inf
ROOT
ATOM      1  C   UNL A   1      36.001  21.342  25.726  1.00  0.00     0.116 C 
ENDROOT
BRANCH   1   2
ATOM      2  N   UNL A   1      35.521  22.707  25.719  1.00  0.00    -0.356 N 
ATOM      3  C   UNL A   1      34.348  23.200  25.224  1.00  0.00     0.227 C 
ATOM      4  O   UNL A   1      34.110  24.392  25.444  1.00  0.00    -0.274 OA
ATOM      5  H   UNL A   1      36.123  23.370  26.127  1.00  0.00     0.163 HD
BRANCH   3   6
ATOM      6  C   UNL A   1      33.450  22.326  24.325  1.00  0.00     0.103 C 
ATOM      7  C   UNL A   1      32.331  23.659  22.598  1.00  0.00     0.106 C 
ATOM      8  C   UNL A   1      31.356  23.157  23.602  1.00  0.00    -0.006 C 
ATOM      9  C   UNL A   1      33.553  22.768  22.851  1.00  0.00     0.047 C 
ATOM     10  C   UNL A   1      31.964  22.434  24.551  1.00  0.00    -0.016 C 
BRANCH   7  11
ATOM     11  N   UNL A   1      32.587  25.082  22.735  1.00  0.00    -0.348 N 
ATOM     12  O   UNL A   1      33.305  25.674  20.610  1.00  0.00    -0.273 OA
ATOM     13  C   UNL A   1      32.940  25.977  21.744  1.00  0.00     0.239 C 
ATOM     14  H   UNL A   1      32.497  25.454  23.642  1.00  0.00     0.164 HD
BRANCH  13  15
ATOM     15  C   UNL A   1      33.063  27.428  22.219  1.00  0.00     0.216 C 
BRANCH  15  16
ATOM     16  N   UNL A   1      31.854  28.213  22.011  1.00  0.00    -0.342 N 
ATOM     17  C   UNL A   1      30.671  28.223  22.702  1.00  0.00     0.261 C 
ATOM     18  H   UNL A   1      31.893  28.837  21.251  1.00  0.00     0.164 HD
ATOM     19  O   UNL A   1      29.740  28.862  22.199  1.00  0.00    -0.268 OA
BRANCH  17  20
ATOM     20  C   UNL A   1      30.550  27.467  23.930  1.00  0.00     0.092 A 
ATOM     21  C   UNL A   1      31.276  27.548  25.105  1.00  0.00     0.025 A 
ATOM     22  S   UNL A   1      29.303  26.296  24.052  1.00  0.00    -0.139 S 
ATOM     23  C   UNL A   1      30.852  26.592  26.075  1.00  0.00     0.012 A 
ATOM     24  C   UNL A   1      29.785  25.846  25.628  1.00  0.00     0.065 A 
ENDBRANCH  17  20
ENDBRANCH  15  16
ENDBRANCH  13  15
ENDBRANCH   7  11
ENDBRANCH   3   6
ENDBRANCH   1   2
BRANCH   1  25
ATOM     25  C   UNL A   1      37.064  21.075  24.664  1.00  0.00     0.023 C 
BRANCH  25  26
ATOM     26  C   UNL A   1      38.008  19.903  24.935  1.00  0.00     0.023 C 
BRANCH  26  27
ATOM     27  C   UNL A   1      39.108  20.158  25.960  1.00  0.00     0.116 C 
BRANCH  27  28
ATOM     28  N   UNL A   1      40.164  19.158  25.923  1.00  0.00    -0.352 N 
ATOM     29  C   UNL A   1      41.525  19.291  26.050  1.00  0.00     0.251 C 
ATOM     30  H   UNL A   1      39.852  18.234  25.785  1.00  0.00     0.163 HD
ATOM     31  O   UNL A   1      42.251  18.321  25.850  1.00  0.00    -0.269 OA
BRANCH  29  32
ATOM     32  C   UNL A   1      42.133  20.597  26.393  1.00  0.00     0.039 A 
ATOM     33  C   UNL A   1      42.515  21.451  25.352  1.00  0.00     0.014 A 
ATOM     34  C   UNL A   1      42.347  20.981  27.718  1.00  0.00     0.014 A 
ATOM     35  C   UNL A   1      43.032  22.716  25.642  1.00  0.00     0.010 A 
ATOM     36  C   UNL A   1      42.789  22.272  28.007  1.00  0.00     0.010 A 
ATOM     37  C   UNL A   1      43.131  23.155  26.973  1.00  0.00    -0.014 A 
BRANCH  37  38
ATOM     38  C   UNL A   1      43.569  24.541  27.291  1.00  0.00     0.031 A 
ATOM     39  C   UNL A   1      42.588  25.551  27.818  1.00  0.00     0.074 A 
ATOM     40  C   UNL A   1      44.843  24.906  27.048  1.00  0.00     0.049 A 
ATOM     41  N   UNL A   1      42.775  26.817  28.101  1.00  0.00    -0.248 NA
ATOM     42  C   UNL A   1      41.210  25.087  28.034  1.00  0.00     0.031 C 
ATOM     43  C   UNL A   1      45.878  24.038  26.484  1.00  0.00     0.029 A 
ATOM     44  N   UNL A   1      45.484  26.107  27.234  1.00  0.00    -0.354 N 
ATOM     45  C   UNL A   1      41.541  27.298  28.520  1.00  0.00     0.074 A 
ATOM     46  C   UNL A   1      40.600  26.205  28.400  1.00  0.00     0.031 C 
ATOM     47  C   UNL A   1      47.026  24.727  26.387  1.00  0.00     0.029 A 
ATOM     48  C   UNL A   1      46.802  26.093  26.848  1.00  0.00     0.049 A 
ATOM     49  H   UNL A   1      45.040  26.902  27.608  1.00  0.00     0.167 HD
ATOM     50  C   UNL A   1      41.226  28.529  28.988  1.00  0.00     0.037 A 
ATOM     51  C   UNL A   1      47.726  27.074  26.857  1.00  0.00     0.037 A 
ATOM     52  C   UNL A   1      42.165  29.613  29.121  1.00  0.00     0.049 A 
ATOM     53  C   UNL A   1      47.350  28.433  27.381  1.00  0.00     0.074 A 
ATOM     54  C   UNL A   1      41.952  30.884  29.626  1.00  0.00     0.029 A 
ATOM     55  N   UNL A   1      43.499  29.552  28.744  1.00  0.00    -0.354 N 
ATOM     56  N   UNL A   1      46.195  28.854  27.836  1.00  0.00    -0.248 NA
ATOM     57  C   UNL A   1      48.411  29.450  27.401  1.00  0.00     0.031 C 
ATOM     58  C   UNL A   1      43.145  31.606  29.517  1.00  0.00     0.029 A 
ATOM     59  C   UNL A   1      44.115  30.770  28.990  1.00  0.00     0.049 A 
ATOM     60  H   UNL A   1      43.942  28.762  28.359  1.00  0.00     0.167 HD
ATOM     61  C   UNL A   1      46.395  30.174  28.218  1.00  0.00     0.074 A 
ATOM     62  C   UNL A   1      47.787  30.478  27.961  1.00  0.00     0.031 C 
ATOM     63  C   UNL A   1      45.504  31.057  28.731  1.00  0.00     0.037 A 
BRANCH  50  64
ATOM     64  C   UNL A   1      39.804  28.769  29.405  1.00  0.00     0.064 A 
ATOM     65  C   UNL A   1      39.374  28.520  30.718  1.00  0.00     0.173 A 
ATOM     66  C   UNL A   1      38.869  29.294  28.499  1.00  0.00     0.173 A 
ATOM     67  F   UNL A   1      40.225  28.008  31.620  1.00  0.00    -0.203 F 
ATOM     68  C   UNL A   1      38.056  28.759  31.100  1.00  0.00     0.198 A 
ATOM     69  C   UNL A   1      37.560  29.561  28.892  1.00  0.00     0.198 A 
ATOM     70  F   UNL A   1      39.229  29.558  27.233  1.00  0.00    -0.203 F 
ATOM     71  F   UNL A   1      37.659  28.467  32.346  1.00  0.00    -0.200 F 
ATOM     72  C   UNL A   1      37.153  29.286  30.189  1.00  0.00     0.200 A 
ATOM     73  F   UNL A   1      36.692  30.082  28.016  1.00  0.00    -0.200 F 
ATOM     74  F   UNL A   1      35.888  29.525  30.560  1.00  0.00    -0.200 F 
ENDBRANCH  50  64
BRANCH  51  75
ATOM     75  C   UNL A   1      49.103  26.800  26.369  1.00  0.00     0.064 A 
ATOM     76  C   UNL A   1      49.456  27.035  25.033  1.00  0.00     0.173 A 
ATOM     77  C   UNL A   1      50.090  26.290  27.225  1.00  0.00     0.173 A 
ATOM     78  F   UNL A   1      48.541  27.503  24.172  1.00  0.00    -0.203 F 
ATOM     79  C   UNL A   1      50.738  26.749  24.566  1.00  0.00     0.198 A 
ATOM     80  C   UNL A   1      51.380  26.032  26.763  1.00  0.00     0.198 A 
ATOM     81  F   UNL A   1      49.805  26.051  28.513  1.00  0.00    -0.203 F 
ATOM     82  F   UNL A   1      51.034  26.937  23.273  1.00  0.00    -0.200 F 
ATOM     83  C   UNL A   1      51.699  26.253  25.433  1.00  0.00     0.200 A 
ATOM     84  F   UNL A   1      52.310  25.567  27.608  1.00  0.00    -0.200 F 
ATOM     85  F   UNL A   1      52.932  25.981  24.984  1.00  0.00    -0.200 F 
ENDBRANCH  51  75
BRANCH  63  86
ATOM     86  C   UNL A   1      46.015  32.426  29.075  1.00  0.00     0.064 A 
ATOM     87  C   UNL A   1      46.569  32.710  30.332  1.00  0.00     0.173 A 
ATOM     88  C   UNL A   1      45.976  33.458  28.126  1.00  0.00     0.173 A 
ATOM     89  F   UNL A   1      46.614  31.762  31.279  1.00  0.00    -0.203 F 
ATOM     90  C   UNL A   1      47.038  33.986  30.635  1.00  0.00     0.198 A 
ATOM     91  C   UNL A   1      46.474  34.724  28.422  1.00  0.00     0.198 A 
ATOM     92  F   UNL A   1      45.463  33.237  26.905  1.00  0.00    -0.203 F 
ATOM     93  F   UNL A   1      47.515  34.247  31.860  1.00  0.00    -0.200 F 
ATOM     94  C   UNL A   1      46.996  34.989  29.679  1.00  0.00     0.200 A 
ATOM     95  F   UNL A   1      46.446  35.689  27.492  1.00  0.00    -0.200 F 
ATOM     96  F   UNL A   1      47.452  36.215  29.972  1.00  0.00    -0.200 F 
ENDBRANCH  63  86
ENDBRANCH  37  38
ENDBRANCH  29  32
ENDBRANCH  27  28
ENDBRANCH  26  27
ENDBRANCH  25  26
ENDBRANCH   1  25
TORSDOF 15
ENDMDL
MODEL 3
REMARK VINA RESULT:     -12.1      1.129      1.930
REMARK SMILES O=C(CNC(=O)c1cccs1)N[C@@H]1C=C[C@H](C(=O)NCCCCNC(=O)c2ccc(-c3c4nc(c(-c5c(F)c(F)c(F)c(F)c5F)c5ccc([nH]5)c(-c5c(F)c(F)c(F)c(F)c5F)c5nc(c(-c6c(F)c(F)c(F)c(F)c6F)c6ccc3[nH]6)C=C5)C=C4)cc2)C1
REMARK SMILES IDX 20 1 19 2 17 3 18 4 16 6 13 7 14 8 90 9 15 10 12 11 1 12
REMARK SMILES IDX 2 13 3 15 4 16 5 17 6 19 7 20 8 21 11 22 9 23 10 24 21 25
REMARK SMILES IDX 22 26 23 27 24 28 25 29 26 31 27 32 28 33 89 34 29 35 88 36
REMARK SMILES IDX 30 37 31 38 32 39 82 40 33 41 87 42 81 43 83 44 34 45 86 46
REMARK SMILES IDX 80 47 79 48 35 50 67 51 47 52 66 53 48 54 51 55 65 56 84 57
REMARK SMILES IDX 49 58 50 59 64 61 85 62 52 63 36 64 37 65 45 66 38 67 39 68
REMARK SMILES IDX 43 69 46 70 40 71 41 72 44 73 42 74 68 75 69 76 77 77 70 78
REMARK SMILES IDX 71 79 75 80 78 81 72 82 73 83 76 84 74 85 53 86 54 87 62 88
REMARK SMILES IDX 55 89 56 90 60 91 63 92 57 93 58 94 61 95 59 96
REMARK H PARENT 19 5 12 14 4 18 24 30 83 49 51 60
REMARK Flexibility Score: inf
ROOT
ATOM      1  C   UNL A   1      32.719  30.009  26.891  1.00  0.00     0.116 C 
ENDROOT
BRANCH   1   2
ATOM      2  N   UNL A   1      32.672  28.570  26.760  1.00  0.00    -0.356 N 
ATOM      3  C   UNL A   1      32.757  27.809  25.630  1.00  0.00     0.227 C 
ATOM      4  O   UNL A   1      32.812  26.584  25.787  1.00  0.00    -0.274 OA
ATOM      5  H   UNL A   1      32.564  28.070  27.602  1.00  0.00     0.163 HD
BRANCH   3   6
ATOM      6  C   UNL A   1      32.652  28.463  24.238  1.00  0.00     0.103 C 
ATOM      7  C   UNL A   1      32.422  26.784  22.465  1.00  0.00     0.106 C 
ATOM      8  C   UNL A   1      33.742  27.465  22.390  1.00  0.00    -0.006 C 
ATOM      9  C   UNL A   1      31.615  27.730  23.363  1.00  0.00     0.047 C 
ATOM     10  C   UNL A   1      33.874  28.378  23.360  1.00  0.00    -0.016 C 
BRANCH   7  11
ATOM     11  N   UNL A   1      32.525  25.424  22.965  1.00  0.00    -0.348 N 
ATOM     12  O   UNL A   1      33.410  24.284  21.148  1.00  0.00    -0.273 OA
ATOM     13  C   UNL A   1      33.089  24.332  22.334  1.00  0.00     0.239 C 
ATOM     14  H   UNL A   1      32.149  25.262  23.860  1.00  0.00     0.164 HD
BRANCH  13  15
ATOM     15  C   UNL A   1      33.097  23.053  23.176  1.00  0.00     0.216 C 
BRANCH  15  16
ATOM     16  N   UNL A   1      32.676  23.262  24.555  1.00  0.00    -0.342 N 
ATOM     17  C   UNL A   1      33.405  23.269  25.715  1.00  0.00     0.261 C 
ATOM     18  H   UNL A   1      31.713  23.423  24.672  1.00  0.00     0.164 HD
ATOM     19  O   UNL A   1      32.766  23.292  26.772  1.00  0.00    -0.268 OA
BRANCH  17  20
ATOM     20  C   UNL A   1      34.849  23.201  25.656  1.00  0.00     0.092 A 
ATOM     21  C   UNL A   1      35.786  24.208  25.505  1.00  0.00     0.025 A 
ATOM     22  S   UNL A   1      35.607  21.673  25.843  1.00  0.00    -0.139 S 
ATOM     23  C   UNL A   1      37.122  23.709  25.466  1.00  0.00     0.012 A 
ATOM     24  C   UNL A   1      37.165  22.344  25.638  1.00  0.00     0.065 A 
ENDBRANCH  17  20
ENDBRANCH  15  16
ENDBRANCH  13  15
ENDBRANCH   7  11
ENDBRANCH   3   6
ENDBRANCH   1   2
BRANCH   1  25
ATOM     25  C   UNL A   1      31.443  30.696  26.412  1.00  0.00     0.023 C 
BRANCH  25  26
ATOM     26  C   UNL A   1      31.395  32.217  26.575  1.00  0.00     0.023 C 
BRANCH  26  27
ATOM     27  C   UNL A   1      32.602  32.851  27.258  1.00  0.00     0.116 C 
BRANCH  27  28
ATOM     28  N   UNL A   1      32.371  34.231  27.656  1.00  0.00    -0.352 N 
ATOM     29  C   UNL A   1      32.989  35.000  28.612  1.00  0.00     0.251 C 
ATOM     30  H   UNL A   1      31.656  34.689  27.158  1.00  0.00     0.163 HD
ATOM     31  O   UNL A   1      32.541  36.112  28.879  1.00  0.00    -0.269 OA
BRANCH  29  32
ATOM     32  C   UNL A   1      34.169  34.495  29.349  1.00  0.00     0.039 A 
ATOM     33  C   UNL A   1      33.974  33.916  30.608  1.00  0.00     0.014 A 
ATOM     34  C   UNL A   1      35.460  34.599  28.828  1.00  0.00     0.014 A 
ATOM     35  C   UNL A   1      35.058  33.371  31.301  1.00  0.00     0.010 A 
ATOM     36  C   UNL A   1      36.529  33.987  29.483  1.00  0.00     0.010 A 
ATOM     37  C   UNL A   1      36.338  33.362  30.724  1.00  0.00    -0.014 A 
BRANCH  37  38
ATOM     38  C   UNL A   1      37.478  32.683  31.397  1.00  0.00     0.031 A 
ATOM     39  C   UNL A   1      38.154  31.504  30.755  1.00  0.00     0.074 A 
ATOM     40  C   UNL A   1      37.865  33.094  32.621  1.00  0.00     0.049 A 
ATOM     41  N   UNL A   1      39.125  30.754  31.216  1.00  0.00    -0.248 NA
ATOM     42  C   UNL A   1      37.660  31.097  29.431  1.00  0.00     0.031 C 
ATOM     43  C   UNL A   1      37.254  34.188  33.378  1.00  0.00     0.029 A 
ATOM     44  N   UNL A   1      38.859  32.634  33.449  1.00  0.00    -0.354 N 
ATOM     45  C   UNL A   1      39.351  29.788  30.244  1.00  0.00     0.074 A 
ATOM     46  C   UNL A   1      38.379  30.009  29.195  1.00  0.00     0.031 C 
ATOM     47  C   UNL A   1      37.896  34.327  34.548  1.00  0.00     0.029 A 
ATOM     48  C   UNL A   1      38.940  33.311  34.642  1.00  0.00     0.049 A 
ATOM     49  H   UNL A   1      39.456  31.888  33.212  1.00  0.00     0.167 HD
ATOM     50  C   UNL A   1      40.299  28.821  30.215  1.00  0.00     0.037 A 
ATOM     51  C   UNL A   1      39.758  33.130  35.697  1.00  0.00     0.037 A 
ATOM     52  C   UNL A   1      41.276  28.610  31.252  1.00  0.00     0.049 A 
ATOM     53  C   UNL A   1      40.803  32.049  35.640  1.00  0.00     0.074 A 
ATOM     54  C   UNL A   1      42.306  27.685  31.294  1.00  0.00     0.029 A 
ATOM     55  N   UNL A   1      41.344  29.334  32.433  1.00  0.00    -0.354 N 
ATOM     56  N   UNL A   1      41.049  31.186  34.685  1.00  0.00    -0.248 NA
ATOM     57  C   UNL A   1      41.691  31.926  36.804  1.00  0.00     0.031 C 
ATOM     58  C   UNL A   1      42.970  27.822  32.517  1.00  0.00     0.029 A 
ATOM     59  C   UNL A   1      42.387  28.865  33.217  1.00  0.00     0.049 A 
ATOM     60  H   UNL A   1      40.740  30.072  32.679  1.00  0.00     0.167 HD
ATOM     61  C   UNL A   1      42.130  30.433  35.121  1.00  0.00     0.074 A 
ATOM     62  C   UNL A   1      42.509  30.956  36.417  1.00  0.00     0.031 C 
ATOM     63  C   UNL A   1      42.753  29.398  34.505  1.00  0.00     0.037 A 
BRANCH  50  64
ATOM     64  C   UNL A   1      40.337  27.923  29.013  1.00  0.00     0.064 A 
ATOM     65  C   UNL A   1      41.097  28.248  27.878  1.00  0.00     0.173 A 
ATOM     66  C   UNL A   1      39.642  26.703  29.007  1.00  0.00     0.173 A 
ATOM     67  F   UNL A   1      41.771  29.406  27.828  1.00  0.00    -0.203 F 
ATOM     68  C   UNL A   1      41.137  27.401  26.774  1.00  0.00     0.198 A 
ATOM     69  C   UNL A   1      39.708  25.844  27.913  1.00  0.00     0.198 A 
ATOM     70  F   UNL A   1      38.906  26.339  30.069  1.00  0.00    -0.203 F 
ATOM     71  F   UNL A   1      41.831  27.757  25.684  1.00  0.00    -0.200 F 
ATOM     72  C   UNL A   1      40.449  26.197  26.795  1.00  0.00     0.200 A 
ATOM     73  F   UNL A   1      39.055  24.675  27.940  1.00  0.00    -0.200 F 
ATOM     74  F   UNL A   1      40.496  25.379  25.735  1.00  0.00    -0.200 F 
ENDBRANCH  50  64
BRANCH  51  75
ATOM     75  C   UNL A   1      39.634  34.007  36.891  1.00  0.00     0.064 A 
ATOM     76  C   UNL A   1      38.869  33.615  37.998  1.00  0.00     0.173 A 
ATOM     77  C   UNL A   1      40.269  35.256  36.945  1.00  0.00     0.173 A 
ATOM     78  F   UNL A   1      38.227  32.438  37.984  1.00  0.00    -0.203 F 
ATOM     79  C   UNL A   1      38.726  34.448  39.105  1.00  0.00     0.198 A 
ATOM     80  C   UNL A   1      40.149  36.076  38.066  1.00  0.00     0.198 A 
ATOM     81  F   UNL A   1      41.016  35.676  35.914  1.00  0.00    -0.203 F 
ATOM     82  F   UNL A   1      37.949  34.069  40.129  1.00  0.00    -0.200 F 
ATOM     83  C   UNL A   1      39.371  35.675  39.140  1.00  0.00     0.200 A 
ATOM     84  F   UNL A   1      40.785  37.254  38.102  1.00  0.00    -0.200 F 
ATOM     85  F   UNL A   1      39.234  36.476  40.207  1.00  0.00    -0.200 F 
ENDBRANCH  51  75
BRANCH  63  86
ATOM     86  C   UNL A   1      43.924  28.782  35.214  1.00  0.00     0.064 A 
ATOM     87  C   UNL A   1      45.234  29.238  35.003  1.00  0.00     0.173 A 
ATOM     88  C   UNL A   1      43.731  27.742  36.136  1.00  0.00     0.173 A 
ATOM     89  F   UNL A   1      45.473  30.219  34.120  1.00  0.00    -0.203 F 
ATOM     90  C   UNL A   1      46.310  28.655  35.668  1.00  0.00     0.198 A 
ATOM     91  C   UNL A   1      44.805  27.183  36.822  1.00  0.00     0.198 A 
ATOM     92  F   UNL A   1      42.497  27.274  36.379  1.00  0.00    -0.203 F 
ATOM     93  F   UNL A   1      47.557  29.073  35.412  1.00  0.00    -0.200 F 
ATOM     94  C   UNL A   1      46.094  27.633  36.580  1.00  0.00     0.200 A 
ATOM     95  F   UNL A   1      44.594  26.205  37.714  1.00  0.00    -0.200 F 
ATOM     96  F   UNL A   1      47.131  27.077  37.223  1.00  0.00    -0.200 F 
ENDBRANCH  63  86
ENDBRANCH  37  38
ENDBRANCH  29  32
ENDBRANCH  27  28
ENDBRANCH  26  27
ENDBRANCH  25  26
ENDBRANCH   1  25
TORSDOF 15
ENDMDL
