MODEL 1
REMARK VINA RESULT:     -12.5      0.000      0.000
REMARK SMILES O=C(NCCCCNC(=O)[C@]1(CCc2cccnc2)CCC[NH2+]C1)c1ccc(-c2c3nc(c(-c4c(F)c(F)c(F)c(F)c4F)c4ccc([nH]4)c(-c4c(F)c(F)c(F)c(F)c4F)c4nc(c(-c5c(F)c(F)c(F)c(F)c5F)c5ccc2[nH]5)C=C4)C=C3)cc1
REMARK SMILES IDX 6 1 5 2 4 3 3 4 1 5 2 6 25 8 26 9 87 10 27 11 86 12 28 13
REMARK SMILES IDX 29 14 30 15 80 16 31 17 85 18 79 19 81 20 32 21 84 22 78 23
REMARK SMILES IDX 77 24 33 26 65 27 45 28 64 29 46 30 49 31 63 32 82 33 47 34
REMARK SMILES IDX 48 35 62 37 83 38 50 39 34 40 35 41 43 42 36 43 37 44 41 45
REMARK SMILES IDX 44 46 38 47 39 48 42 49 40 50 66 51 67 52 75 53 68 54 69 55
REMARK SMILES IDX 73 56 76 57 70 58 71 59 74 60 72 61 51 62 52 63 60 64 53 65
REMARK SMILES IDX 54 66 58 67 61 68 55 69 56 70 59 71 57 72 7 73 8 74 9 75
REMARK SMILES IDX 10 77 11 78 20 79 24 80 21 81 23 82 22 83 12 86 13 87 14 88
REMARK SMILES IDX 15 89 19 90 16 91 18 92 17 93
REMARK H PARENT 3 7 81 25 49 36 8 76 23 84 23 85
REMARK Flexibility Score: inf
ROOT
ATOM      1  C   UNL A   1      31.895  30.318  26.794  1.00  0.00     0.023 C 
ENDROOT
BRANCH   1   2
ATOM      2  C   UNL A   1      31.802  31.832  26.621  1.00  0.00     0.023 C 
BRANCH   2   3
ATOM      3  C   UNL A   1      32.839  32.623  27.406  1.00  0.00     0.116 C 
BRANCH   3   4
ATOM      4  N   UNL A   1      32.447  34.006  27.650  1.00  0.00    -0.352 N 
ATOM      5  O   UNL A   1      32.467  35.998  28.731  1.00  0.00    -0.269 OA
ATOM      6  C   UNL A   1      32.977  34.898  28.553  1.00  0.00     0.251 C 
ATOM      7  H   UNL A   1      31.706  34.346  27.097  1.00  0.00     0.163 HD
BRANCH   6   8
ATOM      8  C   UNL A   1      34.158  34.484  29.333  1.00  0.00     0.039 A 
ATOM      9  C   UNL A   1      35.431  34.612  28.776  1.00  0.00     0.014 A 
ATOM     10  C   UNL A   1      33.980  33.881  30.581  1.00  0.00     0.014 A 
ATOM     11  C   UNL A   1      36.502  33.971  29.380  1.00  0.00     0.010 A 
ATOM     12  C   UNL A   1      35.081  33.323  31.234  1.00  0.00     0.010 A 
ATOM     13  C   UNL A   1      36.340  33.319  30.615  1.00  0.00    -0.014 A 
BRANCH  13  14
ATOM     14  C   UNL A   1      37.517  32.659  31.231  1.00  0.00     0.031 A 
ATOM     15  C   UNL A   1      37.946  32.982  32.635  1.00  0.00     0.074 A 
ATOM     16  C   UNL A   1      38.158  31.707  30.526  1.00  0.00     0.049 A 
ATOM     17  N   UNL A   1      38.923  32.463  33.338  1.00  0.00    -0.248 NA
ATOM     18  C   UNL A   1      37.194  34.030  33.343  1.00  0.00     0.031 C 
ATOM     19  C   UNL A   1      37.829  31.316  29.154  1.00  0.00     0.029 A 
ATOM     20  N   UNL A   1      39.185  30.870  30.874  1.00  0.00    -0.354 N 
ATOM     21  C   UNL A   1      38.926  33.143  34.549  1.00  0.00     0.074 A 
ATOM     22  C   UNL A   1      37.861  34.121  34.486  1.00  0.00     0.031 C 
ATOM     23  C   UNL A   1      38.588  30.269  28.802  1.00  0.00     0.029 A 
ATOM     24  C   UNL A   1      39.500  29.958  29.896  1.00  0.00     0.049 A 
ATOM     25  H   UNL A   1      39.652  30.918  31.739  1.00  0.00     0.167 HD
ATOM     26  C   UNL A   1      39.743  32.961  35.615  1.00  0.00     0.037 A 
ATOM     27  C   UNL A   1      40.424  28.982  29.881  1.00  0.00     0.037 A 
ATOM     28  C   UNL A   1      40.772  31.956  35.686  1.00  0.00     0.049 A 
ATOM     29  C   UNL A   1      41.295  28.788  31.086  1.00  0.00     0.074 A 
ATOM     30  C   UNL A   1      41.630  31.669  36.735  1.00  0.00     0.029 A 
ATOM     31  N   UNL A   1      41.076  31.064  34.668  1.00  0.00    -0.354 N 
ATOM     32  N   UNL A   1      41.281  29.432  32.228  1.00  0.00    -0.248 NA
ATOM     33  C   UNL A   1      42.315  27.735  30.999  1.00  0.00     0.031 C 
ATOM     34  C   UNL A   1      42.475  30.626  36.338  1.00  0.00     0.029 A 
ATOM     35  C   UNL A   1      42.118  30.236  35.058  1.00  0.00     0.049 A 
ATOM     36  H   UNL A   1      40.620  31.025  33.796  1.00  0.00     0.167 HD
ATOM     37  C   UNL A   1      42.278  28.857  33.000  1.00  0.00     0.074 A 
ATOM     38  C   UNL A   1      42.863  27.796  32.204  1.00  0.00     0.031 C 
ATOM     39  C   UNL A   1      42.680  29.183  34.252  1.00  0.00     0.037 A 
BRANCH  26  40
ATOM     40  C   UNL A   1      39.578  33.884  36.787  1.00  0.00     0.064 A 
ATOM     41  C   UNL A   1      38.809  33.532  37.906  1.00  0.00     0.173 A 
ATOM     42  C   UNL A   1      40.242  35.121  36.810  1.00  0.00     0.173 A 
ATOM     43  F   UNL A   1      38.145  32.367  37.928  1.00  0.00    -0.203 F 
ATOM     44  C   UNL A   1      38.694  34.393  38.996  1.00  0.00     0.198 A 
ATOM     45  C   UNL A   1      40.144  35.968  37.912  1.00  0.00     0.198 A 
ATOM     46  F   UNL A   1      40.994  35.504  35.769  1.00  0.00    -0.203 F 
ATOM     47  F   UNL A   1      37.924  34.051  40.038  1.00  0.00    -0.200 F 
ATOM     48  C   UNL A   1      39.367  35.606  39.001  1.00  0.00     0.200 A 
ATOM     49  F   UNL A   1      40.805  37.134  37.919  1.00  0.00    -0.200 F 
ATOM     50  F   UNL A   1      39.262  36.428  40.054  1.00  0.00    -0.200 F 
ENDBRANCH  26  40
BRANCH  27  51
ATOM     51  C   UNL A   1      40.552  28.113  28.685  1.00  0.00     0.064 A 
ATOM     52  C   UNL A   1      39.867  26.893  28.606  1.00  0.00     0.173 A 
ATOM     53  C   UNL A   1      41.336  28.496  27.587  1.00  0.00     0.173 A 
ATOM     54  F   UNL A   1      39.118  26.477  29.638  1.00  0.00    -0.203 F 
ATOM     55  C   UNL A   1      39.968  26.085  27.475  1.00  0.00     0.198 A 
ATOM     56  C   UNL A   1      41.414  27.702  26.447  1.00  0.00     0.198 A 
ATOM     57  F   UNL A   1      42.004  29.659  27.613  1.00  0.00    -0.203 F 
ATOM     58  F   UNL A   1      39.330  24.909  27.437  1.00  0.00    -0.200 F 
ATOM     59  C   UNL A   1      40.734  26.495  26.394  1.00  0.00     0.200 A 
ATOM     60  F   UNL A   1      42.139  28.110  25.397  1.00  0.00    -0.200 F 
ATOM     61  F   UNL A   1      40.820  25.724  25.302  1.00  0.00    -0.200 F 
ENDBRANCH  27  51
BRANCH  39  62
ATOM     62  C   UNL A   1      43.787  28.362  34.842  1.00  0.00     0.064 A 
ATOM     63  C   UNL A   1      45.131  28.740  34.711  1.00  0.00     0.173 A 
ATOM     64  C   UNL A   1      43.496  27.189  35.554  1.00  0.00     0.173 A 
ATOM     65  F   UNL A   1      45.457  29.844  34.022  1.00  0.00    -0.203 F 
ATOM     66  C   UNL A   1      46.147  27.957  35.249  1.00  0.00     0.198 A 
ATOM     67  C   UNL A   1      44.514  26.422  36.112  1.00  0.00     0.198 A 
ATOM     68  F   UNL A   1      42.226  26.788  35.709  1.00  0.00    -0.203 F 
ATOM     69  F   UNL A   1      47.428  28.310  35.068  1.00  0.00    -0.200 F 
ATOM     70  C   UNL A   1      45.839  26.802  35.952  1.00  0.00     0.200 A 
ATOM     71  F   UNL A   1      44.216  25.311  36.799  1.00  0.00    -0.200 F 
ATOM     72  F   UNL A   1      46.820  26.048  36.467  1.00  0.00    -0.200 F 
ENDBRANCH  39  62
ENDBRANCH  13  14
ENDBRANCH   6   8
ENDBRANCH   3   4
ENDBRANCH   2   3
ENDBRANCH   1   2
BRANCH   1  73
ATOM     73  C   UNL A   1      33.265  29.748  26.440  1.00  0.00     0.116 C 
BRANCH  73  74
ATOM     74  N   UNL A   1      33.473  29.714  25.009  1.00  0.00    -0.355 N 
ATOM     75  C   UNL A   1      33.062  28.897  24.010  1.00  0.00     0.231 C 
ATOM     76  H   UNL A   1      34.043  30.450  24.690  1.00  0.00     0.163 HD
ATOM     77  O   UNL A   1      33.378  29.285  22.876  1.00  0.00    -0.274 OA
BRANCH  75  78
ATOM     78  C   UNL A   1      32.129  27.675  24.182  1.00  0.00     0.098 C 
ATOM     79  C   UNL A   1      32.463  26.631  25.271  1.00  0.00     0.028 C 
ATOM     80  C   UNL A   1      32.209  26.872  22.833  1.00  0.00     0.277 C 
ATOM     81  C   UNL A   1      33.823  25.977  25.033  1.00  0.00     0.063 C 
ATOM     82  N   UNL A   1      33.514  26.236  22.610  1.00  0.00    -0.345 N 
ATOM     83  C   UNL A   1      33.879  25.305  23.668  1.00  0.00     0.260 C 
ATOM     84  H   UNL A   1      33.481  25.728  21.726  1.00  0.00     0.346 HD
ATOM     85  H   UNL A   1      34.217  26.975  22.596  1.00  0.00     0.346 HD
BRANCH  78  86
ATOM     86  C   UNL A   1      30.655  28.187  24.313  1.00  0.00     0.028 C 
BRANCH  86  87
ATOM     87  C   UNL A   1      29.843  28.459  23.032  1.00  0.00     0.038 C 
BRANCH  87  88
ATOM     88  C   UNL A   1      29.372  29.862  22.728  1.00  0.00    -0.030 A 
ATOM     89  C   UNL A   1      29.278  30.796  23.770  1.00  0.00     0.007 A 
ATOM     90  C   UNL A   1      28.964  30.300  21.471  1.00  0.00     0.114 A 
ATOM     91  C   UNL A   1      28.854  32.098  23.515  1.00  0.00     0.020 A 
ATOM     92  N   UNL A   1      28.548  31.559  21.195  1.00  0.00    -0.264 NA
ATOM     93  C   UNL A   1      28.510  32.431  22.219  1.00  0.00     0.111 A 
ENDBRANCH  87  88
ENDBRANCH  86  87
ENDBRANCH  78  86
ENDBRANCH  75  78
ENDBRANCH  73  74
ENDBRANCH   1  73
TORSDOF 14
ENDMDL
MODEL 2
REMARK VINA RESULT:     -12.5      0.439      2.021
REMARK SMILES O=C(NCCCCNC(=O)[C@]1(CCc2cccnc2)CCC[NH2+]C1)c1ccc(-c2c3nc(c(-c4c(F)c(F)c(F)c(F)c4F)c4ccc([nH]4)c(-c4c(F)c(F)c(F)c(F)c4F)c4nc(c(-c5c(F)c(F)c(F)c(F)c5F)c5ccc2[nH]5)C=C4)C=C3)cc1
REMARK SMILES IDX 6 1 5 2 4 3 3 4 1 5 2 6 25 8 26 9 87 10 27 11 86 12 28 13
REMARK SMILES IDX 29 14 30 15 80 16 31 17 85 18 79 19 81 20 32 21 84 22 78 23
REMARK SMILES IDX 77 24 33 26 65 27 45 28 64 29 46 30 49 31 63 32 82 33 47 34
REMARK SMILES IDX 48 35 62 37 83 38 50 39 34 40 35 41 43 42 36 43 37 44 41 45
REMARK SMILES IDX 44 46 38 47 39 48 42 49 40 50 66 51 67 52 75 53 68 54 69 55
REMARK SMILES IDX 73 56 76 57 70 58 71 59 74 60 72 61 51 62 52 63 60 64 53 65
REMARK SMILES IDX 54 66 58 67 61 68 55 69 56 70 59 71 57 72 7 73 8 74 9 75
REMARK SMILES IDX 10 77 11 78 20 79 24 80 21 81 23 82 22 83 12 86 13 87 14 88
REMARK SMILES IDX 15 89 19 90 16 91 18 92 17 93
REMARK H PARENT 3 7 81 25 49 36 8 76 23 84 23 85
REMARK Flexibility Score: inf
ROOT
ATOM      1  C   UNL A   1      31.889  30.324  26.800  1.00  0.00     0.023 C 
ENDROOT
BRANCH   1   2
ATOM      2  C   UNL A   1      31.804  31.838  26.621  1.00  0.00     0.023 C 
BRANCH   2   3
ATOM      3  C   UNL A   1      32.849  32.626  27.398  1.00  0.00     0.116 C 
BRANCH   3   4
ATOM      4  N   UNL A   1      32.450  34.002  27.669  1.00  0.00    -0.352 N 
ATOM      5  O   UNL A   1      32.467  35.975  28.784  1.00  0.00    -0.269 OA
ATOM      6  C   UNL A   1      32.982  34.882  28.583  1.00  0.00     0.251 C 
ATOM      7  H   UNL A   1      31.703  34.347  27.127  1.00  0.00     0.163 HD
BRANCH   6   8
ATOM      8  C   UNL A   1      34.172  34.462  29.347  1.00  0.00     0.039 A 
ATOM      9  C   UNL A   1      35.437  34.576  28.769  1.00  0.00     0.014 A 
ATOM     10  C   UNL A   1      34.008  33.867  30.600  1.00  0.00     0.014 A 
ATOM     11  C   UNL A   1      36.511  33.929  29.358  1.00  0.00     0.010 A 
ATOM     12  C   UNL A   1      35.115  33.303  31.239  1.00  0.00     0.010 A 
ATOM     13  C   UNL A   1      36.364  33.285  30.600  1.00  0.00    -0.014 A 
BRANCH  13  14
ATOM     14  C   UNL A   1      37.545  32.618  31.201  1.00  0.00     0.031 A 
ATOM     15  C   UNL A   1      37.989  32.932  32.603  1.00  0.00     0.074 A 
ATOM     16  C   UNL A   1      38.176  31.668  30.485  1.00  0.00     0.049 A 
ATOM     17  N   UNL A   1      38.971  32.406  33.293  1.00  0.00    -0.248 NA
ATOM     18  C   UNL A   1      37.246  33.978  33.323  1.00  0.00     0.031 C 
ATOM     19  C   UNL A   1      37.833  31.286  29.113  1.00  0.00     0.029 A 
ATOM     20  N   UNL A   1      39.204  30.826  30.818  1.00  0.00    -0.354 N 
ATOM     21  C   UNL A   1      38.987  33.079  34.508  1.00  0.00     0.074 A 
ATOM     22  C   UNL A   1      37.925  34.061  34.460  1.00  0.00     0.031 C 
ATOM     23  C   UNL A   1      38.585  30.239  28.748  1.00  0.00     0.029 A 
ATOM     24  C   UNL A   1      39.507  29.919  29.832  1.00  0.00     0.049 A 
ATOM     25  H   UNL A   1      39.680  30.868  31.679  1.00  0.00     0.167 HD
ATOM     26  C   UNL A   1      39.814  32.889  35.564  1.00  0.00     0.037 A 
ATOM     27  C   UNL A   1      40.427  28.940  29.802  1.00  0.00     0.037 A 
ATOM     28  C   UNL A   1      40.841  31.880  35.620  1.00  0.00     0.049 A 
ATOM     29  C   UNL A   1      41.310  28.737  30.998  1.00  0.00     0.074 A 
ATOM     30  C   UNL A   1      41.708  31.585  36.660  1.00  0.00     0.029 A 
ATOM     31  N   UNL A   1      41.132  30.993  34.594  1.00  0.00    -0.354 N 
ATOM     32  N   UNL A   1      41.309  29.374  32.144  1.00  0.00    -0.248 NA
ATOM     33  C   UNL A   1      42.325  27.681  30.895  1.00  0.00     0.031 C 
ATOM     34  C   UNL A   1      42.546  30.543  36.248  1.00  0.00     0.029 A 
ATOM     35  C   UNL A   1      42.175  30.160  34.970  1.00  0.00     0.049 A 
ATOM     36  H   UNL A   1      40.667  30.961  33.726  1.00  0.00     0.167 HD
ATOM     37  C   UNL A   1      42.312  28.792  32.903  1.00  0.00     0.074 A 
ATOM     38  C   UNL A   1      42.885  27.734  32.095  1.00  0.00     0.031 C 
ATOM     39  C   UNL A   1      42.726  29.110  34.153  1.00  0.00     0.037 A 
BRANCH  26  40
ATOM     40  C   UNL A   1      39.663  33.806  36.743  1.00  0.00     0.064 A 
ATOM     41  C   UNL A   1      40.273  35.069  36.783  1.00  0.00     0.173 A 
ATOM     42  C   UNL A   1      38.854  33.434  37.829  1.00  0.00     0.173 A 
ATOM     43  F   UNL A   1      41.065  35.468  35.777  1.00  0.00    -0.203 F 
ATOM     44  C   UNL A   1      40.094  35.917  37.875  1.00  0.00     0.198 A 
ATOM     45  C   UNL A   1      38.659  34.294  38.907  1.00  0.00     0.198 A 
ATOM     46  F   UNL A   1      38.245  32.240  37.839  1.00  0.00    -0.203 F 
ATOM     47  F   UNL A   1      40.716  37.104  37.907  1.00  0.00    -0.200 F 
ATOM     48  C   UNL A   1      39.283  35.531  38.931  1.00  0.00     0.200 A 
ATOM     49  F   UNL A   1      37.866  33.924  39.922  1.00  0.00    -0.200 F 
ATOM     50  F   UNL A   1      39.106  36.352  39.976  1.00  0.00    -0.200 F 
ENDBRANCH  26  40
BRANCH  27  51
ATOM     51  C   UNL A   1      40.542  28.077  28.600  1.00  0.00     0.064 A 
ATOM     52  C   UNL A   1      41.339  28.460  27.514  1.00  0.00     0.173 A 
ATOM     53  C   UNL A   1      39.883  26.841  28.526  1.00  0.00     0.173 A 
ATOM     54  F   UNL A   1      41.975  29.641  27.533  1.00  0.00    -0.203 F 
ATOM     55  C   UNL A   1      41.466  27.642  26.393  1.00  0.00     0.198 A 
ATOM     56  C   UNL A   1      40.033  26.012  27.418  1.00  0.00     0.198 A 
ATOM     57  F   UNL A   1      39.115  26.428  29.545  1.00  0.00    -0.203 F 
ATOM     58  F   UNL A   1      42.208  28.045  25.353  1.00  0.00    -0.200 F 
ATOM     59  C   UNL A   1      40.820  26.416  26.350  1.00  0.00     0.200 A 
ATOM     60  F   UNL A   1      39.423  24.820  27.389  1.00  0.00    -0.200 F 
ATOM     61  F   UNL A   1      40.953  25.624  25.278  1.00  0.00    -0.200 F 
ENDBRANCH  27  51
BRANCH  39  62
ATOM     62  C   UNL A   1      43.836  28.282  34.727  1.00  0.00     0.064 A 
ATOM     63  C   UNL A   1      43.578  27.097  35.430  1.00  0.00     0.173 A 
ATOM     64  C   UNL A   1      45.172  28.677  34.562  1.00  0.00     0.173 A 
ATOM     65  F   UNL A   1      42.315  26.691  35.628  1.00  0.00    -0.203 F 
ATOM     66  C   UNL A   1      44.618  26.349  35.972  1.00  0.00     0.198 A 
ATOM     67  C   UNL A   1      46.211  27.913  35.085  1.00  0.00     0.198 A 
ATOM     68  F   UNL A   1      45.469  29.801  33.895  1.00  0.00    -0.203 F 
ATOM     69  F   UNL A   1      44.347  25.246  36.684  1.00  0.00    -0.200 F 
ATOM     70  C   UNL A   1      45.933  26.754  35.796  1.00  0.00     0.200 A 
ATOM     71  F   UNL A   1      47.482  28.300  34.908  1.00  0.00    -0.200 F 
ATOM     72  F   UNL A   1      46.934  26.034  36.322  1.00  0.00    -0.200 F 
ENDBRANCH  39  62
ENDBRANCH  13  14
ENDBRANCH   6   8
ENDBRANCH   3   4
ENDBRANCH   2   3
ENDBRANCH   1   2
BRANCH   1  73
ATOM     73  C   UNL A   1      33.255  29.745  26.447  1.00  0.00     0.116 C 
BRANCH  73  74
ATOM     74  N   UNL A   1      33.408  29.572  25.020  1.00  0.00    -0.355 N 
ATOM     75  C   UNL A   1      33.052  28.607  24.138  1.00  0.00     0.231 C 
ATOM     76  H   UNL A   1      33.875  30.326  24.593  1.00  0.00     0.163 HD
ATOM     77  O   UNL A   1      33.275  28.896  22.954  1.00  0.00    -0.274 OA
BRANCH  75  78
ATOM     78  C   UNL A   1      32.275  27.317  24.491  1.00  0.00     0.098 C 
ATOM     79  C   UNL A   1      32.771  26.447  25.668  1.00  0.00     0.028 C 
ATOM     80  C   UNL A   1      32.391  26.380  23.235  1.00  0.00     0.277 C 
ATOM     81  C   UNL A   1      34.186  25.923  25.430  1.00  0.00     0.063 C 
ATOM     82  N   UNL A   1      33.752  25.870  23.013  1.00  0.00    -0.345 N 
ATOM     83  C   UNL A   1      34.263  25.111  24.144  1.00  0.00     0.260 C 
ATOM     84  H   UNL A   1      33.741  25.264  22.192  1.00  0.00     0.346 HD
ATOM     85  H   UNL A   1      34.363  26.675  22.882  1.00  0.00     0.346 HD
BRANCH  78  86
ATOM     86  C   UNL A   1      30.758  27.675  24.644  1.00  0.00     0.028 C 
BRANCH  86  87
ATOM     87  C   UNL A   1      29.938  28.003  23.381  1.00  0.00     0.038 C 
BRANCH  87  88
ATOM     88  C   UNL A   1      29.147  29.289  23.316  1.00  0.00    -0.030 A 
ATOM     89  C   UNL A   1      29.706  30.467  23.831  1.00  0.00     0.007 A 
ATOM     90  C   UNL A   1      27.851  29.390  22.817  1.00  0.00     0.114 A 
ATOM     91  C   UNL A   1      29.001  31.667  23.776  1.00  0.00     0.020 A 
ATOM     92  N   UNL A   1      27.142  30.543  22.751  1.00  0.00    -0.264 NA
ATOM     93  C   UNL A   1      27.734  31.656  23.224  1.00  0.00     0.111 A 
ENDBRANCH  87  88
ENDBRANCH  86  87
ENDBRANCH  78  86
ENDBRANCH  75  78
ENDBRANCH  73  74
ENDBRANCH   1  73
TORSDOF 14
ENDMDL
MODEL 3
REMARK VINA RESULT:     -12.4      6.198     11.378
REMARK SMILES O=C(NCCCCNC(=O)[C@]1(CCc2cccnc2)CCC[NH2+]C1)c1ccc(-c2c3nc(c(-c4c(F)c(F)c(F)c(F)c4F)c4ccc([nH]4)c(-c4c(F)c(F)c(F)c(F)c4F)c4nc(c(-c5c(F)c(F)c(F)c(F)c5F)c5ccc2[nH]5)C=C4)C=C3)cc1
REMARK SMILES IDX 6 1 5 2 4 3 3 4 1 5 2 6 25 8 26 9 87 10 27 11 86 12 28 13
REMARK SMILES IDX 29 14 30 15 80 16 31 17 85 18 79 19 81 20 32 21 84 22 78 23
REMARK SMILES IDX 77 24 33 26 65 27 45 28 64 29 46 30 49 31 63 32 82 33 47 34
REMARK SMILES IDX 48 35 62 37 83 38 50 39 34 40 35 41 43 42 36 43 37 44 41 45
REMARK SMILES IDX 44 46 38 47 39 48 42 49 40 50 66 51 67 52 75 53 68 54 69 55
REMARK SMILES IDX 73 56 76 57 70 58 71 59 74 60 72 61 51 62 52 63 60 64 53 65
REMARK SMILES IDX 54 66 58 67 61 68 55 69 56 70 59 71 57 72 7 73 8 74 9 75
REMARK SMILES IDX 10 77 11 78 20 79 24 80 21 81 23 82 22 83 12 86 13 87 14 88
REMARK SMILES IDX 15 89 19 90 16 91 18 92 17 93
REMARK H PARENT 3 7 81 25 49 36 8 76 23 84 23 85
REMARK Flexibility Score: inf
ROOT
ATOM      1  C   UNL A   1      37.165  21.549  24.568  1.00  0.00     0.023 C 
ENDROOT
BRANCH   1   2
ATOM      2  C   UNL A   1      37.878  20.292  25.061  1.00  0.00     0.023 C 
BRANCH   2   3
ATOM      3  C   UNL A   1      39.186  20.554  25.794  1.00  0.00     0.116 C 
BRANCH   3   4
ATOM      4  N   UNL A   1      40.068  19.393  25.833  1.00  0.00    -0.352 N 
ATOM      5  O   UNL A   1      42.056  18.315  25.972  1.00  0.00    -0.269 OA
ATOM      6  C   UNL A   1      41.418  19.355  26.089  1.00  0.00     0.251 C 
ATOM      7  H   UNL A   1      39.642  18.524  25.650  1.00  0.00     0.163 HD
BRANCH   6   8
ATOM      8  C   UNL A   1      42.093  20.608  26.476  1.00  0.00     0.039 A 
ATOM      9  C   UNL A   1      42.232  20.927  27.827  1.00  0.00     0.014 A 
ATOM     10  C   UNL A   1      42.497  21.504  25.483  1.00  0.00     0.014 A 
ATOM     11  C   UNL A   1      42.600  22.215  28.184  1.00  0.00     0.010 A 
ATOM     12  C   UNL A   1      42.965  22.767  25.852  1.00  0.00     0.010 A 
ATOM     13  C   UNL A   1      42.972  23.150  27.202  1.00  0.00    -0.014 A 
BRANCH  13  14
ATOM     14  C   UNL A   1      43.373  24.512  27.631  1.00  0.00     0.031 A 
ATOM     15  C   UNL A   1      44.809  24.956  27.575  1.00  0.00     0.074 A 
ATOM     16  C   UNL A   1      42.410  25.373  28.011  1.00  0.00     0.049 A 
ATOM     17  N   UNL A   1      45.321  26.126  27.870  1.00  0.00    -0.248 NA
ATOM     18  C   UNL A   1      45.803  23.960  27.145  1.00  0.00     0.031 C 
ATOM     19  C   UNL A   1      40.985  25.048  28.108  1.00  0.00     0.029 A 
ATOM     20  N   UNL A   1      42.472  26.700  28.346  1.00  0.00    -0.354 N 
ATOM     21  C   UNL A   1      46.694  25.996  27.697  1.00  0.00     0.074 A 
ATOM     22  C   UNL A   1      46.939  24.631  27.283  1.00  0.00     0.031 C 
ATOM     23  C   UNL A   1      40.300  26.160  28.405  1.00  0.00     0.029 A 
ATOM     24  C   UNL A   1      41.241  27.260  28.586  1.00  0.00     0.049 A 
ATOM     25  H   UNL A   1      43.316  27.202  28.411  1.00  0.00     0.167 HD
ATOM     26  C   UNL A   1      47.656  26.935  27.868  1.00  0.00     0.037 A 
ATOM     27  C   UNL A   1      40.906  28.519  28.917  1.00  0.00     0.037 A 
ATOM     28  C   UNL A   1      47.399  28.302  28.239  1.00  0.00     0.049 A 
ATOM     29  C   UNL A   1      41.992  29.542  29.072  1.00  0.00     0.074 A 
ATOM     30  C   UNL A   1      48.304  29.338  28.402  1.00  0.00     0.029 A 
ATOM     31  N   UNL A   1      46.140  28.828  28.493  1.00  0.00    -0.354 N 
ATOM     32  N   UNL A   1      43.284  29.408  28.897  1.00  0.00    -0.248 NA
ATOM     33  C   UNL A   1      41.574  30.890  29.476  1.00  0.00     0.031 C 
ATOM     34  C   UNL A   1      47.595  30.481  28.790  1.00  0.00     0.029 A 
ATOM     35  C   UNL A   1      46.246  30.169  28.827  1.00  0.00     0.049 A 
ATOM     36  H   UNL A   1      45.297  28.322  28.444  1.00  0.00     0.167 HD
ATOM     37  C   UNL A   1      43.833  30.654  29.157  1.00  0.00     0.074 A 
ATOM     38  C   UNL A   1      42.730  31.537  29.480  1.00  0.00     0.031 C 
ATOM     39  C   UNL A   1      45.135  31.031  29.139  1.00  0.00     0.037 A 
BRANCH  26  40
ATOM     40  C   UNL A   1      49.085  26.512  27.680  1.00  0.00     0.064 A 
ATOM     41  C   UNL A   1      49.661  26.390  26.406  1.00  0.00     0.173 A 
ATOM     42  C   UNL A   1      49.903  26.274  28.796  1.00  0.00     0.173 A 
ATOM     43  F   UNL A   1      48.919  26.595  25.308  1.00  0.00    -0.203 F 
ATOM     44  C   UNL A   1      50.997  26.026  26.257  1.00  0.00     0.198 A 
ATOM     45  C   UNL A   1      51.245  25.933  28.642  1.00  0.00     0.198 A 
ATOM     46  F   UNL A   1      49.403  26.381  30.035  1.00  0.00    -0.203 F 
ATOM     47  F   UNL A   1      51.517  25.880  25.030  1.00  0.00    -0.200 F 
ATOM     48  C   UNL A   1      51.789  25.805  27.374  1.00  0.00     0.200 A 
ATOM     49  F   UNL A   1      52.010  25.731  29.724  1.00  0.00    -0.200 F 
ATOM     50  F   UNL A   1      53.077  25.463  27.228  1.00  0.00    -0.200 F 
ENDBRANCH  26  40
BRANCH  27  51
ATOM     51  C   UNL A   1      39.478  28.872  29.108  1.00  0.00     0.064 A 
ATOM     52  C   UNL A   1      38.871  28.756  30.365  1.00  0.00     0.173 A 
ATOM     53  C   UNL A   1      38.700  29.359  28.047  1.00  0.00     0.173 A 
ATOM     54  F   UNL A   1      39.570  28.279  31.405  1.00  0.00    -0.203 F 
ATOM     55  C   UNL A   1      37.535  29.107  30.552  1.00  0.00     0.198 A 
ATOM     56  C   UNL A   1      37.374  29.737  28.242  1.00  0.00     0.198 A 
ATOM     57  F   UNL A   1      39.240  29.495  26.827  1.00  0.00    -0.203 F 
ATOM     58  F   UNL A   1      36.968  28.957  31.757  1.00  0.00    -0.200 F 
ATOM     59  C   UNL A   1      36.792  29.605  29.493  1.00  0.00     0.200 A 
ATOM     60  F   UNL A   1      36.665  30.236  27.220  1.00  0.00    -0.200 F 
ATOM     61  F   UNL A   1      35.512  29.955  29.677  1.00  0.00    -0.200 F 
ENDBRANCH  27  51
BRANCH  39  62
ATOM     62  C   UNL A   1      45.426  32.468  29.451  1.00  0.00     0.064 A 
ATOM     63  C   UNL A   1      45.438  33.448  28.448  1.00  0.00     0.173 A 
ATOM     64  C   UNL A   1      45.685  32.867  30.770  1.00  0.00     0.173 A 
ATOM     65  F   UNL A   1      45.214  33.108  27.170  1.00  0.00    -0.203 F 
ATOM     66  C   UNL A   1      45.728  34.774  28.752  1.00  0.00     0.198 A 
ATOM     67  C   UNL A   1      45.950  34.199  31.073  1.00  0.00     0.198 A 
ATOM     68  F   UNL A   1      45.681  31.966  31.764  1.00  0.00    -0.203 F 
ATOM     69  F   UNL A   1      45.784  35.687  27.771  1.00  0.00    -0.200 F 
ATOM     70  C   UNL A   1      45.979  35.150  30.063  1.00  0.00     0.200 A 
ATOM     71  F   UNL A   1      46.184  34.563  32.342  1.00  0.00    -0.200 F 
ATOM     72  F   UNL A   1      46.260  36.428  30.353  1.00  0.00    -0.200 F 
ENDBRANCH  39  62
ENDBRANCH  13  14
ENDBRANCH   6   8
ENDBRANCH   3   4
ENDBRANCH   2   3
ENDBRANCH   1   2
BRANCH   1  73
ATOM     73  C   UNL A   1      36.766  22.504  25.689  1.00  0.00     0.116 C 
BRANCH  73  74
ATOM     74  N   UNL A   1      35.761  21.922  26.550  1.00  0.00    -0.355 N 
ATOM     75  C   UNL A   1      34.412  21.813  26.493  1.00  0.00     0.231 C 
ATOM     76  H   UNL A   1      36.143  21.514  27.360  1.00  0.00     0.163 HD
ATOM     77  O   UNL A   1      33.921  21.128  27.402  1.00  0.00    -0.274 OA
BRANCH  75  78
ATOM     78  C   UNL A   1      33.523  22.320  25.333  1.00  0.00     0.098 C 
ATOM     79  C   UNL A   1      33.709  23.769  24.831  1.00  0.00     0.028 C 
ATOM     80  C   UNL A   1      32.045  22.277  25.865  1.00  0.00     0.277 C 
ATOM     81  C   UNL A   1      33.429  24.792  25.932  1.00  0.00     0.063 C 
ATOM     82  N   UNL A   1      31.775  23.267  26.918  1.00  0.00    -0.345 N 
ATOM     83  C   UNL A   1      32.019  24.635  26.484  1.00  0.00     0.260 C 
ATOM     84  H   UNL A   1      30.798  23.183  27.199  1.00  0.00     0.346 HD
ATOM     85  H   UNL A   1      32.411  23.073  27.691  1.00  0.00     0.346 HD
BRANCH  78  86
ATOM     86  C   UNL A   1      33.605  21.292  24.155  1.00  0.00     0.028 C 
BRANCH  86  87
ATOM     87  C   UNL A   1      32.522  20.202  24.039  1.00  0.00     0.038 C 
BRANCH  87  88
ATOM     88  C   UNL A   1      32.877  18.761  24.325  1.00  0.00    -0.030 A 
ATOM     89  C   UNL A   1      33.371  17.957  23.288  1.00  0.00     0.007 A 
ATOM     90  C   UNL A   1      32.699  18.136  25.557  1.00  0.00     0.114 A 
ATOM     91  C   UNL A   1      33.712  16.627  23.526  1.00  0.00     0.020 A 
ATOM     92  N   UNL A   1      33.023  16.846  25.816  1.00  0.00    -0.264 NA
ATOM     93  C   UNL A   1      33.529  16.124  24.800  1.00  0.00     0.111 A 
ENDBRANCH  87  88
ENDBRANCH  86  87
ENDBRANCH  78  86
ENDBRANCH  75  78
ENDBRANCH  73  74
ENDBRANCH   1  73
TORSDOF 14
ENDMDL
