MODEL 1
REMARK VINA RESULT:     -11.5      0.000      0.000
REMARK SMILES CC(C)OCCS(=O)(=O)Nc1ccc(O)c(C(=O)NCCCCNC(=O)c2ccc(-c3c4nc(c(-c5c(F)c(F)c(F)c(F)c5F)c5ccc([nH]5)c(-c5c(F)c(F)c(F)c(F)c5F)c5nc(c(-c6c(F)c(F)c(F)c(F)c6F)c6ccc3[nH]6)C=C5)C=C4)cc2)c1
REMARK SMILES IDX 17 1 18 2 19 3 16 5 11 6 12 7 90 8 13 9 14 10 10 11 7 13
REMARK SMILES IDX 8 14 9 15 6 16 5 17 4 18 2 19 1 20 3 21 15 22 20 24 21 25
REMARK SMILES IDX 22 26 23 27 24 28 25 29 26 31 27 32 28 33 89 34 29 35 88 36
REMARK SMILES IDX 30 37 31 38 32 39 82 40 33 41 87 42 81 43 83 44 34 45 86 46
REMARK SMILES IDX 80 47 79 48 35 50 67 51 47 52 66 53 48 54 51 55 65 56 84 57
REMARK SMILES IDX 49 58 50 59 64 61 85 62 52 63 36 64 37 65 45 66 38 67 39 68
REMARK SMILES IDX 43 69 46 70 40 71 41 72 44 73 42 74 68 75 69 76 77 77 70 78
REMARK SMILES IDX 71 79 75 80 78 81 72 82 73 83 76 84 74 85 53 86 54 87 62 88
REMARK SMILES IDX 55 89 56 90 60 91 63 92 57 93 58 94 61 95 59 96
REMARK H PARENT 19 4 10 12 15 23 24 30 83 49 51 60
REMARK Flexibility Score: inf
ROOT
ATOM      1  C   UNL A   1      32.787  20.884  25.351  1.00  0.00     0.255 C 
ATOM      2  O   UNL A   1      32.018  19.925  25.234  1.00  0.00    -0.269 OA
ATOM      3  N   UNL A   1      34.117  20.596  25.508  1.00  0.00    -0.352 N 
ATOM      4  H   UNL A   1      34.333  19.636  25.482  1.00  0.00     0.163 HD
ENDROOT
BRANCH   1   5
ATOM      5  C   UNL A   1      32.216  22.261  25.262  1.00  0.00     0.083 A 
ATOM      6  C   UNL A   1      31.618  24.057  23.718  1.00  0.00     0.050 A 
ATOM      7  C   UNL A   1      30.934  24.650  24.756  1.00  0.00     0.030 A 
ATOM      8  C   UNL A   1      32.220  22.828  23.959  1.00  0.00     0.044 A 
ATOM      9  C   UNL A   1      30.948  24.171  26.043  1.00  0.00     0.049 A 
ATOM     10  C   UNL A   1      31.579  22.970  26.294  1.00  0.00     0.128 A 
BRANCH   6  11
ATOM     11  N   UNL A   1      31.403  24.543  22.403  1.00  0.00    -0.283 N 
ATOM     12  H   UNL A   1      30.744  24.074  21.842  1.00  0.00     0.180 HD
BRANCH  11  13
ATOM     13  S   UNL A   1      32.191  25.861  21.742  1.00  0.00     0.235 S 
ATOM     14  O   UNL A   1      31.744  25.912  20.365  1.00  0.00    -0.207 OA
ATOM     15  O   UNL A   1      33.599  25.669  22.028  1.00  0.00    -0.207 OA
BRANCH  13  16
ATOM     16  C   UNL A   1      31.711  27.404  22.550  1.00  0.00     0.188 C 
BRANCH  16  17
ATOM     17  C   UNL A   1      30.209  27.671  22.681  1.00  0.00     0.178 C 
BRANCH  17  18
ATOM     18  O   UNL A   1      29.788  28.775  21.877  1.00  0.00    -0.378 OA
BRANCH  18  19
ATOM     19  C   UNL A   1      28.756  29.651  22.352  1.00  0.00     0.112 C 
ATOM     20  C   UNL A   1      28.381  30.651  21.275  1.00  0.00     0.038 C 
ATOM     21  C   UNL A   1      27.537  28.976  22.974  1.00  0.00     0.038 C 
ENDBRANCH  18  19
ENDBRANCH  17  18
ENDBRANCH  16  17
ENDBRANCH  13  16
ENDBRANCH  11  13
ENDBRANCH   6  11
BRANCH  10  22
ATOM     22  O   UNL A   1      31.438  22.528  27.568  1.00  0.00    -0.507 OA
ATOM     23  H   UNL A   1      30.821  21.850  27.762  1.00  0.00     0.293 HD
ENDBRANCH  10  22
ENDBRANCH   1   5
BRANCH   3  24
ATOM     24  C   UNL A   1      35.257  21.462  25.702  1.00  0.00     0.116 C 
BRANCH  24  25
ATOM     25  C   UNL A   1      35.838  21.899  24.351  1.00  0.00     0.023 C 
BRANCH  25  26
ATOM     26  C   UNL A   1      36.617  23.201  24.352  1.00  0.00     0.023 C 
BRANCH  26  27
ATOM     27  C   UNL A   1      37.374  23.464  25.634  1.00  0.00     0.116 C 
BRANCH  27  28
ATOM     28  N   UNL A   1      38.632  22.734  25.744  1.00  0.00    -0.352 N 
ATOM     29  C   UNL A   1      39.794  23.189  26.321  1.00  0.00     0.251 C 
ATOM     30  H   UNL A   1      38.650  21.824  25.369  1.00  0.00     0.163 HD
ATOM     31  O   UNL A   1      40.826  22.531  26.314  1.00  0.00    -0.269 OA
BRANCH  29  32
ATOM     32  C   UNL A   1      39.757  24.543  26.899  1.00  0.00     0.039 A 
ATOM     33  C   UNL A   1      39.316  24.696  28.213  1.00  0.00     0.014 A 
ATOM     34  C   UNL A   1      40.368  25.593  26.207  1.00  0.00     0.014 A 
ATOM     35  C   UNL A   1      39.566  25.898  28.873  1.00  0.00     0.010 A 
ATOM     36  C   UNL A   1      40.690  26.752  26.894  1.00  0.00     0.010 A 
ATOM     37  C   UNL A   1      40.301  26.910  28.234  1.00  0.00    -0.014 A 
BRANCH  37  38
ATOM     38  C   UNL A   1      40.689  28.150  28.947  1.00  0.00     0.031 A 
ATOM     39  C   UNL A   1      42.072  28.268  29.514  1.00  0.00     0.074 A 
ATOM     40  C   UNL A   1      39.773  29.114  29.161  1.00  0.00     0.049 A 
ATOM     41  N   UNL A   1      42.579  29.209  30.268  1.00  0.00    -0.248 NA
ATOM     42  C   UNL A   1      43.000  27.164  29.221  1.00  0.00     0.031 C 
ATOM     43  C   UNL A   1      38.384  29.082  28.700  1.00  0.00     0.029 A 
ATOM     44  N   UNL A   1      39.870  30.303  29.840  1.00  0.00    -0.354 N 
ATOM     45  C   UNL A   1      43.873  28.799  30.552  1.00  0.00     0.074 A 
ATOM     46  C   UNL A   1      44.059  27.503  29.938  1.00  0.00     0.031 C 
ATOM     47  C   UNL A   1      37.762  30.206  29.097  1.00  0.00     0.029 A 
ATOM     48  C   UNL A   1      38.696  31.015  29.874  1.00  0.00     0.049 A 
ATOM     49  H   UNL A   1      40.702  30.616  30.262  1.00  0.00     0.167 HD
ATOM     50  C   UNL A   1      44.831  29.462  31.243  1.00  0.00     0.037 A 
ATOM     51  C   UNL A   1      38.404  32.181  30.481  1.00  0.00     0.037 A 
ATOM     52  C   UNL A   1      44.646  30.765  31.822  1.00  0.00     0.049 A 
ATOM     53  C   UNL A   1      39.480  32.887  31.262  1.00  0.00     0.074 A 
ATOM     54  C   UNL A   1      45.576  31.560  32.465  1.00  0.00     0.029 A 
ATOM     55  N   UNL A   1      43.445  31.459  31.832  1.00  0.00    -0.354 N 
ATOM     56  N   UNL A   1      40.728  32.534  31.454  1.00  0.00    -0.248 NA
ATOM     57  C   UNL A   1      39.108  34.150  31.915  1.00  0.00     0.031 C 
ATOM     58  C   UNL A   1      44.926  32.716  32.910  1.00  0.00     0.029 A 
ATOM     59  C   UNL A   1      43.602  32.660  32.503  1.00  0.00     0.049 A 
ATOM     60  H   UNL A   1      42.607  31.145  31.422  1.00  0.00     0.167 HD
ATOM     61  C   UNL A   1      41.293  33.533  32.235  1.00  0.00     0.074 A 
ATOM     62  C   UNL A   1      40.257  34.519  32.464  1.00  0.00     0.031 C 
ATOM     63  C   UNL A   1      42.554  33.625  32.723  1.00  0.00     0.037 A 
BRANCH  50  64
ATOM     64  C   UNL A   1      46.160  28.788  31.403  1.00  0.00     0.064 A 
ATOM     65  C   UNL A   1      46.441  27.965  32.504  1.00  0.00     0.173 A 
ATOM     66  C   UNL A   1      47.157  28.944  30.428  1.00  0.00     0.173 A 
ATOM     67  F   UNL A   1      45.526  27.796  33.470  1.00  0.00    -0.203 F 
ATOM     68  C   UNL A   1      47.679  27.345  32.638  1.00  0.00     0.198 A 
ATOM     69  C   UNL A   1      48.384  28.298  30.550  1.00  0.00     0.198 A 
ATOM     70  F   UNL A   1      46.939  29.719  29.355  1.00  0.00    -0.203 F 
ATOM     71  F   UNL A   1      47.942  26.603  33.723  1.00  0.00    -0.200 F 
ATOM     72  C   UNL A   1      48.647  27.505  31.657  1.00  0.00     0.200 A 
ATOM     73  F   UNL A   1      49.314  28.446  29.597  1.00  0.00    -0.200 F 
ATOM     74  F   UNL A   1      49.837  26.903  31.784  1.00  0.00    -0.200 F 
ENDBRANCH  50  64
BRANCH  51  75
ATOM     75  C   UNL A   1      37.038  32.757  30.372  1.00  0.00     0.064 A 
ATOM     76  C   UNL A   1      36.672  33.535  29.265  1.00  0.00     0.173 A 
ATOM     77  C   UNL A   1      36.074  32.548  31.369  1.00  0.00     0.173 A 
ATOM     78  F   UNL A   1      37.566  33.783  28.297  1.00  0.00    -0.203 F 
ATOM     79  C   UNL A   1      35.399  34.095  29.167  1.00  0.00     0.198 A 
ATOM     80  C   UNL A   1      34.793  33.085  31.257  1.00  0.00     0.198 A 
ATOM     81  F   UNL A   1      36.373  31.808  32.447  1.00  0.00    -0.203 F 
ATOM     82  F   UNL A   1      35.089  34.869  28.119  1.00  0.00    -0.200 F 
ATOM     83  C   UNL A   1      34.459  33.864  30.161  1.00  0.00     0.200 A 
ATOM     84  F   UNL A   1      33.884  32.848  32.213  1.00  0.00    -0.200 F 
ATOM     85  F   UNL A   1      33.234  34.399  30.064  1.00  0.00    -0.200 F 
ENDBRANCH  51  75
BRANCH  63  86
ATOM     86  C   UNL A   1      42.888  34.832  33.547  1.00  0.00     0.064 A 
ATOM     87  C   UNL A   1      43.213  36.057  32.948  1.00  0.00     0.173 A 
ATOM     88  C   UNL A   1      42.817  34.780  34.947  1.00  0.00     0.173 A 
ATOM     89  F   UNL A   1      43.311  36.150  31.613  1.00  0.00    -0.203 F 
ATOM     90  C   UNL A   1      43.467  37.185  33.723  1.00  0.00     0.198 A 
ATOM     91  C   UNL A   1      43.043  35.917  35.717  1.00  0.00     0.198 A 
ATOM     92  F   UNL A   1      42.503  33.632  35.567  1.00  0.00    -0.203 F 
ATOM     93  F   UNL A   1      43.810  38.338  33.131  1.00  0.00    -0.200 F 
ATOM     94  C   UNL A   1      43.372  37.116  35.104  1.00  0.00     0.200 A 
ATOM     95  F   UNL A   1      42.937  35.853  37.051  1.00  0.00    -0.200 F 
ATOM     96  F   UNL A   1      43.601  38.208  35.847  1.00  0.00    -0.200 F 
ENDBRANCH  63  86
ENDBRANCH  37  38
ENDBRANCH  29  32
ENDBRANCH  27  28
ENDBRANCH  26  27
ENDBRANCH  25  26
ENDBRANCH  24  25
ENDBRANCH   3  24
TORSDOF 18
ENDMDL
MODEL 2
REMARK VINA RESULT:     -11.4      3.842      8.737
REMARK SMILES CC(C)OCCS(=O)(=O)Nc1ccc(O)c(C(=O)NCCCCNC(=O)c2ccc(-c3c4nc(c(-c5c(F)c(F)c(F)c(F)c5F)c5ccc([nH]5)c(-c5c(F)c(F)c(F)c(F)c5F)c5nc(c(-c6c(F)c(F)c(F)c(F)c6F)c6ccc3[nH]6)C=C5)C=C4)cc2)c1
REMARK SMILES IDX 17 1 18 2 19 3 16 5 11 6 12 7 90 8 13 9 14 10 10 11 7 13
REMARK SMILES IDX 8 14 9 15 6 16 5 17 4 18 2 19 1 20 3 21 15 22 20 24 21 25
REMARK SMILES IDX 22 26 23 27 24 28 25 29 26 31 27 32 28 33 89 34 29 35 88 36
REMARK SMILES IDX 30 37 31 38 32 39 82 40 33 41 87 42 81 43 83 44 34 45 86 46
REMARK SMILES IDX 80 47 79 48 35 50 67 51 47 52 66 53 48 54 51 55 65 56 84 57
REMARK SMILES IDX 49 58 50 59 64 61 85 62 52 63 36 64 37 65 45 66 38 67 39 68
REMARK SMILES IDX 43 69 46 70 40 71 41 72 44 73 42 74 68 75 69 76 77 77 70 78
REMARK SMILES IDX 71 79 75 80 78 81 72 82 73 83 76 84 74 85 53 86 54 87 62 88
REMARK SMILES IDX 55 89 56 90 60 91 63 92 57 93 58 94 61 95 59 96
REMARK H PARENT 19 4 10 12 15 23 24 30 83 49 51 60
REMARK Flexibility Score: inf
ROOT
ATOM      1  C   UNL A   1      33.765  22.190  26.980  1.00  0.00     0.255 C 
ATOM      2  O   UNL A   1      33.107  22.202  28.024  1.00  0.00    -0.269 OA
ATOM      3  N   UNL A   1      35.074  22.582  27.068  1.00  0.00    -0.352 N 
ATOM      4  H   UNL A   1      35.371  22.811  27.979  1.00  0.00     0.163 HD
ENDROOT
BRANCH   1   5
ATOM      5  C   UNL A   1      33.101  21.706  25.733  1.00  0.00     0.083 A 
ATOM      6  C   UNL A   1      32.196  22.408  23.576  1.00  0.00     0.050 A 
ATOM      7  C   UNL A   1      32.153  21.077  23.221  1.00  0.00     0.030 A 
ATOM      8  C   UNL A   1      32.722  22.728  24.821  1.00  0.00     0.044 A 
ATOM      9  C   UNL A   1      32.453  20.053  24.085  1.00  0.00     0.049 A 
ATOM     10  C   UNL A   1      32.939  20.367  25.338  1.00  0.00     0.128 A 
BRANCH   6  11
ATOM     11  N   UNL A   1      32.022  23.383  22.559  1.00  0.00    -0.283 N 
ATOM     12  H   UNL A   1      31.102  23.598  22.283  1.00  0.00     0.180 HD
BRANCH  11  13
ATOM     13  S   UNL A   1      33.274  24.191  21.803  1.00  0.00     0.235 S 
ATOM     14  O   UNL A   1      33.277  23.686  20.444  1.00  0.00    -0.207 OA
ATOM     15  O   UNL A   1      34.441  23.994  22.639  1.00  0.00    -0.207 OA
BRANCH  13  16
ATOM     16  C   UNL A   1      32.983  25.973  21.742  1.00  0.00     0.188 C 
BRANCH  16  17
ATOM     17  C   UNL A   1      31.900  26.523  22.676  1.00  0.00     0.178 C 
BRANCH  17  18
ATOM     18  O   UNL A   1      32.216  26.306  24.052  1.00  0.00    -0.378 OA
BRANCH  18  19
ATOM     19  C   UNL A   1      33.479  26.746  24.571  1.00  0.00     0.112 C 
ATOM     20  C   UNL A   1      33.444  28.239  24.838  1.00  0.00     0.038 C 
ATOM     21  C   UNL A   1      34.031  25.952  25.752  1.00  0.00     0.038 C 
ENDBRANCH  18  19
ENDBRANCH  17  18
ENDBRANCH  16  17
ENDBRANCH  13  16
ENDBRANCH  11  13
ENDBRANCH   6  11
BRANCH  10  22
ATOM     22  O   UNL A   1      33.314  19.291  26.071  1.00  0.00    -0.507 OA
ATOM     23  H   UNL A   1      32.976  19.175  26.938  1.00  0.00     0.293 HD
ENDBRANCH  10  22
ENDBRANCH   1   5
BRANCH   3  24
ATOM     24  C   UNL A   1      36.095  22.714  26.054  1.00  0.00     0.116 C 
BRANCH  24  25
ATOM     25  C   UNL A   1      36.716  21.349  25.734  1.00  0.00     0.023 C 
BRANCH  25  26
ATOM     26  C   UNL A   1      38.107  21.377  25.127  1.00  0.00     0.023 C 
BRANCH  26  27
ATOM     27  C   UNL A   1      39.217  21.141  26.126  1.00  0.00     0.116 C 
BRANCH  27  28
ATOM     28  N   UNL A   1      39.858  19.836  26.007  1.00  0.00    -0.352 N 
ATOM     29  C   UNL A   1      41.204  19.574  26.105  1.00  0.00     0.251 C 
ATOM     30  H   UNL A   1      39.267  19.066  25.841  1.00  0.00     0.163 HD
ATOM     31  O   UNL A   1      41.664  18.453  25.930  1.00  0.00    -0.269 OA
BRANCH  29  32
ATOM     32  C   UNL A   1      42.083  20.725  26.373  1.00  0.00     0.039 A 
ATOM     33  C   UNL A   1      42.484  21.523  25.303  1.00  0.00     0.014 A 
ATOM     34  C   UNL A   1      42.305  21.114  27.697  1.00  0.00     0.014 A 
ATOM     35  C   UNL A   1      43.044  22.771  25.565  1.00  0.00     0.010 A 
ATOM     36  C   UNL A   1      42.781  22.391  27.951  1.00  0.00     0.010 A 
ATOM     37  C   UNL A   1      43.145  23.233  26.887  1.00  0.00    -0.014 A 
BRANCH  37  38
ATOM     38  C   UNL A   1      43.622  24.601  27.194  1.00  0.00     0.031 A 
ATOM     39  C   UNL A   1      42.646  25.622  27.697  1.00  0.00     0.074 A 
ATOM     40  C   UNL A   1      44.898  24.941  26.930  1.00  0.00     0.049 A 
ATOM     41  N   UNL A   1      42.824  26.899  27.915  1.00  0.00    -0.248 NA
ATOM     42  C   UNL A   1      41.276  25.151  27.959  1.00  0.00     0.031 C 
ATOM     43  C   UNL A   1      45.921  24.043  26.391  1.00  0.00     0.029 A 
ATOM     44  N   UNL A   1      45.548  26.142  27.063  1.00  0.00    -0.354 N 
ATOM     45  C   UNL A   1      41.589  27.383  28.319  1.00  0.00     0.074 A 
ATOM     46  C   UNL A   1      40.657  26.279  28.265  1.00  0.00     0.031 C 
ATOM     47  C   UNL A   1      47.073  24.721  26.253  1.00  0.00     0.029 A 
ATOM     48  C   UNL A   1      46.858  26.109  26.653  1.00  0.00     0.049 A 
ATOM     49  H   UNL A   1      45.116  26.952  27.419  1.00  0.00     0.167 HD
ATOM     50  C   UNL A   1      41.269  28.634  28.726  1.00  0.00     0.037 A 
ATOM     51  C   UNL A   1      47.776  27.093  26.590  1.00  0.00     0.037 A 
ATOM     52  C   UNL A   1      42.211  29.717  28.807  1.00  0.00     0.049 A 
ATOM     53  C   UNL A   1      47.389  28.480  27.027  1.00  0.00     0.074 A 
ATOM     54  C   UNL A   1      42.011  30.998  29.288  1.00  0.00     0.029 A 
ATOM     55  N   UNL A   1      43.532  29.644  28.389  1.00  0.00    -0.354 N 
ATOM     56  N   UNL A   1      46.240  28.910  27.490  1.00  0.00    -0.248 NA
ATOM     57  C   UNL A   1      48.422  29.520  26.929  1.00  0.00     0.031 C 
ATOM     58  C   UNL A   1      43.199  31.717  29.115  1.00  0.00     0.029 A 
ATOM     59  C   UNL A   1      44.150  30.871  28.568  1.00  0.00     0.049 A 
ATOM     60  H   UNL A   1      43.966  28.841  28.021  1.00  0.00     0.167 HD
ATOM     61  C   UNL A   1      46.414  30.262  27.751  1.00  0.00     0.074 A 
ATOM     62  C   UNL A   1      47.788  30.578  27.414  1.00  0.00     0.031 C 
ATOM     63  C   UNL A   1      45.518  31.163  28.222  1.00  0.00     0.037 A 
BRANCH  50  64
ATOM     64  C   UNL A   1      39.845  28.892  29.117  1.00  0.00     0.064 A 
ATOM     65  C   UNL A   1      38.893  29.328  28.184  1.00  0.00     0.173 A 
ATOM     66  C   UNL A   1      39.421  28.673  30.436  1.00  0.00     0.173 A 
ATOM     67  F   UNL A   1      39.253  29.567  26.914  1.00  0.00    -0.203 F 
ATOM     68  C   UNL A   1      37.574  29.562  28.561  1.00  0.00     0.198 A 
ATOM     69  C   UNL A   1      38.093  28.878  30.804  1.00  0.00     0.198 A 
ATOM     70  F   UNL A   1      40.290  28.253  31.367  1.00  0.00    -0.203 F 
ATOM     71  F   UNL A   1      36.694  30.027  27.664  1.00  0.00    -0.200 F 
ATOM     72  C   UNL A   1      37.173  29.330  29.869  1.00  0.00     0.200 A 
ATOM     73  F   UNL A   1      37.705  28.644  32.064  1.00  0.00    -0.200 F 
ATOM     74  F   UNL A   1      35.902  29.549  30.230  1.00  0.00    -0.200 F 
ENDBRANCH  50  64
BRANCH  51  75
ATOM     75  C   UNL A   1      49.149  26.802  26.100  1.00  0.00     0.064 A 
ATOM     76  C   UNL A   1      49.492  27.006  24.756  1.00  0.00     0.173 A 
ATOM     77  C   UNL A   1      50.144  26.311  26.959  1.00  0.00     0.173 A 
ATOM     78  F   UNL A   1      48.569  27.451  23.891  1.00  0.00    -0.203 F 
ATOM     79  C   UNL A   1      50.771  26.715  24.287  1.00  0.00     0.198 A 
ATOM     80  C   UNL A   1      51.430  26.047  26.495  1.00  0.00     0.198 A 
ATOM     81  F   UNL A   1      49.868  26.101  28.255  1.00  0.00    -0.203 F 
ATOM     82  F   UNL A   1      51.059  26.879  22.990  1.00  0.00    -0.200 F 
ATOM     83  C   UNL A   1      51.741  26.242  25.158  1.00  0.00     0.200 A 
ATOM     84  F   UNL A   1      52.368  25.602  27.342  1.00  0.00    -0.200 F 
ATOM     85  F   UNL A   1      52.973  25.967  24.707  1.00  0.00    -0.200 F 
ENDBRANCH  51  75
BRANCH  63  86
ATOM     86  C   UNL A   1      45.991  32.573  28.407  1.00  0.00     0.064 A 
ATOM     87  C   UNL A   1      45.844  33.531  27.394  1.00  0.00     0.173 A 
ATOM     88  C   UNL A   1      46.535  32.987  29.632  1.00  0.00     0.173 A 
ATOM     89  F   UNL A   1      45.345  33.178  26.199  1.00  0.00    -0.203 F 
ATOM     90  C   UNL A   1      46.236  34.851  27.597  1.00  0.00     0.198 A 
ATOM     91  C   UNL A   1      46.899  34.315  29.840  1.00  0.00     0.198 A 
ATOM     92  F   UNL A   1      46.690  32.110  30.635  1.00  0.00    -0.203 F 
ATOM     93  F   UNL A   1      46.118  35.743  26.602  1.00  0.00    -0.200 F 
ATOM     94  C   UNL A   1      46.753  35.243  28.822  1.00  0.00     0.200 A 
ATOM     95  F   UNL A   1      47.385  34.696  31.030  1.00  0.00    -0.200 F 
ATOM     96  F   UNL A   1      47.115  36.518  29.019  1.00  0.00    -0.200 F 
ENDBRANCH  63  86
ENDBRANCH  37  38
ENDBRANCH  29  32
ENDBRANCH  27  28
ENDBRANCH  26  27
ENDBRANCH  25  26
ENDBRANCH  24  25
ENDBRANCH   3  24
TORSDOF 18
ENDMDL
MODEL 3
REMARK VINA RESULT:     -11.3      3.830      5.810
REMARK SMILES CC(C)OCCS(=O)(=O)Nc1ccc(O)c(C(=O)NCCCCNC(=O)c2ccc(-c3c4nc(c(-c5c(F)c(F)c(F)c(F)c5F)c5ccc([nH]5)c(-c5c(F)c(F)c(F)c(F)c5F)c5nc(c(-c6c(F)c(F)c(F)c(F)c6F)c6ccc3[nH]6)C=C5)C=C4)cc2)c1
REMARK SMILES IDX 17 1 18 2 19 3 16 5 11 6 12 7 90 8 13 9 14 10 10 11 7 13
REMARK SMILES IDX 8 14 9 15 6 16 5 17 4 18 2 19 1 20 3 21 15 22 20 24 21 25
REMARK SMILES IDX 22 26 23 27 24 28 25 29 26 31 27 32 28 33 89 34 29 35 88 36
REMARK SMILES IDX 30 37 31 38 32 39 82 40 33 41 87 42 81 43 83 44 34 45 86 46
REMARK SMILES IDX 80 47 79 48 35 50 67 51 47 52 66 53 48 54 51 55 65 56 84 57
REMARK SMILES IDX 49 58 50 59 64 61 85 62 52 63 36 64 37 65 45 66 38 67 39 68
REMARK SMILES IDX 43 69 46 70 40 71 41 72 44 73 42 74 68 75 69 76 77 77 70 78
REMARK SMILES IDX 71 79 75 80 78 81 72 82 73 83 76 84 74 85 53 86 54 87 62 88
REMARK SMILES IDX 55 89 56 90 60 91 63 92 57 93 58 94 61 95 59 96
REMARK H PARENT 19 4 10 12 15 23 24 30 83 49 51 60
REMARK Flexibility Score: inf
ROOT
ATOM      1  C   UNL A   1      36.299  22.813  23.968  1.00  0.00     0.255 C 
ATOM      2  O   UNL A   1      36.232  23.012  22.752  1.00  0.00    -0.269 OA
ATOM      3  N   UNL A   1      37.402  23.303  24.616  1.00  0.00    -0.352 N 
ATOM      4  H   UNL A   1      38.028  23.799  24.039  1.00  0.00     0.163 HD
ENDROOT
BRANCH   1   5
ATOM      5  C   UNL A   1      35.162  22.109  24.632  1.00  0.00     0.083 A 
ATOM      6  C   UNL A   1      32.809  22.306  25.256  1.00  0.00     0.050 A 
ATOM      7  C   UNL A   1      32.822  20.954  25.523  1.00  0.00     0.030 A 
ATOM      8  C   UNL A   1      33.974  22.877  24.758  1.00  0.00     0.044 A 
ATOM      9  C   UNL A   1      33.956  20.183  25.470  1.00  0.00     0.049 A 
ATOM     10  C   UNL A   1      35.125  20.757  25.013  1.00  0.00     0.128 A 
BRANCH   6  11
ATOM     11  N   UNL A   1      31.556  22.968  25.184  1.00  0.00    -0.283 N 
ATOM     12  H   UNL A   1      31.137  23.062  24.298  1.00  0.00     0.180 HD
BRANCH  11  13
ATOM     13  S   UNL A   1      30.743  23.597  26.501  1.00  0.00     0.235 S 
ATOM     14  O   UNL A   1      31.775  23.870  27.481  1.00  0.00    -0.207 OA
ATOM     15  O   UNL A   1      29.695  22.646  26.816  1.00  0.00    -0.207 OA
BRANCH  13  16
ATOM     16  C   UNL A   1      29.918  25.153  26.101  1.00  0.00     0.188 C 
BRANCH  16  17
ATOM     17  C   UNL A   1      30.821  26.329  25.715  1.00  0.00     0.178 C 
BRANCH  17  18
ATOM     18  O   UNL A   1      31.547  26.076  24.511  1.00  0.00    -0.378 OA
BRANCH  18  19
ATOM     19  C   UNL A   1      32.877  26.591  24.358  1.00  0.00     0.112 C 
ATOM     20  C   UNL A   1      33.652  26.430  25.652  1.00  0.00     0.038 C 
ATOM     21  C   UNL A   1      33.653  26.091  23.144  1.00  0.00     0.038 C 
ENDBRANCH  18  19
ENDBRANCH  17  18
ENDBRANCH  16  17
ENDBRANCH  13  16
ENDBRANCH  11  13
ENDBRANCH   6  11
BRANCH  10  22
ATOM     22  O   UNL A   1      36.157  19.887  24.890  1.00  0.00    -0.507 OA
ATOM     23  H   UNL A   1      37.032  20.171  25.067  1.00  0.00     0.293 HD
ENDBRANCH  10  22
ENDBRANCH   1   5
BRANCH   3  24
ATOM     24  C   UNL A   1      37.804  23.219  26.001  1.00  0.00     0.116 C 
BRANCH  24  25
ATOM     25  C   UNL A   1      39.197  22.589  26.120  1.00  0.00     0.023 C 
BRANCH  25  26
ATOM     26  C   UNL A   1      39.288  21.109  25.799  1.00  0.00     0.023 C 
BRANCH  26  27
ATOM     27  C   UNL A   1      40.043  20.302  26.831  1.00  0.00     0.116 C 
BRANCH  27  28
ATOM     28  N   UNL A   1      40.830  19.208  26.273  1.00  0.00    -0.352 N 
ATOM     29  C   UNL A   1      42.155  19.255  25.912  1.00  0.00     0.251 C 
ATOM     30  H   UNL A   1      40.365  18.349  26.143  1.00  0.00     0.163 HD
ATOM     31  O   UNL A   1      42.724  18.304  25.391  1.00  0.00    -0.269 OA
BRANCH  29  32
ATOM     32  C   UNL A   1      42.853  20.534  26.126  1.00  0.00     0.039 A 
ATOM     33  C   UNL A   1      43.133  21.336  25.020  1.00  0.00     0.014 A 
ATOM     34  C   UNL A   1      43.012  21.009  27.431  1.00  0.00     0.014 A 
ATOM     35  C   UNL A   1      43.500  22.664  25.226  1.00  0.00     0.010 A 
ATOM     36  C   UNL A   1      43.293  22.352  27.627  1.00  0.00     0.010 A 
ATOM     37  C   UNL A   1      43.529  23.192  26.527  1.00  0.00    -0.014 A 
BRANCH  37  38
ATOM     38  C   UNL A   1      43.797  24.628  26.772  1.00  0.00     0.031 A 
ATOM     39  C   UNL A   1      45.189  25.156  26.594  1.00  0.00     0.074 A 
ATOM     40  C   UNL A   1      42.816  25.422  27.243  1.00  0.00     0.049 A 
ATOM     41  N   UNL A   1      45.664  26.344  26.865  1.00  0.00    -0.248 NA
ATOM     42  C   UNL A   1      46.189  24.212  26.070  1.00  0.00     0.031 C 
ATOM     43  C   UNL A   1      41.437  25.003  27.504  1.00  0.00     0.029 A 
ATOM     44  N   UNL A   1      42.834  26.745  27.604  1.00  0.00    -0.354 N 
ATOM     45  C   UNL A   1      47.017  26.281  26.563  1.00  0.00     0.074 A 
ATOM     46  C   UNL A   1      47.300  24.927  26.141  1.00  0.00     0.031 C 
ATOM     47  C   UNL A   1      40.739  26.052  27.969  1.00  0.00     0.029 A 
ATOM     48  C   UNL A   1      41.630  27.204  28.080  1.00  0.00     0.049 A 
ATOM     49  H   UNL A   1      43.635  27.314  27.530  1.00  0.00     0.167 HD
ATOM     50  C   UNL A   1      47.934  27.275  26.609  1.00  0.00     0.037 A 
ATOM     51  C   UNL A   1      41.290  28.413  28.566  1.00  0.00     0.037 A 
ATOM     52  C   UNL A   1      47.635  28.626  27.000  1.00  0.00     0.049 A 
ATOM     53  C   UNL A   1      42.334  29.494  28.628  1.00  0.00     0.074 A 
ATOM     54  C   UNL A   1      48.471  29.727  26.997  1.00  0.00     0.029 A 
ATOM     55  N   UNL A   1      46.402  29.055  27.469  1.00  0.00    -0.354 N 
ATOM     56  N   UNL A   1      43.592  29.451  28.259  1.00  0.00    -0.248 NA
ATOM     57  C   UNL A   1      41.916  30.791  29.177  1.00  0.00     0.031 C 
ATOM     58  C   UNL A   1      47.757  30.814  27.513  1.00  0.00     0.029 A 
ATOM     59  C   UNL A   1      46.465  30.400  27.794  1.00  0.00     0.049 A 
ATOM     60  H   UNL A   1      45.602  28.489  27.557  1.00  0.00     0.167 HD
ATOM     61  C   UNL A   1      44.111  30.712  28.517  1.00  0.00     0.074 A 
ATOM     62  C   UNL A   1      43.026  31.507  29.055  1.00  0.00     0.031 C 
ATOM     63  C   UNL A   1      45.373  31.170  28.331  1.00  0.00     0.037 A 
BRANCH  50  64
ATOM     64  C   UNL A   1      49.342  26.935  26.223  1.00  0.00     0.064 A 
ATOM     65  C   UNL A   1      49.781  27.019  24.893  1.00  0.00     0.173 A 
ATOM     66  C   UNL A   1      50.272  26.548  27.199  1.00  0.00     0.173 A 
ATOM     67  F   UNL A   1      48.926  27.370  23.921  1.00  0.00    -0.203 F 
ATOM     68  C   UNL A   1      51.092  26.702  24.549  1.00  0.00     0.198 A 
ATOM     69  C   UNL A   1      51.591  26.261  26.857  1.00  0.00     0.198 A 
ATOM     70  F   UNL A   1      49.905  26.454  28.486  1.00  0.00    -0.203 F 
ATOM     71  F   UNL A   1      51.475  26.741  23.266  1.00  0.00    -0.200 F 
ATOM     72  C   UNL A   1      51.998  26.331  25.532  1.00  0.00     0.200 A 
ATOM     73  F   UNL A   1      52.468  25.912  27.808  1.00  0.00    -0.200 F 
ATOM     74  F   UNL A   1      53.261  26.031  25.201  1.00  0.00    -0.200 F 
ENDBRANCH  50  64
BRANCH  51  75
ATOM     75  C   UNL A   1      39.900  28.667  29.028  1.00  0.00     0.064 A 
ATOM     76  C   UNL A   1      39.521  28.399  30.351  1.00  0.00     0.173 A 
ATOM     77  C   UNL A   1      38.922  29.175  28.160  1.00  0.00     0.173 A 
ATOM     78  F   UNL A   1      40.414  27.890  31.212  1.00  0.00    -0.203 F 
ATOM     79  C   UNL A   1      38.214  28.615  30.784  1.00  0.00     0.198 A 
ATOM     80  C   UNL A   1      37.622  29.417  28.601  1.00  0.00     0.198 A 
ATOM     81  F   UNL A   1      39.234  29.451  26.885  1.00  0.00    -0.203 F 
ATOM     82  F   UNL A   1      37.869  28.312  32.041  1.00  0.00    -0.200 F 
ATOM     83  C   UNL A   1      37.267  29.130  29.910  1.00  0.00     0.200 A 
ATOM     84  F   UNL A   1      36.715  29.927  27.758  1.00  0.00    -0.200 F 
ATOM     85  F   UNL A   1      36.012  29.343  30.328  1.00  0.00    -0.200 F 
ENDBRANCH  51  75
BRANCH  63  86
ATOM     86  C   UNL A   1      45.650  32.595  28.705  1.00  0.00     0.064 A 
ATOM     87  C   UNL A   1      45.426  33.643  27.800  1.00  0.00     0.173 A 
ATOM     88  C   UNL A   1      46.080  32.921  30.000  1.00  0.00     0.173 A 
ATOM     89  F   UNL A   1      45.031  33.378  26.545  1.00  0.00    -0.203 F 
ATOM     90  C   UNL A   1      45.634  34.967  28.176  1.00  0.00     0.198 A 
ATOM     91  C   UNL A   1      46.259  34.249  30.380  1.00  0.00     0.198 A 
ATOM     92  F   UNL A   1      46.301  31.955  30.903  1.00  0.00    -0.203 F 
ATOM     93  F   UNL A   1      45.447  35.952  27.285  1.00  0.00    -0.200 F 
ATOM     94  C   UNL A   1      46.040  35.268  29.467  1.00  0.00     0.200 A 
ATOM     95  F   UNL A   1      46.638  34.540  31.632  1.00  0.00    -0.200 F 
ATOM     96  F   UNL A   1      46.224  36.545  29.831  1.00  0.00    -0.200 F 
ENDBRANCH  63  86
ENDBRANCH  37  38
ENDBRANCH  29  32
ENDBRANCH  27  28
ENDBRANCH  26  27
ENDBRANCH  25  26
ENDBRANCH  24  25
ENDBRANCH   3  24
TORSDOF 18
ENDMDL
