MODEL 1
REMARK VINA RESULT:     -10.4      0.000      0.000
REMARK SMILES COc1cc(CC(=O)NCCCCNC(=O)c2ccc(-c3c4nc(c(-c5c(F)c(F)c(F)c(F)c5F)c5ccc([nH]5)c(-c5c(F)c(F)c(F)c(F)c5F)c5nc(c(-c6c(F)c(F)c(F)c(F)c6F)c6ccc3[nH]6)C=C5)C=C4)cc2)cc(Br)c1O
REMARK SMILES IDX 11 1 10 2 9 3 7 4 8 5 6 7 5 8 3 9 4 10 83 11 81 12 80 13
REMARK SMILES IDX 82 14 2 15 1 16 84 17 12 19 13 20 14 21 15 22 16 24 17 25
REMARK SMILES IDX 18 26 79 27 19 28 78 29 20 30 21 31 22 32 72 33 23 34 77 35
REMARK SMILES IDX 71 36 73 37 24 38 76 39 70 40 69 41 25 43 57 44 37 45 56 46
REMARK SMILES IDX 38 47 41 48 55 49 74 50 39 51 40 52 54 54 75 55 42 56 26 57
REMARK SMILES IDX 27 58 35 59 28 60 29 61 33 62 36 63 30 64 31 65 34 66 32 67
REMARK SMILES IDX 58 68 59 69 67 70 60 71 61 72 65 73 68 74 62 75 63 76 66 77
REMARK SMILES IDX 64 78 43 79 44 80 52 81 45 82 46 83 50 84 53 85 47 86 48 87
REMARK SMILES IDX 51 88 49 89
REMARK H PARENT 9 6 84 18 14 23 73 42 41 53
REMARK Flexibility Score: inf
ROOT
ATOM      1  C   UNL A   1      45.665  18.914  25.248  1.00  0.00     0.023 C 
ENDROOT
BRANCH   1   2
ATOM      2  C   UNL A   1      46.446  20.171  24.864  1.00  0.00     0.116 C 
BRANCH   2   3
ATOM      3  N   UNL A   1      45.646  21.086  24.077  1.00  0.00    -0.356 N 
ATOM      4  C   UNL A   1      45.513  22.439  24.214  1.00  0.00     0.224 C 
ATOM      5  O   UNL A   1      44.725  23.030  23.474  1.00  0.00    -0.275 OA
ATOM      6  H   UNL A   1      45.128  20.679  23.343  1.00  0.00     0.163 HD
BRANCH   4   7
ATOM      7  C   UNL A   1      46.355  23.184  25.238  1.00  0.00     0.135 C 
BRANCH   7   8
ATOM      8  C   UNL A   1      46.467  24.670  24.987  1.00  0.00    -0.034 A 
ATOM      9  C   UNL A   1      45.479  26.889  25.000  1.00  0.00     0.161 A 
ATOM     10  C   UNL A   1      45.385  25.521  25.265  1.00  0.00     0.054 A 
ATOM     11  C   UNL A   1      46.672  27.434  24.524  1.00  0.00     0.172 A 
ATOM     12  C   UNL A   1      47.753  26.598  24.245  1.00  0.00     0.063 A 
ATOM     13  C   UNL A   1      47.655  25.223  24.481  1.00  0.00     0.024 A 
ATOM     14  Br  UNL A   1      49.383  27.283  23.562  1.00  0.00    -0.047 Br
BRANCH   9  15
ATOM     15  O   UNL A   1      44.389  27.669  25.289  1.00  0.00    -0.493 OA
ATOM     16  C   UNL A   1      43.166  26.933  25.173  1.00  0.00     0.278 C 
ENDBRANCH   9  15
BRANCH  11  17
ATOM     17  O   UNL A   1      46.789  28.789  24.373  1.00  0.00    -0.503 OA
ATOM     18  H   UNL A   1      47.612  29.208  24.528  1.00  0.00     0.293 HD
ENDBRANCH  11  17
ENDBRANCH   7   8
ENDBRANCH   4   7
ENDBRANCH   2   3
ENDBRANCH   1   2
BRANCH   1  19
ATOM     19  C   UNL A   1      44.156  19.000  25.005  1.00  0.00     0.023 C 
BRANCH  19  20
ATOM     20  C   UNL A   1      43.283  18.647  26.204  1.00  0.00     0.116 C 
BRANCH  20  21
ATOM     21  N   UNL A   1      41.860  18.791  25.939  1.00  0.00    -0.352 N 
ATOM     22  C   UNL A   1      41.033  19.852  26.216  1.00  0.00     0.251 C 
ATOM     23  H   UNL A   1      41.430  18.022  25.499  1.00  0.00     0.163 HD
ATOM     24  O   UNL A   1      39.824  19.759  26.027  1.00  0.00    -0.269 OA
BRANCH  22  25
ATOM     25  C   UNL A   1      41.599  21.094  26.781  1.00  0.00     0.039 A 
ATOM     26  C   UNL A   1      42.079  22.073  25.906  1.00  0.00     0.014 A 
ATOM     27  C   UNL A   1      41.641  21.304  28.161  1.00  0.00     0.014 A 
ATOM     28  C   UNL A   1      42.531  23.293  26.413  1.00  0.00     0.010 A 
ATOM     29  C   UNL A   1      42.026  22.545  28.661  1.00  0.00     0.010 A 
ATOM     30  C   UNL A   1      42.471  23.552  27.793  1.00  0.00    -0.014 A 
BRANCH  30  31
ATOM     31  C   UNL A   1      42.859  24.874  28.345  1.00  0.00     0.031 A 
ATOM     32  C   UNL A   1      41.823  25.944  28.543  1.00  0.00     0.074 A 
ATOM     33  C   UNL A   1      44.157  25.137  28.596  1.00  0.00     0.049 A 
ATOM     34  N   UNL A   1      41.976  27.185  28.931  1.00  0.00    -0.248 NA
ATOM     35  C   UNL A   1      40.431  25.577  28.239  1.00  0.00     0.031 C 
ATOM     36  C   UNL A   1      45.263  24.198  28.399  1.00  0.00     0.029 A 
ATOM     37  N   UNL A   1      44.768  26.277  29.057  1.00  0.00    -0.354 N 
ATOM     38  C   UNL A   1      40.708  27.749  28.901  1.00  0.00     0.074 A 
ATOM     39  C   UNL A   1      39.804  26.732  28.410  1.00  0.00     0.031 C 
ATOM     40  C   UNL A   1      46.413  24.793  28.754  1.00  0.00     0.029 A 
ATOM     41  C   UNL A   1      46.132  26.165  29.166  1.00  0.00     0.049 A 
ATOM     42  H   UNL A   1      44.273  27.097  29.288  1.00  0.00     0.167 HD
ATOM     43  C   UNL A   1      40.329  28.995  29.273  1.00  0.00     0.037 A 
ATOM     44  C   UNL A   1      47.053  27.072  29.545  1.00  0.00     0.037 A 
ATOM     45  C   UNL A   1      41.227  29.996  29.785  1.00  0.00     0.049 A 
ATOM     46  C   UNL A   1      46.606  28.451  29.946  1.00  0.00     0.074 A 
ATOM     47  C   UNL A   1      40.931  31.267  30.247  1.00  0.00     0.029 A 
ATOM     48  N   UNL A   1      42.601  29.840  29.901  1.00  0.00    -0.354 N 
ATOM     49  N   UNL A   1      45.396  28.951  29.981  1.00  0.00    -0.248 NA
ATOM     50  C   UNL A   1      47.655  29.391  30.366  1.00  0.00     0.031 C 
ATOM     51  C   UNL A   1      42.130  31.896  30.599  1.00  0.00     0.029 A 
ATOM     52  C   UNL A   1      43.168  30.999  30.405  1.00  0.00     0.049 A 
ATOM     53  H   UNL A   1      43.100  29.026  29.659  1.00  0.00     0.167 HD
ATOM     54  C   UNL A   1      45.532  30.250  30.453  1.00  0.00     0.074 A 
ATOM     55  C   UNL A   1      46.943  30.457  30.703  1.00  0.00     0.031 C 
ATOM     56  C   UNL A   1      44.574  31.187  30.659  1.00  0.00     0.037 A 
BRANCH  43  57
ATOM     57  C   UNL A   1      38.875  29.347  29.141  1.00  0.00     0.064 A 
ATOM     58  C   UNL A   1      38.281  29.559  27.887  1.00  0.00     0.173 A 
ATOM     59  C   UNL A   1      38.058  29.435  30.277  1.00  0.00     0.173 A 
ATOM     60  F   UNL A   1      39.022  29.498  26.770  1.00  0.00    -0.203 F 
ATOM     61  C   UNL A   1      36.930  29.877  27.779  1.00  0.00     0.198 A 
ATOM     62  C   UNL A   1      36.700  29.723  30.163  1.00  0.00     0.198 A 
ATOM     63  F   UNL A   1      38.573  29.235  31.499  1.00  0.00    -0.203 F 
ATOM     64  F   UNL A   1      36.397  30.126  26.574  1.00  0.00    -0.200 F 
ATOM     65  C   UNL A   1      36.139  29.952  28.915  1.00  0.00     0.200 A 
ATOM     66  F   UNL A   1      35.934  29.781  31.261  1.00  0.00    -0.200 F 
ATOM     67  F   UNL A   1      34.838  30.251  28.809  1.00  0.00    -0.200 F 
ENDBRANCH  43  57
BRANCH  44  68
ATOM     68  C   UNL A   1      48.490  26.696  29.587  1.00  0.00     0.064 A 
ATOM     69  C   UNL A   1      49.328  26.937  28.489  1.00  0.00     0.173 A 
ATOM     70  C   UNL A   1      49.055  26.086  30.716  1.00  0.00     0.173 A 
ATOM     71  F   UNL A   1      48.829  27.499  27.377  1.00  0.00    -0.203 F 
ATOM     72  C   UNL A   1      50.669  26.563  28.510  1.00  0.00     0.198 A 
ATOM     73  C   UNL A   1      50.404  25.738  30.747  1.00  0.00     0.198 A 
ATOM     74  F   UNL A   1      48.298  25.838  31.795  1.00  0.00    -0.203 F 
ATOM     75  F   UNL A   1      51.436  26.764  27.429  1.00  0.00    -0.200 F 
ATOM     76  C   UNL A   1      51.208  25.968  29.642  1.00  0.00     0.200 A 
ATOM     77  F   UNL A   1      50.924  25.177  31.847  1.00  0.00    -0.200 F 
ATOM     78  F   UNL A   1      52.500  25.612  29.663  1.00  0.00    -0.200 F 
ENDBRANCH  44  68
BRANCH  56  79
ATOM     79  C   UNL A   1      45.012  32.509  31.217  1.00  0.00     0.064 A 
ATOM     80  C   UNL A   1      45.082  32.740  32.597  1.00  0.00     0.173 A 
ATOM     81  C   UNL A   1      45.410  33.543  30.355  1.00  0.00     0.173 A 
ATOM     82  F   UNL A   1      44.698  31.789  33.462  1.00  0.00    -0.203 F 
ATOM     83  C   UNL A   1      45.512  33.967  33.096  1.00  0.00     0.198 A 
ATOM     84  C   UNL A   1      45.869  34.758  30.858  1.00  0.00     0.198 A 
ATOM     85  F   UNL A   1      45.369  33.370  29.026  1.00  0.00    -0.203 F 
ATOM     86  F   UNL A   1      45.528  34.182  34.419  1.00  0.00    -0.200 F 
ATOM     87  C   UNL A   1      45.912  34.972  32.227  1.00  0.00     0.200 A 
ATOM     88  F   UNL A   1      46.267  35.722  30.016  1.00  0.00    -0.200 F 
ATOM     89  F   UNL A   1      46.335  36.148  32.709  1.00  0.00    -0.200 F 
ENDBRANCH  56  79
ENDBRANCH  30  31
ENDBRANCH  22  25
ENDBRANCH  20  21
ENDBRANCH  19  20
ENDBRANCH   1  19
TORSDOF 14
ENDMDL
MODEL 2
REMARK VINA RESULT:     -10.2      0.556      7.622
REMARK SMILES COc1cc(CC(=O)NCCCCNC(=O)c2ccc(-c3c4nc(c(-c5c(F)c(F)c(F)c(F)c5F)c5ccc([nH]5)c(-c5c(F)c(F)c(F)c(F)c5F)c5nc(c(-c6c(F)c(F)c(F)c(F)c6F)c6ccc3[nH]6)C=C5)C=C4)cc2)cc(Br)c1O
REMARK SMILES IDX 11 1 10 2 9 3 7 4 8 5 6 7 5 8 3 9 4 10 83 11 81 12 80 13
REMARK SMILES IDX 82 14 2 15 1 16 84 17 12 19 13 20 14 21 15 22 16 24 17 25
REMARK SMILES IDX 18 26 79 27 19 28 78 29 20 30 21 31 22 32 72 33 23 34 77 35
REMARK SMILES IDX 71 36 73 37 24 38 76 39 70 40 69 41 25 43 57 44 37 45 56 46
REMARK SMILES IDX 38 47 41 48 55 49 74 50 39 51 40 52 54 54 75 55 42 56 26 57
REMARK SMILES IDX 27 58 35 59 28 60 29 61 33 62 36 63 30 64 31 65 34 66 32 67
REMARK SMILES IDX 58 68 59 69 67 70 60 71 61 72 65 73 68 74 62 75 63 76 66 77
REMARK SMILES IDX 64 78 43 79 44 80 52 81 45 82 46 83 50 84 53 85 47 86 48 87
REMARK SMILES IDX 51 88 49 89
REMARK H PARENT 9 6 84 18 14 23 73 42 41 53
REMARK Flexibility Score: inf
ROOT
ATOM      1  C   UNL A   1      45.712  18.812  25.024  1.00  0.00     0.023 C 
ENDROOT
BRANCH   1   2
ATOM      2  C   UNL A   1      46.230  20.245  25.156  1.00  0.00     0.116 C 
BRANCH   2   3
ATOM      3  N   UNL A   1      45.620  21.132  24.186  1.00  0.00    -0.356 N 
ATOM      4  C   UNL A   1      45.486  22.490  24.238  1.00  0.00     0.224 C 
ATOM      5  O   UNL A   1      44.872  23.055  23.332  1.00  0.00    -0.275 OA
ATOM      6  H   UNL A   1      45.253  20.698  23.381  1.00  0.00     0.163 HD
BRANCH   4   7
ATOM      7  C   UNL A   1      46.118  23.272  25.380  1.00  0.00     0.135 C 
BRANCH   7   8
ATOM      8  C   UNL A   1      46.283  24.749  25.105  1.00  0.00    -0.034 A 
ATOM      9  C   UNL A   1      45.359  26.993  25.031  1.00  0.00     0.161 A 
ATOM     10  C   UNL A   1      45.215  25.635  25.318  1.00  0.00     0.054 A 
ATOM     11  C   UNL A   1      46.587  27.495  24.597  1.00  0.00     0.172 A 
ATOM     12  C   UNL A   1      47.655  26.624  24.382  1.00  0.00     0.063 A 
ATOM     13  C   UNL A   1      47.507  25.258  24.641  1.00  0.00     0.024 A 
ATOM     14  Br  UNL A   1      49.332  27.249  23.759  1.00  0.00    -0.047 Br
BRANCH   9  15
ATOM     15  O   UNL A   1      44.280  27.810  25.255  1.00  0.00    -0.493 OA
ATOM     16  C   UNL A   1      43.046  27.087  25.178  1.00  0.00     0.278 C 
ENDBRANCH   9  15
BRANCH  11  17
ATOM     17  O   UNL A   1      46.749  28.844  24.425  1.00  0.00    -0.503 OA
ATOM     18  H   UNL A   1      46.752  29.413  25.168  1.00  0.00     0.293 HD
ENDBRANCH  11  17
ENDBRANCH   7   8
ENDBRANCH   4   7
ENDBRANCH   2   3
ENDBRANCH   1   2
BRANCH   1  19
ATOM     19  C   UNL A   1      44.198  18.694  24.834  1.00  0.00     0.023 C 
BRANCH  19  20
ATOM     20  C   UNL A   1      43.377  18.728  26.118  1.00  0.00     0.116 C 
BRANCH  20  21
ATOM     21  N   UNL A   1      41.943  18.794  25.880  1.00  0.00    -0.352 N 
ATOM     22  C   UNL A   1      41.063  19.805  26.178  1.00  0.00     0.251 C 
ATOM     23  H   UNL A   1      41.550  18.003  25.443  1.00  0.00     0.163 HD
ATOM     24  O   UNL A   1      39.858  19.644  26.010  1.00  0.00    -0.269 OA
BRANCH  22  25
ATOM     25  C   UNL A   1      41.569  21.074  26.739  1.00  0.00     0.039 A 
ATOM     26  C   UNL A   1      42.063  22.046  25.865  1.00  0.00     0.014 A 
ATOM     27  C   UNL A   1      41.539  21.315  28.115  1.00  0.00     0.014 A 
ATOM     28  C   UNL A   1      42.458  23.289  26.364  1.00  0.00     0.010 A 
ATOM     29  C   UNL A   1      41.867  22.577  28.603  1.00  0.00     0.010 A 
ATOM     30  C   UNL A   1      42.326  23.577  27.733  1.00  0.00    -0.014 A 
BRANCH  30  31
ATOM     31  C   UNL A   1      42.652  24.921  28.272  1.00  0.00     0.031 A 
ATOM     32  C   UNL A   1      44.047  25.232  28.735  1.00  0.00     0.074 A 
ATOM     33  C   UNL A   1      41.673  25.837  28.415  1.00  0.00     0.049 A 
ATOM     34  N   UNL A   1      44.508  26.313  29.312  1.00  0.00    -0.248 NA
ATOM     35  C   UNL A   1      45.053  24.175  28.550  1.00  0.00     0.031 C 
ATOM     36  C   UNL A   1      40.270  25.640  28.047  1.00  0.00     0.029 A 
ATOM     37  N   UNL A   1      41.707  27.112  28.922  1.00  0.00    -0.354 N 
ATOM     38  C   UNL A   1      45.848  26.061  29.572  1.00  0.00     0.074 A 
ATOM     39  C   UNL A   1      46.116  24.707  29.137  1.00  0.00     0.031 C 
ATOM     40  C   UNL A   1      39.582  26.759  28.322  1.00  0.00     0.029 A 
ATOM     41  C   UNL A   1      40.485  27.738  28.921  1.00  0.00     0.049 A 
ATOM     42  H   UNL A   1      42.531  27.539  29.253  1.00  0.00     0.167 HD
ATOM     43  C   UNL A   1      46.775  26.891  30.104  1.00  0.00     0.037 A 
ATOM     44  C   UNL A   1      40.130  28.959  29.365  1.00  0.00     0.037 A 
ATOM     45  C   UNL A   1      46.512  28.246  30.512  1.00  0.00     0.049 A 
ATOM     46  C   UNL A   1      41.180  29.859  29.959  1.00  0.00     0.074 A 
ATOM     47  C   UNL A   1      47.399  29.188  31.004  1.00  0.00     0.029 A 
ATOM     48  N   UNL A   1      45.264  28.852  30.478  1.00  0.00    -0.354 N 
ATOM     49  N   UNL A   1      42.458  29.636  30.134  1.00  0.00    -0.248 NA
ATOM     50  C   UNL A   1      40.735  31.186  30.409  1.00  0.00     0.031 C 
ATOM     51  C   UNL A   1      46.680  30.348  31.312  1.00  0.00     0.029 A 
ATOM     52  C   UNL A   1      45.354  30.147  30.962  1.00  0.00     0.049 A 
ATOM     53  H   UNL A   1      44.437  28.425  30.158  1.00  0.00     0.167 HD
ATOM     54  C   UNL A   1      42.977  30.798  30.688  1.00  0.00     0.074 A 
ATOM     55  C   UNL A   1      41.876  31.731  30.806  1.00  0.00     0.031 C 
ATOM     56  C   UNL A   1      44.251  31.068  31.064  1.00  0.00     0.037 A 
BRANCH  43  57
ATOM     57  C   UNL A   1      48.169  26.358  30.273  1.00  0.00     0.064 A 
ATOM     58  C   UNL A   1      49.126  26.466  29.252  1.00  0.00     0.173 A 
ATOM     59  C   UNL A   1      48.564  25.767  31.482  1.00  0.00     0.173 A 
ATOM     60  F   UNL A   1      48.796  27.013  28.073  1.00  0.00    -0.203 F 
ATOM     61  C   UNL A   1      50.418  25.974  29.425  1.00  0.00     0.198 A 
ATOM     62  C   UNL A   1      49.865  25.304  31.663  1.00  0.00     0.198 A 
ATOM     63  F   UNL A   1      47.690  25.644  32.493  1.00  0.00    -0.203 F 
ATOM     64  F   UNL A   1      51.299  26.043  28.418  1.00  0.00    -0.200 F 
ATOM     65  C   UNL A   1      50.788  25.400  30.632  1.00  0.00     0.200 A 
ATOM     66  F   UNL A   1      50.225  24.762  32.834  1.00  0.00    -0.200 F 
ATOM     67  F   UNL A   1      52.033  24.935  30.800  1.00  0.00    -0.200 F 
ENDBRANCH  43  57
BRANCH  44  68
ATOM     68  C   UNL A   1      38.720  29.412  29.244  1.00  0.00     0.064 A 
ATOM     69  C   UNL A   1      37.906  29.542  30.378  1.00  0.00     0.173 A 
ATOM     70  C   UNL A   1      38.155  29.718  27.997  1.00  0.00     0.173 A 
ATOM     71  F   UNL A   1      38.396  29.240  31.590  1.00  0.00    -0.203 F 
ATOM     72  C   UNL A   1      36.576  29.939  30.269  1.00  0.00     0.198 A 
ATOM     73  C   UNL A   1      36.831  30.143  27.892  1.00  0.00     0.198 A 
ATOM     74  F   UNL A   1      38.892  29.614  26.882  1.00  0.00    -0.203 F 
ATOM     75  F   UNL A   1      35.809  30.010  31.365  1.00  0.00    -0.200 F 
ATOM     76  C   UNL A   1      36.041  30.245  29.026  1.00  0.00     0.200 A 
ATOM     77  F   UNL A   1      36.323  30.451  26.692  1.00  0.00    -0.200 F 
ATOM     78  F   UNL A   1      34.762  30.631  28.922  1.00  0.00    -0.200 F 
ENDBRANCH  44  68
BRANCH  56  79
ATOM     79  C   UNL A   1      44.534  32.439  31.605  1.00  0.00     0.064 A 
ATOM     80  C   UNL A   1      44.911  33.499  30.768  1.00  0.00     0.173 A 
ATOM     81  C   UNL A   1      44.381  32.705  32.975  1.00  0.00     0.173 A 
ATOM     82  F   UNL A   1      45.087  33.292  29.454  1.00  0.00    -0.203 F 
ATOM     83  C   UNL A   1      45.148  34.769  31.286  1.00  0.00     0.198 A 
ATOM     84  C   UNL A   1      44.589  33.984  33.484  1.00  0.00     0.198 A 
ATOM     85  F   UNL A   1      44.014  31.727  33.817  1.00  0.00    -0.203 F 
ATOM     86  F   UNL A   1      45.553  35.757  30.475  1.00  0.00    -0.200 F 
ATOM     87  C   UNL A   1      44.980  35.012  32.642  1.00  0.00     0.200 A 
ATOM     88  F   UNL A   1      44.412  34.219  34.792  1.00  0.00    -0.200 F 
ATOM     89  F   UNL A   1      45.199  36.238  33.136  1.00  0.00    -0.200 F 
ENDBRANCH  56  79
ENDBRANCH  30  31
ENDBRANCH  22  25
ENDBRANCH  20  21
ENDBRANCH  19  20
ENDBRANCH   1  19
TORSDOF 14
ENDMDL
MODEL 3
REMARK VINA RESULT:     -10.1      5.950     11.081
REMARK SMILES COc1cc(CC(=O)NCCCCNC(=O)c2ccc(-c3c4nc(c(-c5c(F)c(F)c(F)c(F)c5F)c5ccc([nH]5)c(-c5c(F)c(F)c(F)c(F)c5F)c5nc(c(-c6c(F)c(F)c(F)c(F)c6F)c6ccc3[nH]6)C=C5)C=C4)cc2)cc(Br)c1O
REMARK SMILES IDX 11 1 10 2 9 3 7 4 8 5 6 7 5 8 3 9 4 10 83 11 81 12 80 13
REMARK SMILES IDX 82 14 2 15 1 16 84 17 12 19 13 20 14 21 15 22 16 24 17 25
REMARK SMILES IDX 18 26 79 27 19 28 78 29 20 30 21 31 22 32 72 33 23 34 77 35
REMARK SMILES IDX 71 36 73 37 24 38 76 39 70 40 69 41 25 43 57 44 37 45 56 46
REMARK SMILES IDX 38 47 41 48 55 49 74 50 39 51 40 52 54 54 75 55 42 56 26 57
REMARK SMILES IDX 27 58 35 59 28 60 29 61 33 62 36 63 30 64 31 65 34 66 32 67
REMARK SMILES IDX 58 68 59 69 67 70 60 71 61 72 65 73 68 74 62 75 63 76 66 77
REMARK SMILES IDX 64 78 43 79 44 80 52 81 45 82 46 83 50 84 53 85 47 86 48 87
REMARK SMILES IDX 51 88 49 89
REMARK H PARENT 9 6 84 18 14 23 73 42 41 53
REMARK Flexibility Score: inf
ROOT
ATOM      1  C   UNL A   1      31.607  30.819  26.123  1.00  0.00     0.023 C 
ENDROOT
BRANCH   1   2
ATOM      2  C   UNL A   1      32.330  29.887  27.096  1.00  0.00     0.116 C 
BRANCH   2   3
ATOM      3  N   UNL A   1      31.693  28.589  27.177  1.00  0.00    -0.356 N 
ATOM      4  C   UNL A   1      32.180  27.374  26.789  1.00  0.00     0.224 C 
ATOM      5  O   UNL A   1      31.447  26.388  26.885  1.00  0.00    -0.275 OA
ATOM      6  H   UNL A   1      30.787  28.581  27.565  1.00  0.00     0.163 HD
BRANCH   4   7
ATOM      7  C   UNL A   1      33.611  27.256  26.285  1.00  0.00     0.135 C 
BRANCH   7   8
ATOM      8  C   UNL A   1      33.805  26.216  25.205  1.00  0.00    -0.034 A 
ATOM      9  C   UNL A   1      34.754  24.110  24.456  1.00  0.00     0.161 A 
ATOM     10  C   UNL A   1      34.548  25.053  25.464  1.00  0.00     0.054 A 
ATOM     11  C   UNL A   1      34.165  24.279  23.202  1.00  0.00     0.172 A 
ATOM     12  C   UNL A   1      33.424  25.430  22.934  1.00  0.00     0.063 A 
ATOM     13  C   UNL A   1      33.238  26.391  23.932  1.00  0.00     0.024 A 
ATOM     14  Br  UNL A   1      32.633  25.725  21.237  1.00  0.00    -0.047 Br
BRANCH   9  15
ATOM     15  O   UNL A   1      35.491  22.996  24.767  1.00  0.00    -0.493 OA
ATOM     16  C   UNL A   1      36.503  23.286  25.739  1.00  0.00     0.278 C 
ENDBRANCH   9  15
BRANCH  11  17
ATOM     17  O   UNL A   1      34.281  23.295  22.257  1.00  0.00    -0.503 OA
ATOM     18  H   UNL A   1      35.114  22.901  22.092  1.00  0.00     0.293 HD
ENDBRANCH  11  17
ENDBRANCH   7   8
ENDBRANCH   4   7
ENDBRANCH   2   3
ENDBRANCH   1   2
BRANCH   1  19
ATOM     19  C   UNL A   1      31.381  32.240  26.645  1.00  0.00     0.023 C 
BRANCH  19  20
ATOM     20  C   UNL A   1      32.616  32.926  27.219  1.00  0.00     0.116 C 
BRANCH  20  21
ATOM     21  N   UNL A   1      32.362  34.289  27.659  1.00  0.00    -0.352 N 
ATOM     22  C   UNL A   1      32.984  35.006  28.651  1.00  0.00     0.251 C 
ATOM     23  H   UNL A   1      31.645  34.763  27.177  1.00  0.00     0.163 HD
ATOM     24  O   UNL A   1      32.562  36.114  28.969  1.00  0.00    -0.269 OA
BRANCH  22  25
ATOM     25  C   UNL A   1      34.139  34.422  29.362  1.00  0.00     0.039 A 
ATOM     26  C   UNL A   1      33.913  33.713  30.545  1.00  0.00     0.014 A 
ATOM     27  C   UNL A   1      35.435  34.553  28.858  1.00  0.00     0.014 A 
ATOM     28  C   UNL A   1      34.977  33.073  31.183  1.00  0.00     0.010 A 
ATOM     29  C   UNL A   1      36.483  33.858  29.456  1.00  0.00     0.010 A 
ATOM     30  C   UNL A   1      36.264  33.109  30.621  1.00  0.00    -0.014 A 
BRANCH  30  31
ATOM     31  C   UNL A   1      37.391  32.360  31.231  1.00  0.00     0.031 A 
ATOM     32  C   UNL A   1      37.902  32.738  32.592  1.00  0.00     0.074 A 
ATOM     33  C   UNL A   1      38.004  31.388  30.526  1.00  0.00     0.049 A 
ATOM     34  N   UNL A   1      38.927  32.263  33.255  1.00  0.00    -0.248 NA
ATOM     35  C   UNL A   1      37.181  33.813  33.290  1.00  0.00     0.031 C 
ATOM     36  C   UNL A   1      37.633  30.960  29.176  1.00  0.00     0.029 A 
ATOM     37  N   UNL A   1      39.079  30.594  30.841  1.00  0.00    -0.354 N 
ATOM     38  C   UNL A   1      38.983  32.991  34.436  1.00  0.00     0.074 A 
ATOM     39  C   UNL A   1      37.921  33.972  34.379  1.00  0.00     0.031 C 
ATOM     40  C   UNL A   1      38.453  29.971  28.787  1.00  0.00     0.029 A 
ATOM     41  C   UNL A   1      39.431  29.721  29.842  1.00  0.00     0.049 A 
ATOM     42  H   UNL A   1      39.552  30.646  31.704  1.00  0.00     0.167 HD
ATOM     43  C   UNL A   1      39.827  32.837  35.483  1.00  0.00     0.037 A 
ATOM     44  C   UNL A   1      40.436  28.827  29.779  1.00  0.00     0.037 A 
ATOM     45  C   UNL A   1      40.866  31.843  35.547  1.00  0.00     0.049 A 
ATOM     46  C   UNL A   1      41.366  28.682  30.954  1.00  0.00     0.074 A 
ATOM     47  C   UNL A   1      41.733  31.567  36.590  1.00  0.00     0.029 A 
ATOM     48  N   UNL A   1      41.180  30.961  34.523  1.00  0.00    -0.354 N 
ATOM     49  N   UNL A   1      41.365  29.326  32.094  1.00  0.00    -0.248 NA
ATOM     50  C   UNL A   1      42.433  27.678  30.833  1.00  0.00     0.031 C 
ATOM     51  C   UNL A   1      42.602  30.550  36.179  1.00  0.00     0.029 A 
ATOM     52  C   UNL A   1      42.242  30.156  34.900  1.00  0.00     0.049 A 
ATOM     53  H   UNL A   1      40.716  30.915  33.655  1.00  0.00     0.167 HD
ATOM     54  C   UNL A   1      42.408  28.790  32.837  1.00  0.00     0.074 A 
ATOM     55  C   UNL A   1      43.012  27.756  32.023  1.00  0.00     0.031 C 
ATOM     56  C   UNL A   1      42.827  29.124  34.083  1.00  0.00     0.037 A 
BRANCH  43  57
ATOM     57  C   UNL A   1      39.662  33.767  36.650  1.00  0.00     0.064 A 
ATOM     58  C   UNL A   1      38.870  33.423  37.757  1.00  0.00     0.173 A 
ATOM     59  C   UNL A   1      40.332  34.998  36.681  1.00  0.00     0.173 A 
ATOM     60  F   UNL A   1      38.199  32.262  37.772  1.00  0.00    -0.203 F 
ATOM     61  C   UNL A   1      38.732  34.292  38.837  1.00  0.00     0.198 A 
ATOM     62  C   UNL A   1      40.217  35.851  37.776  1.00  0.00     0.198 A 
ATOM     63  F   UNL A   1      41.107  35.374  35.651  1.00  0.00    -0.203 F 
ATOM     64  F   UNL A   1      37.930  33.964  39.859  1.00  0.00    -0.200 F 
ATOM     65  C   UNL A   1      39.411  35.502  38.849  1.00  0.00     0.200 A 
ATOM     66  F   UNL A   1      40.884  37.013  37.792  1.00  0.00    -0.200 F 
ATOM     67  F   UNL A   1      39.283  36.333  39.891  1.00  0.00    -0.200 F 
ENDBRANCH  43  57
BRANCH  44  68
ATOM     68  C   UNL A   1      40.603  27.981  28.569  1.00  0.00     0.064 A 
ATOM     69  C   UNL A   1      41.377  28.421  27.485  1.00  0.00     0.173 A 
ATOM     70  C   UNL A   1      39.993  26.723  28.465  1.00  0.00     0.173 A 
ATOM     71  F   UNL A   1      41.963  29.628  27.529  1.00  0.00    -0.203 F 
ATOM     72  C   UNL A   1      41.515  27.647  26.336  1.00  0.00     0.198 A 
ATOM     73  C   UNL A   1      40.155  25.936  27.326  1.00  0.00     0.198 A 
ATOM     74  F   UNL A   1      39.246  26.253  29.475  1.00  0.00    -0.203 F 
ATOM     75  F   UNL A   1      42.222  28.113  25.298  1.00  0.00    -0.200 F 
ATOM     76  C   UNL A   1      40.909  26.401  26.260  1.00  0.00     0.200 A 
ATOM     77  F   UNL A   1      39.579  24.728  27.262  1.00  0.00    -0.200 F 
ATOM     78  F   UNL A   1      41.045  25.654  25.156  1.00  0.00    -0.200 F 
ENDBRANCH  44  68
BRANCH  56  79
ATOM     79  C   UNL A   1      43.970  28.341  34.657  1.00  0.00     0.064 A 
ATOM     80  C   UNL A   1      45.298  28.773  34.529  1.00  0.00     0.173 A 
ATOM     81  C   UNL A   1      43.729  27.165  35.384  1.00  0.00     0.173 A 
ATOM     82  F   UNL A   1      45.583  29.883  33.830  1.00  0.00    -0.203 F 
ATOM     83  C   UNL A   1      46.345  28.045  35.088  1.00  0.00     0.198 A 
ATOM     84  C   UNL A   1      44.775  26.456  35.968  1.00  0.00     0.198 A 
ATOM     85  F   UNL A   1      42.475  26.713  35.542  1.00  0.00    -0.203 F 
ATOM     86  F   UNL A   1      47.610  28.451  34.915  1.00  0.00    -0.200 F 
ATOM     87  C   UNL A   1      46.081  26.891  35.814  1.00  0.00     0.200 A 
ATOM     88  F   UNL A   1      44.517  25.349  36.680  1.00  0.00    -0.200 F 
ATOM     89  F   UNL A   1      47.089  26.197  36.359  1.00  0.00    -0.200 F 
ENDBRANCH  56  79
ENDBRANCH  30  31
ENDBRANCH  22  25
ENDBRANCH  20  21
ENDBRANCH  19  20
ENDBRANCH   1  19
TORSDOF 14
ENDMDL
