MODEL 1
REMARK VINA RESULT:     -12.3      0.000      0.000
REMARK SMILES Cc1nnc(SCc2ccc(C(=O)NCCCCNC(=O)c3ccc(-c4c5nc(c(-c6c(F)c(F)c(F)c(F)c6F)c6ccc([nH]6)c(-c6c(F)c(F)c(F)c(F)c6F)c6nc(c(-c7c(F)c(F)c(F)c(F)c7F)c7ccc4[nH]7)C=C6)C=C5)cc3)cc2)o1
REMARK SMILES IDX 16 1 15 2 14 3 12 4 13 5 11 7 8 8 9 9 86 10 10 11 85 12 7 13
REMARK SMILES IDX 6 14 5 15 1 16 2 17 3 18 87 19 4 20 17 21 18 22 19 23 20 24
REMARK SMILES IDX 21 26 22 27 23 28 84 29 24 30 83 31 25 32 26 33 27 34 77 35
REMARK SMILES IDX 28 36 82 37 76 38 78 39 29 40 81 41 75 42 74 43 30 45 62 46
REMARK SMILES IDX 42 47 61 48 43 49 46 50 60 51 79 52 44 53 45 54 59 56 80 57
REMARK SMILES IDX 47 58 31 59 32 60 40 61 33 62 34 63 38 64 41 65 35 66 36 67
REMARK SMILES IDX 39 68 37 69 63 70 64 71 72 72 65 73 66 74 70 75 73 76 67 77
REMARK SMILES IDX 68 78 71 79 69 80 48 81 49 82 57 83 50 84 51 85 55 86 58 87
REMARK SMILES IDX 52 88 53 89 56 90 54 91
REMARK H PARENT 14 6 19 25 78 44 46 55
REMARK Flexibility Score: inf
ROOT
ATOM      1  C   UNL A   1      31.885  30.331  26.691  1.00  0.00     0.023 C 
ENDROOT
BRANCH   1   2
ATOM      2  C   UNL A   1      31.553  29.599  25.386  1.00  0.00     0.116 C 
BRANCH   2   3
ATOM      3  N   UNL A   1      32.685  29.605  24.485  1.00  0.00    -0.352 N 
ATOM      4  C   UNL A   1      33.414  28.591  23.915  1.00  0.00     0.251 C 
ATOM      5  O   UNL A   1      34.304  28.920  23.128  1.00  0.00    -0.269 OA
ATOM      6  H   UNL A   1      32.990  30.507  24.232  1.00  0.00     0.163 HD
BRANCH   4   7
ATOM      7  C   UNL A   1      33.175  27.138  24.175  1.00  0.00     0.039 A 
ATOM      8  C   UNL A   1      32.772  24.406  24.875  1.00  0.00    -0.037 A 
ATOM      9  C   UNL A   1      33.762  25.179  25.503  1.00  0.00     0.005 A 
ATOM     10  C   UNL A   1      32.028  25.013  23.862  1.00  0.00     0.005 A 
ATOM     11  C   UNL A   1      33.966  26.521  25.152  1.00  0.00     0.014 A 
ATOM     12  C   UNL A   1      32.193  26.367  23.556  1.00  0.00     0.014 A 
BRANCH   8  13
ATOM     13  C   UNL A   1      32.548  22.989  25.365  1.00  0.00     0.115 C 
BRANCH  13  14
ATOM     14  S   UNL A   1      33.987  21.950  25.734  1.00  0.00    -0.061 SA
BRANCH  14  15
ATOM     15  C   UNL A   1      33.450  20.386  25.199  1.00  0.00     0.276 A 
ATOM     16  C   UNL A   1      34.065  17.289  23.629  1.00  0.00     0.113 C 
ATOM     17  C   UNL A   1      33.466  18.466  24.280  1.00  0.00     0.214 A 
ATOM     18  N   UNL A   1      32.207  18.735  24.544  1.00  0.00    -0.112 NA
ATOM     19  O   UNL A   1      34.317  19.462  24.671  1.00  0.00    -0.416 OA
ATOM     20  N   UNL A   1      32.198  19.976  25.151  1.00  0.00    -0.101 NA
ENDBRANCH  14  15
ENDBRANCH  13  14
ENDBRANCH   8  13
ENDBRANCH   4   7
ENDBRANCH   2   3
ENDBRANCH   1   2
BRANCH   1  21
ATOM     21  C   UNL A   1      31.702  31.848  26.627  1.00  0.00     0.023 C 
BRANCH  21  22
ATOM     22  C   UNL A   1      32.809  32.647  27.301  1.00  0.00     0.116 C 
BRANCH  22  23
ATOM     23  N   UNL A   1      32.429  34.017  27.612  1.00  0.00    -0.352 N 
ATOM     24  C   UNL A   1      32.987  34.862  28.543  1.00  0.00     0.251 C 
ATOM     25  H   UNL A   1      31.679  34.385  27.091  1.00  0.00     0.163 HD
ATOM     26  O   UNL A   1      32.497  35.960  28.765  1.00  0.00    -0.269 OA
BRANCH  24  27
ATOM     27  C   UNL A   1      34.161  34.398  29.311  1.00  0.00     0.039 A 
ATOM     28  C   UNL A   1      33.950  33.730  30.517  1.00  0.00     0.014 A 
ATOM     29  C   UNL A   1      35.454  34.580  28.814  1.00  0.00     0.014 A 
ATOM     30  C   UNL A   1      35.038  33.181  31.197  1.00  0.00     0.010 A 
ATOM     31  C   UNL A   1      36.527  33.971  29.453  1.00  0.00     0.010 A 
ATOM     32  C   UNL A   1      36.328  33.267  30.650  1.00  0.00    -0.014 A 
BRANCH  32  33
ATOM     33  C   UNL A   1      37.485  32.619  31.315  1.00  0.00     0.031 A 
ATOM     34  C   UNL A   1      38.179  31.461  30.658  1.00  0.00     0.074 A 
ATOM     35  C   UNL A   1      37.850  33.019  32.547  1.00  0.00     0.049 A 
ATOM     36  N   UNL A   1      39.165  30.726  31.105  1.00  0.00    -0.248 NA
ATOM     37  C   UNL A   1      37.676  31.053  29.338  1.00  0.00     0.031 C 
ATOM     38  C   UNL A   1      37.201  34.080  33.318  1.00  0.00     0.029 A 
ATOM     39  N   UNL A   1      38.845  32.566  33.376  1.00  0.00    -0.354 N 
ATOM     40  C   UNL A   1      39.382  29.758  30.136  1.00  0.00     0.074 A 
ATOM     41  C   UNL A   1      38.394  29.966  29.100  1.00  0.00     0.031 C 
ATOM     42  C   UNL A   1      37.822  34.205  34.502  1.00  0.00     0.029 A 
ATOM     43  C   UNL A   1      38.893  33.217  34.584  1.00  0.00     0.049 A 
ATOM     44  H   UNL A   1      39.467  31.844  33.128  1.00  0.00     0.167 HD
ATOM     45  C   UNL A   1      40.335  28.795  30.102  1.00  0.00     0.037 A 
ATOM     46  C   UNL A   1      39.706  33.032  35.641  1.00  0.00     0.037 A 
ATOM     47  C   UNL A   1      41.338  28.618  31.119  1.00  0.00     0.049 A 
ATOM     48  C   UNL A   1      40.784  31.987  35.563  1.00  0.00     0.074 A 
ATOM     49  C   UNL A   1      42.409  27.743  31.131  1.00  0.00     0.029 A 
ATOM     50  N   UNL A   1      41.387  29.328  32.310  1.00  0.00    -0.354 N 
ATOM     51  N   UNL A   1      41.048  31.143  34.596  1.00  0.00    -0.248 NA
ATOM     52  C   UNL A   1      41.685  31.877  36.718  1.00  0.00     0.031 C 
ATOM     53  C   UNL A   1      43.080  27.890  32.350  1.00  0.00     0.029 A 
ATOM     54  C   UNL A   1      42.455  28.891  33.078  1.00  0.00     0.049 A 
ATOM     55  H   UNL A   1      40.757  30.038  32.571  1.00  0.00     0.167 HD
ATOM     56  C   UNL A   1      42.152  30.414  35.015  1.00  0.00     0.074 A 
ATOM     57  C   UNL A   1      42.522  30.929  36.317  1.00  0.00     0.031 C 
ATOM     58  C   UNL A   1      42.803  29.410  34.377  1.00  0.00     0.037 A 
BRANCH  45  59
ATOM     59  C   UNL A   1      40.332  27.861  28.928  1.00  0.00     0.064 A 
ATOM     60  C   UNL A   1      41.044  28.149  27.752  1.00  0.00     0.173 A 
ATOM     61  C   UNL A   1      39.616  26.656  28.981  1.00  0.00     0.173 A 
ATOM     62  F   UNL A   1      41.735  29.294  27.645  1.00  0.00    -0.203 F 
ATOM     63  C   UNL A   1      41.007  27.283  26.662  1.00  0.00     0.198 A 
ATOM     64  C   UNL A   1      39.608  25.778  27.901  1.00  0.00     0.198 A 
ATOM     65  F   UNL A   1      38.923  26.329  30.083  1.00  0.00    -0.203 F 
ATOM     66  F   UNL A   1      41.645  27.608  25.529  1.00  0.00    -0.200 F 
ATOM     67  C   UNL A   1      40.293  26.097  26.739  1.00  0.00     0.200 A 
ATOM     68  F   UNL A   1      38.926  24.626  27.980  1.00  0.00    -0.200 F 
ATOM     69  F   UNL A   1      40.258  25.266  25.688  1.00  0.00    -0.200 F 
ENDBRANCH  45  59
BRANCH  46  70
ATOM     70  C   UNL A   1      39.543  33.883  36.846  1.00  0.00     0.064 A 
ATOM     71  C   UNL A   1      40.109  35.164  36.907  1.00  0.00     0.173 A 
ATOM     72  C   UNL A   1      38.795  33.446  37.949  1.00  0.00     0.173 A 
ATOM     73  F   UNL A   1      40.847  35.618  35.883  1.00  0.00    -0.203 F 
ATOM     74  C   UNL A   1      39.940  35.972  38.029  1.00  0.00     0.198 A 
ATOM     75  C   UNL A   1      38.608  34.265  39.060  1.00  0.00     0.198 A 
ATOM     76  F   UNL A   1      38.227  32.231  37.936  1.00  0.00    -0.203 F 
ATOM     77  F   UNL A   1      40.517  37.181  38.073  1.00  0.00    -0.200 F 
ATOM     78  C   UNL A   1      39.184  35.525  39.101  1.00  0.00     0.200 A 
ATOM     79  F   UNL A   1      37.862  33.835  40.088  1.00  0.00    -0.200 F 
ATOM     80  F   UNL A   1      39.012  36.308  40.176  1.00  0.00    -0.200 F 
ENDBRANCH  46  70
BRANCH  58  81
ATOM     81  C   UNL A   1      43.989  28.810  35.072  1.00  0.00     0.064 A 
ATOM     82  C   UNL A   1      45.280  29.333  34.903  1.00  0.00     0.173 A 
ATOM     83  C   UNL A   1      43.827  27.729  35.950  1.00  0.00     0.173 A 
ATOM     84  F   UNL A   1      45.488  30.357  34.061  1.00  0.00    -0.203 F 
ATOM     85  C   UNL A   1      46.368  28.782  35.574  1.00  0.00     0.198 A 
ATOM     86  C   UNL A   1      44.913  27.197  36.640  1.00  0.00     0.198 A 
ATOM     87  F   UNL A   1      42.612  27.195  36.150  1.00  0.00    -0.203 F 
ATOM     88  F   UNL A   1      47.598  29.270  35.366  1.00  0.00    -0.200 F 
ATOM     89  C   UNL A   1      46.183  27.720  36.446  1.00  0.00     0.200 A 
ATOM     90  F   UNL A   1      44.731  26.179  37.494  1.00  0.00    -0.200 F 
ATOM     91  F   UNL A   1      47.231  27.196  37.098  1.00  0.00    -0.200 F 
ENDBRANCH  58  81
ENDBRANCH  32  33
ENDBRANCH  24  27
ENDBRANCH  22  23
ENDBRANCH  21  22
ENDBRANCH   1  21
TORSDOF 14
ENDMDL
MODEL 2
REMARK VINA RESULT:     -12.3      1.504      1.643
REMARK SMILES Cc1nnc(SCc2ccc(C(=O)NCCCCNC(=O)c3ccc(-c4c5nc(c(-c6c(F)c(F)c(F)c(F)c6F)c6ccc([nH]6)c(-c6c(F)c(F)c(F)c(F)c6F)c6nc(c(-c7c(F)c(F)c(F)c(F)c7F)c7ccc4[nH]7)C=C6)C=C5)cc3)cc2)o1
REMARK SMILES IDX 16 1 15 2 14 3 12 4 13 5 11 7 8 8 9 9 86 10 10 11 85 12 7 13
REMARK SMILES IDX 6 14 5 15 1 16 2 17 3 18 87 19 4 20 17 21 18 22 19 23 20 24
REMARK SMILES IDX 21 26 22 27 23 28 84 29 24 30 83 31 25 32 26 33 27 34 77 35
REMARK SMILES IDX 28 36 82 37 76 38 78 39 29 40 81 41 75 42 74 43 30 45 62 46
REMARK SMILES IDX 42 47 61 48 43 49 46 50 60 51 79 52 44 53 45 54 59 56 80 57
REMARK SMILES IDX 47 58 31 59 32 60 40 61 33 62 34 63 38 64 41 65 35 66 36 67
REMARK SMILES IDX 39 68 37 69 63 70 64 71 72 72 65 73 66 74 70 75 73 76 67 77
REMARK SMILES IDX 68 78 71 79 69 80 48 81 49 82 57 83 50 84 51 85 55 86 58 87
REMARK SMILES IDX 52 88 53 89 56 90 54 91
REMARK H PARENT 14 6 19 25 78 44 46 55
REMARK Flexibility Score: inf
ROOT
ATOM      1  C   UNL A   1      31.879  30.459  26.823  1.00  0.00     0.023 C 
ENDROOT
BRANCH   1   2
ATOM      2  C   UNL A   1      32.104  29.776  25.471  1.00  0.00     0.116 C 
BRANCH   2   3
ATOM      3  N   UNL A   1      31.035  30.089  24.547  1.00  0.00    -0.352 N 
ATOM      4  C   UNL A   1      30.303  29.309  23.686  1.00  0.00     0.251 C 
ATOM      5  O   UNL A   1      29.403  29.869  23.057  1.00  0.00    -0.269 OA
ATOM      6  H   UNL A   1      30.786  31.041  24.532  1.00  0.00     0.163 HD
BRANCH   4   7
ATOM      7  C   UNL A   1      30.519  27.842  23.494  1.00  0.00     0.039 A 
ATOM      8  C   UNL A   1      31.138  25.092  23.084  1.00  0.00    -0.037 A 
ATOM      9  C   UNL A   1      31.774  26.098  22.340  1.00  0.00     0.005 A 
ATOM     10  C   UNL A   1      30.157  25.487  23.994  1.00  0.00     0.005 A 
ATOM     11  C   UNL A   1      31.463  27.451  22.536  1.00  0.00     0.014 A 
ATOM     12  C   UNL A   1      29.892  26.839  24.230  1.00  0.00     0.014 A 
BRANCH   8  13
ATOM     13  C   UNL A   1      31.585  23.657  22.881  1.00  0.00     0.115 C 
BRANCH  13  14
ATOM     14  S   UNL A   1      32.337  22.767  24.271  1.00  0.00    -0.061 SA
BRANCH  14  15
ATOM     15  C   UNL A   1      34.012  22.726  23.808  1.00  0.00     0.276 A 
ATOM     16  C   UNL A   1      37.375  21.913  24.489  1.00  0.00     0.113 C 
ATOM     17  C   UNL A   1      36.114  22.416  23.917  1.00  0.00     0.214 A 
ATOM     18  N   UNL A   1      35.908  23.161  22.854  1.00  0.00    -0.112 NA
ATOM     19  O   UNL A   1      34.960  22.093  24.573  1.00  0.00    -0.416 OA
ATOM     20  N   UNL A   1      34.542  23.352  22.778  1.00  0.00    -0.101 NA
ENDBRANCH  14  15
ENDBRANCH  13  14
ENDBRANCH   8  13
ENDBRANCH   4   7
ENDBRANCH   2   3
ENDBRANCH   1   2
BRANCH   1  21
ATOM     21  C   UNL A   1      31.683  31.974  26.740  1.00  0.00     0.023 C 
BRANCH  21  22
ATOM     22  C   UNL A   1      32.816  32.792  27.341  1.00  0.00     0.116 C 
BRANCH  22  23
ATOM     23  N   UNL A   1      32.436  34.157  27.671  1.00  0.00    -0.352 N 
ATOM     24  C   UNL A   1      32.994  34.991  28.612  1.00  0.00     0.251 C 
ATOM     25  H   UNL A   1      31.685  34.532  27.155  1.00  0.00     0.163 HD
ATOM     26  O   UNL A   1      32.503  36.085  28.849  1.00  0.00    -0.269 OA
BRANCH  24  27
ATOM     27  C   UNL A   1      34.168  34.518  29.373  1.00  0.00     0.039 A 
ATOM     28  C   UNL A   1      33.965  33.928  30.621  1.00  0.00     0.014 A 
ATOM     29  C   UNL A   1      35.453  34.614  28.832  1.00  0.00     0.014 A 
ATOM     30  C   UNL A   1      35.047  33.369  31.301  1.00  0.00     0.010 A 
ATOM     31  C   UNL A   1      36.517  33.994  29.476  1.00  0.00     0.010 A 
ATOM     32  C   UNL A   1      36.324  33.367  30.715  1.00  0.00    -0.014 A 
BRANCH  32  33
ATOM     33  C   UNL A   1      37.470  32.706  31.384  1.00  0.00     0.031 A 
ATOM     34  C   UNL A   1      38.156  31.543  30.728  1.00  0.00     0.074 A 
ATOM     35  C   UNL A   1      37.833  33.099  32.619  1.00  0.00     0.049 A 
ATOM     36  N   UNL A   1      39.132  30.797  31.178  1.00  0.00    -0.248 NA
ATOM     37  C   UNL A   1      37.656  31.143  29.404  1.00  0.00     0.031 C 
ATOM     38  C   UNL A   1      37.190  34.164  33.390  1.00  0.00     0.029 A 
ATOM     39  N   UNL A   1      38.819  32.634  33.452  1.00  0.00    -0.354 N 
ATOM     40  C   UNL A   1      39.345  29.829  30.207  1.00  0.00     0.074 A 
ATOM     41  C   UNL A   1      38.363  30.050  29.166  1.00  0.00     0.031 C 
ATOM     42  C   UNL A   1      37.807  34.280  34.577  1.00  0.00     0.029 A 
ATOM     43  C   UNL A   1      38.868  33.281  34.662  1.00  0.00     0.049 A 
ATOM     44  H   UNL A   1      39.436  31.906  33.205  1.00  0.00     0.167 HD
ATOM     45  C   UNL A   1      40.288  28.857  30.176  1.00  0.00     0.037 A 
ATOM     46  C   UNL A   1      39.674  33.085  35.722  1.00  0.00     0.037 A 
ATOM     47  C   UNL A   1      41.284  28.667  31.197  1.00  0.00     0.049 A 
ATOM     48  C   UNL A   1      40.741  32.029  35.647  1.00  0.00     0.074 A 
ATOM     49  C   UNL A   1      42.346  27.781  31.212  1.00  0.00     0.029 A 
ATOM     50  N   UNL A   1      41.334  29.373  32.390  1.00  0.00    -0.354 N 
ATOM     51  N   UNL A   1      41.002  31.185  34.679  1.00  0.00    -0.248 NA
ATOM     52  C   UNL A   1      41.636  31.907  36.807  1.00  0.00     0.031 C 
ATOM     53  C   UNL A   1      43.012  27.918  32.435  1.00  0.00     0.029 A 
ATOM     54  C   UNL A   1      42.393  28.923  33.162  1.00  0.00     0.049 A 
ATOM     55  H   UNL A   1      40.709  30.089  32.649  1.00  0.00     0.167 HD
ATOM     56  C   UNL A   1      42.097  30.444  35.101  1.00  0.00     0.074 A 
ATOM     57  C   UNL A   1      42.464  30.952  36.408  1.00  0.00     0.031 C 
ATOM     58  C   UNL A   1      42.740  29.435  34.464  1.00  0.00     0.037 A 
BRANCH  45  59
ATOM     59  C   UNL A   1      40.281  27.926  28.998  1.00  0.00     0.064 A 
ATOM     60  C   UNL A   1      40.997  28.212  27.825  1.00  0.00     0.173 A 
ATOM     61  C   UNL A   1      39.559  26.724  29.048  1.00  0.00     0.173 A 
ATOM     62  F   UNL A   1      41.694  29.354  27.722  1.00  0.00    -0.203 F 
ATOM     63  C   UNL A   1      40.957  27.350  26.732  1.00  0.00     0.198 A 
ATOM     64  C   UNL A   1      39.547  25.849  27.965  1.00  0.00     0.198 A 
ATOM     65  F   UNL A   1      38.862  26.399  30.147  1.00  0.00    -0.203 F 
ATOM     66  F   UNL A   1      41.598  27.675  25.602  1.00  0.00    -0.200 F 
ATOM     67  C   UNL A   1      40.236  26.168  26.805  1.00  0.00     0.200 A 
ATOM     68  F   UNL A   1      38.859  24.701  28.040  1.00  0.00    -0.200 F 
ATOM     69  F   UNL A   1      40.198  25.340  25.752  1.00  0.00    -0.200 F 
ENDBRANCH  45  59
BRANCH  46  70
ATOM     70  C   UNL A   1      39.513  33.934  36.929  1.00  0.00     0.064 A 
ATOM     71  C   UNL A   1      40.092  35.209  36.997  1.00  0.00     0.173 A 
ATOM     72  C   UNL A   1      38.753  33.502  38.026  1.00  0.00     0.173 A 
ATOM     73  F   UNL A   1      40.841  35.657  35.978  1.00  0.00    -0.203 F 
ATOM     74  C   UNL A   1      39.926  36.015  38.120  1.00  0.00     0.198 A 
ATOM     75  C   UNL A   1      38.569  34.320  39.139  1.00  0.00     0.198 A 
ATOM     76  F   UNL A   1      38.173  32.294  38.006  1.00  0.00    -0.203 F 
ATOM     77  F   UNL A   1      40.516  37.217  38.171  1.00  0.00    -0.200 F 
ATOM     78  C   UNL A   1      39.159  35.574  39.187  1.00  0.00     0.200 A 
ATOM     79  F   UNL A   1      37.813  33.895  40.161  1.00  0.00    -0.200 F 
ATOM     80  F   UNL A   1      38.990  36.355  40.262  1.00  0.00    -0.200 F 
ENDBRANCH  46  70
BRANCH  58  81
ATOM     81  C   UNL A   1      43.917  28.821  35.164  1.00  0.00     0.064 A 
ATOM     82  C   UNL A   1      45.214  29.328  34.998  1.00  0.00     0.173 A 
ATOM     83  C   UNL A   1      43.739  27.744  36.043  1.00  0.00     0.173 A 
ATOM     84  F   UNL A   1      45.438  30.348  34.155  1.00  0.00    -0.203 F 
ATOM     85  C   UNL A   1      46.294  28.764  35.672  1.00  0.00     0.198 A 
ATOM     86  C   UNL A   1      44.816  27.199  36.737  1.00  0.00     0.198 A 
ATOM     87  F   UNL A   1      42.516  27.226  36.241  1.00  0.00    -0.203 F 
ATOM     88  F   UNL A   1      47.531  29.236  35.467  1.00  0.00    -0.200 F 
ATOM     89  C   UNL A   1      46.093  27.706  36.546  1.00  0.00     0.200 A 
ATOM     90  F   UNL A   1      44.618  26.186  37.592  1.00  0.00    -0.200 F 
ATOM     91  F   UNL A   1      47.132  27.169  37.201  1.00  0.00    -0.200 F 
ENDBRANCH  58  81
ENDBRANCH  32  33
ENDBRANCH  24  27
ENDBRANCH  22  23
ENDBRANCH  21  22
ENDBRANCH   1  21
TORSDOF 14
ENDMDL
MODEL 3
REMARK VINA RESULT:     -12.3      0.885      2.204
REMARK SMILES Cc1nnc(SCc2ccc(C(=O)NCCCCNC(=O)c3ccc(-c4c5nc(c(-c6c(F)c(F)c(F)c(F)c6F)c6ccc([nH]6)c(-c6c(F)c(F)c(F)c(F)c6F)c6nc(c(-c7c(F)c(F)c(F)c(F)c7F)c7ccc4[nH]7)C=C6)C=C5)cc3)cc2)o1
REMARK SMILES IDX 16 1 15 2 14 3 12 4 13 5 11 7 8 8 9 9 86 10 10 11 85 12 7 13
REMARK SMILES IDX 6 14 5 15 1 16 2 17 3 18 87 19 4 20 17 21 18 22 19 23 20 24
REMARK SMILES IDX 21 26 22 27 23 28 84 29 24 30 83 31 25 32 26 33 27 34 77 35
REMARK SMILES IDX 28 36 82 37 76 38 78 39 29 40 81 41 75 42 74 43 30 45 62 46
REMARK SMILES IDX 42 47 61 48 43 49 46 50 60 51 79 52 44 53 45 54 59 56 80 57
REMARK SMILES IDX 47 58 31 59 32 60 40 61 33 62 34 63 38 64 41 65 35 66 36 67
REMARK SMILES IDX 39 68 37 69 63 70 64 71 72 72 65 73 66 74 70 75 73 76 67 77
REMARK SMILES IDX 68 78 71 79 69 80 48 81 49 82 57 83 50 84 51 85 55 86 58 87
REMARK SMILES IDX 52 88 53 89 56 90 54 91
REMARK H PARENT 14 6 19 25 78 44 46 55
REMARK Flexibility Score: inf
ROOT
ATOM      1  C   UNL A   1      31.910  30.475  26.845  1.00  0.00     0.023 C 
ENDROOT
BRANCH   1   2
ATOM      2  C   UNL A   1      32.271  29.840  25.498  1.00  0.00     0.116 C 
BRANCH   2   3
ATOM      3  N   UNL A   1      31.190  29.989  24.547  1.00  0.00    -0.352 N 
ATOM      4  C   UNL A   1      30.492  29.075  23.796  1.00  0.00     0.251 C 
ATOM      5  O   UNL A   1      29.569  29.513  23.106  1.00  0.00    -0.269 OA
ATOM      6  H   UNL A   1      30.901  30.920  24.414  1.00  0.00     0.163 HD
BRANCH   4   7
ATOM      7  C   UNL A   1      30.770  27.607  23.790  1.00  0.00     0.039 A 
ATOM      8  C   UNL A   1      31.502  24.854  23.721  1.00  0.00    -0.037 A 
ATOM      9  C   UNL A   1      32.065  25.779  22.826  1.00  0.00     0.005 A 
ATOM     10  C   UNL A   1      30.535  25.326  24.610  1.00  0.00     0.005 A 
ATOM     11  C   UNL A   1      31.698  27.131  22.855  1.00  0.00     0.014 A 
ATOM     12  C   UNL A   1      30.216  26.685  24.676  1.00  0.00     0.014 A 
BRANCH   8  13
ATOM     13  C   UNL A   1      32.009  23.425  23.691  1.00  0.00     0.115 C 
BRANCH  13  14
ATOM     14  S   UNL A   1      33.259  22.911  24.900  1.00  0.00    -0.061 SA
BRANCH  14  15
ATOM     15  C   UNL A   1      33.071  21.184  24.901  1.00  0.00     0.276 A 
ATOM     16  C   UNL A   1      34.326  17.948  24.274  1.00  0.00     0.113 C 
ATOM     17  C   UNL A   1      33.494  19.120  24.595  1.00  0.00     0.214 A 
ATOM     18  N   UNL A   1      32.211  19.194  24.874  1.00  0.00    -0.112 NA
ATOM     19  O   UNL A   1      34.110  20.340  24.598  1.00  0.00    -0.416 OA
ATOM     20  N   UNL A   1      31.940  20.532  25.084  1.00  0.00    -0.101 NA
ENDBRANCH  14  15
ENDBRANCH  13  14
ENDBRANCH   8  13
ENDBRANCH   4   7
ENDBRANCH   2   3
ENDBRANCH   1   2
BRANCH   1  21
ATOM     21  C   UNL A   1      31.663  31.983  26.785  1.00  0.00     0.023 C 
BRANCH  21  22
ATOM     22  C   UNL A   1      32.811  32.832  27.312  1.00  0.00     0.116 C 
BRANCH  22  23
ATOM     23  N   UNL A   1      32.421  34.194  27.645  1.00  0.00    -0.352 N 
ATOM     24  C   UNL A   1      32.972  35.028  28.588  1.00  0.00     0.251 C 
ATOM     25  H   UNL A   1      31.668  34.564  27.130  1.00  0.00     0.163 HD
ATOM     26  O   UNL A   1      32.474  36.119  28.828  1.00  0.00    -0.269 OA
BRANCH  24  27
ATOM     27  C   UNL A   1      34.149  34.562  29.349  1.00  0.00     0.039 A 
ATOM     28  C   UNL A   1      33.951  33.995  30.609  1.00  0.00     0.014 A 
ATOM     29  C   UNL A   1      35.431  34.641  28.798  1.00  0.00     0.014 A 
ATOM     30  C   UNL A   1      35.035  33.442  31.291  1.00  0.00     0.010 A 
ATOM     31  C   UNL A   1      36.496  34.025  29.444  1.00  0.00     0.010 A 
ATOM     32  C   UNL A   1      36.307  33.421  30.696  1.00  0.00    -0.014 A 
BRANCH  32  33
ATOM     33  C   UNL A   1      37.455  32.764  31.368  1.00  0.00     0.031 A 
ATOM     34  C   UNL A   1      38.147  31.604  30.714  1.00  0.00     0.074 A 
ATOM     35  C   UNL A   1      37.812  33.159  32.604  1.00  0.00     0.049 A 
ATOM     36  N   UNL A   1      39.125  30.862  31.167  1.00  0.00    -0.248 NA
ATOM     37  C   UNL A   1      37.652  31.203  29.389  1.00  0.00     0.031 C 
ATOM     38  C   UNL A   1      37.163  34.221  33.373  1.00  0.00     0.029 A 
ATOM     39  N   UNL A   1      38.798  32.698  33.440  1.00  0.00    -0.354 N 
ATOM     40  C   UNL A   1      39.345  29.895  30.196  1.00  0.00     0.074 A 
ATOM     41  C   UNL A   1      38.365  30.113  29.153  1.00  0.00     0.031 C 
ATOM     42  C   UNL A   1      37.776  34.339  34.562  1.00  0.00     0.029 A 
ATOM     43  C   UNL A   1      38.840  33.344  34.650  1.00  0.00     0.049 A 
ATOM     44  H   UNL A   1      39.418  31.972  33.195  1.00  0.00     0.167 HD
ATOM     45  C   UNL A   1      40.292  28.927  30.168  1.00  0.00     0.037 A 
ATOM     46  C   UNL A   1      39.644  33.152  35.713  1.00  0.00     0.037 A 
ATOM     47  C   UNL A   1      41.285  28.741  31.191  1.00  0.00     0.049 A 
ATOM     48  C   UNL A   1      40.716  32.101  35.641  1.00  0.00     0.074 A 
ATOM     49  C   UNL A   1      42.351  27.860  31.209  1.00  0.00     0.029 A 
ATOM     50  N   UNL A   1      41.329  29.447  32.385  1.00  0.00    -0.354 N 
ATOM     51  N   UNL A   1      40.983  31.258  34.673  1.00  0.00    -0.248 NA
ATOM     52  C   UNL A   1      41.607  31.982  36.803  1.00  0.00     0.031 C 
ATOM     53  C   UNL A   1      43.013  27.999  32.435  1.00  0.00     0.029 A 
ATOM     54  C   UNL A   1      42.388  29.002  33.160  1.00  0.00     0.049 A 
ATOM     55  H   UNL A   1      40.701  30.160  32.643  1.00  0.00     0.167 HD
ATOM     56  C   UNL A   1      42.079  30.521  35.099  1.00  0.00     0.074 A 
ATOM     57  C   UNL A   1      42.441  31.030  36.406  1.00  0.00     0.031 C 
ATOM     58  C   UNL A   1      42.729  29.515  34.463  1.00  0.00     0.037 A 
BRANCH  45  59
ATOM     59  C   UNL A   1      40.292  27.996  28.990  1.00  0.00     0.064 A 
ATOM     60  C   UNL A   1      39.570  26.792  28.998  1.00  0.00     0.173 A 
ATOM     61  C   UNL A   1      41.016  28.318  27.832  1.00  0.00     0.173 A 
ATOM     62  F   UNL A   1      38.872  26.432  30.086  1.00  0.00    -0.203 F 
ATOM     63  C   UNL A   1      39.605  25.928  27.907  1.00  0.00     0.198 A 
ATOM     64  C   UNL A   1      41.022  27.466  26.731  1.00  0.00     0.198 A 
ATOM     65  F   UNL A   1      41.719  29.459  27.768  1.00  0.00    -0.203 F 
ATOM     66  F   UNL A   1      38.957  24.756  27.963  1.00  0.00    -0.200 F 
ATOM     67  C   UNL A   1      40.327  26.267  26.774  1.00  0.00     0.200 A 
ATOM     68  F   UNL A   1      41.711  27.800  25.631  1.00  0.00    -0.200 F 
ATOM     69  F   UNL A   1      40.360  25.433  25.725  1.00  0.00    -0.200 F 
ENDBRANCH  45  59
BRANCH  46  70
ATOM     70  C   UNL A   1      39.476  34.000  36.919  1.00  0.00     0.064 A 
ATOM     71  C   UNL A   1      38.722  33.555  38.014  1.00  0.00     0.173 A 
ATOM     72  C   UNL A   1      40.089  35.257  37.015  1.00  0.00     0.173 A 
ATOM     73  F   UNL A   1      38.103  32.366  37.961  1.00  0.00    -0.203 F 
ATOM     74  C   UNL A   1      38.580  34.341  39.156  1.00  0.00     0.198 A 
ATOM     75  C   UNL A   1      39.965  36.032  38.167  1.00  0.00     0.198 A 
ATOM     76  F   UNL A   1      40.827  35.724  35.998  1.00  0.00    -0.203 F 
ATOM     77  F   UNL A   1      37.828  33.905  40.176  1.00  0.00    -0.200 F 
ATOM     78  C   UNL A   1      39.207  35.575  39.235  1.00  0.00     0.200 A 
ATOM     79  F   UNL A   1      40.587  37.217  38.245  1.00  0.00    -0.200 F 
ATOM     80  F   UNL A   1      39.079  36.325  40.338  1.00  0.00    -0.200 F 
ENDBRANCH  46  70
BRANCH  58  81
ATOM     81  C   UNL A   1      43.906  28.906  35.166  1.00  0.00     0.064 A 
ATOM     82  C   UNL A   1      43.758  27.809  36.029  1.00  0.00     0.173 A 
ATOM     83  C   UNL A   1      45.201  29.394  34.939  1.00  0.00     0.173 A 
ATOM     84  F   UNL A   1      42.537  27.316  36.290  1.00  0.00    -0.203 F 
ATOM     85  C   UNL A   1      44.862  27.238  36.655  1.00  0.00     0.198 A 
ATOM     86  C   UNL A   1      46.306  28.803  35.546  1.00  0.00     0.198 A 
ATOM     87  F   UNL A   1      45.397  30.437  34.118  1.00  0.00    -0.203 F 
ATOM     88  F   UNL A   1      44.693  26.219  37.508  1.00  0.00    -0.200 F 
ATOM     89  C   UNL A   1      46.135  27.730  36.408  1.00  0.00     0.200 A 
ATOM     90  F   UNL A   1      47.537  29.271  35.295  1.00  0.00    -0.200 F 
ATOM     91  F   UNL A   1      47.198  27.173  37.005  1.00  0.00    -0.200 F 
ENDBRANCH  58  81
ENDBRANCH  32  33
ENDBRANCH  24  27
ENDBRANCH  22  23
ENDBRANCH  21  22
ENDBRANCH   1  21
TORSDOF 14
ENDMDL
