MODEL 1
REMARK VINA RESULT:     -11.9      0.000      0.000
REMARK SMILES CCC(CC)(NC(=O)c1c(C)noc1C)C(=O)NCCCCNC(=O)c1ccc(-c2c3nc(c(-c4c(F)c(F)c(F)c(F)c4F)c4ccc([nH]4)c(-c4c(F)c(F)c(F)c(F)c4F)c4nc(c(-c5c(F)c(F)c(F)c(F)c5F)c5ccc2[nH]5)C=C4)C=C3)cc1
REMARK SMILES IDX 20 1 19 2 18 3 16 4 17 5 3 7 2 8 1 9 4 10 5 11 6 12 7 13
REMARK SMILES IDX 8 15 9 16 10 17 14 18 11 19 12 20 13 21 15 22 21 23 22 24
REMARK SMILES IDX 23 25 24 26 25 28 26 29 27 30 88 31 28 32 87 33 29 34 30 35
REMARK SMILES IDX 31 36 81 37 32 38 86 39 80 40 82 41 33 42 85 43 79 44 78 45
REMARK SMILES IDX 34 47 66 48 46 49 65 50 47 51 50 52 64 53 83 54 48 55 49 56
REMARK SMILES IDX 63 58 84 59 51 60 35 61 36 62 44 63 37 64 38 65 42 66 45 67
REMARK SMILES IDX 39 68 40 69 43 70 41 71 67 72 68 73 76 74 69 75 70 76 74 77
REMARK SMILES IDX 77 78 71 79 72 80 75 81 73 82 52 83 53 84 61 85 54 86 55 87
REMARK SMILES IDX 59 88 62 89 56 90 57 91 60 92 58 93
REMARK H PARENT 18 6 6 14 23 27 82 46 50 57
REMARK Flexibility Score: inf
ROOT
ATOM      1  C   UNL A   1      31.399  30.574  25.758  1.00  0.00     0.023 C 
ENDROOT
BRANCH   1   2
ATOM      2  C   UNL A   1      32.724  29.793  25.703  1.00  0.00     0.116 C 
BRANCH   2   3
ATOM      3  N   UNL A   1      33.440  29.595  24.435  1.00  0.00    -0.354 N 
ATOM      4  C   UNL A   1      33.480  28.569  23.501  1.00  0.00     0.245 C 
ATOM      5  O   UNL A   1      33.950  28.827  22.391  1.00  0.00    -0.272 OA
ATOM      6  H   UNL A   1      34.017  30.356  24.196  1.00  0.00     0.163 HD
BRANCH   4   7
ATOM      7  C   UNL A   1      32.756  27.246  23.771  1.00  0.00     0.118 C 
BRANCH   7   8
ATOM      8  C   UNL A   1      31.315  27.249  24.348  1.00  0.00     0.035 C 
ATOM      9  C   UNL A   1      30.206  27.900  23.532  1.00  0.00     0.007 C 
ENDBRANCH   7   8
BRANCH   7  10
ATOM     10  C   UNL A   1      33.739  26.592  24.821  1.00  0.00     0.035 C 
ATOM     11  C   UNL A   1      33.187  25.795  25.987  1.00  0.00     0.007 C 
ENDBRANCH   7  10
BRANCH   7  12
ATOM     12  N   UNL A   1      32.687  26.574  22.460  1.00  0.00    -0.337 N 
ATOM     13  C   UNL A   1      33.054  25.322  21.992  1.00  0.00     0.257 C 
ATOM     14  H   UNL A   1      32.291  27.143  21.760  1.00  0.00     0.164 HD
ATOM     15  O   UNL A   1      33.236  25.362  20.766  1.00  0.00    -0.269 OA
BRANCH  13  16
ATOM     16  C   UNL A   1      33.235  24.016  22.683  1.00  0.00     0.105 A 
ATOM     17  C   UNL A   1      32.081  23.360  23.297  1.00  0.00     0.093 A 
ATOM     18  C   UNL A   1      34.268  23.188  23.153  1.00  0.00     0.146 A 
ATOM     19  C   UNL A   1      30.668  23.801  23.379  1.00  0.00     0.071 C 
ATOM     20  N   UNL A   1      32.393  22.221  23.909  1.00  0.00    -0.084 NA
ATOM     21  O   UNL A   1      33.734  22.106  23.791  1.00  0.00    -0.361 OA
ATOM     22  C   UNL A   1      35.736  23.103  23.315  1.00  0.00     0.092 C 
ENDBRANCH  13  16
ENDBRANCH   7  12
ENDBRANCH   4   7
ENDBRANCH   2   3
ENDBRANCH   1   2
BRANCH   1  23
ATOM     23  C   UNL A   1      31.289  31.886  26.522  1.00  0.00     0.023 C 
BRANCH  23  24
ATOM     24  C   UNL A   1      32.587  32.464  27.051  1.00  0.00     0.116 C 
BRANCH  24  25
ATOM     25  N   UNL A   1      32.441  33.838  27.496  1.00  0.00    -0.352 N 
ATOM     26  C   UNL A   1      33.145  34.521  28.455  1.00  0.00     0.251 C 
ATOM     27  H   UNL A   1      31.735  34.355  27.044  1.00  0.00     0.163 HD
ATOM     28  O   UNL A   1      32.774  35.644  28.799  1.00  0.00    -0.269 OA
BRANCH  26  29
ATOM     29  C   UNL A   1      34.330  33.913  29.106  1.00  0.00     0.039 A 
ATOM     30  C   UNL A   1      34.126  32.948  30.098  1.00  0.00     0.014 A 
ATOM     31  C   UNL A   1      35.631  34.297  28.770  1.00  0.00     0.014 A 
ATOM     32  C   UNL A   1      35.221  32.337  30.713  1.00  0.00     0.010 A 
ATOM     33  C   UNL A   1      36.723  33.632  29.329  1.00  0.00     0.010 A 
ATOM     34  C   UNL A   1      36.530  32.652  30.316  1.00  0.00    -0.014 A 
BRANCH  34  35
ATOM     35  C   UNL A   1      37.699  31.975  30.937  1.00  0.00     0.031 A 
ATOM     36  C   UNL A   1      38.152  32.353  32.322  1.00  0.00     0.074 A 
ATOM     37  C   UNL A   1      38.378  31.040  30.244  1.00  0.00     0.049 A 
ATOM     38  N   UNL A   1      39.161  31.894  33.020  1.00  0.00    -0.248 NA
ATOM     39  C   UNL A   1      37.382  33.404  33.005  1.00  0.00     0.031 C 
ATOM     40  C   UNL A   1      38.070  30.613  28.879  1.00  0.00     0.029 A 
ATOM     41  N   UNL A   1      39.471  30.283  30.589  1.00  0.00    -0.354 N 
ATOM     42  C   UNL A   1      39.148  32.600  34.216  1.00  0.00     0.074 A 
ATOM     43  C   UNL A   1      38.070  33.561  34.125  1.00  0.00     0.031 C 
ATOM     44  C   UNL A   1      38.936  29.656  28.511  1.00  0.00     0.029 A 
ATOM     45  C   UNL A   1      39.885  29.428  29.597  1.00  0.00     0.049 A 
ATOM     46  H   UNL A   1      39.915  30.347  31.465  1.00  0.00     0.167 HD
ATOM     47  C   UNL A   1      39.943  32.443  35.301  1.00  0.00     0.037 A 
ATOM     48  C   UNL A   1      40.918  28.564  29.562  1.00  0.00     0.037 A 
ATOM     49  C   UNL A   1      41.009  31.479  35.394  1.00  0.00     0.049 A 
ATOM     50  C   UNL A   1      41.802  28.425  30.772  1.00  0.00     0.074 A 
ATOM     51  C   UNL A   1      41.841  31.212  36.466  1.00  0.00     0.029 A 
ATOM     52  N   UNL A   1      41.395  30.628  34.368  1.00  0.00    -0.354 N 
ATOM     53  N   UNL A   1      41.736  29.048  31.924  1.00  0.00    -0.248 NA
ATOM     54  C   UNL A   1      42.904  27.457  30.680  1.00  0.00     0.031 C 
ATOM     55  C   UNL A   1      42.767  30.241  36.073  1.00  0.00     0.029 A 
ATOM     56  C   UNL A   1      42.472  29.854  34.776  1.00  0.00     0.049 A 
ATOM     57  H   UNL A   1      40.968  30.580  33.482  1.00  0.00     0.167 HD
ATOM     58  C   UNL A   1      42.762  28.528  32.701  1.00  0.00     0.074 A 
ATOM     59  C   UNL A   1      43.426  27.525  31.896  1.00  0.00     0.031 C 
ATOM     60  C   UNL A   1      43.122  28.854  33.967  1.00  0.00     0.037 A 
BRANCH  47  61
ATOM     61  C   UNL A   1      39.690  33.339  36.482  1.00  0.00     0.064 A 
ATOM     62  C   UNL A   1      38.782  32.986  37.493  1.00  0.00     0.173 A 
ATOM     63  C   UNL A   1      40.390  34.548  36.625  1.00  0.00     0.173 A 
ATOM     64  F   UNL A   1      38.079  31.847  37.403  1.00  0.00    -0.203 F 
ATOM     65  C   UNL A   1      38.558  33.826  38.581  1.00  0.00     0.198 A 
ATOM     66  C   UNL A   1      40.188  35.367  37.732  1.00  0.00     0.198 A 
ATOM     67  F   UNL A   1      41.277  34.930  35.694  1.00  0.00    -0.203 F 
ATOM     68  F   UNL A   1      37.643  33.495  39.503  1.00  0.00    -0.200 F 
ATOM     69  C   UNL A   1      39.266  35.012  38.705  1.00  0.00     0.200 A 
ATOM     70  F   UNL A   1      40.886  36.505  37.859  1.00  0.00    -0.200 F 
ATOM     71  F   UNL A   1      39.054  35.815  39.756  1.00  0.00    -0.200 F 
ENDBRANCH  47  61
BRANCH  48  72
ATOM     72  C   UNL A   1      41.164  27.749  28.342  1.00  0.00     0.064 A 
ATOM     73  C   UNL A   1      40.535  26.508  28.160  1.00  0.00     0.173 A 
ATOM     74  C   UNL A   1      42.037  28.189  27.336  1.00  0.00     0.173 A 
ATOM     75  F   UNL A   1      39.708  26.033  29.103  1.00  0.00    -0.203 F 
ATOM     76  C   UNL A   1      40.790  25.729  27.033  1.00  0.00     0.198 A 
ATOM     77  C   UNL A   1      42.266  27.424  26.194  1.00  0.00     0.198 A 
ATOM     78  F   UNL A   1      42.661  29.370  27.458  1.00  0.00    -0.203 F 
ATOM     79  F   UNL A   1      40.216  24.525  26.911  1.00  0.00    -0.200 F 
ATOM     80  C   UNL A   1      41.650  26.191  26.048  1.00  0.00     0.200 A 
ATOM     81  F   UNL A   1      43.086  27.880  25.238  1.00  0.00    -0.200 F 
ATOM     82  F   UNL A   1      41.891  25.443  24.963  1.00  0.00    -0.200 F 
ENDBRANCH  48  72
BRANCH  60  83
ATOM     83  C   UNL A   1      44.263  28.091  34.579  1.00  0.00     0.064 A 
ATOM     84  C   UNL A   1      45.584  28.560  34.518  1.00  0.00     0.173 A 
ATOM     85  C   UNL A   1      44.025  26.894  35.272  1.00  0.00     0.173 A 
ATOM     86  F   UNL A   1      45.868  29.692  33.857  1.00  0.00    -0.203 F 
ATOM     87  C   UNL A   1      46.626  27.845  35.102  1.00  0.00     0.198 A 
ATOM     88  C   UNL A   1      45.064  26.199  35.885  1.00  0.00     0.198 A 
ATOM     89  F   UNL A   1      42.779  26.404  35.368  1.00  0.00    -0.203 F 
ATOM     90  F   UNL A   1      47.886  28.285  34.985  1.00  0.00    -0.200 F 
ATOM     91  C   UNL A   1      46.365  26.670  35.792  1.00  0.00     0.200 A 
ATOM     92  F   UNL A   1      44.806  25.074  36.565  1.00  0.00    -0.200 F 
ATOM     93  F   UNL A   1      47.367  25.988  36.361  1.00  0.00    -0.200 F 
ENDBRANCH  60  83
ENDBRANCH  34  35
ENDBRANCH  26  29
ENDBRANCH  24  25
ENDBRANCH  23  24
ENDBRANCH   1  23
TORSDOF 15
ENDMDL
MODEL 2
REMARK VINA RESULT:     -11.9      0.601      7.370
REMARK SMILES CCC(CC)(NC(=O)c1c(C)noc1C)C(=O)NCCCCNC(=O)c1ccc(-c2c3nc(c(-c4c(F)c(F)c(F)c(F)c4F)c4ccc([nH]4)c(-c4c(F)c(F)c(F)c(F)c4F)c4nc(c(-c5c(F)c(F)c(F)c(F)c5F)c5ccc2[nH]5)C=C4)C=C3)cc1
REMARK SMILES IDX 20 1 19 2 18 3 16 4 17 5 3 7 2 8 1 9 4 10 5 11 6 12 7 13
REMARK SMILES IDX 8 15 9 16 10 17 14 18 11 19 12 20 13 21 15 22 21 23 22 24
REMARK SMILES IDX 23 25 24 26 25 28 26 29 27 30 88 31 28 32 87 33 29 34 30 35
REMARK SMILES IDX 31 36 81 37 32 38 86 39 80 40 82 41 33 42 85 43 79 44 78 45
REMARK SMILES IDX 34 47 66 48 46 49 65 50 47 51 50 52 64 53 83 54 48 55 49 56
REMARK SMILES IDX 63 58 84 59 51 60 35 61 36 62 44 63 37 64 38 65 42 66 45 67
REMARK SMILES IDX 39 68 40 69 43 70 41 71 67 72 68 73 76 74 69 75 70 76 74 77
REMARK SMILES IDX 77 78 71 79 72 80 75 81 73 82 52 83 53 84 61 85 54 86 55 87
REMARK SMILES IDX 59 88 62 89 56 90 57 91 60 92 58 93
REMARK H PARENT 18 6 6 14 23 27 82 46 50 57
REMARK Flexibility Score: inf
ROOT
ATOM      1  C   UNL A   1      31.327  30.836  25.753  1.00  0.00     0.023 C 
ENDROOT
BRANCH   1   2
ATOM      2  C   UNL A   1      32.548  29.900  25.810  1.00  0.00     0.116 C 
BRANCH   2   3
ATOM      3  N   UNL A   1      33.400  29.687  24.631  1.00  0.00    -0.354 N 
ATOM      4  C   UNL A   1      33.529  28.660  23.708  1.00  0.00     0.245 C 
ATOM      5  O   UNL A   1      34.127  28.907  22.659  1.00  0.00    -0.272 OA
ATOM      6  H   UNL A   1      34.014  30.439  24.460  1.00  0.00     0.163 HD
BRANCH   4   7
ATOM      7  C   UNL A   1      32.756  27.350  23.892  1.00  0.00     0.118 C 
BRANCH   7   8
ATOM      8  C   UNL A   1      31.296  27.373  24.418  1.00  0.00     0.035 C 
ATOM      9  C   UNL A   1      30.174  27.685  23.437  1.00  0.00     0.007 C 
ENDBRANCH   7   8
BRANCH   7  10
ATOM     10  C   UNL A   1      33.681  26.620  24.946  1.00  0.00     0.035 C 
ATOM     11  C   UNL A   1      33.063  25.775  26.043  1.00  0.00     0.007 C 
ENDBRANCH   7  10
BRANCH   7  12
ATOM     12  N   UNL A   1      32.715  26.739  22.551  1.00  0.00    -0.337 N 
ATOM     13  C   UNL A   1      33.049  25.492  22.042  1.00  0.00     0.257 C 
ATOM     14  H   UNL A   1      32.373  27.354  21.862  1.00  0.00     0.164 HD
ATOM     15  O   UNL A   1      33.284  25.578  20.829  1.00  0.00    -0.269 OA
BRANCH  13  16
ATOM     16  C   UNL A   1      33.147  24.152  22.681  1.00  0.00     0.105 A 
ATOM     17  C   UNL A   1      31.945  23.528  23.232  1.00  0.00     0.093 A 
ATOM     18  C   UNL A   1      34.124  23.255  23.145  1.00  0.00     0.146 A 
ATOM     19  C   UNL A   1      30.551  24.033  23.293  1.00  0.00     0.071 C 
ATOM     20  N   UNL A   1      32.183  22.350  23.804  1.00  0.00    -0.084 NA
ATOM     21  O   UNL A   1      33.520  22.175  23.720  1.00  0.00    -0.361 OA
ATOM     22  C   UNL A   1      35.580  23.093  23.345  1.00  0.00     0.092 C 
ENDBRANCH  13  16
ENDBRANCH   7  12
ENDBRANCH   4   7
ENDBRANCH   2   3
ENDBRANCH   1   2
BRANCH   1  23
ATOM     23  C   UNL A   1      31.208  32.032  26.688  1.00  0.00     0.023 C 
BRANCH  23  24
ATOM     24  C   UNL A   1      32.503  32.738  27.042  1.00  0.00     0.116 C 
BRANCH  24  25
ATOM     25  N   UNL A   1      32.285  34.102  27.487  1.00  0.00    -0.352 N 
ATOM     26  C   UNL A   1      32.930  34.807  28.472  1.00  0.00     0.251 C 
ATOM     27  H   UNL A   1      31.573  34.591  27.016  1.00  0.00     0.163 HD
ATOM     28  O   UNL A   1      32.502  35.912  28.808  1.00  0.00    -0.269 OA
BRANCH  26  29
ATOM     29  C   UNL A   1      34.117  34.245  29.157  1.00  0.00     0.039 A 
ATOM     30  C   UNL A   1      33.920  33.456  30.295  1.00  0.00     0.014 A 
ATOM     31  C   UNL A   1      35.416  34.504  28.710  1.00  0.00     0.014 A 
ATOM     32  C   UNL A   1      35.017  32.890  30.951  1.00  0.00     0.010 A 
ATOM     33  C   UNL A   1      36.503  33.877  29.318  1.00  0.00     0.010 A 
ATOM     34  C   UNL A   1      36.317  33.071  30.453  1.00  0.00    -0.014 A 
BRANCH  34  35
ATOM     35  C   UNL A   1      37.485  32.437  31.121  1.00  0.00     0.031 A 
ATOM     36  C   UNL A   1      38.234  31.320  30.445  1.00  0.00     0.074 A 
ATOM     37  C   UNL A   1      37.855  32.841  32.351  1.00  0.00     0.049 A 
ATOM     38  N   UNL A   1      39.258  30.627  30.877  1.00  0.00    -0.248 NA
ATOM     39  C   UNL A   1      37.753  30.910  29.116  1.00  0.00     0.031 C 
ATOM     40  C   UNL A   1      37.187  33.883  33.132  1.00  0.00     0.029 A 
ATOM     41  N   UNL A   1      38.879  32.423  33.164  1.00  0.00    -0.354 N 
ATOM     42  C   UNL A   1      39.540  29.702  29.879  1.00  0.00     0.074 A 
ATOM     43  C   UNL A   1      38.541  29.880  28.848  1.00  0.00     0.031 C 
ATOM     44  C   UNL A   1      37.831  34.038  34.299  1.00  0.00     0.029 A 
ATOM     45  C   UNL A   1      38.932  33.083  34.368  1.00  0.00     0.049 A 
ATOM     46  H   UNL A   1      39.515  31.716  32.908  1.00  0.00     0.167 HD
ATOM     47  C   UNL A   1      40.554  28.807  29.815  1.00  0.00     0.037 A 
ATOM     48  C   UNL A   1      39.769  32.929  35.413  1.00  0.00     0.037 A 
ATOM     49  C   UNL A   1      41.554  28.639  30.838  1.00  0.00     0.049 A 
ATOM     50  C   UNL A   1      40.873  31.910  35.328  1.00  0.00     0.074 A 
ATOM     51  C   UNL A   1      42.647  27.791  30.846  1.00  0.00     0.029 A 
ATOM     52  N   UNL A   1      41.576  29.329  32.042  1.00  0.00    -0.354 N 
ATOM     53  N   UNL A   1      41.172  31.091  34.348  1.00  0.00    -0.248 NA
ATOM     54  C   UNL A   1      41.763  31.798  36.492  1.00  0.00     0.031 C 
ATOM     55  C   UNL A   1      43.299  27.926  32.076  1.00  0.00     0.029 A 
ATOM     56  C   UNL A   1      42.650  28.905  32.811  1.00  0.00     0.049 A 
ATOM     57  H   UNL A   1      40.926  30.018  32.310  1.00  0.00     0.167 HD
ATOM     58  C   UNL A   1      42.297  30.391  34.764  1.00  0.00     0.074 A 
ATOM     59  C   UNL A   1      42.639  30.893  36.077  1.00  0.00     0.031 C 
ATOM     60  C   UNL A   1      42.984  29.418  34.116  1.00  0.00     0.037 A 
BRANCH  47  61
ATOM     61  C   UNL A   1      40.634  27.935  28.593  1.00  0.00     0.064 A 
ATOM     62  C   UNL A   1      41.365  28.321  27.459  1.00  0.00     0.173 A 
ATOM     63  C   UNL A   1      40.002  26.681  28.568  1.00  0.00     0.173 A 
ATOM     64  F   UNL A   1      41.982  29.512  27.425  1.00  0.00    -0.203 F 
ATOM     65  C   UNL A   1      41.431  27.503  26.334  1.00  0.00     0.198 A 
ATOM     66  C   UNL A   1      40.099  25.851  27.454  1.00  0.00     0.198 A 
ATOM     67  F   UNL A   1      39.297  26.257  29.627  1.00  0.00    -0.203 F 
ATOM     68  F   UNL A   1      42.087  27.919  25.242  1.00  0.00    -0.200 F 
ATOM     69  C   UNL A   1      40.804  26.265  26.334  1.00  0.00     0.200 A 
ATOM     70  F   UNL A   1      39.507  24.649  27.463  1.00  0.00    -0.200 F 
ATOM     71  F   UNL A   1      40.874  25.476  25.254  1.00  0.00    -0.200 F 
ENDBRANCH  47  61
BRANCH  48  72
ATOM     72  C   UNL A   1      39.604  33.774  36.626  1.00  0.00     0.064 A 
ATOM     73  C   UNL A   1      38.828  33.340  37.711  1.00  0.00     0.173 A 
ATOM     74  C   UNL A   1      40.210  35.036  36.723  1.00  0.00     0.173 A 
ATOM     75  F   UNL A   1      38.210  32.151  37.659  1.00  0.00    -0.203 F 
ATOM     76  C   UNL A   1      38.646  34.145  38.835  1.00  0.00     0.198 A 
ATOM     77  C   UNL A   1      40.054  35.825  37.860  1.00  0.00     0.198 A 
ATOM     78  F   UNL A   1      40.965  35.496  35.715  1.00  0.00    -0.203 F 
ATOM     79  F   UNL A   1      37.858  33.727  39.833  1.00  0.00    -0.200 F 
ATOM     80  C   UNL A   1      39.265  35.384  38.911  1.00  0.00     0.200 A 
ATOM     81  F   UNL A   1      40.665  37.015  37.936  1.00  0.00    -0.200 F 
ATOM     82  F   UNL A   1      39.092  36.155  39.992  1.00  0.00    -0.200 F 
ENDBRANCH  48  72
BRANCH  60  83
ATOM     83  C   UNL A   1      44.200  28.858  34.798  1.00  0.00     0.064 A 
ATOM     84  C   UNL A   1      45.461  29.461  34.678  1.00  0.00     0.173 A 
ATOM     85  C   UNL A   1      44.092  27.723  35.619  1.00  0.00     0.173 A 
ATOM     86  F   UNL A   1      45.621  30.539  33.896  1.00  0.00    -0.203 F 
ATOM     87  C   UNL A   1      46.572  28.932  35.328  1.00  0.00     0.198 A 
ATOM     88  C   UNL A   1      45.199  27.219  36.295  1.00  0.00     0.198 A 
ATOM     89  F   UNL A   1      42.908  27.111  35.776  1.00  0.00    -0.203 F 
ATOM     90  F   UNL A   1      47.777  29.494  35.156  1.00  0.00    -0.200 F 
ATOM     91  C   UNL A   1      46.440  27.818  36.143  1.00  0.00     0.200 A 
ATOM     92  F   UNL A   1      45.064  26.152  37.095  1.00  0.00    -0.200 F 
ATOM     93  F   UNL A   1      47.509  27.317  36.776  1.00  0.00    -0.200 F 
ENDBRANCH  60  83
ENDBRANCH  34  35
ENDBRANCH  26  29
ENDBRANCH  24  25
ENDBRANCH  23  24
ENDBRANCH   1  23
TORSDOF 15
ENDMDL
MODEL 3
REMARK VINA RESULT:     -11.8      0.238      1.618
REMARK SMILES CCC(CC)(NC(=O)c1c(C)noc1C)C(=O)NCCCCNC(=O)c1ccc(-c2c3nc(c(-c4c(F)c(F)c(F)c(F)c4F)c4ccc([nH]4)c(-c4c(F)c(F)c(F)c(F)c4F)c4nc(c(-c5c(F)c(F)c(F)c(F)c5F)c5ccc2[nH]5)C=C4)C=C3)cc1
REMARK SMILES IDX 20 1 19 2 18 3 16 4 17 5 3 7 2 8 1 9 4 10 5 11 6 12 7 13
REMARK SMILES IDX 8 15 9 16 10 17 14 18 11 19 12 20 13 21 15 22 21 23 22 24
REMARK SMILES IDX 23 25 24 26 25 28 26 29 27 30 88 31 28 32 87 33 29 34 30 35
REMARK SMILES IDX 31 36 81 37 32 38 86 39 80 40 82 41 33 42 85 43 79 44 78 45
REMARK SMILES IDX 34 47 66 48 46 49 65 50 47 51 50 52 64 53 83 54 48 55 49 56
REMARK SMILES IDX 63 58 84 59 51 60 35 61 36 62 44 63 37 64 38 65 42 66 45 67
REMARK SMILES IDX 39 68 40 69 43 70 41 71 67 72 68 73 76 74 69 75 70 76 74 77
REMARK SMILES IDX 77 78 71 79 72 80 75 81 73 82 52 83 53 84 61 85 54 86 55 87
REMARK SMILES IDX 59 88 62 89 56 90 57 91 60 92 58 93
REMARK H PARENT 18 6 6 14 23 27 82 46 50 57
REMARK Flexibility Score: inf
ROOT
ATOM      1  C   UNL A   1      31.352  31.034  25.800  1.00  0.00     0.023 C 
ENDROOT
BRANCH   1   2
ATOM      2  C   UNL A   1      32.409  29.915  25.786  1.00  0.00     0.116 C 
BRANCH   2   3
ATOM      3  N   UNL A   1      33.278  29.703  24.620  1.00  0.00    -0.354 N 
ATOM      4  C   UNL A   1      33.440  28.664  23.715  1.00  0.00     0.245 C 
ATOM      5  O   UNL A   1      34.044  28.909  22.668  1.00  0.00    -0.272 OA
ATOM      6  H   UNL A   1      33.877  30.466  24.443  1.00  0.00     0.163 HD
BRANCH   4   7
ATOM      7  C   UNL A   1      32.695  27.340  23.913  1.00  0.00     0.118 C 
BRANCH   7   8
ATOM      8  C   UNL A   1      31.237  27.338  24.444  1.00  0.00     0.035 C 
ATOM      9  C   UNL A   1      30.120  27.776  23.506  1.00  0.00     0.007 C 
ENDBRANCH   7   8
BRANCH   7  10
ATOM     10  C   UNL A   1      33.639  26.638  24.968  1.00  0.00     0.035 C 
ATOM     11  C   UNL A   1      33.044  25.776  26.066  1.00  0.00     0.007 C 
ENDBRANCH   7  10
BRANCH   7  12
ATOM     12  N   UNL A   1      32.662  26.717  22.577  1.00  0.00    -0.337 N 
ATOM     13  C   UNL A   1      33.048  25.485  22.071  1.00  0.00     0.257 C 
ATOM     14  H   UNL A   1      32.280  27.310  21.889  1.00  0.00     0.164 HD
ATOM     15  O   UNL A   1      33.259  25.572  20.853  1.00  0.00    -0.269 OA
BRANCH  13  16
ATOM     16  C   UNL A   1      33.220  24.156  22.718  1.00  0.00     0.105 A 
ATOM     17  C   UNL A   1      32.054  23.464  23.265  1.00  0.00     0.093 A 
ATOM     18  C   UNL A   1      34.245  23.320  23.192  1.00  0.00     0.146 A 
ATOM     19  C   UNL A   1      30.633  23.887  23.315  1.00  0.00     0.071 C 
ATOM     20  N   UNL A   1      32.357  22.305  23.844  1.00  0.00    -0.084 NA
ATOM     21  O   UNL A   1      33.703  22.209  23.769  1.00  0.00    -0.361 OA
ATOM     22  C   UNL A   1      35.708  23.245  23.401  1.00  0.00     0.092 C 
ENDBRANCH  13  16
ENDBRANCH   7  12
ENDBRANCH   4   7
ENDBRANCH   2   3
ENDBRANCH   1   2
BRANCH   1  23
ATOM     23  C   UNL A   1      31.362  32.113  26.874  1.00  0.00     0.023 C 
BRANCH  23  24
ATOM     24  C   UNL A   1      32.654  32.893  27.028  1.00  0.00     0.116 C 
BRANCH  24  25
ATOM     25  N   UNL A   1      32.441  34.206  27.609  1.00  0.00    -0.352 N 
ATOM     26  C   UNL A   1      33.085  34.804  28.663  1.00  0.00     0.251 C 
ATOM     27  H   UNL A   1      31.734  34.745  27.187  1.00  0.00     0.163 HD
ATOM     28  O   UNL A   1      32.661  35.872  29.108  1.00  0.00    -0.269 OA
BRANCH  26  29
ATOM     29  C   UNL A   1      34.266  34.168  29.293  1.00  0.00     0.039 A 
ATOM     30  C   UNL A   1      34.057  33.211  30.290  1.00  0.00     0.014 A 
ATOM     31  C   UNL A   1      35.570  34.520  28.932  1.00  0.00     0.014 A 
ATOM     32  C   UNL A   1      35.148  32.574  30.887  1.00  0.00     0.010 A 
ATOM     33  C   UNL A   1      36.655  33.829  29.472  1.00  0.00     0.010 A 
ATOM     34  C   UNL A   1      36.457  32.856  30.464  1.00  0.00    -0.014 A 
BRANCH  34  35
ATOM     35  C   UNL A   1      37.621  32.151  31.065  1.00  0.00     0.031 A 
ATOM     36  C   UNL A   1      38.104  32.516  32.443  1.00  0.00     0.074 A 
ATOM     37  C   UNL A   1      38.267  31.203  30.359  1.00  0.00     0.049 A 
ATOM     38  N   UNL A   1      39.114  32.033  33.124  1.00  0.00    -0.248 NA
ATOM     39  C   UNL A   1      37.368  33.582  33.141  1.00  0.00     0.031 C 
ATOM     40  C   UNL A   1      37.927  30.787  28.998  1.00  0.00     0.029 A 
ATOM     41  N   UNL A   1      39.348  30.421  30.684  1.00  0.00    -0.354 N 
ATOM     42  C   UNL A   1      39.136  32.736  34.321  1.00  0.00     0.074 A 
ATOM     43  C   UNL A   1      38.078  33.721  34.250  1.00  0.00     0.031 C 
ATOM     44  C   UNL A   1      38.766  29.811  28.614  1.00  0.00     0.029 A 
ATOM     45  C   UNL A   1      39.727  29.560  29.684  1.00  0.00     0.049 A 
ATOM     46  H   UNL A   1      39.808  30.473  31.554  1.00  0.00     0.167 HD
ATOM     47  C   UNL A   1      39.944  32.559  35.393  1.00  0.00     0.037 A 
ATOM     48  C   UNL A   1      40.740  28.672  29.631  1.00  0.00     0.037 A 
ATOM     49  C   UNL A   1      40.990  31.571  35.467  1.00  0.00     0.049 A 
ATOM     50  C   UNL A   1      41.640  28.511  30.826  1.00  0.00     0.074 A 
ATOM     51  C   UNL A   1      41.833  31.283  36.525  1.00  0.00     0.029 A 
ATOM     52  N   UNL A   1      41.340  30.714  34.433  1.00  0.00    -0.354 N 
ATOM     53  N   UNL A   1      41.606  29.133  31.980  1.00  0.00    -0.248 NA
ATOM     54  C   UNL A   1      42.718  27.518  30.714  1.00  0.00     0.031 C 
ATOM     55  C   UNL A   1      42.730  30.291  36.115  1.00  0.00     0.029 A 
ATOM     56  C   UNL A   1      42.406  29.915  34.821  1.00  0.00     0.049 A 
ATOM     57  H   UNL A   1      40.898  30.678  33.554  1.00  0.00     0.167 HD
ATOM     58  C   UNL A   1      42.633  28.588  32.740  1.00  0.00     0.074 A 
ATOM     59  C   UNL A   1      43.262  27.573  31.922  1.00  0.00     0.031 C 
ATOM     60  C   UNL A   1      43.020  28.902  34.000  1.00  0.00     0.037 A 
BRANCH  47  61
ATOM     61  C   UNL A   1      39.731  33.457  36.580  1.00  0.00     0.064 A 
ATOM     62  C   UNL A   1      38.863  33.103  37.625  1.00  0.00     0.173 A 
ATOM     63  C   UNL A   1      40.429  34.669  36.693  1.00  0.00     0.173 A 
ATOM     64  F   UNL A   1      38.163  31.960  37.565  1.00  0.00    -0.203 F 
ATOM     65  C   UNL A   1      38.674  33.945  38.718  1.00  0.00     0.198 A 
ATOM     66  C   UNL A   1      40.264  35.491  37.805  1.00  0.00     0.198 A 
ATOM     67  F   UNL A   1      41.279  35.054  35.729  1.00  0.00    -0.203 F 
ATOM     68  F   UNL A   1      37.796  33.612  39.674  1.00  0.00    -0.200 F 
ATOM     69  C   UNL A   1      39.380  35.134  38.812  1.00  0.00     0.200 A 
ATOM     70  F   UNL A   1      40.960  36.633  37.902  1.00  0.00    -0.200 F 
ATOM     71  F   UNL A   1      39.203  35.940  39.868  1.00  0.00    -0.200 F 
ENDBRANCH  47  61
BRANCH  48  72
ATOM     72  C   UNL A   1      40.947  27.855  28.405  1.00  0.00     0.064 A 
ATOM     73  C   UNL A   1      41.756  28.315  27.355  1.00  0.00     0.173 A 
ATOM     74  C   UNL A   1      40.334  26.603  28.252  1.00  0.00     0.173 A 
ATOM     75  F   UNL A   1      42.347  29.516  27.443  1.00  0.00    -0.203 F 
ATOM     76  C   UNL A   1      41.925  27.565  26.193  1.00  0.00     0.198 A 
ATOM     77  C   UNL A   1      40.529  25.840  27.104  1.00  0.00     0.198 A 
ATOM     78  F   UNL A   1      39.553  26.115  29.227  1.00  0.00    -0.203 F 
ATOM     79  F   UNL A   1      42.661  28.052  25.186  1.00  0.00    -0.200 F 
ATOM     80  C   UNL A   1      41.316  26.325  26.071  1.00  0.00     0.200 A 
ATOM     81  F   UNL A   1      39.951  24.636  26.996  1.00  0.00    -0.200 F 
ATOM     82  F   UNL A   1      41.482  25.603  24.955  1.00  0.00    -0.200 F 
ENDBRANCH  48  72
BRANCH  60  83
ATOM     83  C   UNL A   1      44.154  28.113  34.592  1.00  0.00     0.064 A 
ATOM     84  C   UNL A   1      43.939  26.906  35.274  1.00  0.00     0.173 A 
ATOM     85  C   UNL A   1      45.479  28.551  34.438  1.00  0.00     0.173 A 
ATOM     86  F   UNL A   1      42.692  26.449  35.460  1.00  0.00    -0.203 F 
ATOM     87  C   UNL A   1      45.004  26.184  35.805  1.00  0.00     0.198 A 
ATOM     88  C   UNL A   1      46.544  27.809  34.940  1.00  0.00     0.198 A 
ATOM     89  F   UNL A   1      45.742  29.695  33.787  1.00  0.00    -0.203 F 
ATOM     90  F   UNL A   1      44.771  25.061  36.499  1.00  0.00    -0.200 F 
ATOM     91  C   UNL A   1      46.306  26.630  35.630  1.00  0.00     0.200 A 
ATOM     92  F   UNL A   1      47.801  28.234  34.754  1.00  0.00    -0.200 F 
ATOM     93  F   UNL A   1      47.330  25.929  36.133  1.00  0.00    -0.200 F 
ENDBRANCH  60  83
ENDBRANCH  34  35
ENDBRANCH  26  29
ENDBRANCH  24  25
ENDBRANCH  23  24
ENDBRANCH   1  23
TORSDOF 15
ENDMDL
