MODEL 1
REMARK VINA RESULT:     -12.6      0.000      0.000
REMARK SMILES C[C@H](Nc1cccc(F)c1C(=O)NCCCCNC(=O)c1ccc(-c2c3nc(c(-c4c(F)c(F)c(F)c(F)c4F)c4ccc([nH]4)c(-c4c(F)c(F)c(F)c(F)c4F)c4nc(c(-c5c(F)c(F)c(F)c(F)c5F)c5ccc2[nH]5)C=C4)C=C3)cc1)c1cccc(Cl)c1
REMARK SMILES IDX 15 1 14 2 13 3 11 4 12 5 10 7 4 8 5 9 6 10 8 11 7 12 9 13
REMARK SMILES IDX 3 14 2 16 1 17 84 18 85 19 90 20 86 21 88 22 87 23 89 24
REMARK SMILES IDX 16 25 17 26 18 27 19 28 20 30 21 31 22 32 83 33 23 34 82 35
REMARK SMILES IDX 24 36 25 37 26 38 76 39 27 40 81 41 75 42 77 43 28 44 80 45
REMARK SMILES IDX 74 46 73 47 29 49 61 50 41 51 60 52 42 53 45 54 59 55 78 56
REMARK SMILES IDX 43 57 44 58 58 60 79 61 46 62 30 63 31 64 39 65 32 66 33 67
REMARK SMILES IDX 37 68 40 69 34 70 35 71 38 72 36 73 62 74 63 75 71 76 64 77
REMARK SMILES IDX 65 78 69 79 72 80 66 81 67 82 70 83 68 84 47 85 48 86 56 87
REMARK SMILES IDX 49 88 50 89 54 90 57 91 51 92 52 93 55 94 53 95
REMARK H PARENT 13 6 3 15 18 29 77 48 45 59
REMARK Flexibility Score: inf
ROOT
ATOM      1  C   UNL A   1      35.017  21.971  26.793  1.00  0.00     0.023 C 
ENDROOT
BRANCH   1   2
ATOM      2  C   UNL A   1      33.713  21.378  27.314  1.00  0.00     0.116 C 
BRANCH   2   3
ATOM      3  N   UNL A   1      32.665  22.348  27.580  1.00  0.00    -0.352 N 
ATOM      4  C   UNL A   1      32.076  23.300  26.774  1.00  0.00     0.256 C 
ATOM      5  O   UNL A   1      31.175  23.972  27.283  1.00  0.00    -0.269 OA
ATOM      6  H   UNL A   1      32.313  22.322  28.499  1.00  0.00     0.163 HD
BRANCH   4   7
ATOM      7  C   UNL A   1      32.536  23.609  25.386  1.00  0.00     0.098 A 
ATOM      8  C   UNL A   1      33.208  24.829  25.112  1.00  0.00     0.050 A 
ATOM      9  C   UNL A   1      33.823  25.006  23.859  1.00  0.00     0.027 A 
ATOM     10  C   UNL A   1      33.682  24.062  22.845  1.00  0.00     0.005 A 
ATOM     11  C   UNL A   1      32.281  22.758  24.307  1.00  0.00     0.138 A 
ATOM     12  C   UNL A   1      32.863  22.961  23.057  1.00  0.00     0.040 A 
ATOM     13  F   UNL A   1      31.404  21.749  24.411  1.00  0.00    -0.206 F 
BRANCH   8  14
ATOM     14  N   UNL A   1      33.092  25.961  25.959  1.00  0.00    -0.378 N 
ATOM     15  H   UNL A   1      33.402  25.961  26.893  1.00  0.00     0.161 HD
BRANCH  14  16
ATOM     16  C   UNL A   1      32.466  27.142  25.327  1.00  0.00     0.106 C 
ATOM     17  C   UNL A   1      30.942  26.941  25.254  1.00  0.00     0.036 C 
BRANCH  16  18
ATOM     18  C   UNL A   1      32.789  28.452  26.038  1.00  0.00    -0.025 A 
ATOM     19  C   UNL A   1      34.000  28.546  26.758  1.00  0.00     0.006 A 
ATOM     20  C   UNL A   1      31.947  29.573  26.022  1.00  0.00     0.026 A 
ATOM     21  C   UNL A   1      34.376  29.725  27.406  1.00  0.00     0.002 A 
ATOM     22  C   UNL A   1      32.323  30.750  26.679  1.00  0.00     0.041 A 
ATOM     23  C   UNL A   1      33.536  30.832  27.362  1.00  0.00     0.020 A 
ATOM     24  Cl  UNL A   1      31.280  32.120  26.643  1.00  0.00    -0.084 Cl
ENDBRANCH  16  18
ENDBRANCH  14  16
ENDBRANCH   8  14
ENDBRANCH   4   7
ENDBRANCH   2   3
ENDBRANCH   1   2
BRANCH   1  25
ATOM     25  C   UNL A   1      35.562  21.410  25.483  1.00  0.00     0.023 C 
BRANCH  25  26
ATOM     26  C   UNL A   1      36.982  21.816  25.103  1.00  0.00     0.116 C 
BRANCH  26  27
ATOM     27  N   UNL A   1      37.987  20.803  25.384  1.00  0.00    -0.352 N 
ATOM     28  C   UNL A   1      39.208  20.903  26.014  1.00  0.00     0.251 C 
ATOM     29  H   UNL A   1      37.758  19.896  25.073  1.00  0.00     0.163 HD
ATOM     30  O   UNL A   1      39.938  19.924  26.094  1.00  0.00    -0.269 OA
BRANCH  28  31
ATOM     31  C   UNL A   1      39.668  22.203  26.554  1.00  0.00     0.039 A 
ATOM     32  C   UNL A   1      40.646  22.201  27.554  1.00  0.00     0.014 A 
ATOM     33  C   UNL A   1      39.163  23.413  26.075  1.00  0.00     0.014 A 
ATOM     34  C   UNL A   1      41.192  23.410  27.993  1.00  0.00     0.010 A 
ATOM     35  C   UNL A   1      39.760  24.612  26.458  1.00  0.00     0.010 A 
ATOM     36  C   UNL A   1      40.794  24.623  27.407  1.00  0.00    -0.014 A 
BRANCH  36  37
ATOM     37  C   UNL A   1      41.476  25.901  27.736  1.00  0.00     0.031 A 
ATOM     38  C   UNL A   1      40.744  26.989  28.467  1.00  0.00     0.074 A 
ATOM     39  C   UNL A   1      42.733  26.112  27.297  1.00  0.00     0.049 A 
ATOM     40  N   UNL A   1      41.142  28.203  28.754  1.00  0.00    -0.248 NA
ATOM     41  C   UNL A   1      39.377  26.685  28.914  1.00  0.00     0.031 C 
ATOM     42  C   UNL A   1      43.531  25.157  26.528  1.00  0.00     0.029 A 
ATOM     43  N   UNL A   1      43.556  27.206  27.420  1.00  0.00    -0.354 N 
ATOM     44  C   UNL A   1      40.070  28.812  29.392  1.00  0.00     0.074 A 
ATOM     45  C   UNL A   1      38.990  27.850  29.417  1.00  0.00     0.031 C 
ATOM     46  C   UNL A   1      44.733  25.695  26.265  1.00  0.00     0.029 A 
ATOM     47  C   UNL A   1      44.777  27.048  26.812  1.00  0.00     0.049 A 
ATOM     48  H   UNL A   1      43.295  28.026  27.899  1.00  0.00     0.167 HD
ATOM     49  C   UNL A   1      40.003  30.053  29.927  1.00  0.00     0.037 A 
ATOM     50  C   UNL A   1      45.816  27.900  26.696  1.00  0.00     0.037 A 
ATOM     51  C   UNL A   1      41.093  30.993  29.939  1.00  0.00     0.049 A 
ATOM     52  C   UNL A   1      45.719  29.268  27.311  1.00  0.00     0.074 A 
ATOM     53  C   UNL A   1      41.143  32.241  30.534  1.00  0.00     0.029 A 
ATOM     54  N   UNL A   1      42.322  30.787  29.332  1.00  0.00    -0.354 N 
ATOM     55  N   UNL A   1      44.723  29.807  27.970  1.00  0.00    -0.248 NA
ATOM     56  C   UNL A   1      46.889  30.147  27.170  1.00  0.00     0.031 C 
ATOM     57  C   UNL A   1      42.389  32.810  30.250  1.00  0.00     0.029 A 
ATOM     58  C   UNL A   1      43.130  31.897  29.518  1.00  0.00     0.049 A 
ATOM     59  H   UNL A   1      42.581  29.974  28.841  1.00  0.00     0.167 HD
ATOM     60  C   UNL A   1      45.147  31.076  28.336  1.00  0.00     0.074 A 
ATOM     61  C   UNL A   1      46.499  31.225  27.839  1.00  0.00     0.031 C 
ATOM     62  C   UNL A   1      44.475  32.032  29.020  1.00  0.00     0.037 A 
BRANCH  49  63
ATOM     63  C   UNL A   1      38.713  30.475  30.566  1.00  0.00     0.064 A 
ATOM     64  C   UNL A   1      37.685  31.034  29.791  1.00  0.00     0.173 A 
ATOM     65  C   UNL A   1      38.528  30.404  31.954  1.00  0.00     0.173 A 
ATOM     66  F   UNL A   1      37.817  31.129  28.460  1.00  0.00    -0.203 F 
ATOM     67  C   UNL A   1      36.524  31.519  30.387  1.00  0.00     0.198 A 
ATOM     68  C   UNL A   1      37.354  30.867  32.543  1.00  0.00     0.198 A 
ATOM     69  F   UNL A   1      39.477  29.870  32.736  1.00  0.00    -0.203 F 
ATOM     70  F   UNL A   1      35.569  32.079  29.631  1.00  0.00    -0.200 F 
ATOM     71  C   UNL A   1      36.359  31.434  31.761  1.00  0.00     0.200 A 
ATOM     72  F   UNL A   1      37.187  30.765  33.869  1.00  0.00    -0.200 F 
ATOM     73  F   UNL A   1      35.239  31.897  32.331  1.00  0.00    -0.200 F 
ENDBRANCH  49  63
BRANCH  50  74
ATOM     74  C   UNL A   1      47.045  27.465  25.984  1.00  0.00     0.064 A 
ATOM     75  C   UNL A   1      48.129  26.903  26.675  1.00  0.00     0.173 A 
ATOM     76  C   UNL A   1      47.168  27.631  24.599  1.00  0.00     0.173 A 
ATOM     77  F   UNL A   1      48.063  26.727  28.002  1.00  0.00    -0.203 F 
ATOM     78  C   UNL A   1      49.297  26.539  26.006  1.00  0.00     0.198 A 
ATOM     79  C   UNL A   1      48.327  27.244  23.928  1.00  0.00     0.198 A 
ATOM     80  F   UNL A   1      46.150  28.144  23.893  1.00  0.00    -0.203 F 
ATOM     81  F   UNL A   1      50.330  26.034  26.693  1.00  0.00    -0.200 F 
ATOM     82  C   UNL A   1      49.392  26.707  24.633  1.00  0.00     0.200 A 
ATOM     83  F   UNL A   1      48.406  27.387  22.598  1.00  0.00    -0.200 F 
ATOM     84  F   UNL A   1      50.512  26.348  23.989  1.00  0.00    -0.200 F 
ENDBRANCH  50  74
BRANCH  62  85
ATOM     85  C   UNL A   1      45.182  33.326  29.290  1.00  0.00     0.064 A 
ATOM     86  C   UNL A   1      45.919  33.500  30.472  1.00  0.00     0.173 A 
ATOM     87  C   UNL A   1      45.056  34.420  28.424  1.00  0.00     0.173 A 
ATOM     88  F   UNL A   1      46.062  32.484  31.336  1.00  0.00    -0.203 F 
ATOM     89  C   UNL A   1      46.487  34.731  30.785  1.00  0.00     0.198 A 
ATOM     90  C   UNL A   1      45.648  35.643  28.728  1.00  0.00     0.198 A 
ATOM     91  F   UNL A   1      44.373  34.297  27.277  1.00  0.00    -0.203 F 
ATOM     92  F   UNL A   1      47.155  34.886  31.936  1.00  0.00    -0.200 F 
ATOM     93  C   UNL A   1      46.353  35.801  29.913  1.00  0.00     0.200 A 
ATOM     94  F   UNL A   1      45.534  36.670  27.875  1.00  0.00    -0.200 F 
ATOM     95  F   UNL A   1      46.902  36.985  30.214  1.00  0.00    -0.200 F 
ENDBRANCH  62  85
ENDBRANCH  36  37
ENDBRANCH  28  31
ENDBRANCH  26  27
ENDBRANCH  25  26
ENDBRANCH   1  25
TORSDOF 14
ENDMDL
MODEL 2
REMARK VINA RESULT:     -12.6      0.288      7.437
REMARK SMILES C[C@H](Nc1cccc(F)c1C(=O)NCCCCNC(=O)c1ccc(-c2c3nc(c(-c4c(F)c(F)c(F)c(F)c4F)c4ccc([nH]4)c(-c4c(F)c(F)c(F)c(F)c4F)c4nc(c(-c5c(F)c(F)c(F)c(F)c5F)c5ccc2[nH]5)C=C4)C=C3)cc1)c1cccc(Cl)c1
REMARK SMILES IDX 15 1 14 2 13 3 11 4 12 5 10 7 4 8 5 9 6 10 8 11 7 12 9 13
REMARK SMILES IDX 3 14 2 16 1 17 84 18 85 19 90 20 86 21 88 22 87 23 89 24
REMARK SMILES IDX 16 25 17 26 18 27 19 28 20 30 21 31 22 32 83 33 23 34 82 35
REMARK SMILES IDX 24 36 25 37 26 38 76 39 27 40 81 41 75 42 77 43 28 44 80 45
REMARK SMILES IDX 74 46 73 47 29 49 61 50 41 51 60 52 42 53 45 54 59 55 78 56
REMARK SMILES IDX 43 57 44 58 58 60 79 61 46 62 30 63 31 64 39 65 32 66 33 67
REMARK SMILES IDX 37 68 40 69 34 70 35 71 38 72 36 73 62 74 63 75 71 76 64 77
REMARK SMILES IDX 65 78 69 79 72 80 66 81 67 82 70 83 68 84 47 85 48 86 56 87
REMARK SMILES IDX 49 88 50 89 54 90 57 91 51 92 52 93 55 94 53 95
REMARK H PARENT 13 6 3 15 18 29 77 48 45 59
REMARK Flexibility Score: inf
ROOT
ATOM      1  C   UNL A   1      35.001  22.053  26.828  1.00  0.00     0.023 C 
ENDROOT
BRANCH   1   2
ATOM      2  C   UNL A   1      33.717  21.459  27.396  1.00  0.00     0.116 C 
BRANCH   2   3
ATOM      3  N   UNL A   1      32.646  22.415  27.612  1.00  0.00    -0.352 N 
ATOM      4  C   UNL A   1      32.100  23.378  26.788  1.00  0.00     0.256 C 
ATOM      5  O   UNL A   1      31.162  24.033  27.251  1.00  0.00    -0.269 OA
ATOM      6  H   UNL A   1      32.237  22.369  28.507  1.00  0.00     0.163 HD
BRANCH   4   7
ATOM      7  C   UNL A   1      32.644  23.716  25.437  1.00  0.00     0.098 A 
ATOM      8  C   UNL A   1      33.345  24.934  25.236  1.00  0.00     0.050 A 
ATOM      9  C   UNL A   1      34.034  25.136  24.026  1.00  0.00     0.027 A 
ATOM     10  C   UNL A   1      33.942  24.220  22.981  1.00  0.00     0.005 A 
ATOM     11  C   UNL A   1      32.443  22.897  24.324  1.00  0.00     0.138 A 
ATOM     12  C   UNL A   1      33.100  23.125  23.115  1.00  0.00     0.040 A 
ATOM     13  F   UNL A   1      31.550  21.896  24.350  1.00  0.00    -0.206 F 
BRANCH   8  14
ATOM     14  N   UNL A   1      33.192  26.046  26.104  1.00  0.00    -0.378 N 
ATOM     15  H   UNL A   1      33.473  26.027  27.048  1.00  0.00     0.161 HD
BRANCH  14  16
ATOM     16  C   UNL A   1      32.577  27.236  25.480  1.00  0.00     0.106 C 
ATOM     17  C   UNL A   1      31.050  27.050  25.410  1.00  0.00     0.036 C 
BRANCH  16  18
ATOM     18  C   UNL A   1      32.915  28.539  26.197  1.00  0.00    -0.025 A 
ATOM     19  C   UNL A   1      34.142  28.628  26.889  1.00  0.00     0.006 A 
ATOM     20  C   UNL A   1      32.070  29.658  26.213  1.00  0.00     0.026 A 
ATOM     21  C   UNL A   1      34.530  29.800  27.540  1.00  0.00     0.002 A 
ATOM     22  C   UNL A   1      32.460  30.829  26.872  1.00  0.00     0.041 A 
ATOM     23  C   UNL A   1      33.688  30.906  27.528  1.00  0.00     0.020 A 
ATOM     24  Cl  UNL A   1      31.414  32.197  26.876  1.00  0.00    -0.084 Cl
ENDBRANCH  16  18
ENDBRANCH  14  16
ENDBRANCH   8  14
ENDBRANCH   4   7
ENDBRANCH   2   3
ENDBRANCH   1   2
BRANCH   1  25
ATOM     25  C   UNL A   1      35.568  21.410  25.566  1.00  0.00     0.023 C 
BRANCH  25  26
ATOM     26  C   UNL A   1      36.972  21.836  25.151  1.00  0.00     0.116 C 
BRANCH  26  27
ATOM     27  N   UNL A   1      38.010  20.874  25.487  1.00  0.00    -0.352 N 
ATOM     28  C   UNL A   1      39.220  21.049  26.122  1.00  0.00     0.251 C 
ATOM     29  H   UNL A   1      37.817  19.947  25.218  1.00  0.00     0.163 HD
ATOM     30  O   UNL A   1      39.985  20.102  26.254  1.00  0.00    -0.269 OA
BRANCH  28  31
ATOM     31  C   UNL A   1      39.627  22.389  26.603  1.00  0.00     0.039 A 
ATOM     32  C   UNL A   1      40.672  22.475  27.529  1.00  0.00     0.014 A 
ATOM     33  C   UNL A   1      39.008  23.551  26.141  1.00  0.00     0.014 A 
ATOM     34  C   UNL A   1      41.164  23.728  27.907  1.00  0.00     0.010 A 
ATOM     35  C   UNL A   1      39.547  24.796  26.458  1.00  0.00     0.010 A 
ATOM     36  C   UNL A   1      40.643  24.897  27.329  1.00  0.00    -0.014 A 
BRANCH  36  37
ATOM     37  C   UNL A   1      41.258  26.226  27.585  1.00  0.00     0.031 A 
ATOM     38  C   UNL A   1      42.665  26.511  27.147  1.00  0.00     0.074 A 
ATOM     39  C   UNL A   1      40.572  27.147  28.292  1.00  0.00     0.049 A 
ATOM     40  N   UNL A   1      43.399  27.574  27.368  1.00  0.00    -0.248 NA
ATOM     41  C   UNL A   1      43.349  25.459  26.382  1.00  0.00     0.031 C 
ATOM     42  C   UNL A   1      39.219  26.970  28.821  1.00  0.00     0.029 A 
ATOM     43  N   UNL A   1      40.924  28.410  28.701  1.00  0.00    -0.354 N 
ATOM     44  C   UNL A   1      44.633  27.307  26.791  1.00  0.00     0.074 A 
ATOM     45  C   UNL A   1      44.565  25.970  26.243  1.00  0.00     0.031 C 
ATOM     46  C   UNL A   1      38.848  28.087  29.467  1.00  0.00     0.029 A 
ATOM     47  C   UNL A   1      39.949  29.045  29.431  1.00  0.00     0.049 A 
ATOM     48  H   UNL A   1      41.793  28.822  28.490  1.00  0.00     0.167 HD
ATOM     49  C   UNL A   1      45.715  28.115  26.708  1.00  0.00     0.037 A 
ATOM     50  C   UNL A   1      39.943  30.259  30.017  1.00  0.00     0.037 A 
ATOM     51  C   UNL A   1      45.766  29.461  27.215  1.00  0.00     0.049 A 
ATOM     52  C   UNL A   1      41.154  31.141  29.897  1.00  0.00     0.074 A 
ATOM     53  C   UNL A   1      46.790  30.383  27.100  1.00  0.00     0.029 A 
ATOM     54  N   UNL A   1      44.750  30.076  27.930  1.00  0.00    -0.354 N 
ATOM     55  N   UNL A   1      42.291  30.903  29.291  1.00  0.00    -0.248 NA
ATOM     56  C   UNL A   1      41.084  32.461  30.541  1.00  0.00     0.031 C 
ATOM     57  C   UNL A   1      46.412  31.544  27.783  1.00  0.00     0.029 A 
ATOM     58  C   UNL A   1      45.133  31.359  28.284  1.00  0.00     0.049 A 
ATOM     59  H   UNL A   1      43.885  29.662  28.153  1.00  0.00     0.167 HD
ATOM     60  C   UNL A   1      43.064  32.042  29.462  1.00  0.00     0.074 A 
ATOM     61  C   UNL A   1      42.262  32.981  30.219  1.00  0.00     0.031 C 
ATOM     62  C   UNL A   1      44.325  32.285  29.034  1.00  0.00     0.037 A 
BRANCH  49  63
ATOM     63  C   UNL A   1      46.940  27.582  26.026  1.00  0.00     0.064 A 
ATOM     64  C   UNL A   1      47.990  27.031  26.778  1.00  0.00     0.173 A 
ATOM     65  C   UNL A   1      47.112  27.693  24.639  1.00  0.00     0.173 A 
ATOM     66  F   UNL A   1      47.876  26.909  28.109  1.00  0.00    -0.203 F 
ATOM     67  C   UNL A   1      49.171  26.624  26.165  1.00  0.00     0.198 A 
ATOM     68  C   UNL A   1      48.285  27.260  24.026  1.00  0.00     0.198 A 
ATOM     69  F   UNL A   1      46.134  28.203  23.876  1.00  0.00    -0.203 F 
ATOM     70  F   UNL A   1      50.174  26.131  26.906  1.00  0.00    -0.200 F 
ATOM     71  C   UNL A   1      49.317  26.737  24.791  1.00  0.00     0.200 A 
ATOM     72  F   UNL A   1      48.417  27.351  22.696  1.00  0.00    -0.200 F 
ATOM     73  F   UNL A   1      50.454  26.340  24.202  1.00  0.00    -0.200 F 
ENDBRANCH  49  63
BRANCH  50  74
ATOM     74  C   UNL A   1      38.734  30.714  30.750  1.00  0.00     0.064 A 
ATOM     75  C   UNL A   1      37.657  31.315  30.082  1.00  0.00     0.173 A 
ATOM     76  C   UNL A   1      38.646  30.578  32.142  1.00  0.00     0.173 A 
ATOM     77  F   UNL A   1      37.695  31.472  28.751  1.00  0.00    -0.203 F 
ATOM     78  C   UNL A   1      36.546  31.780  30.782  1.00  0.00     0.198 A 
ATOM     79  C   UNL A   1      37.523  31.022  32.838  1.00  0.00     0.198 A 
ATOM     80  F   UNL A   1      39.641  29.990  32.821  1.00  0.00    -0.203 F 
ATOM     81  F   UNL A   1      35.544  32.380  30.124  1.00  0.00    -0.200 F 
ATOM     82  C   UNL A   1      36.478  31.629  32.159  1.00  0.00     0.200 A 
ATOM     83  F   UNL A   1      37.452  30.853  34.166  1.00  0.00    -0.200 F 
ATOM     84  F   UNL A   1      35.404  32.067  32.831  1.00  0.00    -0.200 F 
ENDBRANCH  50  74
BRANCH  62  85
ATOM     85  C   UNL A   1      44.926  33.621  29.355  1.00  0.00     0.064 A 
ATOM     86  C   UNL A   1      44.790  34.695  28.461  1.00  0.00     0.173 A 
ATOM     87  C   UNL A   1      45.711  33.811  30.500  1.00  0.00     0.173 A 
ATOM     88  F   UNL A   1      44.054  34.559  27.348  1.00  0.00    -0.203 F 
ATOM     89  C   UNL A   1      45.435  35.905  28.694  1.00  0.00     0.198 A 
ATOM     90  C   UNL A   1      46.335  35.032  30.743  1.00  0.00     0.198 A 
ATOM     91  F   UNL A   1      45.860  32.818  31.388  1.00  0.00    -0.203 F 
ATOM     92  F   UNL A   1      45.322  36.905  27.810  1.00  0.00    -0.200 F 
ATOM     93  C   UNL A   1      46.206  36.074  29.835  1.00  0.00     0.200 A 
ATOM     94  F   UNL A   1      47.063  35.200  31.855  1.00  0.00    -0.200 F 
ATOM     95  F   UNL A   1      46.825  37.240  30.060  1.00  0.00    -0.200 F 
ENDBRANCH  62  85
ENDBRANCH  36  37
ENDBRANCH  28  31
ENDBRANCH  26  27
ENDBRANCH  25  26
ENDBRANCH   1  25
TORSDOF 14
ENDMDL
MODEL 3
REMARK VINA RESULT:     -12.5      4.434      9.686
REMARK SMILES C[C@H](Nc1cccc(F)c1C(=O)NCCCCNC(=O)c1ccc(-c2c3nc(c(-c4c(F)c(F)c(F)c(F)c4F)c4ccc([nH]4)c(-c4c(F)c(F)c(F)c(F)c4F)c4nc(c(-c5c(F)c(F)c(F)c(F)c5F)c5ccc2[nH]5)C=C4)C=C3)cc1)c1cccc(Cl)c1
REMARK SMILES IDX 15 1 14 2 13 3 11 4 12 5 10 7 4 8 5 9 6 10 8 11 7 12 9 13
REMARK SMILES IDX 3 14 2 16 1 17 84 18 85 19 90 20 86 21 88 22 87 23 89 24
REMARK SMILES IDX 16 25 17 26 18 27 19 28 20 30 21 31 22 32 83 33 23 34 82 35
REMARK SMILES IDX 24 36 25 37 26 38 76 39 27 40 81 41 75 42 77 43 28 44 80 45
REMARK SMILES IDX 74 46 73 47 29 49 61 50 41 51 60 52 42 53 45 54 59 55 78 56
REMARK SMILES IDX 43 57 44 58 58 60 79 61 46 62 30 63 31 64 39 65 32 66 33 67
REMARK SMILES IDX 37 68 40 69 34 70 35 71 38 72 36 73 62 74 63 75 71 76 64 77
REMARK SMILES IDX 65 78 69 79 72 80 66 81 67 82 70 83 68 84 47 85 48 86 56 87
REMARK SMILES IDX 49 88 50 89 54 90 57 91 51 92 52 93 55 94 53 95
REMARK H PARENT 13 6 3 15 18 29 77 48 45 59
REMARK Flexibility Score: inf
ROOT
ATOM      1  C   UNL A   1      33.379  28.879  24.669  1.00  0.00     0.023 C 
ENDROOT
BRANCH   1   2
ATOM      2  C   UNL A   1      33.639  29.087  23.181  1.00  0.00     0.116 C 
BRANCH   2   3
ATOM      3  N   UNL A   1      33.868  27.868  22.426  1.00  0.00    -0.352 N 
ATOM      4  C   UNL A   1      33.069  26.766  22.205  1.00  0.00     0.256 C 
ATOM      5  O   UNL A   1      33.537  25.881  21.484  1.00  0.00    -0.269 OA
ATOM      6  H   UNL A   1      34.753  27.819  21.996  1.00  0.00     0.163 HD
BRANCH   4   7
ATOM      7  C   UNL A   1      31.742  26.561  22.863  1.00  0.00     0.098 A 
ATOM      8  C   UNL A   1      31.513  25.410  23.662  1.00  0.00     0.050 A 
ATOM      9  C   UNL A   1      30.345  25.342  24.444  1.00  0.00     0.027 A 
ATOM     10  C   UNL A   1      29.358  26.320  24.357  1.00  0.00     0.005 A 
ATOM     11  C   UNL A   1      30.672  27.441  22.678  1.00  0.00     0.138 A 
ATOM     12  C   UNL A   1      29.502  27.343  23.430  1.00  0.00     0.040 A 
ATOM     13  F   UNL A   1      30.699  28.373  21.715  1.00  0.00    -0.206 F 
BRANCH   8  14
ATOM     14  N   UNL A   1      32.293  24.233  23.533  1.00  0.00    -0.378 N 
ATOM     15  H   UNL A   1      32.379  23.742  22.683  1.00  0.00     0.161 HD
BRANCH  14  16
ATOM     16  C   UNL A   1      32.967  23.800  24.776  1.00  0.00     0.106 C 
ATOM     17  C   UNL A   1      32.308  22.510  25.297  1.00  0.00     0.036 C 
BRANCH  16  18
ATOM     18  C   UNL A   1      34.469  23.591  24.609  1.00  0.00    -0.025 A 
ATOM     19  C   UNL A   1      34.940  23.021  23.407  1.00  0.00     0.006 A 
ATOM     20  C   UNL A   1      35.413  23.930  25.589  1.00  0.00     0.026 A 
ATOM     21  C   UNL A   1      36.303  22.832  23.173  1.00  0.00     0.002 A 
ATOM     22  C   UNL A   1      36.778  23.731  25.354  1.00  0.00     0.041 A 
ATOM     23  C   UNL A   1      37.226  23.193  24.149  1.00  0.00     0.020 A 
ATOM     24  Cl  UNL A   1      37.925  24.159  26.566  1.00  0.00    -0.084 Cl
ENDBRANCH  16  18
ENDBRANCH  14  16
ENDBRANCH   8  14
ENDBRANCH   4   7
ENDBRANCH   2   3
ENDBRANCH   1   2
BRANCH   1  25
ATOM     25  C   UNL A   1      32.117  29.508  25.251  1.00  0.00     0.023 C 
BRANCH  25  26
ATOM     26  C   UNL A   1      32.189  29.974  26.701  1.00  0.00     0.116 C 
BRANCH  26  27
ATOM     27  N   UNL A   1      32.170  31.420  26.864  1.00  0.00    -0.352 N 
ATOM     28  C   UNL A   1      33.115  32.273  27.389  1.00  0.00     0.251 C 
ATOM     29  H   UNL A   1      31.348  31.860  26.547  1.00  0.00     0.163 HD
ATOM     30  O   UNL A   1      32.870  33.469  27.491  1.00  0.00    -0.269 OA
BRANCH  28  31
ATOM     31  C   UNL A   1      34.409  31.748  27.881  1.00  0.00     0.039 A 
ATOM     32  C   UNL A   1      35.510  32.609  27.909  1.00  0.00     0.014 A 
ATOM     33  C   UNL A   1      34.541  30.433  28.328  1.00  0.00     0.014 A 
ATOM     34  C   UNL A   1      36.711  32.183  28.484  1.00  0.00     0.010 A 
ATOM     35  C   UNL A   1      35.712  30.033  28.970  1.00  0.00     0.010 A 
ATOM     36  C   UNL A   1      36.803  30.911  29.072  1.00  0.00    -0.014 A 
BRANCH  36  37
ATOM     37  C   UNL A   1      38.009  30.497  29.835  1.00  0.00     0.031 A 
ATOM     38  C   UNL A   1      38.976  29.507  29.254  1.00  0.00     0.074 A 
ATOM     39  C   UNL A   1      38.184  30.952  31.092  1.00  0.00     0.049 A 
ATOM     40  N   UNL A   1      40.027  28.956  29.809  1.00  0.00    -0.248 NA
ATOM     41  C   UNL A   1      38.718  29.055  27.879  1.00  0.00     0.031 C 
ATOM     42  C   UNL A   1      37.287  31.873  31.790  1.00  0.00     0.029 A 
ATOM     43  N   UNL A   1      39.169  30.689  32.013  1.00  0.00    -0.354 N 
ATOM     44  C   UNL A   1      40.539  28.081  28.862  1.00  0.00     0.074 A 
ATOM     45  C   UNL A   1      39.664  28.141  27.710  1.00  0.00     0.031 C 
ATOM     46  C   UNL A   1      37.770  32.115  33.019  1.00  0.00     0.029 A 
ATOM     47  C   UNL A   1      38.990  31.337  33.212  1.00  0.00     0.049 A 
ATOM     48  H   UNL A   1      39.932  30.094  31.832  1.00  0.00     0.167 HD
ATOM     49  C   UNL A   1      41.650  27.312  28.939  1.00  0.00     0.037 A 
ATOM     50  C   UNL A   1      39.719  31.301  34.345  1.00  0.00     0.037 A 
ATOM     51  C   UNL A   1      42.543  27.285  30.068  1.00  0.00     0.049 A 
ATOM     52  C   UNL A   1      40.957  30.450  34.399  1.00  0.00     0.074 A 
ATOM     53  C   UNL A   1      43.739  26.603  30.200  1.00  0.00     0.029 A 
ATOM     54  N   UNL A   1      42.339  27.972  31.255  1.00  0.00    -0.354 N 
ATOM     55  N   UNL A   1      41.467  29.677  33.471  1.00  0.00    -0.248 NA
ATOM     56  C   UNL A   1      41.722  30.464  35.654  1.00  0.00     0.031 C 
ATOM     57  C   UNL A   1      44.238  26.842  31.484  1.00  0.00     0.029 A 
ATOM     58  C   UNL A   1      43.376  27.710  32.135  1.00  0.00     0.049 A 
ATOM     59  H   UNL A   1      41.570  28.558  31.444  1.00  0.00     0.167 HD
ATOM     60  C   UNL A   1      42.617  29.128  34.019  1.00  0.00     0.074 A 
ATOM     61  C   UNL A   1      42.741  29.666  35.358  1.00  0.00     0.031 C 
ATOM     62  C   UNL A   1      43.489  28.254  33.463  1.00  0.00     0.037 A 
BRANCH  49  63
ATOM     63  C   UNL A   1      41.987  26.442  27.765  1.00  0.00     0.064 A 
ATOM     64  C   UNL A   1      41.412  25.169  27.634  1.00  0.00     0.173 A 
ATOM     65  C   UNL A   1      42.943  26.834  26.815  1.00  0.00     0.173 A 
ATOM     66  F   UNL A   1      40.498  24.747  28.520  1.00  0.00    -0.203 F 
ATOM     67  C   UNL A   1      41.792  24.315  26.603  1.00  0.00     0.198 A 
ATOM     68  C   UNL A   1      43.301  25.987  25.770  1.00  0.00     0.198 A 
ATOM     69  F   UNL A   1      43.515  28.045  26.892  1.00  0.00    -0.203 F 
ATOM     70  F   UNL A   1      41.253  23.091  26.515  1.00  0.00    -0.200 F 
ATOM     71  C   UNL A   1      42.734  24.725  25.671  1.00  0.00     0.200 A 
ATOM     72  F   UNL A   1      44.196  26.392  24.859  1.00  0.00    -0.200 F 
ATOM     73  F   UNL A   1      43.095  23.903  24.676  1.00  0.00    -0.200 F 
ENDBRANCH  49  63
BRANCH  50  74
ATOM     74  C   UNL A   1      39.302  32.120  35.512  1.00  0.00     0.064 A 
ATOM     75  C   UNL A   1      39.724  33.449  35.661  1.00  0.00     0.173 A 
ATOM     76  C   UNL A   1      38.491  31.576  36.517  1.00  0.00     0.173 A 
ATOM     77  F   UNL A   1      40.504  34.015  34.728  1.00  0.00    -0.203 F 
ATOM     78  C   UNL A   1      39.365  34.197  36.781  1.00  0.00     0.198 A 
ATOM     79  C   UNL A   1      38.113  32.332  37.624  1.00  0.00     0.198 A 
ATOM     80  F   UNL A   1      38.045  30.315  36.408  1.00  0.00    -0.203 F 
ATOM     81  F   UNL A   1      39.809  35.454  36.915  1.00  0.00    -0.200 F 
ATOM     82  C   UNL A   1      38.557  33.638  37.759  1.00  0.00     0.200 A 
ATOM     83  F   UNL A   1      37.313  31.796  38.556  1.00  0.00    -0.200 F 
ATOM     84  F   UNL A   1      38.203  34.361  38.832  1.00  0.00    -0.200 F 
ENDBRANCH  50  74
BRANCH  62  85
ATOM     85  C   UNL A   1      44.667  27.825  34.285  1.00  0.00     0.064 A 
ATOM     86  C   UNL A   1      45.877  28.533  34.217  1.00  0.00     0.173 A 
ATOM     87  C   UNL A   1      44.626  26.663  35.068  1.00  0.00     0.173 A 
ATOM     88  F   UNL A   1      45.968  29.647  33.475  1.00  0.00    -0.203 F 
ATOM     89  C   UNL A   1      47.009  28.081  34.888  1.00  0.00     0.198 A 
ATOM     90  C   UNL A   1      45.753  26.228  35.759  1.00  0.00     0.198 A 
ATOM     91  F   UNL A   1      43.489  25.961  35.174  1.00  0.00    -0.203 F 
ATOM     92  F   UNL A   1      48.164  28.752  34.780  1.00  0.00    -0.200 F 
ATOM     93  C   UNL A   1      46.946  26.930  35.660  1.00  0.00     0.200 A 
ATOM     94  F   UNL A   1      45.687  25.127  36.520  1.00  0.00    -0.200 F 
ATOM     95  F   UNL A   1      48.036  26.497  36.308  1.00  0.00    -0.200 F 
ENDBRANCH  62  85
ENDBRANCH  36  37
ENDBRANCH  28  31
ENDBRANCH  26  27
ENDBRANCH  25  26
ENDBRANCH   1  25
TORSDOF 14
ENDMDL
