MODEL 1
REMARK VINA RESULT:     -13.3      0.000      0.000
REMARK SMILES CCOc1ccc2[nH]c(C)c/c(=N\c3cccc(C(=O)NCCCCNC(=O)c4ccc(-c5c6nc(c(-c7c(F)c(F)c(F)c(F)c7F)c7ccc([nH]7)c(-c7c(F)c(F)c(F)c(F)c7F)c7nc(c(-c8c(F)c(F)c(F)c(F)c8F)c8ccc5[nH]8)C=C7)C=C6)cc4)c3)c2c1
REMARK SMILES IDX 23 1 22 2 21 3 19 4 20 5 18 7 14 8 15 9 92 10 16 11 17 12
REMARK SMILES IDX 13 13 4 14 5 15 94 16 6 17 93 18 7 19 12 20 8 21 11 22 9 23
REMARK SMILES IDX 10 25 3 26 2 27 1 28 24 29 25 30 26 31 27 32 28 34 29 35
REMARK SMILES IDX 30 36 91 37 31 38 90 39 32 40 33 41 34 42 84 43 35 44 89 45
REMARK SMILES IDX 83 46 85 47 36 48 88 49 82 50 81 51 37 53 69 54 49 55 68 56
REMARK SMILES IDX 50 57 53 58 67 59 86 60 51 61 52 62 66 64 87 65 54 66 38 67
REMARK SMILES IDX 39 68 47 69 40 70 41 71 45 72 48 73 42 74 43 75 46 76 44 77
REMARK SMILES IDX 70 78 71 79 79 80 72 81 73 82 77 83 80 84 74 85 75 86 78 87
REMARK SMILES IDX 76 88 55 89 56 90 64 91 57 92 58 93 62 94 65 95 59 96 60 97
REMARK SMILES IDX 63 98 61 99
REMARK H PARENT 21 6 8 24 26 33 85 52 53 63
REMARK Flexibility Score: inf
ROOT
ATOM      1  C   UNL A   1      31.923  30.238  26.487  1.00  0.00     0.023 C 
ENDROOT
BRANCH   1   2
ATOM      2  C   UNL A   1      33.288  29.856  25.928  1.00  0.00     0.116 C 
BRANCH   2   3
ATOM      3  N   UNL A   1      33.283  29.345  24.567  1.00  0.00    -0.352 N 
ATOM      4  C   UNL A   1      33.079  28.069  24.084  1.00  0.00     0.251 C 
ATOM      5  O   UNL A   1      33.095  27.903  22.864  1.00  0.00    -0.269 OA
ATOM      6  H   UNL A   1      33.456  30.023  23.875  1.00  0.00     0.163 HD
BRANCH   4   7
ATOM      7  C   UNL A   1      32.915  26.887  24.976  1.00  0.00     0.041 A 
ATOM      8  C   UNL A   1      33.791  24.889  26.026  1.00  0.00     0.064 A 
ATOM      9  C   UNL A   1      32.499  24.509  26.399  1.00  0.00     0.028 A 
ATOM     10  C   UNL A   1      33.992  26.139  25.445  1.00  0.00     0.042 A 
ATOM     11  C   UNL A   1      31.410  25.311  26.050  1.00  0.00     0.003 A 
ATOM     12  C   UNL A   1      31.616  26.479  25.309  1.00  0.00     0.014 A 
BRANCH   8  13
ATOM     13  N   UNL A   1      34.899  24.027  26.091  1.00  0.00    -0.248 NA
ATOM     14  C   UNL A   1      38.456  21.705  25.643  1.00  0.00     0.120 A 
ATOM     15  C   UNL A   1      38.324  20.367  25.276  1.00  0.00     0.048 A 
ATOM     16  C   UNL A   1      37.332  22.523  25.758  1.00  0.00     0.059 A 
ATOM     17  C   UNL A   1      37.072  19.856  24.941  1.00  0.00     0.030 A 
ATOM     18  C   UNL A   1      36.069  22.005  25.434  1.00  0.00     0.027 A 
ATOM     19  C   UNL A   1      35.940  20.672  25.000  1.00  0.00     0.048 A 
ATOM     20  C   UNL A   1      34.839  22.862  25.500  1.00  0.00     0.075 A 
ATOM     21  N   UNL A   1      34.699  20.172  24.593  1.00  0.00    -0.359 N 
ATOM     22  C   UNL A   1      33.619  22.274  24.840  1.00  0.00     0.050 A 
ATOM     23  C   UNL A   1      33.597  20.982  24.476  1.00  0.00     0.014 A 
ATOM     24  H   UNL A   1      34.613  19.214  24.385  1.00  0.00     0.166 HD
ATOM     25  C   UNL A   1      32.346  20.353  23.928  1.00  0.00     0.064 C 
BRANCH  14  26
ATOM     26  O   UNL A   1      39.679  22.206  25.997  1.00  0.00    -0.494 OA
BRANCH  26  27
ATOM     27  C   UNL A   1      40.331  21.425  27.010  1.00  0.00     0.226 C 
ATOM     28  C   UNL A   1      41.261  22.271  27.867  1.00  0.00     0.049 C 
ENDBRANCH  26  27
ENDBRANCH  14  26
ENDBRANCH   8  13
ENDBRANCH   4   7
ENDBRANCH   2   3
ENDBRANCH   1   2
BRANCH   1  29
ATOM     29  C   UNL A   1      31.653  31.722  26.692  1.00  0.00     0.023 C 
BRANCH  29  30
ATOM     30  C   UNL A   1      32.789  32.532  27.302  1.00  0.00     0.116 C 
BRANCH  30  31
ATOM     31  N   UNL A   1      32.424  33.899  27.648  1.00  0.00    -0.352 N 
ATOM     32  C   UNL A   1      32.989  34.786  28.540  1.00  0.00     0.251 C 
ATOM     33  H   UNL A   1      31.643  34.249  27.163  1.00  0.00     0.163 HD
ATOM     34  O   UNL A   1      32.466  35.874  28.735  1.00  0.00    -0.269 OA
BRANCH  32  35
ATOM     35  C   UNL A   1      34.197  34.406  29.310  1.00  0.00     0.039 A 
ATOM     36  C   UNL A   1      35.476  34.645  28.813  1.00  0.00     0.014 A 
ATOM     37  C   UNL A   1      34.041  33.767  30.545  1.00  0.00     0.014 A 
ATOM     38  C   UNL A   1      36.573  34.047  29.420  1.00  0.00     0.010 A 
ATOM     39  C   UNL A   1      35.159  33.260  31.215  1.00  0.00     0.010 A 
ATOM     40  C   UNL A   1      36.428  33.333  30.622  1.00  0.00    -0.014 A 
BRANCH  40  41
ATOM     41  C   UNL A   1      37.615  32.659  31.213  1.00  0.00     0.031 A 
ATOM     42  C   UNL A   1      38.079  32.990  32.608  1.00  0.00     0.074 A 
ATOM     43  C   UNL A   1      38.227  31.679  30.519  1.00  0.00     0.049 A 
ATOM     44  N   UNL A   1      39.056  32.457  33.301  1.00  0.00    -0.248 NA
ATOM     45  C   UNL A   1      37.360  34.059  33.319  1.00  0.00     0.031 C 
ATOM     46  C   UNL A   1      37.865  31.259  29.165  1.00  0.00     0.029 A 
ATOM     47  N   UNL A   1      39.248  30.830  30.867  1.00  0.00    -0.354 N 
ATOM     48  C   UNL A   1      39.079  33.136  34.513  1.00  0.00     0.074 A 
ATOM     49  C   UNL A   1      38.039  34.139  34.456  1.00  0.00     0.031 C 
ATOM     50  C   UNL A   1      38.595  30.187  28.826  1.00  0.00     0.029 A 
ATOM     51  C   UNL A   1      39.524  29.884  29.911  1.00  0.00     0.049 A 
ATOM     52  H   UNL A   1      39.735  30.894  31.721  1.00  0.00     0.167 HD
ATOM     53  C   UNL A   1      39.885  32.929  35.582  1.00  0.00     0.037 A 
ATOM     54  C   UNL A   1      40.424  28.883  29.903  1.00  0.00     0.037 A 
ATOM     55  C   UNL A   1      40.896  31.906  35.654  1.00  0.00     0.049 A 
ATOM     56  C   UNL A   1      41.321  28.693  31.092  1.00  0.00     0.074 A 
ATOM     57  C   UNL A   1      41.748  31.610  36.704  1.00  0.00     0.029 A 
ATOM     58  N   UNL A   1      41.185  31.009  34.638  1.00  0.00    -0.354 N 
ATOM     59  N   UNL A   1      41.332  29.344  32.228  1.00  0.00    -0.248 NA
ATOM     60  C   UNL A   1      42.340  27.638  30.992  1.00  0.00     0.031 C 
ATOM     61  C   UNL A   1      42.577  30.556  36.310  1.00  0.00     0.029 A 
ATOM     62  C   UNL A   1      42.214  30.168  35.030  1.00  0.00     0.049 A 
ATOM     63  H   UNL A   1      40.727  30.973  33.767  1.00  0.00     0.167 HD
ATOM     64  C   UNL A   1      42.348  28.776  32.983  1.00  0.00     0.074 A 
ATOM     65  C   UNL A   1      42.921  27.714  32.183  1.00  0.00     0.031 C 
ATOM     66  C   UNL A   1      42.769  29.112  34.225  1.00  0.00     0.037 A 
BRANCH  53  67
ATOM     67  C   UNL A   1      39.716  33.824  36.775  1.00  0.00     0.064 A 
ATOM     68  C   UNL A   1      40.311  35.092  36.831  1.00  0.00     0.173 A 
ATOM     69  C   UNL A   1      38.882  33.441  37.837  1.00  0.00     0.173 A 
ATOM     70  F   UNL A   1      41.125  35.501  35.847  1.00  0.00    -0.203 F 
ATOM     71  C   UNL A   1      40.086  35.941  37.913  1.00  0.00     0.198 A 
ATOM     72  C   UNL A   1      38.640  34.302  38.904  1.00  0.00     0.198 A 
ATOM     73  F   UNL A   1      38.283  32.241  37.827  1.00  0.00    -0.203 F 
ATOM     74  F   UNL A   1      40.686  37.138  37.959  1.00  0.00    -0.200 F 
ATOM     75  C   UNL A   1      39.244  35.549  38.944  1.00  0.00     0.200 A 
ATOM     76  F   UNL A   1      37.816  33.927  39.893  1.00  0.00    -0.200 F 
ATOM     77  F   UNL A   1      39.015  36.374  39.974  1.00  0.00    -0.200 F 
ENDBRANCH  53  67
BRANCH  54  78
ATOM     78  C   UNL A   1      40.499  27.979  28.728  1.00  0.00     0.064 A 
ATOM     79  C   UNL A   1      39.766  26.786  28.693  1.00  0.00     0.173 A 
ATOM     80  C   UNL A   1      41.265  28.312  27.601  1.00  0.00     0.173 A 
ATOM     81  F   UNL A   1      39.035  26.417  29.755  1.00  0.00    -0.203 F 
ATOM     82  C   UNL A   1      39.796  25.958  27.571  1.00  0.00     0.198 A 
ATOM     83  C   UNL A   1      41.271  27.497  26.471  1.00  0.00     0.198 A 
ATOM     84  F   UNL A   1      41.979  29.446  27.586  1.00  0.00    -0.203 F 
ATOM     85  F   UNL A   1      39.104  24.810  27.571  1.00  0.00    -0.200 F 
ATOM     86  C   UNL A   1      40.539  26.320  26.458  1.00  0.00     0.200 A 
ATOM     87  F   UNL A   1      41.978  27.860  25.391  1.00  0.00    -0.200 F 
ATOM     88  F   UNL A   1      40.552  25.534  25.373  1.00  0.00    -0.200 F 
ENDBRANCH  54  78
BRANCH  66  89
ATOM     89  C   UNL A   1      43.898  28.320  34.812  1.00  0.00     0.064 A 
ATOM     90  C   UNL A   1      43.663  27.126  35.509  1.00  0.00     0.173 A 
ATOM     91  C   UNL A   1      45.228  28.714  34.603  1.00  0.00     0.173 A 
ATOM     92  F   UNL A   1      42.408  26.717  35.744  1.00  0.00    -0.203 F 
ATOM     93  C   UNL A   1      44.723  26.358  35.982  1.00  0.00     0.198 A 
ATOM     94  C   UNL A   1      46.284  27.931  35.057  1.00  0.00     0.198 A 
ATOM     95  F   UNL A   1      45.500  29.845  33.934  1.00  0.00    -0.203 F 
ATOM     96  F   UNL A   1      44.478  25.231  36.665  1.00  0.00    -0.200 F 
ATOM     97  C   UNL A   1      46.031  26.754  35.747  1.00  0.00     0.200 A 
ATOM     98  F   UNL A   1      47.548  28.310  34.819  1.00  0.00    -0.200 F 
ATOM     99  F   UNL A   1      47.049  26.003  36.188  1.00  0.00    -0.200 F 
ENDBRANCH  66  89
ENDBRANCH  40  41
ENDBRANCH  32  35
ENDBRANCH  30  31
ENDBRANCH  29  30
ENDBRANCH   1  29
TORSDOF 14
ENDMDL
MODEL 2
REMARK VINA RESULT:     -13.2      0.491      7.285
REMARK SMILES CCOc1ccc2[nH]c(C)c/c(=N\c3cccc(C(=O)NCCCCNC(=O)c4ccc(-c5c6nc(c(-c7c(F)c(F)c(F)c(F)c7F)c7ccc([nH]7)c(-c7c(F)c(F)c(F)c(F)c7F)c7nc(c(-c8c(F)c(F)c(F)c(F)c8F)c8ccc5[nH]8)C=C7)C=C6)cc4)c3)c2c1
REMARK SMILES IDX 23 1 22 2 21 3 19 4 20 5 18 7 14 8 15 9 92 10 16 11 17 12
REMARK SMILES IDX 13 13 4 14 5 15 94 16 6 17 93 18 7 19 12 20 8 21 11 22 9 23
REMARK SMILES IDX 10 25 3 26 2 27 1 28 24 29 25 30 26 31 27 32 28 34 29 35
REMARK SMILES IDX 30 36 91 37 31 38 90 39 32 40 33 41 34 42 84 43 35 44 89 45
REMARK SMILES IDX 83 46 85 47 36 48 88 49 82 50 81 51 37 53 69 54 49 55 68 56
REMARK SMILES IDX 50 57 53 58 67 59 86 60 51 61 52 62 66 64 87 65 54 66 38 67
REMARK SMILES IDX 39 68 47 69 40 70 41 71 45 72 48 73 42 74 43 75 46 76 44 77
REMARK SMILES IDX 70 78 71 79 79 80 72 81 73 82 77 83 80 84 74 85 75 86 78 87
REMARK SMILES IDX 76 88 55 89 56 90 64 91 57 92 58 93 62 94 65 95 59 96 60 97
REMARK SMILES IDX 63 98 61 99
REMARK H PARENT 21 6 8 24 26 33 85 52 53 63
REMARK Flexibility Score: inf
ROOT
ATOM      1  C   UNL A   1      31.850  30.420  26.457  1.00  0.00     0.023 C 
ENDROOT
BRANCH   1   2
ATOM      2  C   UNL A   1      33.222  30.031  25.922  1.00  0.00     0.116 C 
BRANCH   2   3
ATOM      3  N   UNL A   1      33.241  29.539  24.554  1.00  0.00    -0.352 N 
ATOM      4  C   UNL A   1      33.037  28.272  24.049  1.00  0.00     0.251 C 
ATOM      5  O   UNL A   1      33.076  28.123  22.827  1.00  0.00    -0.269 OA
ATOM      6  H   UNL A   1      33.433  30.225  23.875  1.00  0.00     0.163 HD
BRANCH   4   7
ATOM      7  C   UNL A   1      32.846  27.079  24.920  1.00  0.00     0.041 A 
ATOM      8  C   UNL A   1      33.690  25.067  25.971  1.00  0.00     0.064 A 
ATOM      9  C   UNL A   1      32.388  24.683  26.299  1.00  0.00     0.028 A 
ATOM     10  C   UNL A   1      33.908  26.324  25.411  1.00  0.00     0.042 A 
ATOM     11  C   UNL A   1      31.309  25.489  25.928  1.00  0.00     0.003 A 
ATOM     12  C   UNL A   1      31.538  26.667  25.208  1.00  0.00     0.014 A 
BRANCH   8  13
ATOM     13  N   UNL A   1      34.795  24.204  26.058  1.00  0.00    -0.248 NA
ATOM     14  C   UNL A   1      38.365  21.886  25.687  1.00  0.00     0.120 A 
ATOM     15  C   UNL A   1      38.243  20.553  25.302  1.00  0.00     0.048 A 
ATOM     16  C   UNL A   1      37.237  22.703  25.779  1.00  0.00     0.059 A 
ATOM     17  C   UNL A   1      37.001  20.046  24.925  1.00  0.00     0.030 A 
ATOM     18  C   UNL A   1      35.985  22.189  25.413  1.00  0.00     0.027 A 
ATOM     19  C   UNL A   1      35.868  20.861  24.960  1.00  0.00     0.048 A 
ATOM     20  C   UNL A   1      34.753  23.046  25.452  1.00  0.00     0.075 A 
ATOM     21  N   UNL A   1      34.639  20.366  24.512  1.00  0.00    -0.359 N 
ATOM     22  C   UNL A   1      33.552  22.465  24.751  1.00  0.00     0.050 A 
ATOM     23  C   UNL A   1      33.541  21.177  24.372  1.00  0.00     0.014 A 
ATOM     24  H   UNL A   1      34.559  19.410  24.291  1.00  0.00     0.166 HD
ATOM     25  C   UNL A   1      32.307  20.555  23.781  1.00  0.00     0.064 C 
BRANCH  14  26
ATOM     26  O   UNL A   1      39.577  22.383  26.082  1.00  0.00    -0.494 OA
BRANCH  26  27
ATOM     27  C   UNL A   1      40.274  21.506  26.980  1.00  0.00     0.226 C 
ATOM     28  C   UNL A   1      41.198  22.272  27.916  1.00  0.00     0.049 C 
ENDBRANCH  26  27
ENDBRANCH  14  26
ENDBRANCH   8  13
ENDBRANCH   4   7
ENDBRANCH   2   3
ENDBRANCH   1   2
BRANCH   1  29
ATOM     29  C   UNL A   1      31.608  31.900  26.720  1.00  0.00     0.023 C 
BRANCH  29  30
ATOM     30  C   UNL A   1      32.775  32.675  27.316  1.00  0.00     0.116 C 
BRANCH  30  31
ATOM     31  N   UNL A   1      32.462  34.057  27.649  1.00  0.00    -0.352 N 
ATOM     32  C   UNL A   1      33.007  34.906  28.590  1.00  0.00     0.251 C 
ATOM     33  H   UNL A   1      31.738  34.454  27.112  1.00  0.00     0.163 HD
ATOM     34  O   UNL A   1      32.531  36.019  28.758  1.00  0.00    -0.269 OA
BRANCH  32  35
ATOM     35  C   UNL A   1      34.133  34.454  29.441  1.00  0.00     0.039 A 
ATOM     36  C   UNL A   1      35.450  34.514  28.990  1.00  0.00     0.014 A 
ATOM     37  C   UNL A   1      33.857  33.930  30.708  1.00  0.00     0.014 A 
ATOM     38  C   UNL A   1      36.447  33.846  29.689  1.00  0.00     0.010 A 
ATOM     39  C   UNL A   1      34.883  33.355  31.465  1.00  0.00     0.010 A 
ATOM     40  C   UNL A   1      36.175  33.244  30.929  1.00  0.00    -0.014 A 
BRANCH  40  41
ATOM     41  C   UNL A   1      37.254  32.490  31.622  1.00  0.00     0.031 A 
ATOM     42  C   UNL A   1      37.985  31.371  30.925  1.00  0.00     0.074 A 
ATOM     43  C   UNL A   1      37.638  32.875  32.855  1.00  0.00     0.049 A 
ATOM     44  N   UNL A   1      38.992  30.649  31.356  1.00  0.00    -0.248 NA
ATOM     45  C   UNL A   1      37.531  31.009  29.574  1.00  0.00     0.031 C 
ATOM     46  C   UNL A   1      37.015  33.950  33.628  1.00  0.00     0.029 A 
ATOM     47  N   UNL A   1      38.663  32.440  33.657  1.00  0.00    -0.354 N 
ATOM     48  C   UNL A   1      39.273  29.742  30.342  1.00  0.00     0.074 A 
ATOM     49  C   UNL A   1      38.318  29.981  29.284  1.00  0.00     0.031 C 
ATOM     50  C   UNL A   1      37.716  34.143  34.755  1.00  0.00     0.029 A 
ATOM     51  C   UNL A   1      38.796  33.163  34.817  1.00  0.00     0.049 A 
ATOM     52  H   UNL A   1      39.247  31.682  33.423  1.00  0.00     0.167 HD
ATOM     53  C   UNL A   1      40.250  28.805  30.294  1.00  0.00     0.037 A 
ATOM     54  C   UNL A   1      39.685  33.052  35.821  1.00  0.00     0.037 A 
ATOM     55  C   UNL A   1      41.226  28.591  31.331  1.00  0.00     0.049 A 
ATOM     56  C   UNL A   1      40.742  31.989  35.752  1.00  0.00     0.074 A 
ATOM     57  C   UNL A   1      42.266  27.678  31.361  1.00  0.00     0.029 A 
ATOM     58  N   UNL A   1      41.285  29.305  32.518  1.00  0.00    -0.354 N 
ATOM     59  N   UNL A   1      40.993  31.138  34.788  1.00  0.00    -0.248 NA
ATOM     60  C   UNL A   1      41.632  31.861  36.915  1.00  0.00     0.031 C 
ATOM     61  C   UNL A   1      42.933  27.815  32.581  1.00  0.00     0.029 A 
ATOM     62  C   UNL A   1      42.335  28.841  33.295  1.00  0.00     0.049 A 
ATOM     63  H   UNL A   1      40.674  30.034  32.772  1.00  0.00     0.167 HD
ATOM     64  C   UNL A   1      42.071  30.380  35.220  1.00  0.00     0.074 A 
ATOM     65  C   UNL A   1      42.441  30.883  36.527  1.00  0.00     0.031 C 
ATOM     66  C   UNL A   1      42.693  29.355  34.590  1.00  0.00     0.037 A 
BRANCH  53  67
ATOM     67  C   UNL A   1      40.326  27.929  29.077  1.00  0.00     0.064 A 
ATOM     68  C   UNL A   1      39.626  26.717  29.001  1.00  0.00     0.173 A 
ATOM     69  C   UNL A   1      41.043  28.348  27.945  1.00  0.00     0.173 A 
ATOM     70  F   UNL A   1      38.936  26.268  30.059  1.00  0.00    -0.203 F 
ATOM     71  C   UNL A   1      39.648  25.950  27.837  1.00  0.00     0.198 A 
ATOM     72  C   UNL A   1      41.042  27.591  26.776  1.00  0.00     0.198 A 
ATOM     73  F   UNL A   1      41.723  29.503  27.964  1.00  0.00    -0.203 F 
ATOM     74  F   UNL A   1      38.993  24.782  27.795  1.00  0.00    -0.200 F 
ATOM     75  C   UNL A   1      40.348  26.392  26.724  1.00  0.00     0.200 A 
ATOM     76  F   UNL A   1      41.708  28.025  25.697  1.00  0.00    -0.200 F 
ATOM     77  F   UNL A   1      40.353  25.661  25.601  1.00  0.00    -0.200 F 
ENDBRANCH  53  67
BRANCH  54  78
ATOM     78  C   UNL A   1      39.611  33.993  36.967  1.00  0.00     0.064 A 
ATOM     79  C   UNL A   1      40.268  35.229  36.923  1.00  0.00     0.173 A 
ATOM     80  C   UNL A   1      38.847  33.697  38.105  1.00  0.00     0.173 A 
ATOM     81  F   UNL A   1      41.026  35.549  35.864  1.00  0.00    -0.203 F 
ATOM     82  C   UNL A   1      40.162  36.137  37.976  1.00  0.00     0.198 A 
ATOM     83  C   UNL A   1      38.721  34.615  39.144  1.00  0.00     0.198 A 
ATOM     84  F   UNL A   1      38.197  32.528  38.192  1.00  0.00    -0.203 F 
ATOM     85  F   UNL A   1      40.818  37.304  37.921  1.00  0.00    -0.200 F 
ATOM     86  C   UNL A   1      39.380  35.833  39.080  1.00  0.00     0.200 A 
ATOM     87  F   UNL A   1      37.950  34.324  40.202  1.00  0.00    -0.200 F 
ATOM     88  F   UNL A   1      39.262  36.714  40.084  1.00  0.00    -0.200 F 
ENDBRANCH  54  78
BRANCH  66  89
ATOM     89  C   UNL A   1      43.849  28.709  35.292  1.00  0.00     0.064 A 
ATOM     90  C   UNL A   1      45.164  29.145  35.080  1.00  0.00     0.173 A 
ATOM     91  C   UNL A   1      43.629  27.703  36.245  1.00  0.00     0.173 A 
ATOM     92  F   UNL A   1      45.423  30.094  34.169  1.00  0.00    -0.203 F 
ATOM     93  C   UNL A   1      46.222  28.590  35.796  1.00  0.00     0.198 A 
ATOM     94  C   UNL A   1      44.687  27.169  36.975  1.00  0.00     0.198 A 
ATOM     95  F   UNL A   1      42.386  27.260  36.487  1.00  0.00    -0.203 F 
ATOM     96  F   UNL A   1      47.475  29.005  35.564  1.00  0.00    -0.200 F 
ATOM     97  C   UNL A   1      45.982  27.612  36.748  1.00  0.00     0.200 A 
ATOM     98  F   UNL A   1      44.452  26.231  37.903  1.00  0.00    -0.200 F 
ATOM     99  F   UNL A   1      47.000  27.093  37.448  1.00  0.00    -0.200 F 
ENDBRANCH  66  89
ENDBRANCH  40  41
ENDBRANCH  32  35
ENDBRANCH  30  31
ENDBRANCH  29  30
ENDBRANCH   1  29
TORSDOF 14
ENDMDL
MODEL 3
REMARK VINA RESULT:     -13.1      2.020      3.269
REMARK SMILES CCOc1ccc2[nH]c(C)c/c(=N\c3cccc(C(=O)NCCCCNC(=O)c4ccc(-c5c6nc(c(-c7c(F)c(F)c(F)c(F)c7F)c7ccc([nH]7)c(-c7c(F)c(F)c(F)c(F)c7F)c7nc(c(-c8c(F)c(F)c(F)c(F)c8F)c8ccc5[nH]8)C=C7)C=C6)cc4)c3)c2c1
REMARK SMILES IDX 23 1 22 2 21 3 19 4 20 5 18 7 14 8 15 9 92 10 16 11 17 12
REMARK SMILES IDX 13 13 4 14 5 15 94 16 6 17 93 18 7 19 12 20 8 21 11 22 9 23
REMARK SMILES IDX 10 25 3 26 2 27 1 28 24 29 25 30 26 31 27 32 28 34 29 35
REMARK SMILES IDX 30 36 91 37 31 38 90 39 32 40 33 41 34 42 84 43 35 44 89 45
REMARK SMILES IDX 83 46 85 47 36 48 88 49 82 50 81 51 37 53 69 54 49 55 68 56
REMARK SMILES IDX 50 57 53 58 67 59 86 60 51 61 52 62 66 64 87 65 54 66 38 67
REMARK SMILES IDX 39 68 47 69 40 70 41 71 45 72 48 73 42 74 43 75 46 76 44 77
REMARK SMILES IDX 70 78 71 79 79 80 72 81 73 82 77 83 80 84 74 85 75 86 78 87
REMARK SMILES IDX 76 88 55 89 56 90 64 91 57 92 58 93 62 94 65 95 59 96 60 97
REMARK SMILES IDX 63 98 61 99
REMARK H PARENT 21 6 8 24 26 33 85 52 53 63
REMARK Flexibility Score: inf
ROOT
ATOM      1  C   UNL A   1      33.282  29.551  24.564  1.00  0.00     0.023 C 
ENDROOT
BRANCH   1   2
ATOM      2  C   UNL A   1      33.599  28.341  23.694  1.00  0.00     0.116 C 
BRANCH   2   3
ATOM      3  N   UNL A   1      32.545  27.936  22.780  1.00  0.00    -0.352 N 
ATOM      4  C   UNL A   1      31.599  26.937  22.879  1.00  0.00     0.251 C 
ATOM      5  O   UNL A   1      30.783  26.820  21.964  1.00  0.00    -0.269 OA
ATOM      6  H   UNL A   1      32.499  28.464  21.950  1.00  0.00     0.163 HD
BRANCH   4   7
ATOM      7  C   UNL A   1      31.576  25.960  24.003  1.00  0.00     0.041 A 
ATOM      8  C   UNL A   1      32.087  23.781  24.926  1.00  0.00     0.064 A 
ATOM      9  C   UNL A   1      31.245  24.035  26.011  1.00  0.00     0.028 A 
ATOM     10  C   UNL A   1      32.347  24.801  24.013  1.00  0.00     0.042 A 
ATOM     11  C   UNL A   1      30.556  25.247  26.090  1.00  0.00     0.003 A 
ATOM     12  C   UNL A   1      30.694  26.192  25.068  1.00  0.00     0.014 A 
BRANCH   8  13
ATOM     13  N   UNL A   1      32.599  22.507  24.626  1.00  0.00    -0.248 NA
ATOM     14  C   UNL A   1      33.929  18.455  24.390  1.00  0.00     0.120 A 
ATOM     15  C   UNL A   1      35.296  18.206  24.502  1.00  0.00     0.048 A 
ATOM     16  C   UNL A   1      33.434  19.754  24.507  1.00  0.00     0.059 A 
ATOM     17  C   UNL A   1      36.171  19.244  24.813  1.00  0.00     0.030 A 
ATOM     18  C   UNL A   1      34.316  20.802  24.806  1.00  0.00     0.027 A 
ATOM     19  C   UNL A   1      35.689  20.544  24.985  1.00  0.00     0.048 A 
ATOM     20  C   UNL A   1      33.819  22.207  24.986  1.00  0.00     0.075 A 
ATOM     21  N   UNL A   1      36.562  21.567  25.368  1.00  0.00    -0.359 N 
ATOM     22  C   UNL A   1      34.814  23.159  25.599  1.00  0.00     0.050 A 
ATOM     23  C   UNL A   1      36.107  22.815  25.709  1.00  0.00     0.014 A 
ATOM     24  H   UNL A   1      37.529  21.386  25.395  1.00  0.00     0.166 HD
ATOM     25  C   UNL A   1      37.129  23.799  26.207  1.00  0.00     0.064 C 
BRANCH  14  26
ATOM     26  O   UNL A   1      33.069  17.444  24.060  1.00  0.00    -0.494 OA
BRANCH  26  27
ATOM     27  C   UNL A   1      32.407  16.878  25.201  1.00  0.00     0.226 C 
ATOM     28  C   UNL A   1      32.910  15.476  25.511  1.00  0.00     0.049 C 
ENDBRANCH  26  27
ENDBRANCH  14  26
ENDBRANCH   8  13
ENDBRANCH   4   7
ENDBRANCH   2   3
ENDBRANCH   1   2
BRANCH   1  29
ATOM     29  C   UNL A   1      32.074  29.440  25.484  1.00  0.00     0.023 C 
BRANCH  29  30
ATOM     30  C   UNL A   1      32.273  29.927  26.912  1.00  0.00     0.116 C 
BRANCH  30  31
ATOM     31  N   UNL A   1      32.266  31.377  27.051  1.00  0.00    -0.352 N 
ATOM     32  C   UNL A   1      33.240  32.247  27.495  1.00  0.00     0.251 C 
ATOM     33  H   UNL A   1      31.424  31.810  26.783  1.00  0.00     0.163 HD
ATOM     34  O   UNL A   1      32.991  33.438  27.607  1.00  0.00    -0.269 OA
BRANCH  32  35
ATOM     35  C   UNL A   1      34.573  31.736  27.893  1.00  0.00     0.039 A 
ATOM     36  C   UNL A   1      34.772  30.389  28.189  1.00  0.00     0.014 A 
ATOM     37  C   UNL A   1      35.639  32.636  28.001  1.00  0.00     0.014 A 
ATOM     38  C   UNL A   1      35.948  29.989  28.811  1.00  0.00     0.010 A 
ATOM     39  C   UNL A   1      36.864  32.207  28.524  1.00  0.00     0.010 A 
ATOM     40  C   UNL A   1      37.005  30.896  29.000  1.00  0.00    -0.014 A 
BRANCH  40  41
ATOM     41  C   UNL A   1      38.227  30.444  29.719  1.00  0.00     0.031 A 
ATOM     42  C   UNL A   1      38.485  30.863  31.144  1.00  0.00     0.074 A 
ATOM     43  C   UNL A   1      39.065  29.581  29.113  1.00  0.00     0.049 A 
ATOM     44  N   UNL A   1      39.466  30.514  31.941  1.00  0.00    -0.248 NA
ATOM     45  C   UNL A   1      37.525  31.794  31.756  1.00  0.00     0.031 C 
ATOM     46  C   UNL A   1      38.918  29.094  27.740  1.00  0.00     0.029 A 
ATOM     47  N   UNL A   1      40.178  28.927  29.579  1.00  0.00    -0.354 N 
ATOM     48  C   UNL A   1      39.250  31.195  33.132  1.00  0.00     0.074 A 
ATOM     49  C   UNL A   1      38.063  32.000  32.951  1.00  0.00     0.031 C 
ATOM     50  C   UNL A   1      39.854  28.164  27.501  1.00  0.00     0.029 A 
ATOM     51  C   UNL A   1      40.708  28.037  28.677  1.00  0.00     0.049 A 
ATOM     52  H   UNL A   1      40.560  29.082  30.473  1.00  0.00     0.167 HD
ATOM     53  C   UNL A   1      39.970  31.141  34.279  1.00  0.00     0.037 A 
ATOM     54  C   UNL A   1      41.764  27.209  28.781  1.00  0.00     0.037 A 
ATOM     55  C   UNL A   1      41.131  30.312  34.474  1.00  0.00     0.049 A 
ATOM     56  C   UNL A   1      42.558  27.188  30.055  1.00  0.00     0.074 A 
ATOM     57  C   UNL A   1      41.912  30.177  35.608  1.00  0.00     0.029 A 
ATOM     58  N   UNL A   1      41.670  29.471  33.513  1.00  0.00    -0.354 N 
ATOM     59  N   UNL A   1      42.343  27.840  31.171  1.00  0.00    -0.248 NA
ATOM     60  C   UNL A   1      43.749  26.327  30.081  1.00  0.00     0.031 C 
ATOM     61  C   UNL A   1      42.947  29.282  35.322  1.00  0.00     0.029 A 
ATOM     62  C   UNL A   1      42.786  28.827  34.024  1.00  0.00     0.049 A 
ATOM     63  H   UNL A   1      41.314  29.349  32.603  1.00  0.00     0.167 HD
ATOM     64  C   UNL A   1      43.362  27.464  32.034  1.00  0.00     0.074 A 
ATOM     65  C   UNL A   1      44.187  26.512  31.320  1.00  0.00     0.031 C 
ATOM     66  C   UNL A   1      43.593  27.878  33.303  1.00  0.00     0.037 A 
BRANCH  53  67
ATOM     67  C   UNL A   1      39.531  32.002  35.428  1.00  0.00     0.064 A 
ATOM     68  C   UNL A   1      39.972  33.326  35.564  1.00  0.00     0.173 A 
ATOM     69  C   UNL A   1      38.593  31.522  36.356  1.00  0.00     0.173 A 
ATOM     70  F   UNL A   1      40.875  33.828  34.709  1.00  0.00    -0.203 F 
ATOM     71  C   UNL A   1      39.498  34.136  36.594  1.00  0.00     0.198 A 
ATOM     72  C   UNL A   1      38.104  32.343  37.369  1.00  0.00     0.198 A 
ATOM     73  F   UNL A   1      38.133  30.266  36.265  1.00  0.00    -0.203 F 
ATOM     74  F   UNL A   1      39.954  35.390  36.721  1.00  0.00    -0.200 F 
ATOM     75  C   UNL A   1      38.559  33.647  37.490  1.00  0.00     0.200 A 
ATOM     76  F   UNL A   1      37.187  31.873  38.226  1.00  0.00    -0.200 F 
ATOM     77  F   UNL A   1      38.093  34.433  38.470  1.00  0.00    -0.200 F 
ENDBRANCH  53  67
BRANCH  54  78
ATOM     78  C   UNL A   1      42.111  26.323  27.642  1.00  0.00     0.064 A 
ATOM     79  C   UNL A   1      43.122  26.678  26.739  1.00  0.00     0.173 A 
ATOM     80  C   UNL A   1      41.473  25.088  27.458  1.00  0.00     0.173 A 
ATOM     81  F   UNL A   1      43.747  27.858  26.863  1.00  0.00    -0.203 F 
ATOM     82  C   UNL A   1      43.484  25.828  25.696  1.00  0.00     0.198 A 
ATOM     83  C   UNL A   1      41.854  24.228  26.431  1.00  0.00     0.198 A 
ATOM     84  F   UNL A   1      40.501  24.703  28.298  1.00  0.00    -0.203 F 
ATOM     85  F   UNL A   1      44.439  26.199  24.833  1.00  0.00    -0.200 F 
ATOM     86  C   UNL A   1      42.858  24.599  25.550  1.00  0.00     0.200 A 
ATOM     87  F   UNL A   1      41.257  23.034  26.304  1.00  0.00    -0.200 F 
ATOM     88  F   UNL A   1      43.219  23.773  24.558  1.00  0.00    -0.200 F 
ENDBRANCH  54  78
BRANCH  66  89
ATOM     89  C   UNL A   1      44.778  27.300  34.015  1.00  0.00     0.064 A 
ATOM     90  C   UNL A   1      44.687  26.087  34.711  1.00  0.00     0.173 A 
ATOM     91  C   UNL A   1      46.032  27.923  33.930  1.00  0.00     0.173 A 
ATOM     92  F   UNL A   1      43.506  25.463  34.830  1.00  0.00    -0.203 F 
ATOM     93  C   UNL A   1      45.812  25.520  35.303  1.00  0.00     0.198 A 
ATOM     94  C   UNL A   1      47.158  27.340  34.503  1.00  0.00     0.198 A 
ATOM     95  F   UNL A   1      46.168  29.082  33.268  1.00  0.00    -0.203 F 
ATOM     96  F   UNL A   1      45.701  24.370  35.983  1.00  0.00    -0.200 F 
ATOM     97  C   UNL A   1      47.047  26.140  35.191  1.00  0.00     0.200 A 
ATOM     98  F   UNL A   1      48.353  27.936  34.384  1.00  0.00    -0.200 F 
ATOM     99  F   UNL A   1      48.132  25.583  35.746  1.00  0.00    -0.200 F 
ENDBRANCH  66  89
ENDBRANCH  40  41
ENDBRANCH  32  35
ENDBRANCH  30  31
ENDBRANCH  29  30
ENDBRANCH   1  29
TORSDOF 14
ENDMDL
