MODEL 1
REMARK VINA RESULT:     -13.3      0.000      0.000
REMARK SMILES Cc1ccccc1C(=O)N1CSC[C@H]1C(=O)NCCCCNC(=O)c1ccc(-c2c3nc(c(-c4c(F)c(F)c(F)c(F)c4F)c4ccc([nH]4)c(-c4c(F)c(F)c(F)c(F)c4F)c4nc(c(-c5c(F)c(F)c(F)c(F)c5F)c5ccc2[nH]5)C=C4)C=C3)cc1
REMARK SMILES IDX 19 1 18 2 17 3 15 4 16 5 14 7 10 8 11 9 12 10 13 11 8 12
REMARK SMILES IDX 9 13 7 14 1 15 2 16 3 17 4 18 6 19 5 20 20 21 21 22 22 23
REMARK SMILES IDX 23 24 24 26 25 27 26 28 87 29 27 30 86 31 28 32 29 33 30 34
REMARK SMILES IDX 80 35 31 36 85 37 79 38 81 39 32 40 84 41 78 42 77 43 33 45
REMARK SMILES IDX 65 46 45 47 64 48 46 49 49 50 63 51 82 52 47 53 48 54 62 56
REMARK SMILES IDX 83 57 50 58 34 59 35 60 43 61 36 62 37 63 41 64 44 65 38 66
REMARK SMILES IDX 39 67 42 68 40 69 66 70 67 71 75 72 68 73 69 74 73 75 76 76
REMARK SMILES IDX 70 77 71 78 74 79 72 80 51 81 52 82 60 83 53 84 54 85 58 86
REMARK SMILES IDX 61 87 55 88 56 89 59 90 57 91
REMARK H PARENT 17 6 22 25 81 44 49 55
REMARK Flexibility Score: inf
ROOT
ATOM      1  C   UNL A   1      34.121  28.288  26.183  1.00  0.00     0.023 C 
ENDROOT
BRANCH   1   2
ATOM      2  C   UNL A   1      33.372  27.548  25.073  1.00  0.00     0.116 C 
BRANCH   2   3
ATOM      3  N   UNL A   1      33.955  27.739  23.765  1.00  0.00    -0.354 N 
ATOM      4  C   UNL A   1      33.506  27.420  22.521  1.00  0.00     0.243 C 
ATOM      5  O   UNL A   1      34.088  27.983  21.585  1.00  0.00    -0.273 OA
ATOM      6  H   UNL A   1      34.837  28.179  23.775  1.00  0.00     0.163 HD
BRANCH   4   7
ATOM      7  C   UNL A   1      32.256  26.553  22.243  1.00  0.00     0.185 C 
ATOM      8  N   UNL A   1      32.169  25.217  22.844  1.00  0.00    -0.317 N 
ATOM      9  C   UNL A   1      31.236  25.086  23.935  1.00  0.00     0.190 C 
ATOM     10  S   UNL A   1      29.984  26.367  23.706  1.00  0.00    -0.138 SA
ATOM     11  C   UNL A   1      30.952  27.308  22.483  1.00  0.00     0.106 C 
BRANCH   8  12
ATOM     12  C   UNL A   1      32.879  24.200  22.225  1.00  0.00     0.255 C 
ATOM     13  O   UNL A   1      33.229  24.296  21.049  1.00  0.00    -0.269 OA
BRANCH  12  14
ATOM     14  C   UNL A   1      33.192  22.919  22.922  1.00  0.00     0.042 A 
ATOM     15  C   UNL A   1      35.122  23.861  24.357  1.00  0.00     0.045 C 
ATOM     16  C   UNL A   1      34.184  22.772  23.916  1.00  0.00    -0.038 A 
ATOM     17  C   UNL A   1      34.298  21.535  24.580  1.00  0.00     0.004 A 
ATOM     18  C   UNL A   1      33.393  20.501  24.343  1.00  0.00     0.000 A 
ATOM     19  C   UNL A   1      32.279  21.870  22.703  1.00  0.00     0.014 A 
ATOM     20  C   UNL A   1      32.373  20.674  23.416  1.00  0.00     0.001 A 
ENDBRANCH  12  14
ENDBRANCH   8  12
ENDBRANCH   4   7
ENDBRANCH   2   3
ENDBRANCH   1   2
BRANCH   1  21
ATOM     21  C   UNL A   1      33.714  29.748  26.381  1.00  0.00     0.023 C 
BRANCH  21  22
ATOM     22  C   UNL A   1      33.537  30.155  27.837  1.00  0.00     0.116 C 
BRANCH  22  23
ATOM     23  N   UNL A   1      34.344  31.285  28.274  1.00  0.00    -0.352 N 
ATOM     24  C   UNL A   1      35.633  31.308  28.799  1.00  0.00     0.251 C 
ATOM     25  H   UNL A   1      33.915  32.166  28.186  1.00  0.00     0.163 HD
ATOM     26  O   UNL A   1      36.105  32.351  29.207  1.00  0.00    -0.269 OA
BRANCH  24  27
ATOM     27  C   UNL A   1      36.484  30.088  28.724  1.00  0.00     0.039 A 
ATOM     28  C   UNL A   1      36.652  29.327  29.891  1.00  0.00     0.014 A 
ATOM     29  C   UNL A   1      37.273  29.826  27.613  1.00  0.00     0.014 A 
ATOM     30  C   UNL A   1      37.782  28.520  30.025  1.00  0.00     0.010 A 
ATOM     31  C   UNL A   1      38.457  29.144  27.790  1.00  0.00     0.010 A 
ATOM     32  C   UNL A   1      38.745  28.550  29.023  1.00  0.00    -0.014 A 
BRANCH  32  33
ATOM     33  C   UNL A   1      40.122  28.100  29.193  1.00  0.00     0.031 A 
ATOM     34  C   UNL A   1      40.523  26.748  28.750  1.00  0.00     0.074 A 
ATOM     35  C   UNL A   1      41.058  28.996  29.578  1.00  0.00     0.049 A 
ATOM     36  N   UNL A   1      41.650  26.190  29.035  1.00  0.00    -0.248 NA
ATOM     37  C   UNL A   1      39.638  25.878  27.987  1.00  0.00     0.031 C 
ATOM     38  C   UNL A   1      42.508  28.887  29.427  1.00  0.00     0.029 A 
ATOM     39  N   UNL A   1      40.880  30.136  30.382  1.00  0.00    -0.354 N 
ATOM     40  C   UNL A   1      41.768  25.053  28.269  1.00  0.00     0.074 A 
ATOM     41  C   UNL A   1      40.448  24.848  27.728  1.00  0.00     0.031 C 
ATOM     42  C   UNL A   1      43.100  29.691  30.325  1.00  0.00     0.029 A 
ATOM     43  C   UNL A   1      42.048  30.212  31.179  1.00  0.00     0.049 A 
ATOM     44  H   UNL A   1      40.109  30.749  30.390  1.00  0.00     0.167 HD
ATOM     45  C   UNL A   1      43.013  24.519  28.092  1.00  0.00     0.037 A 
ATOM     46  C   UNL A   1      42.000  30.050  32.534  1.00  0.00     0.037 A 
ATOM     47  C   UNL A   1      43.966  25.131  29.024  1.00  0.00     0.049 A 
ATOM     48  C   UNL A   1      42.855  28.916  33.050  1.00  0.00     0.074 A 
ATOM     49  C   UNL A   1      44.969  26.077  28.882  1.00  0.00     0.029 A 
ATOM     50  N   UNL A   1      43.760  24.984  30.394  1.00  0.00    -0.354 N 
ATOM     51  N   UNL A   1      43.277  27.928  32.312  1.00  0.00    -0.248 NA
ATOM     52  C   UNL A   1      43.277  28.792  34.442  1.00  0.00     0.031 C 
ATOM     53  C   UNL A   1      45.326  26.539  30.177  1.00  0.00     0.029 A 
ATOM     54  C   UNL A   1      44.556  25.859  31.105  1.00  0.00     0.049 A 
ATOM     55  H   UNL A   1      43.132  24.344  30.799  1.00  0.00     0.167 HD
ATOM     56  C   UNL A   1      43.988  27.046  33.086  1.00  0.00     0.074 A 
ATOM     57  C   UNL A   1      43.976  27.644  34.407  1.00  0.00     0.031 C 
ATOM     58  C   UNL A   1      44.508  25.895  32.562  1.00  0.00     0.037 A 
BRANCH  45  59
ATOM     59  C   UNL A   1      43.444  23.638  26.923  1.00  0.00     0.064 A 
ATOM     60  C   UNL A   1      43.131  22.257  26.916  1.00  0.00     0.173 A 
ATOM     61  C   UNL A   1      44.248  24.041  25.837  1.00  0.00     0.173 A 
ATOM     62  F   UNL A   1      42.311  21.720  27.829  1.00  0.00    -0.203 F 
ATOM     63  C   UNL A   1      43.650  21.361  25.971  1.00  0.00     0.198 A 
ATOM     64  C   UNL A   1      44.778  23.146  24.901  1.00  0.00     0.198 A 
ATOM     65  F   UNL A   1      44.539  25.318  25.597  1.00  0.00    -0.203 F 
ATOM     66  F   UNL A   1      43.336  20.061  26.046  1.00  0.00    -0.200 F 
ATOM     67  C   UNL A   1      44.493  21.803  24.976  1.00  0.00     0.200 A 
ATOM     68  F   UNL A   1      45.575  23.607  23.926  1.00  0.00    -0.200 F 
ATOM     69  F   UNL A   1      45.012  20.947  24.085  1.00  0.00    -0.200 F 
ENDBRANCH  45  59
BRANCH  46  70
ATOM     70  C   UNL A   1      40.708  30.490  33.123  1.00  0.00     0.064 A 
ATOM     71  C   UNL A   1      40.461  31.874  33.223  1.00  0.00     0.173 A 
ATOM     72  C   UNL A   1      39.607  29.630  33.197  1.00  0.00     0.173 A 
ATOM     73  F   UNL A   1      41.484  32.742  33.155  1.00  0.00    -0.203 F 
ATOM     74  C   UNL A   1      39.164  32.379  33.258  1.00  0.00     0.198 A 
ATOM     75  C   UNL A   1      38.307  30.140  33.252  1.00  0.00     0.198 A 
ATOM     76  F   UNL A   1      39.773  28.303  33.087  1.00  0.00    -0.203 F 
ATOM     77  F   UNL A   1      38.960  33.703  33.220  1.00  0.00    -0.200 F 
ATOM     78  C   UNL A   1      38.086  31.510  33.242  1.00  0.00     0.200 A 
ATOM     79  F   UNL A   1      37.262  29.302  33.203  1.00  0.00    -0.200 F 
ATOM     80  F   UNL A   1      36.837  31.991  33.168  1.00  0.00    -0.200 F 
ENDBRANCH  46  70
BRANCH  58  81
ATOM     81  C   UNL A   1      45.089  24.728  33.334  1.00  0.00     0.064 A 
ATOM     82  C   UNL A   1      44.397  23.539  33.620  1.00  0.00     0.173 A 
ATOM     83  C   UNL A   1      46.463  24.721  33.691  1.00  0.00     0.173 A 
ATOM     84  F   UNL A   1      43.131  23.356  33.228  1.00  0.00    -0.203 F 
ATOM     85  C   UNL A   1      45.009  22.459  34.265  1.00  0.00     0.198 A 
ATOM     86  C   UNL A   1      47.085  23.620  34.276  1.00  0.00     0.198 A 
ATOM     87  F   UNL A   1      47.257  25.777  33.454  1.00  0.00    -0.203 F 
ATOM     88  F   UNL A   1      44.289  21.364  34.551  1.00  0.00    -0.200 F 
ATOM     89  C   UNL A   1      46.354  22.493  34.580  1.00  0.00     0.200 A 
ATOM     90  F   UNL A   1      48.403  23.652  34.522  1.00  0.00    -0.200 F 
ATOM     91  F   UNL A   1      46.946  21.436  35.151  1.00  0.00    -0.200 F 
ENDBRANCH  58  81
ENDBRANCH  32  33
ENDBRANCH  24  27
ENDBRANCH  22  23
ENDBRANCH  21  22
ENDBRANCH   1  21
TORSDOF 13
ENDMDL
MODEL 2
REMARK VINA RESULT:     -13.1      1.455      2.804
REMARK SMILES Cc1ccccc1C(=O)N1CSC[C@H]1C(=O)NCCCCNC(=O)c1ccc(-c2c3nc(c(-c4c(F)c(F)c(F)c(F)c4F)c4ccc([nH]4)c(-c4c(F)c(F)c(F)c(F)c4F)c4nc(c(-c5c(F)c(F)c(F)c(F)c5F)c5ccc2[nH]5)C=C4)C=C3)cc1
REMARK SMILES IDX 19 1 18 2 17 3 15 4 16 5 14 7 10 8 11 9 12 10 13 11 8 12
REMARK SMILES IDX 9 13 7 14 1 15 2 16 3 17 4 18 6 19 5 20 20 21 21 22 22 23
REMARK SMILES IDX 23 24 24 26 25 27 26 28 87 29 27 30 86 31 28 32 29 33 30 34
REMARK SMILES IDX 80 35 31 36 85 37 79 38 81 39 32 40 84 41 78 42 77 43 33 45
REMARK SMILES IDX 65 46 45 47 64 48 46 49 49 50 63 51 82 52 47 53 48 54 62 56
REMARK SMILES IDX 83 57 50 58 34 59 35 60 43 61 36 62 37 63 41 64 44 65 38 66
REMARK SMILES IDX 39 67 42 68 40 69 66 70 67 71 75 72 68 73 69 74 73 75 76 76
REMARK SMILES IDX 70 77 71 78 74 79 72 80 51 81 52 82 60 83 53 84 54 85 58 86
REMARK SMILES IDX 61 87 55 88 56 89 59 90 57 91
REMARK H PARENT 17 6 22 25 81 44 49 55
REMARK Flexibility Score: inf
ROOT
ATOM      1  C   UNL A   1      32.621  29.980  25.847  1.00  0.00     0.023 C 
ENDROOT
BRANCH   1   2
ATOM      2  C   UNL A   1      33.723  28.946  25.602  1.00  0.00     0.116 C 
BRANCH   2   3
ATOM      3  N   UNL A   1      34.202  28.936  24.239  1.00  0.00    -0.354 N 
ATOM      4  C   UNL A   1      33.902  28.132  23.183  1.00  0.00     0.243 C 
ATOM      5  O   UNL A   1      34.244  28.562  22.074  1.00  0.00    -0.273 OA
ATOM      6  H   UNL A   1      34.866  29.635  24.038  1.00  0.00     0.163 HD
BRANCH   4   7
ATOM      7  C   UNL A   1      33.049  26.845  23.283  1.00  0.00     0.185 C 
ATOM      8  N   UNL A   1      31.639  26.894  22.878  1.00  0.00    -0.317 N 
ATOM      9  C   UNL A   1      31.328  26.245  21.630  1.00  0.00     0.190 C 
ATOM     10  S   UNL A   1      32.592  24.983  21.369  1.00  0.00    -0.138 SA
ATOM     11  C   UNL A   1      33.725  25.640  22.636  1.00  0.00     0.106 C 
BRANCH   8  12
ATOM     12  C   UNL A   1      30.742  27.431  23.788  1.00  0.00     0.255 C 
ATOM     13  O   UNL A   1      30.801  27.144  24.983  1.00  0.00    -0.269 OA
BRANCH  12  14
ATOM     14  C   UNL A   1      29.623  28.320  23.361  1.00  0.00     0.042 A 
ATOM     15  C   UNL A   1      27.735  26.627  23.858  1.00  0.00     0.045 C 
ATOM     16  C   UNL A   1      28.255  27.970  23.427  1.00  0.00    -0.038 A 
ATOM     17  C   UNL A   1      27.292  28.945  23.103  1.00  0.00     0.004 A 
ATOM     18  C   UNL A   1      27.660  30.259  22.819  1.00  0.00     0.000 A 
ATOM     19  C   UNL A   1      29.976  29.654  23.085  1.00  0.00     0.014 A 
ATOM     20  C   UNL A   1      29.002  30.619  22.826  1.00  0.00     0.001 A 
ENDBRANCH  12  14
ENDBRANCH   8  12
ENDBRANCH   4   7
ENDBRANCH   2   3
ENDBRANCH   1   2
BRANCH   1  21
ATOM     21  C   UNL A   1      32.952  31.047  26.889  1.00  0.00     0.023 C 
BRANCH  21  22
ATOM     22  C   UNL A   1      33.869  30.566  28.006  1.00  0.00     0.116 C 
BRANCH  22  23
ATOM     23  N   UNL A   1      34.677  31.598  28.641  1.00  0.00    -0.352 N 
ATOM     24  C   UNL A   1      35.934  31.507  29.229  1.00  0.00     0.251 C 
ATOM     25  H   UNL A   1      34.273  32.496  28.656  1.00  0.00     0.163 HD
ATOM     26  O   UNL A   1      36.407  32.467  29.806  1.00  0.00    -0.269 OA
BRANCH  24  27
ATOM     27  C   UNL A   1      36.760  30.284  29.026  1.00  0.00     0.039 A 
ATOM     28  C   UNL A   1      36.865  29.374  30.088  1.00  0.00     0.014 A 
ATOM     29  C   UNL A   1      37.585  30.146  27.918  1.00  0.00     0.014 A 
ATOM     30  C   UNL A   1      37.970  28.526  30.156  1.00  0.00     0.010 A 
ATOM     31  C   UNL A   1      38.745  29.415  28.046  1.00  0.00     0.010 A 
ATOM     32  C   UNL A   1      38.971  28.658  29.200  1.00  0.00    -0.014 A 
BRANCH  32  33
ATOM     33  C   UNL A   1      40.330  28.152  29.358  1.00  0.00     0.031 A 
ATOM     34  C   UNL A   1      40.675  26.790  28.898  1.00  0.00     0.074 A 
ATOM     35  C   UNL A   1      41.303  29.007  29.748  1.00  0.00     0.049 A 
ATOM     36  N   UNL A   1      41.780  26.185  29.172  1.00  0.00    -0.248 NA
ATOM     37  C   UNL A   1      39.752  25.964  28.130  1.00  0.00     0.031 C 
ATOM     38  C   UNL A   1      42.747  28.842  29.589  1.00  0.00     0.029 A 
ATOM     39  N   UNL A   1      41.174  30.143  30.566  1.00  0.00    -0.354 N 
ATOM     40  C   UNL A   1      41.849  25.052  28.393  1.00  0.00     0.074 A 
ATOM     41  C   UNL A   1      40.520  24.906  27.856  1.00  0.00     0.031 C 
ATOM     42  C   UNL A   1      43.374  29.611  30.492  1.00  0.00     0.029 A 
ATOM     43  C   UNL A   1      42.348  30.164  31.357  1.00  0.00     0.049 A 
ATOM     44  H   UNL A   1      40.428  30.786  30.584  1.00  0.00     0.167 HD
ATOM     45  C   UNL A   1      43.071  24.471  28.204  1.00  0.00     0.037 A 
ATOM     46  C   UNL A   1      42.300  29.989  32.710  1.00  0.00     0.037 A 
ATOM     47  C   UNL A   1      44.053  25.035  29.138  1.00  0.00     0.049 A 
ATOM     48  C   UNL A   1      43.111  28.817  33.210  1.00  0.00     0.074 A 
ATOM     49  C   UNL A   1      45.092  25.942  29.001  1.00  0.00     0.029 A 
ATOM     50  N   UNL A   1      43.847  24.881  30.507  1.00  0.00    -0.354 N 
ATOM     51  N   UNL A   1      43.490  27.821  32.459  1.00  0.00    -0.248 NA
ATOM     52  C   UNL A   1      43.534  28.660  34.598  1.00  0.00     0.031 C 
ATOM     53  C   UNL A   1      45.472  26.375  30.299  1.00  0.00     0.029 A 
ATOM     54  C   UNL A   1      44.681  25.716  31.223  1.00  0.00     0.049 A 
ATOM     55  H   UNL A   1      43.196  24.262  30.908  1.00  0.00     0.167 HD
ATOM     56  C   UNL A   1      44.169  26.903  33.220  1.00  0.00     0.074 A 
ATOM     57  C   UNL A   1      44.188  27.486  34.547  1.00  0.00     0.031 C 
ATOM     58  C   UNL A   1      44.641  25.738  32.680  1.00  0.00     0.037 A 
BRANCH  45  59
ATOM     59  C   UNL A   1      43.462  23.588  27.023  1.00  0.00     0.064 A 
ATOM     60  C   UNL A   1      43.024  22.242  26.963  1.00  0.00     0.173 A 
ATOM     61  C   UNL A   1      44.337  23.944  25.977  1.00  0.00     0.173 A 
ATOM     62  F   UNL A   1      42.126  21.758  27.831  1.00  0.00    -0.203 F 
ATOM     63  C   UNL A   1      43.492  21.329  26.009  1.00  0.00     0.198 A 
ATOM     64  C   UNL A   1      44.816  23.030  25.032  1.00  0.00     0.198 A 
ATOM     65  F   UNL A   1      44.752  25.195  25.786  1.00  0.00    -0.203 F 
ATOM     66  F   UNL A   1      43.058  20.061  26.033  1.00  0.00    -0.200 F 
ATOM     67  C   UNL A   1      44.407  21.718  25.056  1.00  0.00     0.200 A 
ATOM     68  F   UNL A   1      45.687  23.443  24.099  1.00  0.00    -0.200 F 
ATOM     69  F   UNL A   1      44.877  20.843  24.157  1.00  0.00    -0.200 F 
ENDBRANCH  45  59
BRANCH  46  70
ATOM     70  C   UNL A   1      41.029  30.474  33.311  1.00  0.00     0.064 A 
ATOM     71  C   UNL A   1      40.856  31.864  33.467  1.00  0.00     0.173 A 
ATOM     72  C   UNL A   1      39.883  29.672  33.344  1.00  0.00     0.173 A 
ATOM     73  F   UNL A   1      41.924  32.678  33.440  1.00  0.00    -0.203 F 
ATOM     74  C   UNL A   1      39.587  32.435  33.516  1.00  0.00     0.198 A 
ATOM     75  C   UNL A   1      38.612  30.248  33.414  1.00  0.00     0.198 A 
ATOM     76  F   UNL A   1      39.978  28.344  33.181  1.00  0.00    -0.203 F 
ATOM     77  F   UNL A   1      39.455  33.769  33.532  1.00  0.00    -0.200 F 
ATOM     78  C   UNL A   1      38.465  31.627  33.459  1.00  0.00     0.200 A 
ATOM     79  F   UNL A   1      37.524  29.470  33.325  1.00  0.00    -0.200 F 
ATOM     80  F   UNL A   1      37.244  32.177  33.399  1.00  0.00    -0.200 F 
ENDBRANCH  46  70
BRANCH  58  81
ATOM     81  C   UNL A   1      45.179  24.540  33.437  1.00  0.00     0.064 A 
ATOM     82  C   UNL A   1      44.447  23.369  33.698  1.00  0.00     0.173 A 
ATOM     83  C   UNL A   1      46.549  24.484  33.804  1.00  0.00     0.173 A 
ATOM     84  F   UNL A   1      43.179  23.233  33.294  1.00  0.00    -0.203 F 
ATOM     85  C   UNL A   1      45.020  22.259  34.329  1.00  0.00     0.198 A 
ATOM     86  C   UNL A   1      47.132  23.354  34.375  1.00  0.00     0.198 A 
ATOM     87  F   UNL A   1      47.377  25.518  33.590  1.00  0.00    -0.203 F 
ATOM     88  F   UNL A   1      44.263  21.184  34.591  1.00  0.00    -0.200 F 
ATOM     89  C   UNL A   1      46.362  22.245  34.655  1.00  0.00     0.200 A 
ATOM     90  F   UNL A   1      48.448  23.339  34.631  1.00  0.00    -0.200 F 
ATOM     91  F   UNL A   1      46.917  21.161  35.211  1.00  0.00    -0.200 F 
ENDBRANCH  58  81
ENDBRANCH  32  33
ENDBRANCH  24  27
ENDBRANCH  22  23
ENDBRANCH  21  22
ENDBRANCH   1  21
TORSDOF 13
ENDMDL
MODEL 3
REMARK VINA RESULT:     -13.1      1.331      1.838
REMARK SMILES Cc1ccccc1C(=O)N1CSC[C@H]1C(=O)NCCCCNC(=O)c1ccc(-c2c3nc(c(-c4c(F)c(F)c(F)c(F)c4F)c4ccc([nH]4)c(-c4c(F)c(F)c(F)c(F)c4F)c4nc(c(-c5c(F)c(F)c(F)c(F)c5F)c5ccc2[nH]5)C=C4)C=C3)cc1
REMARK SMILES IDX 19 1 18 2 17 3 15 4 16 5 14 7 10 8 11 9 12 10 13 11 8 12
REMARK SMILES IDX 9 13 7 14 1 15 2 16 3 17 4 18 6 19 5 20 20 21 21 22 22 23
REMARK SMILES IDX 23 24 24 26 25 27 26 28 87 29 27 30 86 31 28 32 29 33 30 34
REMARK SMILES IDX 80 35 31 36 85 37 79 38 81 39 32 40 84 41 78 42 77 43 33 45
REMARK SMILES IDX 65 46 45 47 64 48 46 49 49 50 63 51 82 52 47 53 48 54 62 56
REMARK SMILES IDX 83 57 50 58 34 59 35 60 43 61 36 62 37 63 41 64 44 65 38 66
REMARK SMILES IDX 39 67 42 68 40 69 66 70 67 71 75 72 68 73 69 74 73 75 76 76
REMARK SMILES IDX 70 77 71 78 74 79 72 80 51 81 52 82 60 83 53 84 54 85 58 86
REMARK SMILES IDX 61 87 55 88 56 89 59 90 57 91
REMARK H PARENT 17 6 22 25 81 44 49 55
REMARK Flexibility Score: inf
ROOT
ATOM      1  C   UNL A   1      33.623  28.876  25.744  1.00  0.00     0.023 C 
ENDROOT
BRANCH   1   2
ATOM      2  C   UNL A   1      33.365  27.692  26.679  1.00  0.00     0.116 C 
BRANCH   2   3
ATOM      3  N   UNL A   1      32.184  26.936  26.331  1.00  0.00    -0.354 N 
ATOM      4  C   UNL A   1      32.020  25.814  25.578  1.00  0.00     0.243 C 
ATOM      5  O   UNL A   1      30.934  25.236  25.716  1.00  0.00    -0.273 OA
ATOM      6  H   UNL A   1      31.347  27.299  26.703  1.00  0.00     0.163 HD
BRANCH   4   7
ATOM      7  C   UNL A   1      33.136  25.168  24.724  1.00  0.00     0.185 C 
ATOM      8  N   UNL A   1      33.231  23.705  24.670  1.00  0.00    -0.317 N 
ATOM      9  C   UNL A   1      32.808  23.099  23.432  1.00  0.00     0.190 C 
ATOM     10  S   UNL A   1      33.011  24.349  22.145  1.00  0.00    -0.138 SA
ATOM     11  C   UNL A   1      33.197  25.737  23.309  1.00  0.00     0.106 C 
BRANCH   8  12
ATOM     12  C   UNL A   1      33.838  23.074  25.745  1.00  0.00     0.255 C 
ATOM     13  O   UNL A   1      33.232  22.898  26.802  1.00  0.00    -0.269 OA
BRANCH  12  14
ATOM     14  C   UNL A   1      35.265  22.644  25.704  1.00  0.00     0.042 A 
ATOM     15  C   UNL A   1      34.798  20.246  24.865  1.00  0.00     0.045 C 
ATOM     16  C   UNL A   1      35.705  21.374  25.270  1.00  0.00    -0.038 A 
ATOM     17  C   UNL A   1      37.090  21.136  25.168  1.00  0.00     0.004 A 
ATOM     18  C   UNL A   1      38.017  22.154  25.391  1.00  0.00     0.000 A 
ATOM     19  C   UNL A   1      36.214  23.664  25.913  1.00  0.00     0.014 A 
ATOM     20  C   UNL A   1      37.578  23.423  25.747  1.00  0.00     0.001 A 
ENDBRANCH  12  14
ENDBRANCH   8  12
ENDBRANCH   4   7
ENDBRANCH   2   3
ENDBRANCH   1   2
BRANCH   1  21
ATOM     21  C   UNL A   1      33.376  30.253  26.357  1.00  0.00     0.023 C 
BRANCH  21  22
ATOM     22  C   UNL A   1      33.563  30.308  27.866  1.00  0.00     0.116 C 
BRANCH  22  23
ATOM     23  N   UNL A   1      34.378  31.410  28.357  1.00  0.00    -0.352 N 
ATOM     24  C   UNL A   1      35.658  31.397  28.902  1.00  0.00     0.251 C 
ATOM     25  H   UNL A   1      33.961  32.300  28.294  1.00  0.00     0.163 HD
ATOM     26  O   UNL A   1      36.137  32.419  29.356  1.00  0.00    -0.269 OA
BRANCH  24  27
ATOM     27  C   UNL A   1      36.495  30.169  28.796  1.00  0.00     0.039 A 
ATOM     28  C   UNL A   1      36.662  29.384  29.946  1.00  0.00     0.014 A 
ATOM     29  C   UNL A   1      37.272  29.921  27.673  1.00  0.00     0.014 A 
ATOM     30  C   UNL A   1      37.784  28.561  30.055  1.00  0.00     0.010 A 
ATOM     31  C   UNL A   1      38.449  29.222  27.827  1.00  0.00     0.010 A 
ATOM     32  C   UNL A   1      38.740  28.600  29.046  1.00  0.00    -0.014 A 
BRANCH  32  33
ATOM     33  C   UNL A   1      40.112  28.131  29.195  1.00  0.00     0.031 A 
ATOM     34  C   UNL A   1      40.484  26.767  28.766  1.00  0.00     0.074 A 
ATOM     35  C   UNL A   1      41.070  29.019  29.548  1.00  0.00     0.049 A 
ATOM     36  N   UNL A   1      41.607  26.196  29.038  1.00  0.00    -0.248 NA
ATOM     37  C   UNL A   1      39.570  25.899  28.034  1.00  0.00     0.031 C 
ATOM     38  C   UNL A   1      42.515  28.885  29.371  1.00  0.00     0.029 A 
ATOM     39  N   UNL A   1      40.925  30.173  30.338  1.00  0.00    -0.354 N 
ATOM     40  C   UNL A   1      41.692  25.045  28.288  1.00  0.00     0.074 A 
ATOM     41  C   UNL A   1      40.359  24.853  27.776  1.00  0.00     0.031 C 
ATOM     42  C   UNL A   1      43.137  29.693  30.244  1.00  0.00     0.029 A 
ATOM     43  C   UNL A   1      42.110  30.243  31.110  1.00  0.00     0.049 A 
ATOM     44  H   UNL A   1      40.164  30.798  30.352  1.00  0.00     0.167 HD
ATOM     45  C   UNL A   1      42.925  24.489  28.095  1.00  0.00     0.037 A 
ATOM     46  C   UNL A   1      42.087  30.103  32.468  1.00  0.00     0.037 A 
ATOM     47  C   UNL A   1      43.907  25.101  28.998  1.00  0.00     0.049 A 
ATOM     48  C   UNL A   1      42.934  28.964  32.986  1.00  0.00     0.074 A 
ATOM     49  C   UNL A   1      44.921  26.028  28.822  1.00  0.00     0.029 A 
ATOM     50  N   UNL A   1      43.725  24.978  30.374  1.00  0.00    -0.354 N 
ATOM     51  N   UNL A   1      43.326  27.958  32.255  1.00  0.00    -0.248 NA
ATOM     52  C   UNL A   1      43.381  28.854  34.371  1.00  0.00     0.031 C 
ATOM     53  C   UNL A   1      45.310  26.504  30.102  1.00  0.00     0.029 A 
ATOM     54  C   UNL A   1      44.549  25.850  31.055  1.00  0.00     0.049 A 
ATOM     55  H   UNL A   1      43.096  24.353  30.801  1.00  0.00     0.167 HD
ATOM     56  C   UNL A   1      44.039  27.077  33.028  1.00  0.00     0.074 A 
ATOM     57  C   UNL A   1      44.062  27.695  34.340  1.00  0.00     0.031 C 
ATOM     58  C   UNL A   1      44.530  25.910  32.512  1.00  0.00     0.037 A 
BRANCH  45  59
ATOM     59  C   UNL A   1      43.320  23.584  26.931  1.00  0.00     0.064 A 
ATOM     60  C   UNL A   1      42.973  22.211  26.945  1.00  0.00     0.173 A 
ATOM     61  C   UNL A   1      44.119  23.954  25.830  1.00  0.00     0.173 A 
ATOM     62  F   UNL A   1      42.152  21.705  27.875  1.00  0.00    -0.203 F 
ATOM     63  C   UNL A   1      43.457  21.291  26.005  1.00  0.00     0.198 A 
ATOM     64  C   UNL A   1      44.615  23.035  24.898  1.00  0.00     0.198 A 
ATOM     65  F   UNL A   1      44.438  25.220  25.571  1.00  0.00    -0.203 F 
ATOM     66  F   UNL A   1      43.113  20.000  26.100  1.00  0.00    -0.200 F 
ATOM     67  C   UNL A   1      44.298  21.700  24.994  1.00  0.00     0.200 A 
ATOM     68  F   UNL A   1      45.411  23.464  23.908  1.00  0.00    -0.200 F 
ATOM     69  F   UNL A   1      44.785  20.821  24.107  1.00  0.00    -0.200 F 
ENDBRANCH  45  59
BRANCH  46  70
ATOM     70  C   UNL A   1      40.814  30.572  33.076  1.00  0.00     0.064 A 
ATOM     71  C   UNL A   1      40.589  31.961  33.157  1.00  0.00     0.173 A 
ATOM     72  C   UNL A   1      39.701  29.730  33.187  1.00  0.00     0.173 A 
ATOM     73  F   UNL A   1      41.623  32.813  33.054  1.00  0.00    -0.203 F 
ATOM     74  C   UNL A   1      39.300  32.486  33.209  1.00  0.00     0.198 A 
ATOM     75  C   UNL A   1      38.411  30.260  33.259  1.00  0.00     0.198 A 
ATOM     76  F   UNL A   1      39.846  28.400  33.096  1.00  0.00    -0.203 F 
ATOM     77  F   UNL A   1      39.115  33.812  33.153  1.00  0.00    -0.200 F 
ATOM     78  C   UNL A   1      38.210  31.633  33.230  1.00  0.00     0.200 A 
ATOM     79  F   UNL A   1      37.352  29.437  33.246  1.00  0.00    -0.200 F 
ATOM     80  F   UNL A   1      36.967  32.131  33.173  1.00  0.00    -0.200 F 
ENDBRANCH  46  70
BRANCH  58  81
ATOM     81  C   UNL A   1      45.109  24.746  33.291  1.00  0.00     0.064 A 
ATOM     82  C   UNL A   1      44.419  23.553  33.568  1.00  0.00     0.173 A 
ATOM     83  C   UNL A   1      46.478  24.747  33.664  1.00  0.00     0.173 A 
ATOM     84  F   UNL A   1      43.159  23.363  33.161  1.00  0.00    -0.203 F 
ATOM     85  C   UNL A   1      45.030  22.476  34.220  1.00  0.00     0.198 A 
ATOM     86  C   UNL A   1      47.100  23.649  34.257  1.00  0.00     0.198 A 
ATOM     87  F   UNL A   1      47.268  25.807  33.437  1.00  0.00    -0.203 F 
ATOM     88  F   UNL A   1      44.312  21.377  34.497  1.00  0.00    -0.200 F 
ATOM     89  C   UNL A   1      46.371  22.517  34.552  1.00  0.00     0.200 A 
ATOM     90  F   UNL A   1      48.414  23.688  34.519  1.00  0.00    -0.200 F 
ATOM     91  F   UNL A   1      46.962  21.464  35.129  1.00  0.00    -0.200 F 
ENDBRANCH  58  81
ENDBRANCH  32  33
ENDBRANCH  24  27
ENDBRANCH  22  23
ENDBRANCH  21  22
ENDBRANCH   1  21
TORSDOF 13
ENDMDL
