MODEL 1
REMARK VINA RESULT:     -13.7      0.000      0.000
REMARK SMILES Cc1ccc(-c2ccc(/C=C(\C#N)C3N=c4ccccc4=N3)o2)cc1C(=O)NCCCCNC(=O)c1ccc(-c2c3nc(c(-c4c(F)c(F)c(F)c(F)c4F)c4ccc([nH]4)c(-c4c(F)c(F)c(F)c(F)c4F)c4nc(c(-c5c(F)c(F)c(F)c(F)c5F)c5ccc2[nH]5)C=C4)C=C3)cc1
REMARK SMILES IDX 30 1 29 2 28 3 26 4 27 5 25 7 1 8 2 9 3 10 4 11 24 12 5 13
REMARK SMILES IDX 6 14 7 15 23 16 8 17 9 18 10 19 11 20 12 21 13 22 14 23
REMARK SMILES IDX 15 24 22 25 16 26 21 27 17 28 20 29 18 30 19 31 31 32 32 33
REMARK SMILES IDX 33 34 34 35 35 37 36 38 37 39 98 40 38 41 97 42 39 43 40 44
REMARK SMILES IDX 41 45 91 46 42 47 96 48 90 49 92 50 43 51 95 52 89 53 88 54
REMARK SMILES IDX 44 56 76 57 56 58 75 59 57 60 60 61 74 62 93 63 58 64 59 65
REMARK SMILES IDX 73 67 94 68 61 69 45 70 46 71 54 72 47 73 48 74 52 75 55 76
REMARK SMILES IDX 49 77 50 78 53 79 51 80 77 81 78 82 86 83 79 84 80 85 84 86
REMARK SMILES IDX 87 87 81 88 82 89 85 90 83 91 62 92 63 93 71 94 64 95 65 96
REMARK SMILES IDX 69 97 72 98 66 99 67 100 70 101 68 102
REMARK H PARENT 28 6 33 36 92 55 60 66
REMARK Flexibility Score: inf
ROOT
ATOM      1  C   UNL A   1      43.816  18.792  26.071  1.00  0.00     0.023 C 
ENDROOT
BRANCH   1   2
ATOM      2  C   UNL A   1      42.712  19.845  26.235  1.00  0.00     0.116 C 
BRANCH   2   3
ATOM      3  N   UNL A   1      41.451  19.281  25.847  1.00  0.00    -0.352 N 
ATOM      4  C   UNL A   1      40.163  19.729  25.908  1.00  0.00     0.251 C 
ATOM      5  O   UNL A   1      39.329  18.855  25.639  1.00  0.00    -0.269 OA
ATOM      6  H   UNL A   1      41.531  18.382  25.455  1.00  0.00     0.163 HD
BRANCH   4   7
ATOM      7  C   UNL A   1      39.679  21.140  26.169  1.00  0.00     0.043 A 
ATOM      8  C   UNL A   1      41.209  22.137  28.050  1.00  0.00     0.045 C 
ATOM      9  C   UNL A   1      40.171  22.197  26.974  1.00  0.00    -0.038 A 
ATOM     10  C   UNL A   1      39.558  23.471  26.903  1.00  0.00     0.005 A 
ATOM     11  C   UNL A   1      38.370  23.668  26.221  1.00  0.00     0.012 A 
ATOM     12  C   UNL A   1      38.451  21.379  25.505  1.00  0.00     0.026 A 
ATOM     13  C   UNL A   1      37.771  22.595  25.585  1.00  0.00     0.018 A 
BRANCH  13  14
ATOM     14  C   UNL A   1      36.416  22.717  25.103  1.00  0.00     0.134 A 
ATOM     15  C   UNL A   1      35.660  22.021  24.193  1.00  0.00     0.051 A 
ATOM     16  O   UNL A   1      35.668  23.665  25.707  1.00  0.00    -0.457 OA
ATOM     17  C   UNL A   1      34.361  22.578  24.274  1.00  0.00     0.051 A 
ATOM     18  C   UNL A   1      34.396  23.610  25.206  1.00  0.00     0.128 A 
BRANCH  18  19
ATOM     19  C   UNL A   1      33.345  24.474  25.614  1.00  0.00     0.066 C 
ATOM     20  C   UNL A   1      32.504  25.111  24.776  1.00  0.00     0.080 C 
BRANCH  20  21
ATOM     21  C   UNL A   1      32.573  25.009  23.345  1.00  0.00     0.099 C 
ATOM     22  N   UNL A   1      32.664  24.977  22.193  1.00  0.00    -0.193 NA
ENDBRANCH  20  21
BRANCH  20  23
ATOM     23  C   UNL A   1      31.428  26.005  25.340  1.00  0.00     0.263 C 
ATOM     24  N   UNL A   1      31.850  26.536  26.662  1.00  0.00    -0.251 NA
ATOM     25  N   UNL A   1      31.111  27.115  24.402  1.00  0.00    -0.251 NA
ATOM     26  C   UNL A   1      31.791  27.809  26.483  1.00  0.00     0.086 A 
ATOM     27  C   UNL A   1      31.344  28.161  25.117  1.00  0.00     0.086 A 
ATOM     28  C   UNL A   1      32.099  28.876  27.438  1.00  0.00     0.030 A 
ATOM     29  C   UNL A   1      31.213  29.571  24.744  1.00  0.00     0.030 A 
ATOM     30  C   UNL A   1      31.948  30.140  27.018  1.00  0.00     0.002 A 
ATOM     31  C   UNL A   1      31.506  30.485  25.679  1.00  0.00     0.002 A 
ENDBRANCH  20  23
ENDBRANCH  18  19
ENDBRANCH  13  14
ENDBRANCH   4   7
ENDBRANCH   2   3
ENDBRANCH   1   2
BRANCH   1  32
ATOM     32  C   UNL A   1      44.344  18.594  24.661  1.00  0.00     0.023 C 
BRANCH  32  33
ATOM     33  C   UNL A   1      45.381  19.617  24.273  1.00  0.00     0.116 C 
BRANCH  33  34
ATOM     34  N   UNL A   1      44.875  20.763  23.539  1.00  0.00    -0.352 N 
ATOM     35  C   UNL A   1      44.741  22.076  23.964  1.00  0.00     0.251 C 
ATOM     36  H   UNL A   1      44.588  20.585  22.614  1.00  0.00     0.163 HD
ATOM     37  O   UNL A   1      44.039  22.848  23.318  1.00  0.00    -0.269 OA
BRANCH  35  38
ATOM     38  C   UNL A   1      45.613  22.611  25.054  1.00  0.00     0.039 A 
ATOM     39  C   UNL A   1      45.162  22.331  26.354  1.00  0.00     0.014 A 
ATOM     40  C   UNL A   1      46.357  23.754  24.827  1.00  0.00     0.014 A 
ATOM     41  C   UNL A   1      45.091  23.361  27.276  1.00  0.00     0.010 A 
ATOM     42  C   UNL A   1      46.058  24.833  25.605  1.00  0.00     0.010 A 
ATOM     43  C   UNL A   1      45.383  24.629  26.808  1.00  0.00    -0.014 A 
BRANCH  43  44
ATOM     44  C   UNL A   1      45.162  25.857  27.523  1.00  0.00     0.031 A 
ATOM     45  C   UNL A   1      43.855  26.482  27.257  1.00  0.00     0.074 A 
ATOM     46  C   UNL A   1      46.014  26.101  28.543  1.00  0.00     0.049 A 
ATOM     47  N   UNL A   1      43.550  27.690  27.536  1.00  0.00    -0.248 NA
ATOM     48  C   UNL A   1      42.761  25.776  26.578  1.00  0.00     0.031 C 
ATOM     49  C   UNL A   1      45.873  26.974  29.701  1.00  0.00     0.029 A 
ATOM     50  N   UNL A   1      47.349  25.658  28.627  1.00  0.00    -0.354 N 
ATOM     51  C   UNL A   1      42.172  27.778  27.480  1.00  0.00     0.074 A 
ATOM     52  C   UNL A   1      41.753  26.639  26.714  1.00  0.00     0.031 C 
ATOM     53  C   UNL A   1      47.101  27.290  30.158  1.00  0.00     0.029 A 
ATOM     54  C   UNL A   1      48.061  26.726  29.223  1.00  0.00     0.049 A 
ATOM     55  H   UNL A   1      47.709  24.790  28.334  1.00  0.00     0.167 HD
ATOM     56  C   UNL A   1      41.576  28.701  28.285  1.00  0.00     0.037 A 
ATOM     57  C   UNL A   1      48.924  27.455  28.450  1.00  0.00     0.037 A 
ATOM     58  C   UNL A   1      42.626  29.480  28.949  1.00  0.00     0.049 A 
ATOM     59  C   UNL A   1      48.396  28.855  28.225  1.00  0.00     0.074 A 
ATOM     60  C   UNL A   1      43.200  29.378  30.205  1.00  0.00     0.029 A 
ATOM     61  N   UNL A   1      43.516  30.203  28.162  1.00  0.00    -0.354 N 
ATOM     62  N   UNL A   1      47.124  29.162  28.215  1.00  0.00    -0.248 NA
ATOM     63  C   UNL A   1      49.259  30.024  28.095  1.00  0.00     0.031 C 
ATOM     64  C   UNL A   1      44.492  29.973  30.136  1.00  0.00     0.029 A 
ATOM     65  C   UNL A   1      44.694  30.437  28.845  1.00  0.00     0.049 A 
ATOM     66  H   UNL A   1      43.332  30.507  27.244  1.00  0.00     0.167 HD
ATOM     67  C   UNL A   1      46.988  30.525  28.148  1.00  0.00     0.074 A 
ATOM     68  C   UNL A   1      48.352  31.015  28.058  1.00  0.00     0.031 C 
ATOM     69  C   UNL A   1      45.779  31.163  28.205  1.00  0.00     0.037 A 
BRANCH  56  70
ATOM     70  C   UNL A   1      40.126  28.736  28.727  1.00  0.00     0.064 A 
ATOM     71  C   UNL A   1      39.142  29.207  27.825  1.00  0.00     0.173 A 
ATOM     72  C   UNL A   1      39.626  28.391  29.998  1.00  0.00     0.173 A 
ATOM     73  F   UNL A   1      39.446  29.517  26.558  1.00  0.00    -0.203 F 
ATOM     74  C   UNL A   1      37.802  29.378  28.184  1.00  0.00     0.198 A 
ATOM     75  C   UNL A   1      38.283  28.565  30.358  1.00  0.00     0.198 A 
ATOM     76  F   UNL A   1      40.391  27.847  30.945  1.00  0.00    -0.203 F 
ATOM     77  F   UNL A   1      36.931  29.854  27.284  1.00  0.00    -0.200 F 
ATOM     78  C   UNL A   1      37.373  29.067  29.455  1.00  0.00     0.200 A 
ATOM     79  F   UNL A   1      37.882  28.236  31.596  1.00  0.00    -0.200 F 
ATOM     80  F   UNL A   1      36.090  29.233  29.802  1.00  0.00    -0.200 F 
ENDBRANCH  56  70
BRANCH  57  81
ATOM     81  C   UNL A   1      49.631  26.581  27.461  1.00  0.00     0.064 A 
ATOM     82  C   UNL A   1      49.294  26.765  26.100  1.00  0.00     0.173 A 
ATOM     83  C   UNL A   1      50.874  25.998  27.734  1.00  0.00     0.173 A 
ATOM     84  F   UNL A   1      48.102  27.293  25.774  1.00  0.00    -0.203 F 
ATOM     85  C   UNL A   1      50.228  26.574  25.084  1.00  0.00     0.198 A 
ATOM     86  C   UNL A   1      51.791  25.757  26.703  1.00  0.00     0.198 A 
ATOM     87  F   UNL A   1      51.261  25.785  29.000  1.00  0.00    -0.203 F 
ATOM     88  F   UNL A   1      49.933  26.938  23.827  1.00  0.00    -0.200 F 
ATOM     89  C   UNL A   1      51.489  26.101  25.392  1.00  0.00     0.200 A 
ATOM     90  F   UNL A   1      53.014  25.291  26.995  1.00  0.00    -0.200 F 
ATOM     91  F   UNL A   1      52.425  26.012  24.436  1.00  0.00    -0.200 F 
ENDBRANCH  57  81
BRANCH  69  92
ATOM     92  C   UNL A   1      45.519  32.581  27.749  1.00  0.00     0.064 A 
ATOM     93  C   UNL A   1      45.135  32.919  26.442  1.00  0.00     0.173 A 
ATOM     94  C   UNL A   1      45.483  33.649  28.683  1.00  0.00     0.173 A 
ATOM     95  F   UNL A   1      44.970  31.986  25.495  1.00  0.00    -0.203 F 
ATOM     96  C   UNL A   1      44.840  34.233  26.075  1.00  0.00     0.198 A 
ATOM     97  C   UNL A   1      45.093  34.938  28.333  1.00  0.00     0.198 A 
ATOM     98  F   UNL A   1      45.790  33.477  29.976  1.00  0.00    -0.203 F 
ATOM     99  F   UNL A   1      44.560  34.511  24.794  1.00  0.00    -0.200 F 
ATOM    100  C   UNL A   1      44.805  35.238  27.021  1.00  0.00     0.200 A 
ATOM    101  F   UNL A   1      44.982  35.878  29.281  1.00  0.00    -0.200 F 
ATOM    102  F   UNL A   1      44.472  36.487  26.672  1.00  0.00    -0.200 F 
ENDBRANCH  69  92
ENDBRANCH  43  44
ENDBRANCH  35  38
ENDBRANCH  33  34
ENDBRANCH  32  33
ENDBRANCH   1  32
TORSDOF 15
ENDMDL
MODEL 2
REMARK VINA RESULT:     -13.4      4.193     10.449
REMARK SMILES Cc1ccc(-c2ccc(/C=C(\C#N)C3N=c4ccccc4=N3)o2)cc1C(=O)NCCCCNC(=O)c1ccc(-c2c3nc(c(-c4c(F)c(F)c(F)c(F)c4F)c4ccc([nH]4)c(-c4c(F)c(F)c(F)c(F)c4F)c4nc(c(-c5c(F)c(F)c(F)c(F)c5F)c5ccc2[nH]5)C=C4)C=C3)cc1
REMARK SMILES IDX 30 1 29 2 28 3 26 4 27 5 25 7 1 8 2 9 3 10 4 11 24 12 5 13
REMARK SMILES IDX 6 14 7 15 23 16 8 17 9 18 10 19 11 20 12 21 13 22 14 23
REMARK SMILES IDX 15 24 22 25 16 26 21 27 17 28 20 29 18 30 19 31 31 32 32 33
REMARK SMILES IDX 33 34 34 35 35 37 36 38 37 39 98 40 38 41 97 42 39 43 40 44
REMARK SMILES IDX 41 45 91 46 42 47 96 48 90 49 92 50 43 51 95 52 89 53 88 54
REMARK SMILES IDX 44 56 76 57 56 58 75 59 57 60 60 61 74 62 93 63 58 64 59 65
REMARK SMILES IDX 73 67 94 68 61 69 45 70 46 71 54 72 47 73 48 74 52 75 55 76
REMARK SMILES IDX 49 77 50 78 53 79 51 80 77 81 78 82 86 83 79 84 80 85 84 86
REMARK SMILES IDX 87 87 81 88 82 89 85 90 83 91 62 92 63 93 71 94 64 95 65 96
REMARK SMILES IDX 69 97 72 98 66 99 67 100 70 101 68 102
REMARK H PARENT 28 6 33 36 92 55 60 66
REMARK Flexibility Score: inf
ROOT
ATOM      1  C   UNL A   1      33.771  28.584  27.277  1.00  0.00     0.023 C 
ENDROOT
BRANCH   1   2
ATOM      2  C   UNL A   1      32.253  28.546  27.061  1.00  0.00     0.116 C 
BRANCH   2   3
ATOM      3  N   UNL A   1      31.772  29.873  26.805  1.00  0.00    -0.352 N 
ATOM      4  C   UNL A   1      31.274  30.496  25.697  1.00  0.00     0.251 C 
ATOM      5  O   UNL A   1      31.143  31.718  25.841  1.00  0.00    -0.269 OA
ATOM      6  H   UNL A   1      31.808  30.459  27.596  1.00  0.00     0.163 HD
BRANCH   4   7
ATOM      7  C   UNL A   1      30.803  29.860  24.405  1.00  0.00     0.043 A 
ATOM      8  C   UNL A   1      28.476  30.924  23.834  1.00  0.00     0.045 C 
ATOM      9  C   UNL A   1      29.697  30.106  23.555  1.00  0.00    -0.038 A 
ATOM     10  C   UNL A   1      29.600  29.416  22.322  1.00  0.00     0.005 A 
ATOM     11  C   UNL A   1      30.444  28.365  22.009  1.00  0.00     0.012 A 
ATOM     12  C   UNL A   1      31.630  28.763  24.057  1.00  0.00     0.026 A 
ATOM     13  C   UNL A   1      31.414  27.985  22.919  1.00  0.00     0.018 A 
BRANCH  13  14
ATOM     14  C   UNL A   1      32.119  26.740  22.732  1.00  0.00     0.134 A 
ATOM     15  C   UNL A   1      33.205  26.360  21.982  1.00  0.00     0.051 A 
ATOM     16  O   UNL A   1      31.698  25.713  23.501  1.00  0.00    -0.457 OA
ATOM     17  C   UNL A   1      33.465  25.017  22.345  1.00  0.00     0.051 A 
ATOM     18  C   UNL A   1      32.505  24.630  23.274  1.00  0.00     0.128 A 
BRANCH  18  19
ATOM     19  C   UNL A   1      32.342  23.373  23.912  1.00  0.00     0.066 C 
ATOM     20  C   UNL A   1      33.291  22.751  24.640  1.00  0.00     0.080 C 
BRANCH  20  21
ATOM     21  C   UNL A   1      34.609  23.281  24.852  1.00  0.00     0.099 C 
ATOM     22  N   UNL A   1      35.673  23.719  24.962  1.00  0.00    -0.193 NA
ENDBRANCH  20  21
BRANCH  20  23
ATOM     23  C   UNL A   1      32.990  21.412  25.266  1.00  0.00     0.263 C 
ATOM     24  N   UNL A   1      32.032  20.659  24.416  1.00  0.00    -0.251 NA
ATOM     25  N   UNL A   1      34.237  20.630  25.476  1.00  0.00    -0.251 NA
ATOM     26  C   UNL A   1      32.676  19.573  24.164  1.00  0.00     0.086 A 
ATOM     27  C   UNL A   1      34.009  19.554  24.805  1.00  0.00     0.086 A 
ATOM     28  C   UNL A   1      32.246  18.427  23.360  1.00  0.00     0.030 A 
ATOM     29  C   UNL A   1      34.876  18.387  24.627  1.00  0.00     0.030 A 
ATOM     30  C   UNL A   1      33.097  17.397  23.253  1.00  0.00     0.002 A 
ATOM     31  C   UNL A   1      34.404  17.377  23.884  1.00  0.00     0.002 A 
ENDBRANCH  20  23
ENDBRANCH  18  19
ENDBRANCH  13  14
ENDBRANCH   4   7
ENDBRANCH   2   3
ENDBRANCH   1   2
BRANCH   1  32
ATOM     32  C   UNL A   1      34.454  29.907  26.978  1.00  0.00     0.023 C 
BRANCH  32  33
ATOM     33  C   UNL A   1      34.567  30.796  28.190  1.00  0.00     0.116 C 
BRANCH  33  34
ATOM     34  N   UNL A   1      35.780  31.591  28.263  1.00  0.00    -0.352 N 
ATOM     35  C   UNL A   1      37.065  31.186  28.589  1.00  0.00     0.251 C 
ATOM     36  H   UNL A   1      35.677  32.547  28.053  1.00  0.00     0.163 HD
ATOM     37  O   UNL A   1      37.907  32.031  28.877  1.00  0.00    -0.269 OA
BRANCH  35  38
ATOM     38  C   UNL A   1      37.490  29.769  28.373  1.00  0.00     0.039 A 
ATOM     39  C   UNL A   1      37.463  28.968  29.526  1.00  0.00     0.014 A 
ATOM     40  C   UNL A   1      38.393  29.478  27.366  1.00  0.00     0.014 A 
ATOM     41  C   UNL A   1      38.572  28.199  29.833  1.00  0.00     0.010 A 
ATOM     42  C   UNL A   1      39.587  28.954  27.762  1.00  0.00     0.010 A 
ATOM     43  C   UNL A   1      39.677  28.355  29.018  1.00  0.00    -0.014 A 
BRANCH  43  44
ATOM     44  C   UNL A   1      40.991  27.832  29.279  1.00  0.00     0.031 A 
ATOM     45  C   UNL A   1      41.190  26.447  28.820  1.00  0.00     0.074 A 
ATOM     46  C   UNL A   1      41.930  28.746  29.609  1.00  0.00     0.049 A 
ATOM     47  N   UNL A   1      42.146  25.683  29.186  1.00  0.00    -0.248 NA
ATOM     48  C   UNL A   1      40.255  25.769  27.913  1.00  0.00     0.031 C 
ATOM     49  C   UNL A   1      43.383  28.673  29.541  1.00  0.00     0.029 A 
ATOM     50  N   UNL A   1      41.694  29.970  30.267  1.00  0.00    -0.354 N 
ATOM     51  C   UNL A   1      42.193  24.640  28.282  1.00  0.00     0.074 A 
ATOM     52  C   UNL A   1      40.909  24.639  27.639  1.00  0.00     0.031 C 
ATOM     53  C   UNL A   1      43.903  29.564  30.409  1.00  0.00     0.029 A 
ATOM     54  C   UNL A   1      42.789  30.141  31.144  1.00  0.00     0.049 A 
ATOM     55  H   UNL A   1      40.928  30.578  30.141  1.00  0.00     0.167 HD
ATOM     56  C   UNL A   1      43.407  24.061  28.063  1.00  0.00     0.037 A 
ATOM     57  C   UNL A   1      42.583  30.002  32.491  1.00  0.00     0.037 A 
ATOM     58  C   UNL A   1      44.375  24.661  28.988  1.00  0.00     0.049 A 
ATOM     59  C   UNL A   1      43.257  28.752  33.014  1.00  0.00     0.074 A 
ATOM     60  C   UNL A   1      45.302  25.676  28.826  1.00  0.00     0.029 A 
ATOM     61  N   UNL A   1      44.153  24.539  30.354  1.00  0.00    -0.354 N 
ATOM     62  N   UNL A   1      43.469  27.682  32.293  1.00  0.00    -0.248 NA
ATOM     63  C   UNL A   1      43.829  28.653  34.353  1.00  0.00     0.031 C 
ATOM     64  C   UNL A   1      45.567  26.225  30.113  1.00  0.00     0.029 A 
ATOM     65  C   UNL A   1      44.807  25.539  31.048  1.00  0.00     0.049 A 
ATOM     66  H   UNL A   1      43.606  23.834  30.773  1.00  0.00     0.167 HD
ATOM     67  C   UNL A   1      44.236  26.799  33.009  1.00  0.00     0.074 A 
ATOM     68  C   UNL A   1      44.419  27.447  34.296  1.00  0.00     0.031 C 
ATOM     69  C   UNL A   1      44.699  25.618  32.496  1.00  0.00     0.037 A 
BRANCH  56  70
ATOM     70  C   UNL A   1      43.823  23.215  26.876  1.00  0.00     0.064 A 
ATOM     71  C   UNL A   1      43.306  21.904  26.749  1.00  0.00     0.173 A 
ATOM     72  C   UNL A   1      44.740  23.574  25.869  1.00  0.00     0.173 A 
ATOM     73  F   UNL A   1      42.376  21.435  27.591  1.00  0.00    -0.203 F 
ATOM     74  C   UNL A   1      43.719  21.018  25.750  1.00  0.00     0.198 A 
ATOM     75  C   UNL A   1      45.156  22.685  24.869  1.00  0.00     0.198 A 
ATOM     76  F   UNL A   1      45.261  24.798  25.778  1.00  0.00    -0.203 F 
ATOM     77  F   UNL A   1      43.204  19.781  25.709  1.00  0.00    -0.200 F 
ATOM     78  C   UNL A   1      44.653  21.403  24.815  1.00  0.00     0.200 A 
ATOM     79  F   UNL A   1      46.052  23.087  23.956  1.00  0.00    -0.200 F 
ATOM     80  F   UNL A   1      45.052  20.555  23.859  1.00  0.00    -0.200 F 
ENDBRANCH  56  70
BRANCH  57  81
ATOM     81  C   UNL A   1      41.248  30.550  32.891  1.00  0.00     0.064 A 
ATOM     82  C   UNL A   1      41.032  31.926  32.648  1.00  0.00     0.173 A 
ATOM     83  C   UNL A   1      40.113  29.739  33.010  1.00  0.00     0.173 A 
ATOM     84  F   UNL A   1      42.082  32.760  32.554  1.00  0.00    -0.203 F 
ATOM     85  C   UNL A   1      39.768  32.421  32.334  1.00  0.00     0.198 A 
ATOM     86  C   UNL A   1      38.838  30.255  32.745  1.00  0.00     0.198 A 
ATOM     87  F   UNL A   1      40.238  28.426  33.247  1.00  0.00    -0.203 F 
ATOM     88  F   UNL A   1      39.631  33.692  31.925  1.00  0.00    -0.200 F 
ATOM     89  C   UNL A   1      38.676  31.576  32.350  1.00  0.00     0.200 A 
ATOM     90  F   UNL A   1      37.773  29.440  32.766  1.00  0.00    -0.200 F 
ATOM     91  F   UNL A   1      37.476  32.021  31.949  1.00  0.00    -0.200 F 
ENDBRANCH  57  81
BRANCH  69  92
ATOM     92  C   UNL A   1      45.190  24.445  33.313  1.00  0.00     0.064 A 
ATOM     93  C   UNL A   1      44.429  23.291  33.554  1.00  0.00     0.173 A 
ATOM     94  C   UNL A   1      46.541  24.376  33.745  1.00  0.00     0.173 A 
ATOM     95  F   UNL A   1      43.190  23.152  33.063  1.00  0.00    -0.203 F 
ATOM     96  C   UNL A   1      44.940  22.201  34.260  1.00  0.00     0.198 A 
ATOM     97  C   UNL A   1      47.074  23.249  34.361  1.00  0.00     0.198 A 
ATOM     98  F   UNL A   1      47.403  25.385  33.557  1.00  0.00    -0.203 F 
ATOM     99  F   UNL A   1      44.142  21.161  34.533  1.00  0.00    -0.200 F 
ATOM    100  C   UNL A   1      46.265  22.173  34.650  1.00  0.00     0.200 A 
ATOM    101  F   UNL A   1      48.382  23.207  34.653  1.00  0.00    -0.200 F 
ATOM    102  F   UNL A   1      46.764  21.103  35.281  1.00  0.00    -0.200 F 
ENDBRANCH  69  92
ENDBRANCH  43  44
ENDBRANCH  35  38
ENDBRANCH  33  34
ENDBRANCH  32  33
ENDBRANCH   1  32
TORSDOF 15
ENDMDL
MODEL 3
REMARK VINA RESULT:     -12.7      3.130      9.298
REMARK SMILES Cc1ccc(-c2ccc(/C=C(\C#N)C3N=c4ccccc4=N3)o2)cc1C(=O)NCCCCNC(=O)c1ccc(-c2c3nc(c(-c4c(F)c(F)c(F)c(F)c4F)c4ccc([nH]4)c(-c4c(F)c(F)c(F)c(F)c4F)c4nc(c(-c5c(F)c(F)c(F)c(F)c5F)c5ccc2[nH]5)C=C4)C=C3)cc1
REMARK SMILES IDX 30 1 29 2 28 3 26 4 27 5 25 7 1 8 2 9 3 10 4 11 24 12 5 13
REMARK SMILES IDX 6 14 7 15 23 16 8 17 9 18 10 19 11 20 12 21 13 22 14 23
REMARK SMILES IDX 15 24 22 25 16 26 21 27 17 28 20 29 18 30 19 31 31 32 32 33
REMARK SMILES IDX 33 34 34 35 35 37 36 38 37 39 98 40 38 41 97 42 39 43 40 44
REMARK SMILES IDX 41 45 91 46 42 47 96 48 90 49 92 50 43 51 95 52 89 53 88 54
REMARK SMILES IDX 44 56 76 57 56 58 75 59 57 60 60 61 74 62 93 63 58 64 59 65
REMARK SMILES IDX 73 67 94 68 61 69 45 70 46 71 54 72 47 73 48 74 52 75 55 76
REMARK SMILES IDX 49 77 50 78 53 79 51 80 77 81 78 82 86 83 79 84 80 85 84 86
REMARK SMILES IDX 87 87 81 88 82 89 85 90 83 91 62 92 63 93 71 94 64 95 65 96
REMARK SMILES IDX 69 97 72 98 66 99 67 100 70 101 68 102
REMARK H PARENT 28 6 33 36 92 55 60 66
REMARK Flexibility Score: inf
ROOT
ATOM      1  C   UNL A   1      34.853  30.932  27.649  1.00  0.00     0.023 C 
ENDROOT
BRANCH   1   2
ATOM      2  C   UNL A   1      33.379  30.917  27.225  1.00  0.00     0.116 C 
BRANCH   2   3
ATOM      3  N   UNL A   1      32.743  29.740  27.744  1.00  0.00    -0.352 N 
ATOM      4  C   UNL A   1      31.872  28.832  27.216  1.00  0.00     0.251 C 
ATOM      5  O   UNL A   1      31.408  28.054  28.060  1.00  0.00    -0.269 OA
ATOM      6  H   UNL A   1      32.986  29.547  28.679  1.00  0.00     0.163 HD
BRANCH   4   7
ATOM      7  C   UNL A   1      31.506  28.631  25.760  1.00  0.00     0.043 A 
ATOM      8  C   UNL A   1      30.620  30.932  24.871  1.00  0.00     0.045 C 
ATOM      9  C   UNL A   1      31.090  29.518  24.737  1.00  0.00    -0.038 A 
ATOM     10  C   UNL A   1      30.949  29.036  23.413  1.00  0.00     0.005 A 
ATOM     11  C   UNL A   1      31.011  27.686  23.121  1.00  0.00     0.012 A 
ATOM     12  C   UNL A   1      31.537  27.255  25.422  1.00  0.00     0.026 A 
ATOM     13  C   UNL A   1      31.226  26.782  24.147  1.00  0.00     0.018 A 
BRANCH  13  14
ATOM     14  C   UNL A   1      31.030  25.373  23.909  1.00  0.00     0.134 A 
ATOM     15  C   UNL A   1      30.331  24.649  22.975  1.00  0.00     0.051 A 
ATOM     16  O   UNL A   1      31.730  24.545  24.715  1.00  0.00    -0.457 OA
ATOM     17  C   UNL A   1      30.653  23.294  23.225  1.00  0.00     0.051 A 
ATOM     18  C   UNL A   1      31.506  23.253  24.322  1.00  0.00     0.128 A 
BRANCH  18  19
ATOM     19  C   UNL A   1      32.081  22.121  24.958  1.00  0.00     0.066 C 
ATOM     20  C   UNL A   1      33.368  21.740  24.833  1.00  0.00     0.080 C 
BRANCH  20  21
ATOM     21  C   UNL A   1      34.330  22.431  24.020  1.00  0.00     0.099 C 
ATOM     22  N   UNL A   1      35.066  23.037  23.367  1.00  0.00    -0.193 NA
ENDBRANCH  20  21
BRANCH  20  23
ATOM     23  C   UNL A   1      33.855  20.513  25.563  1.00  0.00     0.263 C 
ATOM     24  N   UNL A   1      32.706  19.631  25.894  1.00  0.00    -0.251 NA
ATOM     25  N   UNL A   1      34.868  19.781  24.757  1.00  0.00    -0.251 NA
ATOM     26  C   UNL A   1      33.031  18.523  25.323  1.00  0.00     0.086 A 
ATOM     27  C   UNL A   1      34.339  18.613  24.636  1.00  0.00     0.086 A 
ATOM     28  C   UNL A   1      32.285  17.264  25.293  1.00  0.00     0.030 A 
ATOM     29  C   UNL A   1      34.866  17.438  23.939  1.00  0.00     0.030 A 
ATOM     30  C   UNL A   1      32.842  16.235  24.638  1.00  0.00     0.002 A 
ATOM     31  C   UNL A   1      34.125  16.322  23.966  1.00  0.00     0.002 A 
ENDBRANCH  20  23
ENDBRANCH  18  19
ENDBRANCH  13  14
ENDBRANCH   4   7
ENDBRANCH   2   3
ENDBRANCH   1   2
BRANCH   1  32
ATOM     32  C   UNL A   1      35.658  29.691  27.305  1.00  0.00     0.023 C 
BRANCH  32  33
ATOM     33  C   UNL A   1      36.614  29.290  28.400  1.00  0.00     0.116 C 
BRANCH  33  34
ATOM     34  N   UNL A   1      37.666  30.249  28.685  1.00  0.00    -0.352 N 
ATOM     35  C   UNL A   1      39.002  30.012  28.971  1.00  0.00     0.251 C 
ATOM     36  H   UNL A   1      37.395  31.195  28.674  1.00  0.00     0.163 HD
ATOM     37  O   UNL A   1      39.680  30.910  29.461  1.00  0.00    -0.269 OA
BRANCH  35  38
ATOM     38  C   UNL A   1      39.672  28.768  28.483  1.00  0.00     0.039 A 
ATOM     39  C   UNL A   1      40.172  27.936  29.498  1.00  0.00     0.014 A 
ATOM     40  C   UNL A   1      40.287  28.771  27.244  1.00  0.00     0.014 A 
ATOM     41  C   UNL A   1      41.472  27.472  29.404  1.00  0.00     0.010 A 
ATOM     42  C   UNL A   1      41.634  28.561  27.241  1.00  0.00     0.010 A 
ATOM     43  C   UNL A   1      42.224  27.951  28.347  1.00  0.00    -0.014 A 
BRANCH  43  44
ATOM     44  C   UNL A   1      43.642  27.780  28.182  1.00  0.00     0.031 A 
ATOM     45  C   UNL A   1      44.378  29.034  27.951  1.00  0.00     0.074 A 
ATOM     46  C   UNL A   1      44.134  26.580  28.562  1.00  0.00     0.049 A 
ATOM     47  N   UNL A   1      45.569  29.112  27.497  1.00  0.00    -0.248 NA
ATOM     48  C   UNL A   1      43.781  30.357  28.173  1.00  0.00     0.031 C 
ATOM     49  C   UNL A   1      45.490  26.188  28.923  1.00  0.00     0.029 A 
ATOM     50  N   UNL A   1      43.434  25.357  28.539  1.00  0.00    -0.354 N 
ATOM     51  C   UNL A   1      46.018  30.390  27.770  1.00  0.00     0.074 A 
ATOM     52  C   UNL A   1      44.833  31.162  28.013  1.00  0.00     0.031 C 
ATOM     53  C   UNL A   1      45.620  24.858  28.740  1.00  0.00     0.029 A 
ATOM     54  C   UNL A   1      44.384  24.389  28.136  1.00  0.00     0.049 A 
ATOM     55  H   UNL A   1      42.486  25.208  28.759  1.00  0.00     0.167 HD
ATOM     56  C   UNL A   1      47.358  30.550  27.960  1.00  0.00     0.037 A 
ATOM     57  C   UNL A   1      44.280  23.847  26.883  1.00  0.00     0.037 A 
ATOM     58  C   UNL A   1      48.017  29.268  27.693  1.00  0.00     0.049 A 
ATOM     59  C   UNL A   1      45.415  24.312  25.997  1.00  0.00     0.074 A 
ATOM     60  C   UNL A   1      48.447  28.256  28.535  1.00  0.00     0.029 A 
ATOM     61  N   UNL A   1      47.893  28.707  26.428  1.00  0.00    -0.354 N 
ATOM     62  N   UNL A   1      46.029  25.458  26.141  1.00  0.00    -0.248 NA
ATOM     63  C   UNL A   1      46.005  23.483  24.952  1.00  0.00     0.031 C 
ATOM     64  C   UNL A   1      48.492  27.054  27.773  1.00  0.00     0.029 A 
ATOM     65  C   UNL A   1      48.097  27.341  26.476  1.00  0.00     0.049 A 
ATOM     66  H   UNL A   1      47.688  29.213  25.608  1.00  0.00     0.167 HD
ATOM     67  C   UNL A   1      47.104  25.506  25.291  1.00  0.00     0.074 A 
ATOM     68  C   UNL A   1      47.033  24.253  24.558  1.00  0.00     0.031 C 
ATOM     69  C   UNL A   1      47.996  26.542  25.265  1.00  0.00     0.037 A 
BRANCH  56  70
ATOM     70  C   UNL A   1      48.057  31.703  28.654  1.00  0.00     0.064 A 
ATOM     71  C   UNL A   1      47.822  31.922  30.032  1.00  0.00     0.173 A 
ATOM     72  C   UNL A   1      48.907  32.653  28.055  1.00  0.00     0.173 A 
ATOM     73  F   UNL A   1      47.085  31.072  30.760  1.00  0.00    -0.203 F 
ATOM     74  C   UNL A   1      48.335  33.023  30.725  1.00  0.00     0.198 A 
ATOM     75  C   UNL A   1      49.419  33.757  28.749  1.00  0.00     0.198 A 
ATOM     76  F   UNL A   1      49.310  32.555  26.788  1.00  0.00    -0.203 F 
ATOM     77  F   UNL A   1      48.047  33.180  32.025  1.00  0.00    -0.200 F 
ATOM     78  C   UNL A   1      49.125  33.948  30.081  1.00  0.00     0.200 A 
ATOM     79  F   UNL A   1      50.204  34.636  28.108  1.00  0.00    -0.200 F 
ATOM     80  F   UNL A   1      49.615  35.005  30.742  1.00  0.00    -0.200 F 
ENDBRANCH  56  70
BRANCH  57  81
ATOM     81  C   UNL A   1      42.846  23.653  26.497  1.00  0.00     0.064 A 
ATOM     82  C   UNL A   1      42.200  22.509  27.020  1.00  0.00     0.173 A 
ATOM     83  C   UNL A   1      42.029  24.718  26.098  1.00  0.00     0.173 A 
ATOM     84  F   UNL A   1      42.929  21.444  27.392  1.00  0.00    -0.203 F 
ATOM     85  C   UNL A   1      40.840  22.514  27.322  1.00  0.00     0.198 A 
ATOM     86  C   UNL A   1      40.653  24.696  26.355  1.00  0.00     0.198 A 
ATOM     87  F   UNL A   1      42.569  25.834  25.586  1.00  0.00    -0.203 F 
ATOM     88  F   UNL A   1      40.300  21.483  27.989  1.00  0.00    -0.200 F 
ATOM     89  C   UNL A   1      40.073  23.623  27.019  1.00  0.00     0.200 A 
ATOM     90  F   UNL A   1      39.903  25.767  26.057  1.00  0.00    -0.200 F 
ATOM     91  F   UNL A   1      38.788  23.676  27.399  1.00  0.00    -0.200 F 
ENDBRANCH  57  81
BRANCH  69  92
ATOM     92  C   UNL A   1      48.939  26.853  24.124  1.00  0.00     0.064 A 
ATOM     93  C   UNL A   1      48.549  27.513  22.950  1.00  0.00     0.173 A 
ATOM     94  C   UNL A   1      50.337  26.640  24.260  1.00  0.00     0.173 A 
ATOM     95  F   UNL A   1      47.287  27.920  22.759  1.00  0.00    -0.203 F 
ATOM     96  C   UNL A   1      49.462  27.839  21.946  1.00  0.00     0.198 A 
ATOM     97  C   UNL A   1      51.254  27.056  23.301  1.00  0.00     0.198 A 
ATOM     98  F   UNL A   1      50.867  26.052  25.341  1.00  0.00    -0.203 F 
ATOM     99  F   UNL A   1      49.021  28.394  20.809  1.00  0.00    -0.200 F 
ATOM    100  C   UNL A   1      50.815  27.625  22.127  1.00  0.00     0.200 A 
ATOM    101  F   UNL A   1      52.567  26.917  23.534  1.00  0.00    -0.200 F 
ATOM    102  F   UNL A   1      51.691  27.987  21.182  1.00  0.00    -0.200 F 
ENDBRANCH  69  92
ENDBRANCH  43  44
ENDBRANCH  35  38
ENDBRANCH  33  34
ENDBRANCH  32  33
ENDBRANCH   1  32
TORSDOF 15
ENDMDL
