MODEL 1
REMARK VINA RESULT:     -12.2      0.000      0.000
REMARK SMILES O=C(NCCCCNC(=O)c1cc(Br)ccc1NC(=O)c1ccc(Br)s1)c1ccc(-c2c3nc(c(-c4c(F)c(F)c(F)c(F)c4F)c4ccc([nH]4)c(-c4c(F)c(F)c(F)c(F)c4F)c4nc(c(-c5c(F)c(F)c(F)c(F)c5F)c5ccc2[nH]5)C=C4)C=C3)cc1
REMARK SMILES IDX 5 1 4 2 3 3 1 4 2 5 27 7 28 8 89 9 29 10 88 11 30 12 31 13
REMARK SMILES IDX 32 14 82 15 33 16 87 17 81 18 83 19 34 20 86 21 80 22 79 23
REMARK SMILES IDX 35 25 67 26 47 27 66 28 48 29 51 30 65 31 84 32 49 33 50 34
REMARK SMILES IDX 64 36 85 37 52 38 36 39 37 40 45 41 38 42 39 43 43 44 46 45
REMARK SMILES IDX 40 46 41 47 44 48 42 49 68 50 69 51 77 52 70 53 71 54 75 55
REMARK SMILES IDX 78 56 72 57 73 58 76 59 74 60 53 61 54 62 62 63 55 64 56 65
REMARK SMILES IDX 60 66 63 67 57 68 58 69 61 70 59 71 6 72 7 73 8 74 9 75
REMARK SMILES IDX 10 77 11 78 12 79 17 80 13 81 16 82 14 83 15 84 18 85 19 86
REMARK SMILES IDX 20 88 21 89 22 90 26 91 23 92 24 93 25 94
REMARK H PARENT 3 6 83 24 51 35 8 76 18 87
REMARK Flexibility Score: inf
ROOT
ATOM      1  C   UNL A   1      31.403  32.098  26.836  1.00  0.00     0.023 C 
ENDROOT
BRANCH   1   2
ATOM      2  C   UNL A   1      32.684  32.898  27.026  1.00  0.00     0.116 C 
BRANCH   2   3
ATOM      3  N   UNL A   1      32.461  34.202  27.629  1.00  0.00    -0.352 N 
ATOM      4  O   UNL A   1      32.708  35.845  29.157  1.00  0.00    -0.269 OA
ATOM      5  C   UNL A   1      33.105  34.779  28.698  1.00  0.00     0.251 C 
ATOM      6  H   UNL A   1      31.754  34.746  27.215  1.00  0.00     0.163 HD
BRANCH   5   7
ATOM      7  C   UNL A   1      34.264  34.097  29.312  1.00  0.00     0.039 A 
ATOM      8  C   UNL A   1      34.078  33.099  30.271  1.00  0.00     0.014 A 
ATOM      9  C   UNL A   1      35.556  34.459  28.916  1.00  0.00     0.014 A 
ATOM     10  C   UNL A   1      35.178  32.558  30.927  1.00  0.00     0.010 A 
ATOM     11  C   UNL A   1      36.662  33.855  29.518  1.00  0.00     0.010 A 
ATOM     12  C   UNL A   1      36.481  32.914  30.544  1.00  0.00    -0.014 A 
BRANCH  12  13
ATOM     13  C   UNL A   1      37.632  32.217  31.166  1.00  0.00     0.031 A 
ATOM     14  C   UNL A   1      38.093  32.549  32.556  1.00  0.00     0.074 A 
ATOM     15  C   UNL A   1      38.251  31.254  30.456  1.00  0.00     0.049 A 
ATOM     16  N   UNL A   1      39.074  32.019  33.245  1.00  0.00    -0.248 NA
ATOM     17  C   UNL A   1      37.369  33.614  33.267  1.00  0.00     0.031 C 
ATOM     18  C   UNL A   1      37.901  30.866  29.087  1.00  0.00     0.029 A 
ATOM     19  N   UNL A   1      39.290  30.422  30.781  1.00  0.00    -0.354 N 
ATOM     20  C   UNL A   1      39.098  32.695  34.458  1.00  0.00     0.074 A 
ATOM     21  C   UNL A   1      38.044  33.686  34.409  1.00  0.00     0.031 C 
ATOM     22  C   UNL A   1      38.685  29.849  28.703  1.00  0.00     0.029 A 
ATOM     23  C   UNL A   1      39.630  29.552  29.774  1.00  0.00     0.049 A 
ATOM     24  H   UNL A   1      39.748  30.445  31.652  1.00  0.00     0.167 HD
ATOM     25  C   UNL A   1      39.924  32.497  35.513  1.00  0.00     0.037 A 
ATOM     26  C   UNL A   1      40.609  28.632  29.709  1.00  0.00     0.037 A 
ATOM     27  C   UNL A   1      40.953  31.489  35.563  1.00  0.00     0.049 A 
ATOM     28  C   UNL A   1      41.512  28.446  30.893  1.00  0.00     0.074 A 
ATOM     29  C   UNL A   1      41.796  31.170  36.614  1.00  0.00     0.029 A 
ATOM     30  N   UNL A   1      41.285  30.643  34.515  1.00  0.00    -0.354 N 
ATOM     31  N   UNL A   1      41.488  29.056  32.053  1.00  0.00    -0.248 NA
ATOM     32  C   UNL A   1      42.581  27.448  30.757  1.00  0.00     0.031 C 
ATOM     33  C   UNL A   1      42.667  30.162  36.187  1.00  0.00     0.029 A 
ATOM     34  C   UNL A   1      42.339  29.823  34.885  1.00  0.00     0.049 A 
ATOM     35  H   UNL A   1      40.837  30.628  33.639  1.00  0.00     0.167 HD
ATOM     36  C   UNL A   1      42.532  28.514  32.787  1.00  0.00     0.074 A 
ATOM     37  C   UNL A   1      43.150  27.504  31.954  1.00  0.00     0.031 C 
ATOM     38  C   UNL A   1      42.946  28.829  34.037  1.00  0.00     0.037 A 
BRANCH  25  39
ATOM     39  C   UNL A   1      39.769  33.387  36.711  1.00  0.00     0.064 A 
ATOM     40  C   UNL A   1      40.459  34.602  36.819  1.00  0.00     0.173 A 
ATOM     41  C   UNL A   1      38.843  33.064  37.715  1.00  0.00     0.173 A 
ATOM     42  F   UNL A   1      41.359  34.952  35.888  1.00  0.00    -0.203 F 
ATOM     43  C   UNL A   1      40.232  35.460  37.893  1.00  0.00     0.198 A 
ATOM     44  C   UNL A   1      38.604  33.934  38.776  1.00  0.00     0.198 A 
ATOM     45  F   UNL A   1      38.152  31.916  37.654  1.00  0.00    -0.203 F 
ATOM     46  F   UNL A   1      40.915  36.609  37.986  1.00  0.00    -0.200 F 
ATOM     47  C   UNL A   1      39.299  35.130  38.865  1.00  0.00     0.200 A 
ATOM     48  F   UNL A   1      37.693  33.618  39.707  1.00  0.00    -0.200 F 
ATOM     49  F   UNL A   1      39.069  35.966  39.886  1.00  0.00    -0.200 F 
ENDBRANCH  25  39
BRANCH  26  50
ATOM     50  C   UNL A   1      40.792  27.835  28.470  1.00  0.00     0.064 A 
ATOM     51  C   UNL A   1      40.149  26.602  28.301  1.00  0.00     0.173 A 
ATOM     52  C   UNL A   1      41.614  28.291  27.429  1.00  0.00     0.173 A 
ATOM     53  F   UNL A   1      39.367  26.115  29.276  1.00  0.00    -0.203 F 
ATOM     54  C   UNL A   1      40.335  25.848  27.144  1.00  0.00     0.198 A 
ATOM     55  C   UNL A   1      41.775  27.552  26.261  1.00  0.00     0.198 A 
ATOM     56  F   UNL A   1      42.248  29.469  27.542  1.00  0.00    -0.203 F 
ATOM     57  F   UNL A   1      39.744  24.651  27.025  1.00  0.00    -0.200 F 
ATOM     58  C   UNL A   1      41.143  26.325  26.123  1.00  0.00     0.200 A 
ATOM     59  F   UNL A   1      42.544  28.026  25.271  1.00  0.00    -0.200 F 
ATOM     60  F   UNL A   1      41.318  25.602  25.009  1.00  0.00    -0.200 F 
ENDBRANCH  26  50
BRANCH  38  61
ATOM     61  C   UNL A   1      44.119  28.067  34.575  1.00  0.00     0.064 A 
ATOM     62  C   UNL A   1      45.428  28.550  34.436  1.00  0.00     0.173 A 
ATOM     63  C   UNL A   1      43.933  26.852  35.251  1.00  0.00     0.173 A 
ATOM     64  F   UNL A   1      45.656  29.699  33.779  1.00  0.00    -0.203 F 
ATOM     65  C   UNL A   1      46.512  27.832  34.931  1.00  0.00     0.198 A 
ATOM     66  C   UNL A   1      45.017  26.149  35.768  1.00  0.00     0.198 A 
ATOM     67  F   UNL A   1      42.699  26.351  35.412  1.00  0.00    -0.203 F 
ATOM     68  F   UNL A   1      47.758  28.287  34.742  1.00  0.00    -0.200 F 
ATOM     69  C   UNL A   1      46.305  26.634  35.601  1.00  0.00     0.200 A 
ATOM     70  F   UNL A   1      44.814  24.998  36.423  1.00  0.00    -0.200 F 
ATOM     71  F   UNL A   1      47.349  25.944  36.078  1.00  0.00    -0.200 F 
ENDBRANCH  38  61
ENDBRANCH  12  13
ENDBRANCH   5   7
ENDBRANCH   2   3
ENDBRANCH   1   2
BRANCH   1  72
ATOM     72  C   UNL A   1      31.586  30.706  26.236  1.00  0.00     0.023 C 
BRANCH  72  73
ATOM     73  C   UNL A   1      31.748  29.576  27.248  1.00  0.00     0.116 C 
BRANCH  73  74
ATOM     74  N   UNL A   1      32.903  28.730  26.974  1.00  0.00    -0.352 N 
ATOM     75  C   UNL A   1      32.998  27.647  26.132  1.00  0.00     0.253 C 
ATOM     76  H   UNL A   1      33.728  28.966  27.458  1.00  0.00     0.163 HD
ATOM     77  O   UNL A   1      33.994  26.931  26.138  1.00  0.00    -0.269 OA
BRANCH  75  78
ATOM     78  C   UNL A   1      31.849  27.305  25.268  1.00  0.00     0.064 A 
ATOM     79  C   UNL A   1      31.601  28.121  24.153  1.00  0.00     0.031 A 
ATOM     80  C   UNL A   1      30.990  26.242  25.608  1.00  0.00     0.054 A 
ATOM     81  C   UNL A   1      30.411  27.977  23.457  1.00  0.00     0.018 A 
ATOM     82  C   UNL A   1      29.764  26.182  24.942  1.00  0.00     0.028 A 
ATOM     83  Br  UNL A   1      30.028  29.116  22.001  1.00  0.00    -0.051 Br
ATOM     84  C   UNL A   1      29.474  27.038  23.871  1.00  0.00     0.018 A 
BRANCH  80  85
ATOM     85  N   UNL A   1      31.388  25.324  26.609  1.00  0.00    -0.321 N 
ATOM     86  C   UNL A   1      32.124  24.156  26.592  1.00  0.00     0.265 C 
ATOM     87  H   UNL A   1      31.073  25.572  27.509  1.00  0.00     0.170 HD
ATOM     88  O   UNL A   1      32.138  23.484  27.625  1.00  0.00    -0.268 OA
BRANCH  86  89
ATOM     89  C   UNL A   1      32.887  23.785  25.419  1.00  0.00     0.093 A 
ATOM     90  C   UNL A   1      32.446  23.404  24.162  1.00  0.00     0.027 A 
ATOM     91  S   UNL A   1      34.601  23.827  25.496  1.00  0.00    -0.123 S 
ATOM     92  C   UNL A   1      33.525  23.030  23.304  1.00  0.00     0.028 A 
ATOM     93  C   UNL A   1      34.735  23.206  23.926  1.00  0.00     0.071 A 
ATOM     94  Br  UNL A   1      36.379  22.800  23.127  1.00  0.00    -0.039 Br
ENDBRANCH  86  89
ENDBRANCH  80  85
ENDBRANCH  75  78
ENDBRANCH  73  74
ENDBRANCH  72  73
ENDBRANCH   1  72
TORSDOF 13
ENDMDL
MODEL 2
REMARK VINA RESULT:     -12.2      0.690      7.332
REMARK SMILES O=C(NCCCCNC(=O)c1cc(Br)ccc1NC(=O)c1ccc(Br)s1)c1ccc(-c2c3nc(c(-c4c(F)c(F)c(F)c(F)c4F)c4ccc([nH]4)c(-c4c(F)c(F)c(F)c(F)c4F)c4nc(c(-c5c(F)c(F)c(F)c(F)c5F)c5ccc2[nH]5)C=C4)C=C3)cc1
REMARK SMILES IDX 5 1 4 2 3 3 1 4 2 5 27 7 28 8 89 9 29 10 88 11 30 12 31 13
REMARK SMILES IDX 32 14 82 15 33 16 87 17 81 18 83 19 34 20 86 21 80 22 79 23
REMARK SMILES IDX 35 25 67 26 47 27 66 28 48 29 51 30 65 31 84 32 49 33 50 34
REMARK SMILES IDX 64 36 85 37 52 38 36 39 37 40 45 41 38 42 39 43 43 44 46 45
REMARK SMILES IDX 40 46 41 47 44 48 42 49 68 50 69 51 77 52 70 53 71 54 75 55
REMARK SMILES IDX 78 56 72 57 73 58 76 59 74 60 53 61 54 62 62 63 55 64 56 65
REMARK SMILES IDX 60 66 63 67 57 68 58 69 61 70 59 71 6 72 7 73 8 74 9 75
REMARK SMILES IDX 10 77 11 78 12 79 17 80 13 81 16 82 14 83 15 84 18 85 19 86
REMARK SMILES IDX 20 88 21 89 22 90 26 91 23 92 24 93 25 94
REMARK H PARENT 3 6 83 24 51 35 8 76 18 87
REMARK Flexibility Score: inf
ROOT
ATOM      1  C   UNL A   1      31.452  32.085  26.876  1.00  0.00     0.023 C 
ENDROOT
BRANCH   1   2
ATOM      2  C   UNL A   1      32.738  32.870  27.093  1.00  0.00     0.116 C 
BRANCH   2   3
ATOM      3  N   UNL A   1      32.513  34.203  27.629  1.00  0.00    -0.352 N 
ATOM      4  O   UNL A   1      32.728  35.909  29.092  1.00  0.00    -0.269 OA
ATOM      5  C   UNL A   1      33.125  34.818  28.696  1.00  0.00     0.251 C 
ATOM      6  H   UNL A   1      31.829  34.738  27.166  1.00  0.00     0.163 HD
BRANCH   5   7
ATOM      7  C   UNL A   1      34.251  34.148  29.382  1.00  0.00     0.039 A 
ATOM      8  C   UNL A   1      34.015  33.227  30.404  1.00  0.00     0.014 A 
ATOM      9  C   UNL A   1      35.560  34.444  28.990  1.00  0.00     0.014 A 
ATOM     10  C   UNL A   1      35.084  32.702  31.121  1.00  0.00     0.010 A 
ATOM     11  C   UNL A   1      36.636  33.852  29.658  1.00  0.00     0.010 A 
ATOM     12  C   UNL A   1      36.405  32.993  30.743  1.00  0.00    -0.014 A 
BRANCH  12  13
ATOM     13  C   UNL A   1      37.522  32.309  31.439  1.00  0.00     0.031 A 
ATOM     14  C   UNL A   1      38.267  31.173  30.798  1.00  0.00     0.074 A 
ATOM     15  C   UNL A   1      37.869  32.745  32.665  1.00  0.00     0.049 A 
ATOM     16  N   UNL A   1      39.275  30.482  31.271  1.00  0.00    -0.248 NA
ATOM     17  C   UNL A   1      37.826  30.751  29.460  1.00  0.00     0.031 C 
ATOM     18  C   UNL A   1      37.198  33.826  33.392  1.00  0.00     0.029 A 
ATOM     19  N   UNL A   1      38.872  32.349  33.512  1.00  0.00    -0.354 N 
ATOM     20  C   UNL A   1      39.577  29.535  30.301  1.00  0.00     0.074 A 
ATOM     21  C   UNL A   1      38.636  29.727  29.217  1.00  0.00     0.031 C 
ATOM     22  C   UNL A   1      37.828  34.031  34.557  1.00  0.00     0.029 A 
ATOM     23  C   UNL A   1      38.909  33.060  34.686  1.00  0.00     0.049 A 
ATOM     24  H   UNL A   1      39.504  31.625  33.299  1.00  0.00     0.167 HD
ATOM     25  C   UNL A   1      40.555  28.597  30.319  1.00  0.00     0.037 A 
ATOM     26  C   UNL A   1      39.710  32.931  35.759  1.00  0.00     0.037 A 
ATOM     27  C   UNL A   1      41.504  28.431  31.391  1.00  0.00     0.049 A 
ATOM     28  C   UNL A   1      40.777  31.876  35.748  1.00  0.00     0.074 A 
ATOM     29  C   UNL A   1      42.571  27.552  31.468  1.00  0.00     0.029 A 
ATOM     30  N   UNL A   1      41.496  29.154  32.575  1.00  0.00    -0.354 N 
ATOM     31  N   UNL A   1      41.084  31.023  34.801  1.00  0.00    -0.248 NA
ATOM     32  C   UNL A   1      41.603  31.761  36.956  1.00  0.00     0.031 C 
ATOM     33  C   UNL A   1      43.181  27.712  32.716  1.00  0.00     0.029 A 
ATOM     34  C   UNL A   1      42.521  28.720  33.400  1.00  0.00     0.049 A 
ATOM     35  H   UNL A   1      40.856  29.869  32.795  1.00  0.00     0.167 HD
ATOM     36  C   UNL A   1      42.141  30.275  35.295  1.00  0.00     0.074 A 
ATOM     37  C   UNL A   1      42.443  30.794  36.613  1.00  0.00     0.031 C 
ATOM     38  C   UNL A   1      42.799  29.244  34.712  1.00  0.00     0.037 A 
BRANCH  25  39
ATOM     39  C   UNL A   1      40.658  27.661  29.151  1.00  0.00     0.064 A 
ATOM     40  C   UNL A   1      39.795  26.566  29.008  1.00  0.00     0.173 A 
ATOM     41  C   UNL A   1      41.570  27.920  28.116  1.00  0.00     0.173 A 
ATOM     42  F   UNL A   1      38.911  26.273  29.972  1.00  0.00    -0.203 F 
ATOM     43  C   UNL A   1      39.844  25.761  27.871  1.00  0.00     0.198 A 
ATOM     44  C   UNL A   1      41.602  27.126  26.972  1.00  0.00     0.198 A 
ATOM     45  F   UNL A   1      42.414  28.960  28.203  1.00  0.00    -0.203 F 
ATOM     46  F   UNL A   1      39.020  24.709  27.761  1.00  0.00    -0.200 F 
ATOM     47  C   UNL A   1      40.739  26.048  26.851  1.00  0.00     0.200 A 
ATOM     48  F   UNL A   1      42.460  27.412  25.984  1.00  0.00    -0.200 F 
ATOM     49  F   UNL A   1      40.771  25.283  25.751  1.00  0.00    -0.200 F 
ENDBRANCH  25  39
BRANCH  26  50
ATOM     50  C   UNL A   1      39.516  33.815  36.935  1.00  0.00     0.064 A 
ATOM     51  C   UNL A   1      38.745  33.405  38.031  1.00  0.00     0.173 A 
ATOM     52  C   UNL A   1      40.099  35.091  36.988  1.00  0.00     0.173 A 
ATOM     53  F   UNL A   1      38.152  32.202  38.019  1.00  0.00    -0.203 F 
ATOM     54  C   UNL A   1      38.551  34.243  39.127  1.00  0.00     0.198 A 
ATOM     55  C   UNL A   1      39.930  35.915  38.096  1.00  0.00     0.198 A 
ATOM     56  F   UNL A   1      40.851  35.527  35.966  1.00  0.00    -0.203 F 
ATOM     57  F   UNL A   1      37.773  33.844  40.142  1.00  0.00    -0.200 F 
ATOM     58  C   UNL A   1      39.148  35.495  39.161  1.00  0.00     0.200 A 
ATOM     59  F   UNL A   1      40.523  37.116  38.132  1.00  0.00    -0.200 F 
ATOM     60  F   UNL A   1      38.965  36.298  40.217  1.00  0.00    -0.200 F 
ENDBRANCH  26  50
BRANCH  38  61
ATOM     61  C   UNL A   1      43.913  28.619  35.498  1.00  0.00     0.064 A 
ATOM     62  C   UNL A   1      45.237  29.061  35.362  1.00  0.00     0.173 A 
ATOM     63  C   UNL A   1      43.652  27.583  36.406  1.00  0.00     0.173 A 
ATOM     64  F   UNL A   1      45.537  30.036  34.491  1.00  0.00    -0.203 F 
ATOM     65  C   UNL A   1      46.265  28.470  36.090  1.00  0.00     0.198 A 
ATOM     66  C   UNL A   1      44.679  27.012  37.152  1.00  0.00     0.198 A 
ATOM     67  F   UNL A   1      42.401  27.129  36.573  1.00  0.00    -0.203 F 
ATOM     68  F   UNL A   1      47.530  28.873  35.908  1.00  0.00    -0.200 F 
ATOM     69  C   UNL A   1      45.984  27.449  36.987  1.00  0.00     0.200 A 
ATOM     70  F   UNL A   1      44.405  26.033  38.025  1.00  0.00    -0.200 F 
ATOM     71  F   UNL A   1      46.975  26.881  37.688  1.00  0.00    -0.200 F 
ENDBRANCH  38  61
ENDBRANCH  12  13
ENDBRANCH   5   7
ENDBRANCH   2   3
ENDBRANCH   1   2
BRANCH   1  72
ATOM     72  C   UNL A   1      31.628  30.703  26.254  1.00  0.00     0.023 C 
BRANCH  72  73
ATOM     73  C   UNL A   1      31.766  29.554  27.248  1.00  0.00     0.116 C 
BRANCH  73  74
ATOM     74  N   UNL A   1      32.916  28.701  26.973  1.00  0.00    -0.352 N 
ATOM     75  C   UNL A   1      33.007  27.624  26.124  1.00  0.00     0.253 C 
ATOM     76  H   UNL A   1      33.740  28.927  27.463  1.00  0.00     0.163 HD
ATOM     77  O   UNL A   1      33.998  26.900  26.130  1.00  0.00    -0.269 OA
BRANCH  75  78
ATOM     78  C   UNL A   1      31.860  27.296  25.252  1.00  0.00     0.064 A 
ATOM     79  C   UNL A   1      31.618  28.127  24.147  1.00  0.00     0.031 A 
ATOM     80  C   UNL A   1      30.996  26.231  25.575  1.00  0.00     0.054 A 
ATOM     81  C   UNL A   1      30.429  27.995  23.445  1.00  0.00     0.018 A 
ATOM     82  C   UNL A   1      29.772  26.184  24.904  1.00  0.00     0.028 A 
ATOM     83  Br  UNL A   1      30.055  29.154  22.003  1.00  0.00    -0.051 Br
ATOM     84  C   UNL A   1      29.488  27.054  23.844  1.00  0.00     0.018 A 
BRANCH  80  85
ATOM     85  N   UNL A   1      31.388  25.299  26.566  1.00  0.00    -0.321 N 
ATOM     86  C   UNL A   1      32.135  24.139  26.539  1.00  0.00     0.265 C 
ATOM     87  H   UNL A   1      31.057  25.528  27.465  1.00  0.00     0.170 HD
ATOM     88  O   UNL A   1      32.140  23.448  27.561  1.00  0.00    -0.268 OA
BRANCH  86  89
ATOM     89  C   UNL A   1      32.920  23.796  25.372  1.00  0.00     0.093 A 
ATOM     90  C   UNL A   1      32.502  23.468  24.092  1.00  0.00     0.027 A 
ATOM     91  S   UNL A   1      34.631  23.805  25.489  1.00  0.00    -0.123 S 
ATOM     92  C   UNL A   1      33.594  23.106  23.246  1.00  0.00     0.028 A 
ATOM     93  C   UNL A   1      34.792  23.238  23.902  1.00  0.00     0.071 A 
ATOM     94  Br  UNL A   1      36.447  22.830  23.126  1.00  0.00    -0.039 Br
ENDBRANCH  86  89
ENDBRANCH  80  85
ENDBRANCH  75  78
ENDBRANCH  73  74
ENDBRANCH  72  73
ENDBRANCH   1  72
TORSDOF 13
ENDMDL
MODEL 3
REMARK VINA RESULT:     -12.1      2.307      3.960
REMARK SMILES O=C(NCCCCNC(=O)c1cc(Br)ccc1NC(=O)c1ccc(Br)s1)c1ccc(-c2c3nc(c(-c4c(F)c(F)c(F)c(F)c4F)c4ccc([nH]4)c(-c4c(F)c(F)c(F)c(F)c4F)c4nc(c(-c5c(F)c(F)c(F)c(F)c5F)c5ccc2[nH]5)C=C4)C=C3)cc1
REMARK SMILES IDX 5 1 4 2 3 3 1 4 2 5 27 7 28 8 89 9 29 10 88 11 30 12 31 13
REMARK SMILES IDX 32 14 82 15 33 16 87 17 81 18 83 19 34 20 86 21 80 22 79 23
REMARK SMILES IDX 35 25 67 26 47 27 66 28 48 29 51 30 65 31 84 32 49 33 50 34
REMARK SMILES IDX 64 36 85 37 52 38 36 39 37 40 45 41 38 42 39 43 43 44 46 45
REMARK SMILES IDX 40 46 41 47 44 48 42 49 68 50 69 51 77 52 70 53 71 54 75 55
REMARK SMILES IDX 78 56 72 57 73 58 76 59 74 60 53 61 54 62 62 63 55 64 56 65
REMARK SMILES IDX 60 66 63 67 57 68 58 69 61 70 59 71 6 72 7 73 8 74 9 75
REMARK SMILES IDX 10 77 11 78 12 79 17 80 13 81 16 82 14 83 15 84 18 85 19 86
REMARK SMILES IDX 20 88 21 89 22 90 26 91 23 92 24 93 25 94
REMARK H PARENT 3 6 83 24 51 35 8 76 18 87
REMARK Flexibility Score: inf
ROOT
ATOM      1  C   UNL A   1      33.036  28.988  23.771  1.00  0.00     0.023 C 
ENDROOT
BRANCH   1   2
ATOM      2  C   UNL A   1      33.361  29.277  25.230  1.00  0.00     0.116 C 
BRANCH   2   3
ATOM      3  N   UNL A   1      32.733  30.491  25.728  1.00  0.00    -0.352 N 
ATOM      4  O   UNL A   1      32.365  32.191  27.168  1.00  0.00    -0.269 OA
ATOM      5  C   UNL A   1      33.080  31.259  26.814  1.00  0.00     0.251 C 
ATOM      6  H   UNL A   1      31.953  30.806  25.217  1.00  0.00     0.163 HD
BRANCH   5   7
ATOM      7  C   UNL A   1      34.308  30.941  27.574  1.00  0.00     0.039 A 
ATOM      8  C   UNL A   1      34.523  29.656  28.076  1.00  0.00     0.014 A 
ATOM      9  C   UNL A   1      35.260  31.945  27.781  1.00  0.00     0.014 A 
ATOM     10  C   UNL A   1      35.621  29.408  28.893  1.00  0.00     0.010 A 
ATOM     11  C   UNL A   1      36.405  31.672  28.535  1.00  0.00     0.010 A 
ATOM     12  C   UNL A   1      36.583  30.407  29.114  1.00  0.00    -0.014 A 
BRANCH  12  13
ATOM     13  C   UNL A   1      37.811  30.070  29.875  1.00  0.00     0.031 A 
ATOM     14  C   UNL A   1      38.031  30.572  31.273  1.00  0.00     0.074 A 
ATOM     15  C   UNL A   1      38.727  29.280  29.283  1.00  0.00     0.049 A 
ATOM     16  N   UNL A   1      39.044  30.354  32.074  1.00  0.00    -0.248 NA
ATOM     17  C   UNL A   1      36.987  31.433  31.849  1.00  0.00     0.031 C 
ATOM     18  C   UNL A   1      38.627  28.755  27.919  1.00  0.00     0.029 A 
ATOM     19  N   UNL A   1      39.912  28.771  29.748  1.00  0.00    -0.354 N 
ATOM     20  C   UNL A   1      38.771  31.062  33.237  1.00  0.00     0.074 A 
ATOM     21  C   UNL A   1      37.504  31.731  33.035  1.00  0.00     0.031 C 
ATOM     22  C   UNL A   1      39.684  27.970  27.669  1.00  0.00     0.029 A 
ATOM     23  C   UNL A   1      40.565  27.983  28.832  1.00  0.00     0.049 A 
ATOM     24  H   UNL A   1      40.261  28.952  30.650  1.00  0.00     0.167 HD
ATOM     25  C   UNL A   1      39.514  31.137  34.368  1.00  0.00     0.037 A 
ATOM     26  C   UNL A   1      41.753  27.357  28.909  1.00  0.00     0.037 A 
ATOM     27  C   UNL A   1      40.762  30.445  34.569  1.00  0.00     0.049 A 
ATOM     28  C   UNL A   1      42.553  27.469  30.174  1.00  0.00     0.074 A 
ATOM     29  C   UNL A   1      41.553  30.408  35.705  1.00  0.00     0.029 A 
ATOM     30  N   UNL A   1      41.405  29.675  33.610  1.00  0.00    -0.354 N 
ATOM     31  N   UNL A   1      42.257  28.099  31.285  1.00  0.00    -0.248 NA
ATOM     32  C   UNL A   1      43.855  26.790  30.194  1.00  0.00     0.031 C 
ATOM     33  C   UNL A   1      42.695  29.653  35.420  1.00  0.00     0.029 A 
ATOM     34  C   UNL A   1      42.596  29.184  34.120  1.00  0.00     0.049 A 
ATOM     35  H   UNL A   1      41.064  29.504  32.703  1.00  0.00     0.167 HD
ATOM     36  C   UNL A   1      43.330  27.888  32.137  1.00  0.00     0.074 A 
ATOM     37  C   UNL A   1      44.271  27.046  31.426  1.00  0.00     0.031 C 
ATOM     38  C   UNL A   1      43.523  28.355  33.394  1.00  0.00     0.037 A 
BRANCH  25  39
ATOM     39  C   UNL A   1      39.014  32.003  35.486  1.00  0.00     0.064 A 
ATOM     40  C   UNL A   1      38.267  31.474  36.547  1.00  0.00     0.173 A 
ATOM     41  C   UNL A   1      39.371  33.359  35.544  1.00  0.00     0.173 A 
ATOM     42  F   UNL A   1      37.895  30.185  36.535  1.00  0.00    -0.203 F 
ATOM     43  C   UNL A   1      37.890  32.274  37.625  1.00  0.00     0.198 A 
ATOM     44  C   UNL A   1      39.011  34.150  36.632  1.00  0.00     0.198 A 
ATOM     45  F   UNL A   1      40.092  33.911  34.556  1.00  0.00    -0.203 F 
ATOM     46  F   UNL A   1      37.161  31.752  38.621  1.00  0.00    -0.200 F 
ATOM     47  C   UNL A   1      38.270  33.607  37.671  1.00  0.00     0.200 A 
ATOM     48  F   UNL A   1      39.389  35.434  36.680  1.00  0.00    -0.200 F 
ATOM     49  F   UNL A   1      37.923  34.368  38.717  1.00  0.00    -0.200 F 
ENDBRANCH  25  39
BRANCH  26  50
ATOM     50  C   UNL A   1      42.259  26.586  27.746  1.00  0.00     0.064 A 
ATOM     51  C   UNL A   1      43.147  27.161  26.827  1.00  0.00     0.173 A 
ATOM     52  C   UNL A   1      41.864  25.257  27.530  1.00  0.00     0.173 A 
ATOM     53  F   UNL A   1      43.538  28.435  26.981  1.00  0.00    -0.203 F 
ATOM     54  C   UNL A   1      43.608  26.441  25.727  1.00  0.00     0.198 A 
ATOM     55  C   UNL A   1      42.349  24.529  26.447  1.00  0.00     0.198 A 
ATOM     56  F   UNL A   1      41.019  24.660  28.385  1.00  0.00    -0.203 F 
ATOM     57  F   UNL A   1      44.421  27.027  24.839  1.00  0.00    -0.200 F 
ATOM     58  C   UNL A   1      43.213  25.124  25.541  1.00  0.00     0.200 A 
ATOM     59  F   UNL A   1      41.978  23.252  26.282  1.00  0.00    -0.200 F 
ATOM     60  F   UNL A   1      43.660  24.431  24.486  1.00  0.00    -0.200 F 
ENDBRANCH  26  50
BRANCH  38  61
ATOM     61  C   UNL A   1      44.797  27.958  34.076  1.00  0.00     0.064 A 
ATOM     62  C   UNL A   1      44.885  26.774  34.823  1.00  0.00     0.173 A 
ATOM     63  C   UNL A   1      45.944  28.758  33.969  1.00  0.00     0.173 A 
ATOM     64  F   UNL A   1      43.808  25.987  34.969  1.00  0.00    -0.203 F 
ATOM     65  C   UNL A   1      46.070  26.418  35.460  1.00  0.00     0.198 A 
ATOM     66  C   UNL A   1      47.134  28.385  34.586  1.00  0.00     0.198 A 
ATOM     67  F   UNL A   1      45.910  29.898  33.263  1.00  0.00    -0.203 F 
ATOM     68  F   UNL A   1      46.118  25.307  36.209  1.00  0.00    -0.200 F 
ATOM     69  C   UNL A   1      47.195  27.221  35.337  1.00  0.00     0.200 A 
ATOM     70  F   UNL A   1      48.223  29.157  34.459  1.00  0.00    -0.200 F 
ATOM     71  F   UNL A   1      48.335  26.876  35.950  1.00  0.00    -0.200 F 
ENDBRANCH  38  61
ENDBRANCH  12  13
ENDBRANCH   5   7
ENDBRANCH   2   3
ENDBRANCH   1   2
BRANCH   1  72
ATOM     72  C   UNL A   1      33.051  27.514  23.379  1.00  0.00     0.023 C 
BRANCH  72  73
ATOM     73  C   UNL A   1      33.820  26.596  24.325  1.00  0.00     0.116 C 
BRANCH  73  74
ATOM     74  N   UNL A   1      32.949  25.702  25.080  1.00  0.00    -0.352 N 
ATOM     75  C   UNL A   1      33.114  24.365  25.354  1.00  0.00     0.253 C 
ATOM     76  H   UNL A   1      32.132  26.114  25.444  1.00  0.00     0.163 HD
ATOM     77  O   UNL A   1      32.208  23.710  25.857  1.00  0.00    -0.269 OA
BRANCH  75  78
ATOM     78  C   UNL A   1      34.374  23.701  24.960  1.00  0.00     0.064 A 
ATOM     79  C   UNL A   1      35.499  23.893  25.777  1.00  0.00     0.031 A 
ATOM     80  C   UNL A   1      34.452  22.968  23.760  1.00  0.00     0.054 A 
ATOM     81  C   UNL A   1      36.745  23.485  25.325  1.00  0.00     0.018 A 
ATOM     82  C   UNL A   1      35.731  22.649  23.296  1.00  0.00     0.028 A 
ATOM     83  Br  UNL A   1      38.279  23.803  26.378  1.00  0.00    -0.051 Br
ATOM     84  C   UNL A   1      36.870  22.899  24.071  1.00  0.00     0.018 A 
BRANCH  80  85
ATOM     85  N   UNL A   1      33.259  22.625  23.080  1.00  0.00    -0.321 N 
ATOM     86  C   UNL A   1      32.470  21.493  23.053  1.00  0.00     0.265 C 
ATOM     87  H   UNL A   1      32.921  23.348  22.503  1.00  0.00     0.170 HD
ATOM     88  O   UNL A   1      31.580  21.447  22.202  1.00  0.00    -0.268 OA
BRANCH  86  89
ATOM     89  C   UNL A   1      32.658  20.442  24.031  1.00  0.00     0.093 A 
ATOM     90  C   UNL A   1      32.876  20.534  25.396  1.00  0.00     0.027 A 
ATOM     91  S   UNL A   1      32.582  18.807  23.518  1.00  0.00    -0.123 S 
ATOM     92  C   UNL A   1      33.101  19.256  25.993  1.00  0.00     0.028 A 
ATOM     93  C   UNL A   1      32.980  18.251  25.067  1.00  0.00     0.071 A 
ATOM     94  Br  UNL A   1      33.232  16.439  25.468  1.00  0.00    -0.039 Br
ENDBRANCH  86  89
ENDBRANCH  80  85
ENDBRANCH  75  78
ENDBRANCH  73  74
ENDBRANCH  72  73
ENDBRANCH   1  72
TORSDOF 13
ENDMDL
