MODEL 1
REMARK VINA RESULT:     -12.1      0.000      0.000
REMARK SMILES CCc1ccc2c(c1)C=C(C(=O)NCCCCNC(=O)c1ccc(-c3c4nc(c(-c5c(F)c(F)c(F)c(F)c5F)c5ccc([nH]5)c(-c5c(F)c(F)c(F)c(F)c5F)c5nc(c(-c6c(F)c(F)c(F)c(F)c6F)c6ccc3[nH]6)C=C5)C=C4)cc1)[C@H](C(F)(F)F)O2
REMARK SMILES IDX 16 1 15 2 14 3 13 4 11 5 12 6 10 8 3 9 4 10 8 11 5 12 7 13
REMARK SMILES IDX 6 14 9 15 89 16 84 17 2 18 1 19 85 20 86 21 87 22 88 23
REMARK SMILES IDX 17 24 18 25 19 26 20 28 21 29 22 30 83 31 23 32 82 33 24 34
REMARK SMILES IDX 25 35 26 36 76 37 27 38 81 39 75 40 77 41 28 42 80 43 74 44
REMARK SMILES IDX 73 45 29 47 61 48 41 49 60 50 42 51 45 52 59 53 78 54 43 55
REMARK SMILES IDX 44 56 58 58 79 59 46 60 30 61 31 62 39 63 32 64 33 65 37 66
REMARK SMILES IDX 40 67 34 68 35 69 38 70 36 71 62 72 63 73 71 74 64 75 65 76
REMARK SMILES IDX 69 77 72 78 66 79 67 80 70 81 68 82 47 83 48 84 56 85 49 86
REMARK SMILES IDX 50 87 54 88 57 89 51 90 52 91 55 92 53 93
REMARK H PARENT 13 7 18 27 77 46 45 57
REMARK Flexibility Score: inf
ROOT
ATOM      1  C   UNL A   1      33.195  28.142  25.677  1.00  0.00     0.023 C 
ENDROOT
BRANCH   1   2
ATOM      2  C   UNL A   1      31.680  28.338  25.786  1.00  0.00     0.023 C 
BRANCH   2   3
ATOM      3  C   UNL A   1      30.851  27.183  25.210  1.00  0.00     0.116 C 
BRANCH   3   4
ATOM      4  N   UNL A   1      30.691  26.136  26.206  1.00  0.00    -0.352 N 
ATOM      5  C   UNL A   1      31.296  24.930  26.372  1.00  0.00     0.251 C 
ATOM      6  O   UNL A   1      30.843  24.173  27.228  1.00  0.00    -0.270 OA
ATOM      7  H   UNL A   1      30.016  26.341  26.892  1.00  0.00     0.163 HD
BRANCH   5   8
ATOM      8  C   UNL A   1      32.514  24.525  25.620  1.00  0.00     0.067 C 
ATOM      9  C   UNL A   1      37.203  23.339  25.316  1.00  0.00    -0.047 A 
ATOM     10  C   UNL A   1      36.992  22.902  24.004  1.00  0.00     0.007 A 
ATOM     11  C   UNL A   1      36.123  23.908  26.006  1.00  0.00     0.015 A 
ATOM     12  C   UNL A   1      35.733  23.022  23.404  1.00  0.00     0.047 A 
ATOM     13  C   UNL A   1      34.860  24.021  25.409  1.00  0.00     0.017 A 
ATOM     14  C   UNL A   1      34.666  23.573  24.110  1.00  0.00     0.128 A 
ATOM     15  C   UNL A   1      33.732  24.510  26.177  1.00  0.00     0.025 C 
ATOM     16  O   UNL A   1      33.455  23.578  23.489  1.00  0.00    -0.475 OA
ATOM     17  C   UNL A   1      32.336  24.267  24.125  1.00  0.00     0.314 C 
BRANCH   9  18
ATOM     18  C   UNL A   1      38.506  23.164  26.064  1.00  0.00     0.032 C 
ATOM     19  C   UNL A   1      39.122  21.773  26.057  1.00  0.00     0.009 C 
ENDBRANCH   9  18
BRANCH  17  20
ATOM     20  C   UNL A   1      31.047  23.518  23.713  1.00  0.00     0.429 C 
ATOM     21  F   UNL A   1      30.054  24.352  23.335  1.00  0.00    -0.167 F 
ATOM     22  F   UNL A   1      31.272  22.713  22.640  1.00  0.00    -0.167 F 
ATOM     23  F   UNL A   1      30.576  22.723  24.703  1.00  0.00    -0.167 F 
ENDBRANCH  17  20
ENDBRANCH   5   8
ENDBRANCH   3   4
ENDBRANCH   2   3
ENDBRANCH   1   2
BRANCH   1  24
ATOM     24  C   UNL A   1      33.965  28.427  26.959  1.00  0.00     0.116 C 
BRANCH  24  25
ATOM     25  N   UNL A   1      33.805  29.792  27.434  1.00  0.00    -0.352 N 
ATOM     26  C   UNL A   1      34.703  30.568  28.127  1.00  0.00     0.251 C 
ATOM     27  H   UNL A   1      32.939  30.216  27.233  1.00  0.00     0.163 HD
ATOM     28  O   UNL A   1      34.379  31.669  28.548  1.00  0.00    -0.269 OA
BRANCH  26  29
ATOM     29  C   UNL A   1      36.054  30.036  28.398  1.00  0.00     0.039 A 
ATOM     30  C   UNL A   1      37.038  30.178  27.415  1.00  0.00     0.014 A 
ATOM     31  C   UNL A   1      36.354  29.430  29.620  1.00  0.00     0.014 A 
ATOM     32  C   UNL A   1      38.344  29.770  27.686  1.00  0.00     0.010 A 
ATOM     33  C   UNL A   1      37.669  29.087  29.913  1.00  0.00     0.010 A 
ATOM     34  C   UNL A   1      38.675  29.253  28.950  1.00  0.00    -0.014 A 
BRANCH  34  35
ATOM     35  C   UNL A   1      40.070  28.876  29.283  1.00  0.00     0.031 A 
ATOM     36  C   UNL A   1      40.927  29.806  30.093  1.00  0.00     0.074 A 
ATOM     37  C   UNL A   1      40.584  27.730  28.796  1.00  0.00     0.049 A 
ATOM     38  N   UNL A   1      42.188  29.693  30.426  1.00  0.00    -0.248 NA
ATOM     39  C   UNL A   1      40.288  31.044  30.568  1.00  0.00     0.031 C 
ATOM     40  C   UNL A   1      39.866  26.770  27.957  1.00  0.00     0.029 A 
ATOM     41  N   UNL A   1      41.835  27.184  28.929  1.00  0.00    -0.354 N 
ATOM     42  C   UNL A   1      42.495  30.847  31.133  1.00  0.00     0.074 A 
ATOM     43  C   UNL A   1      41.306  31.672  31.137  1.00  0.00     0.031 C 
ATOM     44  C   UNL A   1      40.681  25.745  27.665  1.00  0.00     0.029 A 
ATOM     45  C   UNL A   1      41.988  25.989  28.269  1.00  0.00     0.049 A 
ATOM     46  H   UNL A   1      42.556  27.609  29.448  1.00  0.00     0.167 HD
ATOM     47  C   UNL A   1      43.657  31.179  31.743  1.00  0.00     0.037 A 
ATOM     48  C   UNL A   1      43.063  25.186  28.162  1.00  0.00     0.037 A 
ATOM     49  C   UNL A   1      44.828  30.343  31.760  1.00  0.00     0.049 A 
ATOM     50  C   UNL A   1      44.340  25.574  28.855  1.00  0.00     0.074 A 
ATOM     51  C   UNL A   1      46.034  30.557  32.403  1.00  0.00     0.029 A 
ATOM     52  N   UNL A   1      44.937  29.126  31.102  1.00  0.00    -0.354 N 
ATOM     53  N   UNL A   1      44.599  26.635  29.579  1.00  0.00    -0.248 NA
ATOM     54  C   UNL A   1      45.473  24.648  28.719  1.00  0.00     0.031 C 
ATOM     55  C   UNL A   1      46.886  29.490  32.103  1.00  0.00     0.029 A 
ATOM     56  C   UNL A   1      46.197  28.588  31.308  1.00  0.00     0.049 A 
ATOM     57  H   UNL A   1      44.225  28.707  30.566  1.00  0.00     0.167 HD
ATOM     58  C   UNL A   1      45.912  26.493  30.008  1.00  0.00     0.074 A 
ATOM     59  C   UNL A   1      46.392  25.236  29.473  1.00  0.00     0.031 C 
ATOM     60  C   UNL A   1      46.653  27.330  30.775  1.00  0.00     0.037 A 
BRANCH  47  61
ATOM     61  C   UNL A   1      43.715  32.502  32.448  1.00  0.00     0.064 A 
ATOM     62  C   UNL A   1      44.119  33.671  31.785  1.00  0.00     0.173 A 
ATOM     63  C   UNL A   1      43.340  32.609  33.796  1.00  0.00     0.173 A 
ATOM     64  F   UNL A   1      44.501  33.619  30.500  1.00  0.00    -0.203 F 
ATOM     65  C   UNL A   1      44.174  34.891  32.452  1.00  0.00     0.198 A 
ATOM     66  C   UNL A   1      43.368  33.836  34.452  1.00  0.00     0.198 A 
ATOM     67  F   UNL A   1      42.942  31.523  34.476  1.00  0.00    -0.203 F 
ATOM     68  F   UNL A   1      44.612  35.983  31.812  1.00  0.00    -0.200 F 
ATOM     69  C   UNL A   1      43.792  34.975  33.783  1.00  0.00     0.200 A 
ATOM     70  F   UNL A   1      42.988  33.918  35.735  1.00  0.00    -0.200 F 
ATOM     71  F   UNL A   1      43.842  36.151  34.423  1.00  0.00    -0.200 F 
ENDBRANCH  47  61
BRANCH  48  72
ATOM     72  C   UNL A   1      42.967  23.917  27.395  1.00  0.00     0.064 A 
ATOM     73  C   UNL A   1      42.526  22.739  28.012  1.00  0.00     0.173 A 
ATOM     74  C   UNL A   1      43.311  23.855  26.038  1.00  0.00     0.173 A 
ATOM     75  F   UNL A   1      42.205  22.745  29.314  1.00  0.00    -0.203 F 
ATOM     76  C   UNL A   1      42.453  21.541  27.306  1.00  0.00     0.198 A 
ATOM     77  C   UNL A   1      43.212  22.662  25.325  1.00  0.00     0.198 A 
ATOM     78  F   UNL A   1      43.732  24.958  25.400  1.00  0.00    -0.203 F 
ATOM     79  F   UNL A   1      42.069  20.419  27.931  1.00  0.00    -0.200 F 
ATOM     80  C   UNL A   1      42.790  21.504  25.961  1.00  0.00     0.200 A 
ATOM     81  F   UNL A   1      43.526  22.634  24.023  1.00  0.00    -0.200 F 
ATOM     82  F   UNL A   1      42.715  20.353  25.281  1.00  0.00    -0.200 F 
ENDBRANCH  48  72
BRANCH  60  83
ATOM     83  C   UNL A   1      48.050  26.897  31.110  1.00  0.00     0.064 A 
ATOM     84  C   UNL A   1      49.151  27.318  30.350  1.00  0.00     0.173 A 
ATOM     85  C   UNL A   1      48.292  26.087  32.229  1.00  0.00     0.173 A 
ATOM     86  F   UNL A   1      48.969  28.080  29.261  1.00  0.00    -0.203 F 
ATOM     87  C   UNL A   1      50.443  26.924  30.687  1.00  0.00     0.198 A 
ATOM     88  C   UNL A   1      49.587  25.719  32.579  1.00  0.00     0.198 A 
ATOM     89  F   UNL A   1      47.272  25.663  32.991  1.00  0.00    -0.203 F 
ATOM     90  F   UNL A   1      51.477  27.301  29.922  1.00  0.00    -0.200 F 
ATOM     91  C   UNL A   1      50.661  26.131  31.805  1.00  0.00     0.200 A 
ATOM     92  F   UNL A   1      49.798  24.962  33.666  1.00  0.00    -0.200 F 
ATOM     93  F   UNL A   1      51.906  25.760  32.131  1.00  0.00    -0.200 F 
ENDBRANCH  60  83
ENDBRANCH  34  35
ENDBRANCH  26  29
ENDBRANCH  24  25
ENDBRANCH   1  24
TORSDOF 13
ENDMDL
MODEL 2
REMARK VINA RESULT:     -12.0      3.874      8.793
REMARK SMILES CCc1ccc2c(c1)C=C(C(=O)NCCCCNC(=O)c1ccc(-c3c4nc(c(-c5c(F)c(F)c(F)c(F)c5F)c5ccc([nH]5)c(-c5c(F)c(F)c(F)c(F)c5F)c5nc(c(-c6c(F)c(F)c(F)c(F)c6F)c6ccc3[nH]6)C=C5)C=C4)cc1)[C@H](C(F)(F)F)O2
REMARK SMILES IDX 16 1 15 2 14 3 13 4 11 5 12 6 10 8 3 9 4 10 8 11 5 12 7 13
REMARK SMILES IDX 6 14 9 15 89 16 84 17 2 18 1 19 85 20 86 21 87 22 88 23
REMARK SMILES IDX 17 24 18 25 19 26 20 28 21 29 22 30 83 31 23 32 82 33 24 34
REMARK SMILES IDX 25 35 26 36 76 37 27 38 81 39 75 40 77 41 28 42 80 43 74 44
REMARK SMILES IDX 73 45 29 47 61 48 41 49 60 50 42 51 45 52 59 53 78 54 43 55
REMARK SMILES IDX 44 56 58 58 79 59 46 60 30 61 31 62 39 63 32 64 33 65 37 66
REMARK SMILES IDX 40 67 34 68 35 69 38 70 36 71 62 72 63 73 71 74 64 75 65 76
REMARK SMILES IDX 69 77 72 78 66 79 67 80 70 81 68 82 47 83 48 84 56 85 49 86
REMARK SMILES IDX 50 87 54 88 57 89 51 90 52 91 55 92 53 93
REMARK H PARENT 13 7 18 27 77 46 45 57
REMARK Flexibility Score: inf
ROOT
ATOM      1  C   UNL A   1      31.511  31.911  26.711  1.00  0.00     0.023 C 
ENDROOT
BRANCH   1   2
ATOM      2  C   UNL A   1      31.700  30.392  26.664  1.00  0.00     0.023 C 
BRANCH   2   3
ATOM      3  C   UNL A   1      33.135  29.943  26.362  1.00  0.00     0.116 C 
BRANCH   3   4
ATOM      4  N   UNL A   1      33.366  29.934  24.927  1.00  0.00    -0.352 N 
ATOM      5  C   UNL A   1      33.309  28.946  23.996  1.00  0.00     0.251 C 
ATOM      6  O   UNL A   1      33.712  29.200  22.863  1.00  0.00    -0.270 OA
ATOM      7  H   UNL A   1      33.611  30.814  24.560  1.00  0.00     0.163 HD
BRANCH   5   8
ATOM      8  C   UNL A   1      32.716  27.609  24.270  1.00  0.00     0.067 C 
ATOM      9  C   UNL A   1      32.448  23.423  26.698  1.00  0.00    -0.047 A 
ATOM     10  C   UNL A   1      31.214  23.166  26.089  1.00  0.00     0.007 A 
ATOM     11  C   UNL A   1      33.140  24.585  26.327  1.00  0.00     0.015 A 
ATOM     12  C   UNL A   1      30.685  24.054  25.144  1.00  0.00     0.047 A 
ATOM     13  C   UNL A   1      32.607  25.478  25.387  1.00  0.00     0.017 A 
ATOM     14  C   UNL A   1      31.378  25.213  24.801  1.00  0.00     0.128 A 
ATOM     15  C   UNL A   1      33.286  26.726  25.101  1.00  0.00     0.025 C 
ATOM     16  O   UNL A   1      30.759  26.066  23.939  1.00  0.00    -0.475 OA
ATOM     17  C   UNL A   1      31.495  27.222  23.438  1.00  0.00     0.314 C 
BRANCH   9  18
ATOM     18  C   UNL A   1      33.044  22.563  27.789  1.00  0.00     0.032 C 
ATOM     19  C   UNL A   1      34.235  21.695  27.408  1.00  0.00     0.009 C 
ENDBRANCH   9  18
BRANCH  17  20
ATOM     20  C   UNL A   1      30.461  28.345  23.188  1.00  0.00     0.429 C 
ATOM     21  F   UNL A   1      30.745  29.084  22.092  1.00  0.00    -0.167 F 
ATOM     22  F   UNL A   1      29.223  27.828  22.964  1.00  0.00    -0.167 F 
ATOM     23  F   UNL A   1      30.347  29.185  24.244  1.00  0.00    -0.167 F 
ENDBRANCH  17  20
ENDBRANCH   5   8
ENDBRANCH   3   4
ENDBRANCH   2   3
ENDBRANCH   1   2
BRANCH   1  24
ATOM     24  C   UNL A   1      32.689  32.678  27.295  1.00  0.00     0.116 C 
BRANCH  24  25
ATOM     25  N   UNL A   1      32.373  34.064  27.608  1.00  0.00    -0.352 N 
ATOM     26  C   UNL A   1      32.975  34.893  28.524  1.00  0.00     0.251 C 
ATOM     27  H   UNL A   1      31.630  34.459  27.096  1.00  0.00     0.163 HD
ATOM     28  O   UNL A   1      32.524  36.008  28.744  1.00  0.00    -0.269 OA
BRANCH  26  29
ATOM     29  C   UNL A   1      34.149  34.403  29.274  1.00  0.00     0.039 A 
ATOM     30  C   UNL A   1      33.940  33.749  30.491  1.00  0.00     0.014 A 
ATOM     31  C   UNL A   1      35.441  34.561  28.767  1.00  0.00     0.014 A 
ATOM     32  C   UNL A   1      35.026  33.194  31.169  1.00  0.00     0.010 A 
ATOM     33  C   UNL A   1      36.512  33.949  29.408  1.00  0.00     0.010 A 
ATOM     34  C   UNL A   1      36.315  33.261  30.614  1.00  0.00    -0.014 A 
BRANCH  34  35
ATOM     35  C   UNL A   1      37.472  32.620  31.283  1.00  0.00     0.031 A 
ATOM     36  C   UNL A   1      38.198  31.490  30.611  1.00  0.00     0.074 A 
ATOM     37  C   UNL A   1      37.823  33.009  32.524  1.00  0.00     0.049 A 
ATOM     38  N   UNL A   1      39.182  30.753  31.059  1.00  0.00    -0.248 NA
ATOM     39  C   UNL A   1      37.735  31.120  29.264  1.00  0.00     0.031 C 
ATOM     40  C   UNL A   1      37.162  34.060  33.299  1.00  0.00     0.029 A 
ATOM     41  N   UNL A   1      38.815  32.557  33.356  1.00  0.00    -0.354 N 
ATOM     42  C   UNL A   1      39.444  29.826  30.060  1.00  0.00     0.074 A 
ATOM     43  C   UNL A   1      38.483  30.058  29.004  1.00  0.00     0.031 C 
ATOM     44  C   UNL A   1      37.780  34.186  34.485  1.00  0.00     0.029 A 
ATOM     45  C   UNL A   1      38.857  33.204  34.567  1.00  0.00     0.049 A 
ATOM     46  H   UNL A   1      39.439  31.836  33.108  1.00  0.00     0.167 HD
ATOM     47  C   UNL A   1      40.414  28.883  30.018  1.00  0.00     0.037 A 
ATOM     48  C   UNL A   1      39.670  33.020  35.623  1.00  0.00     0.037 A 
ATOM     49  C   UNL A   1      41.385  28.675  31.059  1.00  0.00     0.049 A 
ATOM     50  C   UNL A   1      40.744  31.969  35.548  1.00  0.00     0.074 A 
ATOM     51  C   UNL A   1      42.448  27.789  31.085  1.00  0.00     0.029 A 
ATOM     52  N   UNL A   1      41.412  29.367  32.261  1.00  0.00    -0.354 N 
ATOM     53  N   UNL A   1      41.028  31.144  34.570  1.00  0.00    -0.248 NA
ATOM     54  C   UNL A   1      41.615  31.828  36.724  1.00  0.00     0.031 C 
ATOM     55  C   UNL A   1      43.094  27.918  32.319  1.00  0.00     0.029 A 
ATOM     56  C   UNL A   1      42.461  28.914  33.044  1.00  0.00     0.049 A 
ATOM     57  H   UNL A   1      40.778  30.075  32.520  1.00  0.00     0.167 HD
ATOM     58  C   UNL A   1      42.123  30.407  34.998  1.00  0.00     0.074 A 
ATOM     59  C   UNL A   1      42.461  30.891  36.321  1.00  0.00     0.031 C 
ATOM     60  C   UNL A   1      42.788  29.417  34.355  1.00  0.00     0.037 A 
BRANCH  47  61
ATOM     61  C   UNL A   1      40.474  28.007  28.801  1.00  0.00     0.064 A 
ATOM     62  C   UNL A   1      41.231  28.367  27.675  1.00  0.00     0.173 A 
ATOM     63  C   UNL A   1      39.790  26.783  28.768  1.00  0.00     0.173 A 
ATOM     64  F   UNL A   1      41.893  29.533  27.651  1.00  0.00    -0.203 F 
ATOM     65  C   UNL A   1      41.274  27.549  26.550  1.00  0.00     0.198 A 
ATOM     66  C   UNL A   1      39.859  25.954  27.652  1.00  0.00     0.198 A 
ATOM     67  F   UNL A   1      39.055  26.390  29.819  1.00  0.00    -0.203 F 
ATOM     68  F   UNL A   1      41.961  27.938  25.467  1.00  0.00    -0.200 F 
ATOM     69  C   UNL A   1      40.594  26.340  26.541  1.00  0.00     0.200 A 
ATOM     70  F   UNL A   1      39.211  24.781  27.649  1.00  0.00    -0.200 F 
ATOM     71  F   UNL A   1      40.640  25.552  25.458  1.00  0.00    -0.200 F 
ENDBRANCH  47  61
BRANCH  48  72
ATOM     72  C   UNL A   1      39.523  33.874  36.830  1.00  0.00     0.064 A 
ATOM     73  C   UNL A   1      38.774  33.436  37.930  1.00  0.00     0.173 A 
ATOM     74  C   UNL A   1      40.122  35.139  36.909  1.00  0.00     0.173 A 
ATOM     75  F   UNL A   1      38.165  32.242  37.893  1.00  0.00    -0.203 F 
ATOM     76  C   UNL A   1      38.614  34.239  39.057  1.00  0.00     0.198 A 
ATOM     77  C   UNL A   1      39.983  35.930  38.047  1.00  0.00     0.198 A 
ATOM     78  F   UNL A   1      40.854  35.600  35.883  1.00  0.00    -0.203 F 
ATOM     79  F   UNL A   1      37.858  33.813  40.078  1.00  0.00    -0.200 F 
ATOM     80  C   UNL A   1      39.223  35.483  39.117  1.00  0.00     0.200 A 
ATOM     81  F   UNL A   1      40.585  37.126  38.107  1.00  0.00    -0.200 F 
ATOM     82  F   UNL A   1      39.073  36.253  40.203  1.00  0.00    -0.200 F 
ENDBRANCH  48  72
BRANCH  60  83
ATOM     83  C   UNL A   1      43.969  28.814  35.057  1.00  0.00     0.064 A 
ATOM     84  C   UNL A   1      45.256  29.357  34.929  1.00  0.00     0.173 A 
ATOM     85  C   UNL A   1      43.802  27.706  35.900  1.00  0.00     0.173 A 
ATOM     86  F   UNL A   1      45.468  30.406  34.120  1.00  0.00    -0.203 F 
ATOM     87  C   UNL A   1      46.337  28.798  35.603  1.00  0.00     0.198 A 
ATOM     88  C   UNL A   1      44.880  27.167  36.596  1.00  0.00     0.198 A 
ATOM     89  F   UNL A   1      42.589  27.154  36.061  1.00  0.00    -0.203 F 
ATOM     90  F   UNL A   1      47.565  29.305  35.433  1.00  0.00    -0.200 F 
ATOM     91  C   UNL A   1      46.147  27.708  36.442  1.00  0.00     0.200 A 
ATOM     92  F   UNL A   1      44.694  26.122  37.415  1.00  0.00    -0.200 F 
ATOM     93  F   UNL A   1      47.189  27.177  37.096  1.00  0.00    -0.200 F 
ENDBRANCH  60  83
ENDBRANCH  34  35
ENDBRANCH  26  29
ENDBRANCH  24  25
ENDBRANCH   1  24
TORSDOF 13
ENDMDL
MODEL 3
REMARK VINA RESULT:     -12.0      2.760      7.683
REMARK SMILES CCc1ccc2c(c1)C=C(C(=O)NCCCCNC(=O)c1ccc(-c3c4nc(c(-c5c(F)c(F)c(F)c(F)c5F)c5ccc([nH]5)c(-c5c(F)c(F)c(F)c(F)c5F)c5nc(c(-c6c(F)c(F)c(F)c(F)c6F)c6ccc3[nH]6)C=C5)C=C4)cc1)[C@H](C(F)(F)F)O2
REMARK SMILES IDX 16 1 15 2 14 3 13 4 11 5 12 6 10 8 3 9 4 10 8 11 5 12 7 13
REMARK SMILES IDX 6 14 9 15 89 16 84 17 2 18 1 19 85 20 86 21 87 22 88 23
REMARK SMILES IDX 17 24 18 25 19 26 20 28 21 29 22 30 83 31 23 32 82 33 24 34
REMARK SMILES IDX 25 35 26 36 76 37 27 38 81 39 75 40 77 41 28 42 80 43 74 44
REMARK SMILES IDX 73 45 29 47 61 48 41 49 60 50 42 51 45 52 59 53 78 54 43 55
REMARK SMILES IDX 44 56 58 58 79 59 46 60 30 61 31 62 39 63 32 64 33 65 37 66
REMARK SMILES IDX 40 67 34 68 35 69 38 70 36 71 62 72 63 73 71 74 64 75 65 76
REMARK SMILES IDX 69 77 72 78 66 79 67 80 70 81 68 82 47 83 48 84 56 85 49 86
REMARK SMILES IDX 50 87 54 88 57 89 51 90 52 91 55 92 53 93
REMARK H PARENT 13 7 18 27 77 46 45 57
REMARK Flexibility Score: inf
ROOT
ATOM      1  C   UNL A   1      32.870  27.918  24.814  1.00  0.00     0.023 C 
ENDROOT
BRANCH   1   2
ATOM      2  C   UNL A   1      31.561  27.888  25.607  1.00  0.00     0.023 C 
BRANCH   2   3
ATOM      3  C   UNL A   1      30.584  26.789  25.172  1.00  0.00     0.116 C 
BRANCH   3   4
ATOM      4  N   UNL A   1      30.508  25.753  26.189  1.00  0.00    -0.352 N 
ATOM      5  C   UNL A   1      31.207  24.602  26.379  1.00  0.00     0.251 C 
ATOM      6  O   UNL A   1      30.817  23.830  27.251  1.00  0.00    -0.270 OA
ATOM      7  H   UNL A   1      29.818  25.917  26.871  1.00  0.00     0.163 HD
BRANCH   5   8
ATOM      8  C   UNL A   1      32.454  24.281  25.633  1.00  0.00     0.067 C 
ATOM      9  C   UNL A   1      37.200  23.334  25.366  1.00  0.00    -0.047 A 
ATOM     10  C   UNL A   1      37.029  22.928  24.037  1.00  0.00     0.007 A 
ATOM     11  C   UNL A   1      36.083  23.828  26.057  1.00  0.00     0.015 A 
ATOM     12  C   UNL A   1      35.773  23.006  23.423  1.00  0.00     0.047 A 
ATOM     13  C   UNL A   1      34.825  23.898  25.444  1.00  0.00     0.017 A 
ATOM     14  C   UNL A   1      34.671  23.482  24.129  1.00  0.00     0.128 A 
ATOM     15  C   UNL A   1      33.663  24.308  26.209  1.00  0.00     0.025 C 
ATOM     16  O   UNL A   1      33.470  23.448  23.490  1.00  0.00    -0.475 OA
ATOM     17  C   UNL A   1      32.310  24.062  24.129  1.00  0.00     0.314 C 
BRANCH   9  18
ATOM     18  C   UNL A   1      38.499  23.199  26.128  1.00  0.00     0.032 C 
ATOM     19  C   UNL A   1      39.159  21.828  26.126  1.00  0.00     0.009 C 
ENDBRANCH   9  18
BRANCH  17  20
ATOM     20  C   UNL A   1      31.065  23.264  23.675  1.00  0.00     0.429 C 
ATOM     21  F   UNL A   1      31.322  22.437  22.637  1.00  0.00    -0.167 F 
ATOM     22  F   UNL A   1      30.611  22.460  24.673  1.00  0.00    -0.167 F 
ATOM     23  F   UNL A   1      30.036  24.071  23.326  1.00  0.00    -0.167 F 
ENDBRANCH  17  20
ENDBRANCH   5   8
ENDBRANCH   3   4
ENDBRANCH   2   3
ENDBRANCH   1   2
BRANCH   1  24
ATOM     24  C   UNL A   1      33.636  29.231  24.903  1.00  0.00     0.116 C 
BRANCH  24  25
ATOM     25  N   UNL A   1      32.898  30.280  25.590  1.00  0.00    -0.352 N 
ATOM     26  C   UNL A   1      33.222  30.931  26.755  1.00  0.00     0.251 C 
ATOM     27  H   UNL A   1      32.055  30.559  25.164  1.00  0.00     0.163 HD
ATOM     28  O   UNL A   1      32.442  31.724  27.263  1.00  0.00    -0.269 OA
BRANCH  26  29
ATOM     29  C   UNL A   1      34.510  30.628  27.414  1.00  0.00     0.039 A 
ATOM     30  C   UNL A   1      35.414  31.672  27.626  1.00  0.00     0.014 A 
ATOM     31  C   UNL A   1      34.807  29.333  27.845  1.00  0.00     0.014 A 
ATOM     32  C   UNL A   1      36.592  31.428  28.332  1.00  0.00     0.010 A 
ATOM     33  C   UNL A   1      35.949  29.106  28.606  1.00  0.00     0.010 A 
ATOM     34  C   UNL A   1      36.851  30.150  28.856  1.00  0.00    -0.014 A 
BRANCH  34  35
ATOM     35  C   UNL A   1      38.064  29.884  29.666  1.00  0.00     0.031 A 
ATOM     36  C   UNL A   1      39.128  28.962  29.145  1.00  0.00     0.074 A 
ATOM     37  C   UNL A   1      38.171  30.418  30.898  1.00  0.00     0.049 A 
ATOM     38  N   UNL A   1      40.223  28.546  29.730  1.00  0.00    -0.248 NA
ATOM     39  C   UNL A   1      38.920  28.411  27.797  1.00  0.00     0.031 C 
ATOM     40  C   UNL A   1      37.180  31.288  31.532  1.00  0.00     0.029 A 
ATOM     41  N   UNL A   1      39.159  30.297  31.842  1.00  0.00    -0.354 N 
ATOM     42  C   UNL A   1      40.822  27.675  28.830  1.00  0.00     0.074 A 
ATOM     43  C   UNL A   1      39.946  27.581  27.683  1.00  0.00     0.031 C 
ATOM     44  C   UNL A   1      37.618  31.638  32.752  1.00  0.00     0.029 A 
ATOM     45  C   UNL A   1      38.904  30.993  32.999  1.00  0.00     0.049 A 
ATOM     46  H   UNL A   1      39.974  29.762  31.703  1.00  0.00     0.167 HD
ATOM     47  C   UNL A   1      42.008  27.031  28.941  1.00  0.00     0.037 A 
ATOM     48  C   UNL A   1      39.626  31.093  34.130  1.00  0.00     0.037 A 
ATOM     49  C   UNL A   1      42.889  27.150  30.072  1.00  0.00     0.049 A 
ATOM     50  C   UNL A   1      40.944  30.372  34.226  1.00  0.00     0.074 A 
ATOM     51  C   UNL A   1      44.141  26.590  30.255  1.00  0.00     0.029 A 
ATOM     52  N   UNL A   1      42.609  27.884  31.216  1.00  0.00    -0.354 N 
ATOM     53  N   UNL A   1      41.534  29.606  33.341  1.00  0.00    -0.248 NA
ATOM     54  C   UNL A   1      41.697  30.534  35.477  1.00  0.00     0.031 C 
ATOM     55  C   UNL A   1      44.601  26.953  31.525  1.00  0.00     0.029 A 
ATOM     56  C   UNL A   1      43.656  27.776  32.116  1.00  0.00     0.049 A 
ATOM     57  H   UNL A   1      41.786  28.405  31.366  1.00  0.00     0.167 HD
ATOM     58  C   UNL A   1      42.737  29.218  33.915  1.00  0.00     0.074 A 
ATOM     59  C   UNL A   1      42.798  29.843  35.219  1.00  0.00     0.031 C 
ATOM     60  C   UNL A   1      43.703  28.415  33.406  1.00  0.00     0.037 A 
BRANCH  47  61
ATOM     61  C   UNL A   1      42.422  26.144  27.805  1.00  0.00     0.064 A 
ATOM     62  C   UNL A   1      43.226  26.619  26.757  1.00  0.00     0.173 A 
ATOM     63  C   UNL A   1      42.032  24.796  27.773  1.00  0.00     0.173 A 
ATOM     64  F   UNL A   1      43.614  27.903  26.734  1.00  0.00    -0.203 F 
ATOM     65  C   UNL A   1      43.599  25.787  25.706  1.00  0.00     0.198 A 
ATOM     66  C   UNL A   1      42.431  23.959  26.734  1.00  0.00     0.198 A 
ATOM     67  F   UNL A   1      41.266  24.290  28.751  1.00  0.00    -0.203 F 
ATOM     68  F   UNL A   1      44.323  26.278  24.690  1.00  0.00    -0.200 F 
ATOM     69  C   UNL A   1      43.207  24.456  25.697  1.00  0.00     0.200 A 
ATOM     70  F   UNL A   1      42.062  22.671  26.734  1.00  0.00    -0.200 F 
ATOM     71  F   UNL A   1      43.570  23.656  24.686  1.00  0.00    -0.200 F 
ENDBRANCH  47  61
BRANCH  48  72
ATOM     72  C   UNL A   1      39.135  31.935  35.251  1.00  0.00     0.064 A 
ATOM     73  C   UNL A   1      39.406  33.310  35.286  1.00  0.00     0.173 A 
ATOM     74  C   UNL A   1      38.391  31.389  36.305  1.00  0.00     0.173 A 
ATOM     75  F   UNL A   1      40.133  33.873  34.310  1.00  0.00    -0.203 F 
ATOM     76  C   UNL A   1      38.967  34.103  36.343  1.00  0.00     0.198 A 
ATOM     77  C   UNL A   1      37.929  32.188  37.349  1.00  0.00     0.198 A 
ATOM     78  F   UNL A   1      38.100  30.079  36.314  1.00  0.00    -0.203 F 
ATOM     79  F   UNL A   1      39.276  35.406  36.373  1.00  0.00    -0.200 F 
ATOM     80  C   UNL A   1      38.224  33.542  37.371  1.00  0.00     0.200 A 
ATOM     81  F   UNL A   1      37.200  31.645  38.334  1.00  0.00    -0.200 F 
ATOM     82  F   UNL A   1      37.798  34.306  38.386  1.00  0.00    -0.200 F 
ENDBRANCH  48  72
BRANCH  60  83
ATOM     83  C   UNL A   1      44.925  28.194  34.249  1.00  0.00     0.064 A 
ATOM     84  C   UNL A   1      46.026  29.060  34.187  1.00  0.00     0.173 A 
ATOM     85  C   UNL A   1      44.975  27.127  35.158  1.00  0.00     0.173 A 
ATOM     86  F   UNL A   1      46.031  30.085  33.321  1.00  0.00    -0.203 F 
ATOM     87  C   UNL A   1      47.144  28.853  34.991  1.00  0.00     0.198 A 
ATOM     88  C   UNL A   1      46.082  26.939  35.980  1.00  0.00     0.198 A 
ATOM     89  F   UNL A   1      43.944  26.274  35.259  1.00  0.00    -0.203 F 
ATOM     90  F   UNL A   1      48.203  29.667  34.885  1.00  0.00    -0.200 F 
ATOM     91  C   UNL A   1      47.168  27.797  35.891  1.00  0.00     0.200 A 
ATOM     92  F   UNL A   1      46.100  25.926  36.858  1.00  0.00    -0.200 F 
ATOM     93  F   UNL A   1      48.242  27.604  36.669  1.00  0.00    -0.200 F 
ENDBRANCH  60  83
ENDBRANCH  34  35
ENDBRANCH  26  29
ENDBRANCH  24  25
ENDBRANCH   1  24
TORSDOF 13
ENDMDL
