MODEL 1
REMARK VINA RESULT:     -13.5      0.000      0.000
REMARK SMILES CS(=O)(=O)c1ccc(C2=NN(c3ccc(C(=O)NCCCCNC(=O)c4ccc(-c5c6nc(c(-c7c(F)c(F)c(F)c(F)c7F)c7ccc([nH]7)c(-c7c(F)c(F)c(F)c(F)c7F)c7nc(c(-c8c(F)c(F)c(F)c(F)c8F)c8ccc5[nH]8)C=C7)C=C6)cc4)cc3)[C@H](c3ccc(F)cc3)C2)cc1
REMARK SMILES IDX 20 1 19 2 18 3 16 4 17 5 15 7 12 8 13 9 90 10 14 11 89 12
REMARK SMILES IDX 11 13 9 14 10 15 99 16 91 17 8 18 5 19 6 20 101 21 7 22
REMARK SMILES IDX 100 23 2 24 1 25 3 26 4 27 92 28 93 29 98 30 94 31 97 32
REMARK SMILES IDX 95 33 96 34 21 35 22 36 23 37 24 38 25 40 26 41 27 42 88 43
REMARK SMILES IDX 28 44 87 45 29 46 30 47 31 48 81 49 32 50 86 51 80 52 82 53
REMARK SMILES IDX 33 54 85 55 79 56 78 57 34 59 66 60 46 61 65 62 47 63 50 64
REMARK SMILES IDX 64 65 83 66 48 67 49 68 63 70 84 71 51 72 35 73 36 74 44 75
REMARK SMILES IDX 37 76 38 77 42 78 45 79 39 80 40 81 43 82 41 83 67 84 68 85
REMARK SMILES IDX 76 86 69 87 70 88 74 89 77 90 71 91 72 92 75 93 73 94 52 95
REMARK SMILES IDX 53 96 61 97 54 98 55 99 59 100 62 101 56 102 57 103 60 104
REMARK SMILES IDX 58 105
REMARK H PARENT 18 6 23 39 82 58 50 69
REMARK Flexibility Score: inf
ROOT
ATOM      1  C   UNL A   1      33.314  33.486  27.465  1.00  0.00     0.023 C 
ENDROOT
BRANCH   1   2
ATOM      2  C   UNL A   1      33.048  31.985  27.602  1.00  0.00     0.116 C 
BRANCH   2   3
ATOM      3  N   UNL A   1      34.181  31.300  28.198  1.00  0.00    -0.352 N 
ATOM      4  C   UNL A   1      34.657  30.025  28.007  1.00  0.00     0.251 C 
ATOM      5  O   UNL A   1      35.720  29.712  28.543  1.00  0.00    -0.269 OA
ATOM      6  H   UNL A   1      34.689  31.837  28.847  1.00  0.00     0.163 HD
BRANCH   4   7
ATOM      7  C   UNL A   1      33.963  29.041  27.135  1.00  0.00     0.039 A 
ATOM      8  C   UNL A   1      32.596  27.118  25.594  1.00  0.00     0.060 A 
ATOM      9  C   UNL A   1      32.116  27.489  26.853  1.00  0.00     0.029 A 
ATOM     10  C   UNL A   1      33.726  27.763  25.091  1.00  0.00     0.029 A 
ATOM     11  C   UNL A   1      32.793  28.444  27.621  1.00  0.00     0.016 A 
ATOM     12  C   UNL A   1      34.391  28.729  25.845  1.00  0.00     0.016 A 
BRANCH   8  13
ATOM     13  N   UNL A   1      31.998  26.120  24.837  1.00  0.00    -0.257 N 
ATOM     14  C   UNL A   1      32.057  24.149  24.050  1.00  0.00     0.071 C 
ATOM     15  N   UNL A   1      32.277  24.828  25.130  1.00  0.00    -0.176 NA
ATOM     16  C   UNL A   1      31.654  24.946  22.840  1.00  0.00     0.091 C 
ATOM     17  C   UNL A   1      31.587  26.355  23.450  1.00  0.00     0.144 C 
BRANCH  14  18
ATOM     18  C   UNL A   1      32.175  22.685  24.012  1.00  0.00    -0.002 A 
ATOM     19  C   UNL A   1      32.405  19.921  23.840  1.00  0.00     0.067 A 
ATOM     20  C   UNL A   1      32.362  20.679  22.668  1.00  0.00     0.021 A 
ATOM     21  C   UNL A   1      32.324  20.536  25.096  1.00  0.00     0.021 A 
ATOM     22  C   UNL A   1      32.228  22.064  22.758  1.00  0.00     0.011 A 
ATOM     23  C   UNL A   1      32.220  21.927  25.183  1.00  0.00     0.011 A 
BRANCH  19  24
ATOM     24  S   UNL A   1      32.581  18.153  23.749  1.00  0.00     0.175 S 
ATOM     25  C   UNL A   1      34.302  17.825  24.023  1.00  0.00     0.163 C 
ATOM     26  O   UNL A   1      32.281  17.762  22.388  1.00  0.00    -0.224 OA
ATOM     27  O   UNL A   1      31.829  17.613  24.870  1.00  0.00    -0.224 OA
ENDBRANCH  19  24
ENDBRANCH  14  18
BRANCH  17  28
ATOM     28  C   UNL A   1      30.246  27.082  23.428  1.00  0.00    -0.023 A 
ATOM     29  C   UNL A   1      30.056  28.348  22.847  1.00  0.00     0.009 A 
ATOM     30  C   UNL A   1      29.112  26.412  23.938  1.00  0.00     0.009 A 
ATOM     31  C   UNL A   1      28.785  28.932  22.806  1.00  0.00     0.039 A 
ATOM     32  C   UNL A   1      27.841  26.986  23.875  1.00  0.00     0.039 A 
ATOM     33  C   UNL A   1      27.690  28.244  23.314  1.00  0.00     0.123 A 
ATOM     34  F   UNL A   1      26.472  28.797  23.248  1.00  0.00    -0.207 F 
ENDBRANCH  17  28
ENDBRANCH   8  13
ENDBRANCH   4   7
ENDBRANCH   2   3
ENDBRANCH   1   2
BRANCH   1  35
ATOM     35  C   UNL A   1      32.533  34.366  28.440  1.00  0.00     0.023 C 
BRANCH  35  36
ATOM     36  C   UNL A   1      33.361  34.981  29.561  1.00  0.00     0.116 C 
BRANCH  36  37
ATOM     37  N   UNL A   1      32.555  35.556  30.626  1.00  0.00    -0.352 N 
ATOM     38  C   UNL A   1      32.766  35.512  31.983  1.00  0.00     0.251 C 
ATOM     39  H   UNL A   1      31.749  36.042  30.337  1.00  0.00     0.163 HD
ATOM     40  O   UNL A   1      31.933  35.970  32.757  1.00  0.00    -0.269 OA
BRANCH  38  41
ATOM     41  C   UNL A   1      33.987  34.866  32.508  1.00  0.00     0.039 A 
ATOM     42  C   UNL A   1      33.897  33.556  32.986  1.00  0.00     0.014 A 
ATOM     43  C   UNL A   1      35.215  35.532  32.497  1.00  0.00     0.014 A 
ATOM     44  C   UNL A   1      35.054  32.888  33.388  1.00  0.00     0.010 A 
ATOM     45  C   UNL A   1      36.376  34.844  32.832  1.00  0.00     0.010 A 
ATOM     46  C   UNL A   1      36.307  33.515  33.277  1.00  0.00    -0.014 A 
BRANCH  46  47
ATOM     47  C   UNL A   1      37.556  32.786  33.604  1.00  0.00     0.031 A 
ATOM     48  C   UNL A   1      38.298  33.090  34.873  1.00  0.00     0.074 A 
ATOM     49  C   UNL A   1      38.056  31.903  32.721  1.00  0.00     0.049 A 
ATOM     50  N   UNL A   1      39.430  32.596  35.307  1.00  0.00    -0.248 NA
ATOM     51  C   UNL A   1      37.703  34.101  35.760  1.00  0.00     0.031 C 
ATOM     52  C   UNL A   1      37.456  31.568  31.429  1.00  0.00     0.029 A 
ATOM     53  N   UNL A   1      39.189  31.130  32.772  1.00  0.00    -0.354 N 
ATOM     54  C   UNL A   1      39.689  33.246  36.507  1.00  0.00     0.074 A 
ATOM     55  C   UNL A   1      38.623  34.205  36.708  1.00  0.00     0.031 C 
ATOM     56  C   UNL A   1      38.214  30.641  30.820  1.00  0.00     0.029 A 
ATOM     57  C   UNL A   1      39.366  30.340  31.664  1.00  0.00     0.049 A 
ATOM     58  H   UNL A   1      39.815  31.142  33.531  1.00  0.00     0.167 HD
ATOM     59  C   UNL A   1      40.711  33.045  37.371  1.00  0.00     0.037 A 
ATOM     60  C   UNL A   1      40.350  29.471  31.363  1.00  0.00     0.037 A 
ATOM     61  C   UNL A   1      41.755  32.072  37.181  1.00  0.00     0.049 A 
ATOM     62  C   UNL A   1      41.466  29.257  32.345  1.00  0.00     0.074 A 
ATOM     63  C   UNL A   1      42.794  31.742  38.032  1.00  0.00     0.029 A 
ATOM     64  N   UNL A   1      41.890  31.273  36.054  1.00  0.00    -0.354 N 
ATOM     65  N   UNL A   1      41.661  29.822  33.512  1.00  0.00    -0.248 NA
ATOM     66  C   UNL A   1      42.498  28.280  31.971  1.00  0.00     0.031 C 
ATOM     67  C   UNL A   1      43.582  30.770  37.403  1.00  0.00     0.029 A 
ATOM     68  C   UNL A   1      43.009  30.466  36.179  1.00  0.00     0.049 A 
ATOM     69  H   UNL A   1      41.283  31.280  35.280  1.00  0.00     0.167 HD
ATOM     70  C   UNL A   1      42.820  29.254  34.022  1.00  0.00     0.074 A 
ATOM     71  C   UNL A   1      43.278  28.289  33.043  1.00  0.00     0.031 C 
ATOM     72  C   UNL A   1      43.449  29.510  35.195  1.00  0.00     0.037 A 
BRANCH  59  73
ATOM     73  C   UNL A   1      40.745  33.892  38.609  1.00  0.00     0.064 A 
ATOM     74  C   UNL A   1      40.056  33.520  39.774  1.00  0.00     0.173 A 
ATOM     75  C   UNL A   1      41.493  35.079  38.641  1.00  0.00     0.173 A 
ATOM     76  F   UNL A   1      39.316  32.401  39.790  1.00  0.00    -0.203 F 
ATOM     77  C   UNL A   1      40.090  34.319  40.913  1.00  0.00     0.198 A 
ATOM     78  C   UNL A   1      41.548  35.860  39.791  1.00  0.00     0.198 A 
ATOM     79  F   UNL A   1      42.174  35.478  37.556  1.00  0.00    -0.203 F 
ATOM     80  F   UNL A   1      39.383  33.968  41.996  1.00  0.00    -0.200 F 
ATOM     81  C   UNL A   1      40.841  35.484  40.923  1.00  0.00     0.200 A 
ATOM     82  F   UNL A   1      42.282  36.982  39.804  1.00  0.00    -0.200 F 
ATOM     83  F   UNL A   1      40.875  36.251  42.022  1.00  0.00    -0.200 F 
ENDBRANCH  59  73
BRANCH  60  84
ATOM     84  C   UNL A   1      40.297  28.711  30.088  1.00  0.00     0.064 A 
ATOM     85  C   UNL A   1      40.907  29.214  28.930  1.00  0.00     0.173 A 
ATOM     86  C   UNL A   1      39.651  27.471  30.001  1.00  0.00     0.173 A 
ATOM     87  F   UNL A   1      41.520  30.407  28.961  1.00  0.00    -0.203 F 
ATOM     88  C   UNL A   1      40.860  28.511  27.729  1.00  0.00     0.198 A 
ATOM     89  C   UNL A   1      39.625  26.756  28.805  1.00  0.00     0.198 A 
ATOM     90  F   UNL A   1      39.058  26.945  31.082  1.00  0.00    -0.203 F 
ATOM     91  F   UNL A   1      41.419  29.031  26.628  1.00  0.00    -0.200 F 
ATOM     92  C   UNL A   1      40.225  27.279  27.669  1.00  0.00     0.200 A 
ATOM     93  F   UNL A   1      39.021  25.561  28.753  1.00  0.00    -0.200 F 
ATOM     94  F   UNL A   1      40.184  26.601  26.514  1.00  0.00    -0.200 F 
ENDBRANCH  60  84
BRANCH  72  95
ATOM     95  C   UNL A   1      44.687  28.718  35.493  1.00  0.00     0.064 A 
ATOM     96  C   UNL A   1      44.630  27.496  36.179  1.00  0.00     0.173 A 
ATOM     97  C   UNL A   1      45.942  29.170  35.056  1.00  0.00     0.173 A 
ATOM     98  F   UNL A   1      43.455  27.031  36.631  1.00  0.00    -0.203 F 
ATOM     99  C   UNL A   1      45.787  26.766  36.437  1.00  0.00     0.198 A 
ATOM    100  C   UNL A   1      47.093  28.424  35.293  1.00  0.00     0.198 A 
ATOM    101  F   UNL A   1      46.048  30.330  34.392  1.00  0.00    -0.203 F 
ATOM    102  F   UNL A   1      45.714  25.623  37.134  1.00  0.00    -0.200 F 
ATOM    103  C   UNL A   1      47.015  27.227  35.989  1.00  0.00     0.200 A 
ATOM    104  F   UNL A   1      48.278  28.866  34.850  1.00  0.00    -0.200 F 
ATOM    105  F   UNL A   1      48.127  26.521  36.234  1.00  0.00    -0.200 F 
ENDBRANCH  72  95
ENDBRANCH  46  47
ENDBRANCH  38  41
ENDBRANCH  36  37
ENDBRANCH  35  36
ENDBRANCH   1  35
TORSDOF 15
ENDMDL
MODEL 2
REMARK VINA RESULT:     -13.2      5.434      9.986
REMARK SMILES CS(=O)(=O)c1ccc(C2=NN(c3ccc(C(=O)NCCCCNC(=O)c4ccc(-c5c6nc(c(-c7c(F)c(F)c(F)c(F)c7F)c7ccc([nH]7)c(-c7c(F)c(F)c(F)c(F)c7F)c7nc(c(-c8c(F)c(F)c(F)c(F)c8F)c8ccc5[nH]8)C=C7)C=C6)cc4)cc3)[C@H](c3ccc(F)cc3)C2)cc1
REMARK SMILES IDX 20 1 19 2 18 3 16 4 17 5 15 7 12 8 13 9 90 10 14 11 89 12
REMARK SMILES IDX 11 13 9 14 10 15 99 16 91 17 8 18 5 19 6 20 101 21 7 22
REMARK SMILES IDX 100 23 2 24 1 25 3 26 4 27 92 28 93 29 98 30 94 31 97 32
REMARK SMILES IDX 95 33 96 34 21 35 22 36 23 37 24 38 25 40 26 41 27 42 88 43
REMARK SMILES IDX 28 44 87 45 29 46 30 47 31 48 81 49 32 50 86 51 80 52 82 53
REMARK SMILES IDX 33 54 85 55 79 56 78 57 34 59 66 60 46 61 65 62 47 63 50 64
REMARK SMILES IDX 64 65 83 66 48 67 49 68 63 70 84 71 51 72 35 73 36 74 44 75
REMARK SMILES IDX 37 76 38 77 42 78 45 79 39 80 40 81 43 82 41 83 67 84 68 85
REMARK SMILES IDX 76 86 69 87 70 88 74 89 77 90 71 91 72 92 75 93 73 94 52 95
REMARK SMILES IDX 53 96 61 97 54 98 55 99 59 100 62 101 56 102 57 103 60 104
REMARK SMILES IDX 58 105
REMARK H PARENT 18 6 23 39 82 58 50 69
REMARK Flexibility Score: inf
ROOT
ATOM      1  C   UNL A   1      34.355  34.784  29.185  1.00  0.00     0.023 C 
ENDROOT
BRANCH   1   2
ATOM      2  C   UNL A   1      35.021  34.183  30.424  1.00  0.00     0.116 C 
BRANCH   2   3
ATOM      3  N   UNL A   1      34.036  33.768  31.406  1.00  0.00    -0.352 N 
ATOM      4  C   UNL A   1      34.188  33.127  32.612  1.00  0.00     0.251 C 
ATOM      5  O   UNL A   1      33.199  32.992  33.330  1.00  0.00    -0.269 OA
ATOM      6  H   UNL A   1      33.105  33.980  31.166  1.00  0.00     0.163 HD
BRANCH   4   7
ATOM      7  C   UNL A   1      35.511  32.648  33.093  1.00  0.00     0.039 A 
ATOM      8  C   UNL A   1      38.036  31.861  34.066  1.00  0.00     0.060 A 
ATOM      9  C   UNL A   1      37.277  32.813  34.752  1.00  0.00     0.029 A 
ATOM     10  C   UNL A   1      37.492  31.264  32.928  1.00  0.00     0.029 A 
ATOM     11  C   UNL A   1      36.023  33.206  34.271  1.00  0.00     0.016 A 
ATOM     12  C   UNL A   1      36.234  31.638  32.458  1.00  0.00     0.016 A 
BRANCH   8  13
ATOM     13  N   UNL A   1      39.315  31.502  34.467  1.00  0.00    -0.257 N 
ATOM     14  C   UNL A   1      40.708  29.979  34.963  1.00  0.00     0.071 C 
ATOM     15  N   UNL A   1      39.794  30.290  34.100  1.00  0.00    -0.176 NA
ATOM     16  C   UNL A   1      40.909  30.951  36.092  1.00  0.00     0.091 C 
ATOM     17  C   UNL A   1      39.917  32.052  35.685  1.00  0.00     0.144 C 
BRANCH  14  18
ATOM     18  C   UNL A   1      41.514  28.756  34.837  1.00  0.00    -0.002 A 
ATOM     19  C   UNL A   1      43.056  26.469  34.502  1.00  0.00     0.067 A 
ATOM     20  C   UNL A   1      42.842  27.317  33.413  1.00  0.00     0.021 A 
ATOM     21  C   UNL A   1      42.494  26.753  35.754  1.00  0.00     0.021 A 
ATOM     22  C   UNL A   1      42.053  28.454  33.580  1.00  0.00     0.011 A 
ATOM     23  C   UNL A   1      41.728  27.909  35.925  1.00  0.00     0.011 A 
BRANCH  19  24
ATOM     24  S   UNL A   1      44.064  25.015  34.313  1.00  0.00     0.175 S 
ATOM     25  C   UNL A   1      43.020  23.646  34.740  1.00  0.00     0.163 C 
ATOM     26  O   UNL A   1      45.109  25.086  35.313  1.00  0.00    -0.224 OA
ATOM     27  O   UNL A   1      44.382  24.924  32.898  1.00  0.00    -0.224 OA
ENDBRANCH  19  24
ENDBRANCH  14  18
BRANCH  17  28
ATOM     28  C   UNL A   1      40.469  33.445  35.402  1.00  0.00    -0.023 A 
ATOM     29  C   UNL A   1      40.611  33.980  34.110  1.00  0.00     0.009 A 
ATOM     30  C   UNL A   1      40.771  34.281  36.500  1.00  0.00     0.009 A 
ATOM     31  C   UNL A   1      41.065  35.291  33.925  1.00  0.00     0.039 A 
ATOM     32  C   UNL A   1      41.202  35.596  36.314  1.00  0.00     0.039 A 
ATOM     33  C   UNL A   1      41.351  36.087  35.026  1.00  0.00     0.123 A 
ATOM     34  F   UNL A   1      41.761  37.349  34.843  1.00  0.00    -0.207 F 
ENDBRANCH  17  28
ENDBRANCH   8  13
ENDBRANCH   4   7
ENDBRANCH   2   3
ENDBRANCH   1   2
BRANCH   1  35
ATOM     35  C   UNL A   1      34.254  33.838  27.989  1.00  0.00     0.023 C 
BRANCH  35  36
ATOM     36  C   UNL A   1      35.160  32.615  28.054  1.00  0.00     0.116 C 
BRANCH  36  37
ATOM     37  N   UNL A   1      34.449  31.359  27.880  1.00  0.00    -0.352 N 
ATOM     38  C   UNL A   1      34.937  30.077  27.958  1.00  0.00     0.251 C 
ATOM     39  H   UNL A   1      33.488  31.437  27.678  1.00  0.00     0.163 HD
ATOM     40  O   UNL A   1      34.218  29.121  27.689  1.00  0.00    -0.269 OA
BRANCH  38  41
ATOM     41  C   UNL A   1      36.351  29.859  28.325  1.00  0.00     0.039 A 
ATOM     42  C   UNL A   1      36.643  29.361  29.598  1.00  0.00     0.014 A 
ATOM     43  C   UNL A   1      37.379  30.112  27.412  1.00  0.00     0.014 A 
ATOM     44  C   UNL A   1      37.961  29.048  29.930  1.00  0.00     0.010 A 
ATOM     45  C   UNL A   1      38.682  29.735  27.719  1.00  0.00     0.010 A 
ATOM     46  C   UNL A   1      38.984  29.197  28.978  1.00  0.00    -0.014 A 
BRANCH  46  47
ATOM     47  C   UNL A   1      40.373  28.775  29.280  1.00  0.00     0.031 A 
ATOM     48  C   UNL A   1      41.286  29.678  30.058  1.00  0.00     0.074 A 
ATOM     49  C   UNL A   1      40.831  27.608  28.790  1.00  0.00     0.049 A 
ATOM     50  N   UNL A   1      42.544  29.507  30.376  1.00  0.00    -0.248 NA
ATOM     51  C   UNL A   1      40.717  30.954  30.518  1.00  0.00     0.031 C 
ATOM     52  C   UNL A   1      40.057  26.674  27.971  1.00  0.00     0.029 A 
ATOM     53  N   UNL A   1      42.062  27.012  28.902  1.00  0.00    -0.354 N 
ATOM     54  C   UNL A   1      42.920  30.657  31.057  1.00  0.00     0.074 A 
ATOM     55  C   UNL A   1      41.772  31.539  31.065  1.00  0.00     0.031 C 
ATOM     56  C   UNL A   1      40.822  25.611  27.674  1.00  0.00     0.029 A 
ATOM     57  C   UNL A   1      42.148  25.804  28.254  1.00  0.00     0.049 A 
ATOM     58  H   UNL A   1      42.811  27.412  29.398  1.00  0.00     0.167 HD
ATOM     59  C   UNL A   1      44.107  30.940  31.643  1.00  0.00     0.037 A 
ATOM     60  C   UNL A   1      43.182  24.949  28.142  1.00  0.00     0.037 A 
ATOM     61  C   UNL A   1      45.237  30.049  31.657  1.00  0.00     0.049 A 
ATOM     62  C   UNL A   1      44.486  25.281  28.812  1.00  0.00     0.074 A 
ATOM     63  C   UNL A   1      46.459  30.213  32.285  1.00  0.00     0.029 A 
ATOM     64  N   UNL A   1      45.281  28.823  31.008  1.00  0.00    -0.354 N 
ATOM     65  N   UNL A   1      44.807  26.338  29.519  1.00  0.00    -0.248 NA
ATOM     66  C   UNL A   1      45.570  24.300  28.673  1.00  0.00     0.031 C 
ATOM     67  C   UNL A   1      47.258  29.104  31.983  1.00  0.00     0.029 A 
ATOM     68  C   UNL A   1      46.518  28.230  31.203  1.00  0.00     0.049 A 
ATOM     69  H   UNL A   1      44.544  28.433  30.486  1.00  0.00     0.167 HD
ATOM     70  C   UNL A   1      46.117  26.139  29.928  1.00  0.00     0.074 A 
ATOM     71  C   UNL A   1      46.529  24.853  29.402  1.00  0.00     0.031 C 
ATOM     72  C   UNL A   1      46.909  26.949  30.673  1.00  0.00     0.037 A 
BRANCH  59  73
ATOM     73  C   UNL A   1      44.240  32.270  32.325  1.00  0.00     0.064 A 
ATOM     74  C   UNL A   1      44.539  33.438  31.604  1.00  0.00     0.173 A 
ATOM     75  C   UNL A   1      44.045  32.386  33.709  1.00  0.00     0.173 A 
ATOM     76  F   UNL A   1      44.749  33.378  30.281  1.00  0.00    -0.203 F 
ATOM     77  C   UNL A   1      44.668  34.664  32.250  1.00  0.00     0.198 A 
ATOM     78  C   UNL A   1      44.146  33.619  34.346  1.00  0.00     0.198 A 
ATOM     79  F   UNL A   1      43.752  31.302  34.443  1.00  0.00    -0.203 F 
ATOM     80  F   UNL A   1      45.005  35.755  31.548  1.00  0.00    -0.200 F 
ATOM     81  C   UNL A   1      44.465  34.756  33.618  1.00  0.00     0.200 A 
ATOM     82  F   UNL A   1      43.939  33.708  35.667  1.00  0.00    -0.200 F 
ATOM     83  F   UNL A   1      44.586  35.938  34.237  1.00  0.00    -0.200 F 
ENDBRANCH  59  73
BRANCH  60  84
ATOM     84  C   UNL A   1      43.010  23.678  27.394  1.00  0.00     0.064 A 
ATOM     85  C   UNL A   1      43.428  23.571  26.060  1.00  0.00     0.173 A 
ATOM     86  C   UNL A   1      42.437  22.548  27.993  1.00  0.00     0.173 A 
ATOM     87  F   UNL A   1      43.964  24.632  25.439  1.00  0.00    -0.203 F 
ATOM     88  C   UNL A   1      43.268  22.384  25.349  1.00  0.00     0.198 A 
ATOM     89  C   UNL A   1      42.298  21.354  27.288  1.00  0.00     0.198 A 
ATOM     90  F   UNL A   1      42.027  22.599  29.267  1.00  0.00    -0.203 F 
ATOM     91  F   UNL A   1      43.642  22.320  24.064  1.00  0.00    -0.200 F 
ATOM     92  C   UNL A   1      42.708  21.274  25.965  1.00  0.00     0.200 A 
ATOM     93  F   UNL A   1      41.769  20.280  27.890  1.00  0.00    -0.200 F 
ATOM     94  F   UNL A   1      42.558  20.132  25.282  1.00  0.00    -0.200 F 
ENDBRANCH  60  84
BRANCH  72  95
ATOM     95  C   UNL A   1      48.292  26.457  30.980  1.00  0.00     0.064 A 
ATOM     96  C   UNL A   1      48.555  25.660  32.103  1.00  0.00     0.173 A 
ATOM     97  C   UNL A   1      49.360  26.757  30.121  1.00  0.00     0.173 A 
ATOM     98  F   UNL A   1      47.570  25.360  32.963  1.00  0.00    -0.203 F 
ATOM     99  C   UNL A   1      49.843  25.201  32.368  1.00  0.00     0.198 A 
ATOM    100  C   UNL A   1      50.641  26.274  30.374  1.00  0.00     0.198 A 
ATOM    101  F   UNL A   1      49.159  27.512  29.030  1.00  0.00    -0.203 F 
ATOM    102  F   UNL A   1      50.080  24.478  33.472  1.00  0.00    -0.200 F 
ATOM    103  C   UNL A   1      50.882  25.502  31.501  1.00  0.00     0.200 A 
ATOM    104  F   UNL A   1      51.642  26.557  29.530  1.00  0.00    -0.200 F 
ATOM    105  F   UNL A   1      52.119  25.055  31.755  1.00  0.00    -0.200 F 
ENDBRANCH  72  95
ENDBRANCH  46  47
ENDBRANCH  38  41
ENDBRANCH  36  37
ENDBRANCH  35  36
ENDBRANCH   1  35
TORSDOF 15
ENDMDL
MODEL 3
REMARK VINA RESULT:     -13.1      3.880      9.979
REMARK SMILES CS(=O)(=O)c1ccc(C2=NN(c3ccc(C(=O)NCCCCNC(=O)c4ccc(-c5c6nc(c(-c7c(F)c(F)c(F)c(F)c7F)c7ccc([nH]7)c(-c7c(F)c(F)c(F)c(F)c7F)c7nc(c(-c8c(F)c(F)c(F)c(F)c8F)c8ccc5[nH]8)C=C7)C=C6)cc4)cc3)[C@H](c3ccc(F)cc3)C2)cc1
REMARK SMILES IDX 20 1 19 2 18 3 16 4 17 5 15 7 12 8 13 9 90 10 14 11 89 12
REMARK SMILES IDX 11 13 9 14 10 15 99 16 91 17 8 18 5 19 6 20 101 21 7 22
REMARK SMILES IDX 100 23 2 24 1 25 3 26 4 27 92 28 93 29 98 30 94 31 97 32
REMARK SMILES IDX 95 33 96 34 21 35 22 36 23 37 24 38 25 40 26 41 27 42 88 43
REMARK SMILES IDX 28 44 87 45 29 46 30 47 31 48 81 49 32 50 86 51 80 52 82 53
REMARK SMILES IDX 33 54 85 55 79 56 78 57 34 59 66 60 46 61 65 62 47 63 50 64
REMARK SMILES IDX 64 65 83 66 48 67 49 68 63 70 84 71 51 72 35 73 36 74 44 75
REMARK SMILES IDX 37 76 38 77 42 78 45 79 39 80 40 81 43 82 41 83 67 84 68 85
REMARK SMILES IDX 76 86 69 87 70 88 74 89 77 90 71 91 72 92 75 93 73 94 52 95
REMARK SMILES IDX 53 96 61 97 54 98 55 99 59 100 62 101 56 102 57 103 60 104
REMARK SMILES IDX 58 105
REMARK H PARENT 18 6 23 39 82 58 50 69
REMARK Flexibility Score: inf
ROOT
ATOM      1  C   UNL A   1      40.777  25.693  26.256  1.00  0.00     0.023 C 
ENDROOT
BRANCH   1   2
ATOM      2  C   UNL A   1      39.454  24.970  26.518  1.00  0.00     0.116 C 
BRANCH   2   3
ATOM      3  N   UNL A   1      39.616  23.529  26.448  1.00  0.00    -0.352 N 
ATOM      4  C   UNL A   1      38.772  22.556  25.969  1.00  0.00     0.251 C 
ATOM      5  O   UNL A   1      39.190  21.401  25.904  1.00  0.00    -0.269 OA
ATOM      6  H   UNL A   1      40.471  23.195  26.802  1.00  0.00     0.163 HD
BRANCH   4   7
ATOM      7  C   UNL A   1      37.402  22.865  25.481  1.00  0.00     0.039 A 
ATOM      8  C   UNL A   1      34.760  23.436  24.683  1.00  0.00     0.060 A 
ATOM      9  C   UNL A   1      35.184  23.716  25.985  1.00  0.00     0.029 A 
ATOM     10  C   UNL A   1      35.686  22.929  23.772  1.00  0.00     0.029 A 
ATOM     11  C   UNL A   1      36.495  23.433  26.384  1.00  0.00     0.016 A 
ATOM     12  C   UNL A   1      36.999  22.665  24.160  1.00  0.00     0.016 A 
BRANCH   8  13
ATOM     13  N   UNL A   1      33.449  23.630  24.272  1.00  0.00    -0.257 N 
ATOM     14  C   UNL A   1      31.775  24.920  24.072  1.00  0.00     0.071 C 
ATOM     15  N   UNL A   1      33.059  24.876  23.912  1.00  0.00    -0.176 NA
ATOM     16  C   UNL A   1      31.137  23.684  24.644  1.00  0.00     0.091 C 
ATOM     17  C   UNL A   1      32.364  22.764  24.742  1.00  0.00     0.144 C 
BRANCH  14  18
ATOM     18  C   UNL A   1      30.984  26.102  23.700  1.00  0.00    -0.002 A 
ATOM     19  C   UNL A   1      29.408  28.293  23.040  1.00  0.00     0.067 A 
ATOM     20  C   UNL A   1      28.828  27.203  23.691  1.00  0.00     0.021 A 
ATOM     21  C   UNL A   1      30.770  28.289  22.707  1.00  0.00     0.021 A 
ATOM     22  C   UNL A   1      29.617  26.098  24.005  1.00  0.00     0.011 A 
ATOM     23  C   UNL A   1      31.565  27.192  23.049  1.00  0.00     0.011 A 
BRANCH  19  24
ATOM     24  S   UNL A   1      28.421  29.717  22.635  1.00  0.00     0.175 S 
ATOM     25  C   UNL A   1      29.040  31.036  23.647  1.00  0.00     0.163 C 
ATOM     26  O   UNL A   1      27.069  29.439  23.072  1.00  0.00    -0.224 OA
ATOM     27  O   UNL A   1      28.713  30.031  21.246  1.00  0.00    -0.224 OA
ENDBRANCH  19  24
ENDBRANCH  14  18
BRANCH  17  28
ATOM     28  C   UNL A   1      32.354  21.469  23.937  1.00  0.00    -0.023 A 
ATOM     29  C   UNL A   1      32.560  20.198  24.502  1.00  0.00     0.009 A 
ATOM     30  C   UNL A   1      32.033  21.537  22.563  1.00  0.00     0.009 A 
ATOM     31  C   UNL A   1      32.476  19.044  23.715  1.00  0.00     0.039 A 
ATOM     32  C   UNL A   1      31.927  20.383  21.785  1.00  0.00     0.039 A 
ATOM     33  C   UNL A   1      32.155  19.146  22.368  1.00  0.00     0.123 A 
ATOM     34  F   UNL A   1      32.051  18.036  21.626  1.00  0.00    -0.207 F 
ENDBRANCH  17  28
ENDBRANCH   8  13
ENDBRANCH   4   7
ENDBRANCH   2   3
ENDBRANCH   1   2
BRANCH   1  35
ATOM     35  C   UNL A   1      41.925  24.787  25.811  1.00  0.00     0.023 C 
BRANCH  35  36
ATOM     36  C   UNL A   1      43.011  25.474  24.994  1.00  0.00     0.116 C 
BRANCH  36  37
ATOM     37  N   UNL A   1      44.335  24.908  25.201  1.00  0.00    -0.352 N 
ATOM     38  C   UNL A   1      45.163  25.034  26.290  1.00  0.00     0.251 C 
ATOM     39  H   UNL A   1      44.685  24.362  24.460  1.00  0.00     0.163 HD
ATOM     40  O   UNL A   1      46.297  24.567  26.265  1.00  0.00    -0.269 OA
BRANCH  38  41
ATOM     41  C   UNL A   1      44.694  25.777  27.477  1.00  0.00     0.039 A 
ATOM     42  C   UNL A   1      44.861  27.165  27.507  1.00  0.00     0.014 A 
ATOM     43  C   UNL A   1      44.067  25.117  28.537  1.00  0.00     0.014 A 
ATOM     44  C   UNL A   1      44.332  27.899  28.569  1.00  0.00     0.010 A 
ATOM     45  C   UNL A   1      43.480  25.856  29.559  1.00  0.00     0.010 A 
ATOM     46  C   UNL A   1      43.604  27.254  29.582  1.00  0.00    -0.014 A 
BRANCH  46  47
ATOM     47  C   UNL A   1      42.951  28.029  30.664  1.00  0.00     0.031 A 
ATOM     48  C   UNL A   1      41.619  28.680  30.429  1.00  0.00     0.074 A 
ATOM     49  C   UNL A   1      43.594  28.203  31.833  1.00  0.00     0.049 A 
ATOM     50  N   UNL A   1      40.916  29.438  31.232  1.00  0.00    -0.248 NA
ATOM     51  C   UNL A   1      41.007  28.475  29.107  1.00  0.00     0.031 C 
ATOM     52  C   UNL A   1      44.917  27.669  32.158  1.00  0.00     0.029 A 
ATOM     53  N   UNL A   1      43.224  28.887  32.964  1.00  0.00    -0.354 N 
ATOM     54  C   UNL A   1      39.790  29.811  30.509  1.00  0.00     0.074 A 
ATOM     55  C   UNL A   1      39.927  29.237  29.187  1.00  0.00     0.031 C 
ATOM     56  C   UNL A   1      45.239  28.025  33.412  1.00  0.00     0.029 A 
ATOM     57  C   UNL A   1      44.160  28.837  33.967  1.00  0.00     0.049 A 
ATOM     58  H   UNL A   1      42.370  29.369  33.048  1.00  0.00     0.167 HD
ATOM     59  C   UNL A   1      38.730  30.544  30.919  1.00  0.00     0.037 A 
ATOM     60  C   UNL A   1      44.148  29.385  35.197  1.00  0.00     0.037 A 
ATOM     61  C   UNL A   1      38.584  31.091  32.243  1.00  0.00     0.049 A 
ATOM     62  C   UNL A   1      42.953  30.186  35.632  1.00  0.00     0.074 A 
ATOM     63  C   UNL A   1      37.516  31.787  32.778  1.00  0.00     0.029 A 
ATOM     64  N   UNL A   1      39.544  31.001  33.241  1.00  0.00    -0.354 N 
ATOM     65  N   UNL A   1      41.859  30.468  34.966  1.00  0.00    -0.248 NA
ATOM     66  C   UNL A   1      42.988  30.740  36.992  1.00  0.00     0.031 C 
ATOM     67  C   UNL A   1      37.845  32.154  34.088  1.00  0.00     0.029 A 
ATOM     68  C   UNL A   1      39.101  31.649  34.383  1.00  0.00     0.049 A 
ATOM     69  H   UNL A   1      40.412  30.546  33.151  1.00  0.00     0.167 HD
ATOM     70  C   UNL A   1      41.067  31.210  35.831  1.00  0.00     0.074 A 
ATOM     71  C   UNL A   1      41.800  31.323  37.076  1.00  0.00     0.031 C 
ATOM     72  C   UNL A   1      39.843  31.750  35.613  1.00  0.00     0.037 A 
BRANCH  59  73
ATOM     73  C   UNL A   1      37.636  30.795  29.922  1.00  0.00     0.064 A 
ATOM     74  C   UNL A   1      37.503  32.033  29.274  1.00  0.00     0.173 A 
ATOM     75  C   UNL A   1      36.725  29.780  29.592  1.00  0.00     0.173 A 
ATOM     76  F   UNL A   1      38.340  33.039  29.564  1.00  0.00    -0.203 F 
ATOM     77  C   UNL A   1      36.479  32.254  28.356  1.00  0.00     0.198 A 
ATOM     78  C   UNL A   1      35.722  29.997  28.653  1.00  0.00     0.198 A 
ATOM     79  F   UNL A   1      36.812  28.577  30.179  1.00  0.00    -0.203 F 
ATOM     80  F   UNL A   1      36.341  33.460  27.789  1.00  0.00    -0.200 F 
ATOM     81  C   UNL A   1      35.594  31.235  28.041  1.00  0.00     0.200 A 
ATOM     82  F   UNL A   1      34.872  29.007  28.341  1.00  0.00    -0.200 F 
ATOM     83  F   UNL A   1      34.612  31.449  27.155  1.00  0.00    -0.200 F 
ENDBRANCH  59  73
BRANCH  60  84
ATOM     84  C   UNL A   1      45.293  29.160  36.116  1.00  0.00     0.064 A 
ATOM     85  C   UNL A   1      45.292  28.079  37.008  1.00  0.00     0.173 A 
ATOM     86  C   UNL A   1      46.409  30.008  36.116  1.00  0.00     0.173 A 
ATOM     87  F   UNL A   1      44.236  27.253  37.058  1.00  0.00    -0.203 F 
ATOM     88  C   UNL A   1      46.359  27.862  37.877  1.00  0.00     0.198 A 
ATOM     89  C   UNL A   1      47.487  29.777  36.968  1.00  0.00     0.198 A 
ATOM     90  F   UNL A   1      46.459  31.052  35.276  1.00  0.00    -0.203 F 
ATOM     91  F   UNL A   1      46.317  26.843  38.745  1.00  0.00    -0.200 F 
ATOM     92  C   UNL A   1      47.459  28.708  37.851  1.00  0.00     0.200 A 
ATOM     93  F   UNL A   1      48.553  30.588  36.932  1.00  0.00    -0.200 F 
ATOM     94  F   UNL A   1      48.487  28.496  38.683  1.00  0.00    -0.200 F 
ENDBRANCH  60  84
BRANCH  72  95
ATOM     95  C   UNL A   1      39.212  32.492  36.752  1.00  0.00     0.064 A 
ATOM     96  C   UNL A   1      39.592  33.803  37.075  1.00  0.00     0.173 A 
ATOM     97  C   UNL A   1      38.189  31.898  37.507  1.00  0.00     0.173 A 
ATOM     98  F   UNL A   1      40.576  34.407  36.393  1.00  0.00    -0.203 F 
ATOM     99  C   UNL A   1      38.986  34.483  38.129  1.00  0.00     0.198 A 
ATOM    100  C   UNL A   1      37.568  32.591  38.542  1.00  0.00     0.198 A 
ATOM    101  F   UNL A   1      37.786  30.648  37.234  1.00  0.00    -0.203 F 
ATOM    102  F   UNL A   1      39.397  35.719  38.449  1.00  0.00    -0.200 F 
ATOM    103  C   UNL A   1      37.972  33.880  38.856  1.00  0.00     0.200 A 
ATOM    104  F   UNL A   1      36.581  32.011  39.238  1.00  0.00    -0.200 F 
ATOM    105  F   UNL A   1      37.388  34.539  39.866  1.00  0.00    -0.200 F 
ENDBRANCH  72  95
ENDBRANCH  46  47
ENDBRANCH  38  41
ENDBRANCH  36  37
ENDBRANCH  35  36
ENDBRANCH   1  35
TORSDOF 15
ENDMDL
