MODEL 1
REMARK VINA RESULT:     -13.7      0.000      0.000
REMARK SMILES Cc1ccc(Nc2c(Cl)cccc2Cl)c(CC(=O)NCCCCNC(=O)c2ccc(-c3c4nc(c(-c5c(F)c(F)c(F)c(F)c5F)c5ccc([nH]5)c(-c5c(F)c(F)c(F)c(F)c5F)c5nc(c(-c6c(F)c(F)c(F)c(F)c6F)c6ccc3[nH]6)C=C5)C=C4)cc2)c1
REMARK SMILES IDX 21 1 20 2 19 3 17 4 18 5 16 7 15 8 1 9 2 10 3 11 90 12 4 13
REMARK SMILES IDX 5 14 6 15 7 17 8 18 13 19 9 20 10 21 12 22 14 23 11 24 22 25
REMARK SMILES IDX 23 26 24 27 25 28 26 30 27 31 28 32 89 33 29 34 88 35 30 36
REMARK SMILES IDX 31 37 32 38 82 39 33 40 87 41 81 42 83 43 34 44 86 45 80 46
REMARK SMILES IDX 79 47 35 49 67 50 47 51 66 52 48 53 51 54 65 55 84 56 49 57
REMARK SMILES IDX 50 58 64 60 85 61 52 62 36 63 37 64 45 65 38 66 39 67 43 68
REMARK SMILES IDX 46 69 40 70 41 71 44 72 42 73 68 74 69 75 77 76 70 77 71 78
REMARK SMILES IDX 75 79 78 80 72 81 73 82 76 83 74 84 53 85 54 86 62 87 55 88
REMARK SMILES IDX 56 89 60 90 63 91 57 92 58 93 61 94 59 95
REMARK H PARENT 19 6 6 16 24 29 83 48 51 59
REMARK Flexibility Score: inf
ROOT
ATOM      1  C   UNL A   1      31.775  29.349  27.209  1.00  0.00     0.023 C 
ENDROOT
BRANCH   1   2
ATOM      2  C   UNL A   1      32.217  28.166  26.330  1.00  0.00     0.116 C 
BRANCH   2   3
ATOM      3  N   UNL A   1      31.575  26.910  26.679  1.00  0.00    -0.356 N 
ATOM      4  C   UNL A   1      32.026  25.631  26.554  1.00  0.00     0.224 C 
ATOM      5  O   UNL A   1      31.252  24.709  26.825  1.00  0.00    -0.275 OA
ATOM      6  H   UNL A   1      30.674  26.997  27.067  1.00  0.00     0.163 HD
BRANCH   4   7
ATOM      7  C   UNL A   1      33.436  25.329  26.077  1.00  0.00     0.137 C 
BRANCH   7   8
ATOM      8  C   UNL A   1      33.488  24.769  24.673  1.00  0.00    -0.015 A 
ATOM      9  C   UNL A   1      32.231  25.936  21.256  1.00  0.00     0.044 C 
ATOM     10  C   UNL A   1      32.858  25.101  22.331  1.00  0.00    -0.051 A 
ATOM     11  C   UNL A   1      33.270  23.799  22.057  1.00  0.00     0.005 A 
ATOM     12  C   UNL A   1      33.002  25.589  23.631  1.00  0.00     0.009 A 
ATOM     13  C   UNL A   1      33.809  22.999  23.069  1.00  0.00     0.026 A 
ATOM     14  C   UNL A   1      33.924  23.455  24.393  1.00  0.00     0.042 A 
BRANCH  14  15
ATOM     15  N   UNL A   1      34.488  22.639  25.400  1.00  0.00    -0.353 N 
ATOM     16  H   UNL A   1      34.012  22.640  26.262  1.00  0.00     0.167 HD
BRANCH  15  17
ATOM     17  C   UNL A   1      35.644  21.820  25.344  1.00  0.00     0.076 A 
ATOM     18  C   UNL A   1      36.950  22.319  25.535  1.00  0.00     0.066 A 
ATOM     19  C   UNL A   1      35.516  20.457  25.001  1.00  0.00     0.066 A 
ATOM     20  Cl  UNL A   1      37.248  23.939  26.070  1.00  0.00    -0.082 Cl
ATOM     21  C   UNL A   1      38.070  21.496  25.360  1.00  0.00     0.023 A 
ATOM     22  C   UNL A   1      36.635  19.636  24.834  1.00  0.00     0.023 A 
ATOM     23  Cl  UNL A   1      33.956  19.747  24.736  1.00  0.00    -0.082 Cl
ATOM     24  C   UNL A   1      37.915  20.158  25.002  1.00  0.00     0.003 A 
ENDBRANCH  15  17
ENDBRANCH  14  15
ENDBRANCH   7   8
ENDBRANCH   4   7
ENDBRANCH   2   3
ENDBRANCH   1   2
BRANCH   1  25
ATOM     25  C   UNL A   1      32.720  30.551  27.234  1.00  0.00     0.023 C 
BRANCH  25  26
ATOM     26  C   UNL A   1      34.163  30.194  27.554  1.00  0.00     0.116 C 
BRANCH  26  27
ATOM     27  N   UNL A   1      34.863  31.169  28.381  1.00  0.00    -0.352 N 
ATOM     28  C   UNL A   1      36.043  31.023  29.095  1.00  0.00     0.251 C 
ATOM     29  H   UNL A   1      34.440  32.055  28.442  1.00  0.00     0.163 HD
ATOM     30  O   UNL A   1      36.458  31.929  29.801  1.00  0.00    -0.269 OA
BRANCH  28  31
ATOM     31  C   UNL A   1      36.875  29.812  28.877  1.00  0.00     0.039 A 
ATOM     32  C   UNL A   1      37.062  28.949  29.964  1.00  0.00     0.014 A 
ATOM     33  C   UNL A   1      37.640  29.664  27.725  1.00  0.00     0.014 A 
ATOM     34  C   UNL A   1      38.195  28.141  30.000  1.00  0.00     0.010 A 
ATOM     35  C   UNL A   1      38.816  28.946  27.802  1.00  0.00     0.010 A 
ATOM     36  C   UNL A   1      39.132  28.258  28.978  1.00  0.00    -0.014 A 
BRANCH  36  37
ATOM     37  C   UNL A   1      40.522  27.837  29.116  1.00  0.00     0.031 A 
ATOM     38  C   UNL A   1      40.957  26.503  28.664  1.00  0.00     0.074 A 
ATOM     39  C   UNL A   1      41.436  28.735  29.558  1.00  0.00     0.049 A 
ATOM     40  N   UNL A   1      42.115  26.004  28.933  1.00  0.00    -0.248 NA
ATOM     41  C   UNL A   1      40.093  25.581  27.929  1.00  0.00     0.031 C 
ATOM     42  C   UNL A   1      42.893  28.650  29.468  1.00  0.00     0.029 A 
ATOM     43  N   UNL A   1      41.210  29.824  30.420  1.00  0.00    -0.354 N 
ATOM     44  C   UNL A   1      42.263  24.869  28.179  1.00  0.00     0.074 A 
ATOM     45  C   UNL A   1      40.941  24.574  27.688  1.00  0.00     0.031 C 
ATOM     46  C   UNL A   1      43.429  29.388  30.452  1.00  0.00     0.029 A 
ATOM     47  C   UNL A   1      42.333  29.841  31.287  1.00  0.00     0.049 A 
ATOM     48  H   UNL A   1      40.441  30.439  30.422  1.00  0.00     0.167 HD
ATOM     49  C   UNL A   1      43.518  24.393  27.963  1.00  0.00     0.037 A 
ATOM     50  C   UNL A   1      42.191  29.560  32.615  1.00  0.00     0.037 A 
ATOM     51  C   UNL A   1      44.471  24.952  28.926  1.00  0.00     0.049 A 
ATOM     52  C   UNL A   1      42.963  28.349  33.101  1.00  0.00     0.074 A 
ATOM     53  C   UNL A   1      45.540  25.827  28.881  1.00  0.00     0.029 A 
ATOM     54  N   UNL A   1      44.209  24.742  30.271  1.00  0.00    -0.354 N 
ATOM     55  N   UNL A   1      43.673  27.565  32.337  1.00  0.00    -0.248 NA
ATOM     56  C   UNL A   1      42.901  27.869  34.483  1.00  0.00     0.031 C 
ATOM     57  C   UNL A   1      45.872  26.183  30.229  1.00  0.00     0.029 A 
ATOM     58  C   UNL A   1      45.027  25.497  31.083  1.00  0.00     0.049 A 
ATOM     59  H   UNL A   1      43.519  24.125  30.607  1.00  0.00     0.167 HD
ATOM     60  C   UNL A   1      44.100  26.487  33.066  1.00  0.00     0.074 A 
ATOM     61  C   UNL A   1      43.591  26.720  34.404  1.00  0.00     0.031 C 
ATOM     62  C   UNL A   1      44.801  25.452  32.519  1.00  0.00     0.037 A 
BRANCH  49  63
ATOM     63  C   UNL A   1      43.915  23.492  26.816  1.00  0.00     0.064 A 
ATOM     64  C   UNL A   1      43.427  22.170  26.747  1.00  0.00     0.173 A 
ATOM     65  C   UNL A   1      44.868  23.821  25.825  1.00  0.00     0.173 A 
ATOM     66  F   UNL A   1      42.539  21.712  27.640  1.00  0.00    -0.203 F 
ATOM     67  C   UNL A   1      43.858  21.262  25.771  1.00  0.00     0.198 A 
ATOM     68  C   UNL A   1      45.250  22.934  24.817  1.00  0.00     0.198 A 
ATOM     69  F   UNL A   1      45.527  24.985  25.826  1.00  0.00    -0.203 F 
ATOM     70  F   UNL A   1      43.407  20.000  25.792  1.00  0.00    -0.200 F 
ATOM     71  C   UNL A   1      44.756  21.649  24.797  1.00  0.00     0.200 A 
ATOM     72  F   UNL A   1      46.130  23.329  23.886  1.00  0.00    -0.200 F 
ATOM     73  F   UNL A   1      45.164  20.782  23.860  1.00  0.00    -0.200 F 
ENDBRANCH  49  63
BRANCH  50  74
ATOM     74  C   UNL A   1      40.884  30.016  33.162  1.00  0.00     0.064 A 
ATOM     75  C   UNL A   1      40.664  31.400  33.315  1.00  0.00     0.173 A 
ATOM     76  C   UNL A   1      39.763  29.179  33.185  1.00  0.00     0.173 A 
ATOM     77  F   UNL A   1      41.705  32.250  33.298  1.00  0.00    -0.203 F 
ATOM     78  C   UNL A   1      39.378  31.930  33.362  1.00  0.00     0.198 A 
ATOM     79  C   UNL A   1      38.475  29.713  33.257  1.00  0.00     0.198 A 
ATOM     80  F   UNL A   1      39.898  27.857  33.017  1.00  0.00    -0.203 F 
ATOM     81  F   UNL A   1      39.203  33.260  33.380  1.00  0.00    -0.200 F 
ATOM     82  C   UNL A   1      38.282  31.086  33.307  1.00  0.00     0.200 A 
ATOM     83  F   UNL A   1      37.414  28.897  33.172  1.00  0.00    -0.200 F 
ATOM     84  F   UNL A   1      37.044  31.594  33.256  1.00  0.00    -0.200 F 
ENDBRANCH  50  74
BRANCH  62  85
ATOM     85  C   UNL A   1      45.287  24.278  33.322  1.00  0.00     0.064 A 
ATOM     86  C   UNL A   1      44.487  23.146  33.551  1.00  0.00     0.173 A 
ATOM     87  C   UNL A   1      46.539  24.295  33.972  1.00  0.00     0.173 A 
ATOM     88  F   UNL A   1      43.256  23.060  33.027  1.00  0.00    -0.203 F 
ATOM     89  C   UNL A   1      44.932  22.080  34.338  1.00  0.00     0.198 A 
ATOM     90  C   UNL A   1      46.958  23.254  34.800  1.00  0.00     0.198 A 
ATOM     91  F   UNL A   1      47.401  25.307  33.802  1.00  0.00    -0.203 F 
ATOM     92  F   UNL A   1      44.160  20.994  34.482  1.00  0.00    -0.200 F 
ATOM     93  C   UNL A   1      46.161  22.139  34.970  1.00  0.00     0.200 A 
ATOM     94  F   UNL A   1      48.144  23.334  35.420  1.00  0.00    -0.200 F 
ATOM     95  F   UNL A   1      46.578  21.125  35.738  1.00  0.00    -0.200 F 
ENDBRANCH  62  85
ENDBRANCH  36  37
ENDBRANCH  28  31
ENDBRANCH  26  27
ENDBRANCH  25  26
ENDBRANCH   1  25
TORSDOF 14
ENDMDL
MODEL 2
REMARK VINA RESULT:     -13.6      4.112     10.411
REMARK SMILES Cc1ccc(Nc2c(Cl)cccc2Cl)c(CC(=O)NCCCCNC(=O)c2ccc(-c3c4nc(c(-c5c(F)c(F)c(F)c(F)c5F)c5ccc([nH]5)c(-c5c(F)c(F)c(F)c(F)c5F)c5nc(c(-c6c(F)c(F)c(F)c(F)c6F)c6ccc3[nH]6)C=C5)C=C4)cc2)c1
REMARK SMILES IDX 21 1 20 2 19 3 17 4 18 5 16 7 15 8 1 9 2 10 3 11 90 12 4 13
REMARK SMILES IDX 5 14 6 15 7 17 8 18 13 19 9 20 10 21 12 22 14 23 11 24 22 25
REMARK SMILES IDX 23 26 24 27 25 28 26 30 27 31 28 32 89 33 29 34 88 35 30 36
REMARK SMILES IDX 31 37 32 38 82 39 33 40 87 41 81 42 83 43 34 44 86 45 80 46
REMARK SMILES IDX 79 47 35 49 67 50 47 51 66 52 48 53 51 54 65 55 84 56 49 57
REMARK SMILES IDX 50 58 64 60 85 61 52 62 36 63 37 64 45 65 38 66 39 67 43 68
REMARK SMILES IDX 46 69 40 70 41 71 44 72 42 73 68 74 69 75 77 76 70 77 71 78
REMARK SMILES IDX 75 79 78 80 72 81 73 82 76 83 74 84 53 85 54 86 62 87 55 88
REMARK SMILES IDX 56 89 60 90 63 91 57 92 58 93 61 94 59 95
REMARK H PARENT 19 6 6 16 24 29 83 48 51 59
REMARK Flexibility Score: inf
ROOT
ATOM      1  C   UNL A   1      36.524  21.553  25.533  1.00  0.00     0.023 C 
ENDROOT
BRANCH   1   2
ATOM      2  C   UNL A   1      35.730  22.869  25.607  1.00  0.00     0.116 C 
BRANCH   2   3
ATOM      3  N   UNL A   1      35.271  23.344  24.313  1.00  0.00    -0.356 N 
ATOM      4  C   UNL A   1      34.588  24.478  23.988  1.00  0.00     0.224 C 
ATOM      5  O   UNL A   1      34.210  24.617  22.821  1.00  0.00    -0.275 OA
ATOM      6  H   UNL A   1      35.486  22.756  23.553  1.00  0.00     0.163 HD
BRANCH   4   7
ATOM      7  C   UNL A   1      34.275  25.541  25.025  1.00  0.00     0.137 C 
BRANCH   7   8
ATOM      8  C   UNL A   1      32.833  25.530  25.480  1.00  0.00    -0.015 A 
ATOM      9  C   UNL A   1      30.409  22.833  26.692  1.00  0.00     0.044 C 
ATOM     10  C   UNL A   1      30.965  24.160  26.274  1.00  0.00    -0.051 A 
ATOM     11  C   UNL A   1      30.123  25.258  26.126  1.00  0.00     0.005 A 
ATOM     12  C   UNL A   1      32.322  24.312  25.983  1.00  0.00     0.009 A 
ATOM     13  C   UNL A   1      30.630  26.485  25.687  1.00  0.00     0.026 A 
ATOM     14  C   UNL A   1      31.984  26.650  25.349  1.00  0.00     0.042 A 
BRANCH  14  15
ATOM     15  N   UNL A   1      32.482  27.903  24.924  1.00  0.00    -0.353 N 
ATOM     16  H   UNL A   1      33.003  27.890  24.089  1.00  0.00     0.167 HD
BRANCH  15  17
ATOM     17  C   UNL A   1      32.338  29.176  25.533  1.00  0.00     0.076 A 
ATOM     18  C   UNL A   1      33.140  29.608  26.609  1.00  0.00     0.066 A 
ATOM     19  C   UNL A   1      31.298  30.034  25.114  1.00  0.00     0.066 A 
ATOM     20  Cl  UNL A   1      34.520  28.711  27.150  1.00  0.00    -0.082 Cl
ATOM     21  C   UNL A   1      32.889  30.828  27.252  1.00  0.00     0.023 A 
ATOM     22  C   UNL A   1      31.055  31.254  25.753  1.00  0.00     0.023 A 
ATOM     23  Cl  UNL A   1      30.251  29.593  23.805  1.00  0.00    -0.082 Cl
ATOM     24  C   UNL A   1      31.843  31.646  26.831  1.00  0.00     0.003 A 
ENDBRANCH  15  17
ENDBRANCH  14  15
ENDBRANCH   7   8
ENDBRANCH   4   7
ENDBRANCH   2   3
ENDBRANCH   1   2
BRANCH   1  25
ATOM     25  C   UNL A   1      38.047  21.689  25.563  1.00  0.00     0.023 C 
BRANCH  25  26
ATOM     26  C   UNL A   1      38.535  23.022  26.108  1.00  0.00     0.116 C 
BRANCH  26  27
ATOM     27  N   UNL A   1      39.942  23.046  26.491  1.00  0.00    -0.352 N 
ATOM     28  C   UNL A   1      40.720  24.121  26.894  1.00  0.00     0.251 C 
ATOM     29  H   UNL A   1      40.405  22.178  26.459  1.00  0.00     0.163 HD
ATOM     30  O   UNL A   1      41.914  23.977  27.112  1.00  0.00    -0.269 OA
BRANCH  28  31
ATOM     31  C   UNL A   1      40.062  25.416  27.200  1.00  0.00     0.039 A 
ATOM     32  C   UNL A   1      40.425  26.528  26.429  1.00  0.00     0.014 A 
ATOM     33  C   UNL A   1      39.307  25.581  28.357  1.00  0.00     0.014 A 
ATOM     34  C   UNL A   1      40.279  27.802  26.969  1.00  0.00     0.010 A 
ATOM     35  C   UNL A   1      39.257  26.832  28.939  1.00  0.00     0.010 A 
ATOM     36  C   UNL A   1      39.826  27.926  28.280  1.00  0.00    -0.014 A 
BRANCH  36  37
ATOM     37  C   UNL A   1      40.058  29.112  29.096  1.00  0.00     0.031 A 
ATOM     38  C   UNL A   1      39.061  30.198  29.153  1.00  0.00     0.074 A 
ATOM     39  C   UNL A   1      41.149  29.152  29.897  1.00  0.00     0.049 A 
ATOM     40  N   UNL A   1      39.289  31.345  29.695  1.00  0.00    -0.248 NA
ATOM     41  C   UNL A   1      37.740  30.110  28.535  1.00  0.00     0.031 C 
ATOM     42  C   UNL A   1      41.409  30.059  31.015  1.00  0.00     0.029 A 
ATOM     43  N   UNL A   1      42.382  28.506  29.688  1.00  0.00    -0.354 N 
ATOM     44  C   UNL A   1      38.095  32.013  29.770  1.00  0.00     0.074 A 
ATOM     45  C   UNL A   1      37.200  31.274  28.916  1.00  0.00     0.031 C 
ATOM     46  C   UNL A   1      42.737  30.166  31.182  1.00  0.00     0.029 A 
ATOM     47  C   UNL A   1      43.361  29.453  30.085  1.00  0.00     0.049 A 
ATOM     48  H   UNL A   1      42.532  27.596  29.342  1.00  0.00     0.167 HD
ATOM     49  C   UNL A   1      37.983  33.043  30.651  1.00  0.00     0.037 A 
ATOM     50  C   UNL A   1      44.204  30.009  29.166  1.00  0.00     0.037 A 
ATOM     51  C   UNL A   1      39.300  33.524  31.076  1.00  0.00     0.049 A 
ATOM     52  C   UNL A   1      44.098  31.515  29.028  1.00  0.00     0.074 A 
ATOM     53  C   UNL A   1      40.040  33.513  32.245  1.00  0.00     0.029 A 
ATOM     54  N   UNL A   1      40.165  33.963  30.085  1.00  0.00    -0.354 N 
ATOM     55  N   UNL A   1      43.241  32.262  29.668  1.00  0.00    -0.248 NA
ATOM     56  C   UNL A   1      44.891  32.282  28.065  1.00  0.00     0.031 C 
ATOM     57  C   UNL A   1      41.381  33.896  31.918  1.00  0.00     0.029 A 
ATOM     58  C   UNL A   1      41.441  34.170  30.564  1.00  0.00     0.049 A 
ATOM     59  H   UNL A   1      39.899  34.108  29.149  1.00  0.00     0.167 HD
ATOM     60  C   UNL A   1      43.310  33.544  29.192  1.00  0.00     0.074 A 
ATOM     61  C   UNL A   1      44.356  33.508  28.188  1.00  0.00     0.031 C 
ATOM     62  C   UNL A   1      42.479  34.539  29.615  1.00  0.00     0.037 A 
BRANCH  49  63
ATOM     63  C   UNL A   1      36.679  33.561  31.213  1.00  0.00     0.064 A 
ATOM     64  C   UNL A   1      36.344  33.328  32.564  1.00  0.00     0.173 A 
ATOM     65  C   UNL A   1      35.661  34.177  30.451  1.00  0.00     0.173 A 
ATOM     66  F   UNL A   1      37.203  32.726  33.398  1.00  0.00    -0.203 F 
ATOM     67  C   UNL A   1      35.099  33.682  33.100  1.00  0.00     0.198 A 
ATOM     68  C   UNL A   1      34.444  34.584  31.002  1.00  0.00     0.198 A 
ATOM     69  F   UNL A   1      35.762  34.348  29.129  1.00  0.00    -0.203 F 
ATOM     70  F   UNL A   1      34.813  33.381  34.374  1.00  0.00    -0.200 F 
ATOM     71  C   UNL A   1      34.156  34.326  32.323  1.00  0.00     0.200 A 
ATOM     72  F   UNL A   1      33.540  35.201  30.226  1.00  0.00    -0.200 F 
ATOM     73  F   UNL A   1      32.968  34.671  32.836  1.00  0.00    -0.200 F 
ENDBRANCH  49  63
BRANCH  50  74
ATOM     74  C   UNL A   1      44.550  29.071  28.063  1.00  0.00     0.064 A 
ATOM     75  C   UNL A   1      45.400  27.984  28.346  1.00  0.00     0.173 A 
ATOM     76  C   UNL A   1      43.799  29.013  26.884  1.00  0.00     0.173 A 
ATOM     77  F   UNL A   1      46.142  27.986  29.467  1.00  0.00    -0.203 F 
ATOM     78  C   UNL A   1      45.404  26.840  27.553  1.00  0.00     0.198 A 
ATOM     79  C   UNL A   1      43.825  27.874  26.077  1.00  0.00     0.198 A 
ATOM     80  F   UNL A   1      42.950  30.001  26.569  1.00  0.00    -0.203 F 
ATOM     81  F   UNL A   1      46.130  25.774  27.920  1.00  0.00    -0.200 F 
ATOM     82  C   UNL A   1      44.596  26.776  26.431  1.00  0.00     0.200 A 
ATOM     83  F   UNL A   1      43.017  27.801  25.008  1.00  0.00    -0.200 F 
ATOM     84  F   UNL A   1      44.523  25.645  25.717  1.00  0.00    -0.200 F 
ENDBRANCH  50  74
BRANCH  62  85
ATOM     85  C   UNL A   1      42.568  35.951  29.106  1.00  0.00     0.064 A 
ATOM     86  C   UNL A   1      41.907  36.368  27.938  1.00  0.00     0.173 A 
ATOM     87  C   UNL A   1      43.402  36.906  29.723  1.00  0.00     0.173 A 
ATOM     88  F   UNL A   1      41.138  35.517  27.245  1.00  0.00    -0.203 F 
ATOM     89  C   UNL A   1      42.034  37.671  27.450  1.00  0.00     0.198 A 
ATOM     90  C   UNL A   1      43.569  38.189  29.203  1.00  0.00     0.198 A 
ATOM     91  F   UNL A   1      44.057  36.633  30.860  1.00  0.00    -0.203 F 
ATOM     92  F   UNL A   1      41.340  38.044  26.366  1.00  0.00    -0.200 F 
ATOM     93  C   UNL A   1      42.873  38.577  28.074  1.00  0.00     0.200 A 
ATOM     94  F   UNL A   1      44.398  39.050  29.810  1.00  0.00    -0.200 F 
ATOM     95  F   UNL A   1      43.007  39.820  27.594  1.00  0.00    -0.200 F 
ENDBRANCH  62  85
ENDBRANCH  36  37
ENDBRANCH  28  31
ENDBRANCH  26  27
ENDBRANCH  25  26
ENDBRANCH   1  25
TORSDOF 14
ENDMDL
MODEL 3
REMARK VINA RESULT:     -13.3      3.976     10.177
REMARK SMILES Cc1ccc(Nc2c(Cl)cccc2Cl)c(CC(=O)NCCCCNC(=O)c2ccc(-c3c4nc(c(-c5c(F)c(F)c(F)c(F)c5F)c5ccc([nH]5)c(-c5c(F)c(F)c(F)c(F)c5F)c5nc(c(-c6c(F)c(F)c(F)c(F)c6F)c6ccc3[nH]6)C=C5)C=C4)cc2)c1
REMARK SMILES IDX 21 1 20 2 19 3 17 4 18 5 16 7 15 8 1 9 2 10 3 11 90 12 4 13
REMARK SMILES IDX 5 14 6 15 7 17 8 18 13 19 9 20 10 21 12 22 14 23 11 24 22 25
REMARK SMILES IDX 23 26 24 27 25 28 26 30 27 31 28 32 89 33 29 34 88 35 30 36
REMARK SMILES IDX 31 37 32 38 82 39 33 40 87 41 81 42 83 43 34 44 86 45 80 46
REMARK SMILES IDX 79 47 35 49 67 50 47 51 66 52 48 53 51 54 65 55 84 56 49 57
REMARK SMILES IDX 50 58 64 60 85 61 52 62 36 63 37 64 45 65 38 66 39 67 43 68
REMARK SMILES IDX 46 69 40 70 41 71 44 72 42 73 68 74 69 75 77 76 70 77 71 78
REMARK SMILES IDX 75 79 78 80 72 81 73 82 76 83 74 84 53 85 54 86 62 87 55 88
REMARK SMILES IDX 56 89 60 90 63 91 57 92 58 93 61 94 59 95
REMARK H PARENT 19 6 6 16 24 29 83 48 51 59
REMARK Flexibility Score: inf
ROOT
ATOM      1  C   UNL A   1      37.672  20.991  24.757  1.00  0.00     0.023 C 
ENDROOT
BRANCH   1   2
ATOM      2  C   UNL A   1      36.210  20.806  25.199  1.00  0.00     0.116 C 
BRANCH   2   3
ATOM      3  N   UNL A   1      35.774  21.779  26.186  1.00  0.00    -0.356 N 
ATOM      4  C   UNL A   1      34.561  21.932  26.789  1.00  0.00     0.224 C 
ATOM      5  O   UNL A   1      34.395  22.908  27.526  1.00  0.00    -0.275 OA
ATOM      6  H   UNL A   1      36.460  22.429  26.461  1.00  0.00     0.163 HD
BRANCH   4   7
ATOM      7  C   UNL A   1      33.430  20.946  26.558  1.00  0.00     0.137 C 
BRANCH   7   8
ATOM      8  C   UNL A   1      32.898  20.966  25.142  1.00  0.00    -0.015 A 
ATOM      9  C   UNL A   1      32.250  18.312  22.467  1.00  0.00     0.044 C 
ATOM     10  C   UNL A   1      32.355  19.638  23.158  1.00  0.00    -0.051 A 
ATOM     11  C   UNL A   1      32.164  20.818  22.445  1.00  0.00     0.005 A 
ATOM     12  C   UNL A   1      32.687  19.719  24.512  1.00  0.00     0.009 A 
ATOM     13  C   UNL A   1      32.310  22.058  23.075  1.00  0.00     0.026 A 
ATOM     14  C   UNL A   1      32.685  22.164  24.425  1.00  0.00     0.042 A 
BRANCH  14  15
ATOM     15  N   UNL A   1      32.810  23.426  25.050  1.00  0.00    -0.353 N 
ATOM     16  H   UNL A   1      33.634  23.559  25.572  1.00  0.00     0.167 HD
BRANCH  15  17
ATOM     17  C   UNL A   1      31.916  24.526  25.032  1.00  0.00     0.076 A 
ATOM     18  C   UNL A   1      30.695  24.536  25.738  1.00  0.00     0.066 A 
ATOM     19  C   UNL A   1      32.199  25.640  24.212  1.00  0.00     0.066 A 
ATOM     20  Cl  UNL A   1      30.273  23.292  26.868  1.00  0.00    -0.082 Cl
ATOM     21  C   UNL A   1      29.791  25.598  25.602  1.00  0.00     0.023 A 
ATOM     22  C   UNL A   1      31.298  26.701  24.083  1.00  0.00     0.023 A 
ATOM     23  Cl  UNL A   1      33.669  25.721  23.295  1.00  0.00    -0.082 Cl
ATOM     24  C   UNL A   1      30.087  26.675  24.770  1.00  0.00     0.003 A 
ENDBRANCH  15  17
ENDBRANCH  14  15
ENDBRANCH   7   8
ENDBRANCH   4   7
ENDBRANCH   2   3
ENDBRANCH   1   2
BRANCH   1  25
ATOM     25  C   UNL A   1      38.689  21.196  25.880  1.00  0.00     0.023 C 
BRANCH  25  26
ATOM     26  C   UNL A   1      39.131  22.640  26.054  1.00  0.00     0.116 C 
BRANCH  26  27
ATOM     27  N   UNL A   1      40.567  22.821  26.229  1.00  0.00    -0.352 N 
ATOM     28  C   UNL A   1      41.275  23.982  26.503  1.00  0.00     0.251 C 
ATOM     29  H   UNL A   1      41.111  22.006  26.140  1.00  0.00     0.163 HD
ATOM     30  O   UNL A   1      42.496  23.969  26.548  1.00  0.00    -0.269 OA
BRANCH  28  31
ATOM     31  C   UNL A   1      40.532  25.209  26.887  1.00  0.00     0.039 A 
ATOM     32  C   UNL A   1      40.787  26.377  26.159  1.00  0.00     0.014 A 
ATOM     33  C   UNL A   1      39.803  25.265  28.071  1.00  0.00     0.014 A 
ATOM     34  C   UNL A   1      40.564  27.612  26.761  1.00  0.00     0.010 A 
ATOM     35  C   UNL A   1      39.679  26.482  28.711  1.00  0.00     0.010 A 
ATOM     36  C   UNL A   1      40.144  27.644  28.087  1.00  0.00    -0.014 A 
BRANCH  36  37
ATOM     37  C   UNL A   1      40.311  28.807  28.951  1.00  0.00     0.031 A 
ATOM     38  C   UNL A   1      39.286  29.866  29.002  1.00  0.00     0.074 A 
ATOM     39  C   UNL A   1      41.368  28.846  29.798  1.00  0.00     0.049 A 
ATOM     40  N   UNL A   1      39.463  30.999  29.590  1.00  0.00    -0.248 NA
ATOM     41  C   UNL A   1      37.994  29.767  28.326  1.00  0.00     0.031 C 
ATOM     42  C   UNL A   1      41.559  29.721  30.955  1.00  0.00     0.029 A 
ATOM     43  N   UNL A   1      42.624  28.237  29.620  1.00  0.00    -0.354 N 
ATOM     44  C   UNL A   1      38.250  31.636  29.637  1.00  0.00     0.074 A 
ATOM     45  C   UNL A   1      37.410  30.904  28.723  1.00  0.00     0.031 C 
ATOM     46  C   UNL A   1      42.875  29.854  31.180  1.00  0.00     0.029 A 
ATOM     47  C   UNL A   1      43.561  29.193  30.088  1.00  0.00     0.049 A 
ATOM     48  H   UNL A   1      42.811  27.344  29.250  1.00  0.00     0.167 HD
ATOM     49  C   UNL A   1      38.076  32.633  30.546  1.00  0.00     0.037 A 
ATOM     50  C   UNL A   1      44.427  29.800  29.224  1.00  0.00     0.037 A 
ATOM     51  C   UNL A   1      39.362  33.130  31.040  1.00  0.00     0.049 A 
ATOM     52  C   UNL A   1      44.289  31.307  29.130  1.00  0.00     0.074 A 
ATOM     53  C   UNL A   1      40.053  33.098  32.238  1.00  0.00     0.029 A 
ATOM     54  N   UNL A   1      40.255  33.622  30.102  1.00  0.00    -0.354 N 
ATOM     55  N   UNL A   1      43.387  32.011  29.758  1.00  0.00    -0.248 NA
ATOM     56  C   UNL A   1      45.101  32.125  28.226  1.00  0.00     0.031 C 
ATOM     57  C   UNL A   1      41.397  33.523  31.981  1.00  0.00     0.029 A 
ATOM     58  C   UNL A   1      41.504  33.844  30.640  1.00  0.00     0.049 A 
ATOM     59  H   UNL A   1      40.024  33.793  29.160  1.00  0.00     0.167 HD
ATOM     60  C   UNL A   1      43.444  33.310  29.327  1.00  0.00     0.074 A 
ATOM     61  C   UNL A   1      44.531  33.333  28.367  1.00  0.00     0.031 C 
ATOM     62  C   UNL A   1      42.571  34.270  29.747  1.00  0.00     0.037 A 
BRANCH  49  63
ATOM     63  C   UNL A   1      36.737  33.099  31.069  1.00  0.00     0.064 A 
ATOM     64  C   UNL A   1      35.897  33.898  30.265  1.00  0.00     0.173 A 
ATOM     65  C   UNL A   1      36.278  32.907  32.392  1.00  0.00     0.173 A 
ATOM     66  F   UNL A   1      36.221  34.187  28.997  1.00  0.00    -0.203 F 
ATOM     67  C   UNL A   1      34.704  34.452  30.746  1.00  0.00     0.198 A 
ATOM     68  C   UNL A   1      35.058  33.410  32.851  1.00  0.00     0.198 A 
ATOM     69  F   UNL A   1      37.014  32.289  33.321  1.00  0.00    -0.203 F 
ATOM     70  F   UNL A   1      33.977  35.254  29.956  1.00  0.00    -0.200 F 
ATOM     71  C   UNL A   1      34.277  34.194  32.033  1.00  0.00     0.200 A 
ATOM     72  F   UNL A   1      34.667  33.152  34.108  1.00  0.00    -0.200 F 
ATOM     73  F   UNL A   1      33.133  34.719  32.492  1.00  0.00    -0.200 F 
ENDBRANCH  49  63
BRANCH  50  74
ATOM     74  C   UNL A   1      44.842  28.909  28.106  1.00  0.00     0.064 A 
ATOM     75  C   UNL A   1      45.750  27.866  28.378  1.00  0.00     0.173 A 
ATOM     76  C   UNL A   1      44.111  28.833  26.915  1.00  0.00     0.173 A 
ATOM     77  F   UNL A   1      46.476  27.887  29.508  1.00  0.00    -0.203 F 
ATOM     78  C   UNL A   1      45.831  26.743  27.560  1.00  0.00     0.198 A 
ATOM     79  C   UNL A   1      44.214  27.715  26.085  1.00  0.00     0.198 A 
ATOM     80  F   UNL A   1      43.210  29.776  26.608  1.00  0.00    -0.203 F 
ATOM     81  F   UNL A   1      46.613  25.712  27.915  1.00  0.00    -0.200 F 
ATOM     82  C   UNL A   1      45.043  26.657  26.426  1.00  0.00     0.200 A 
ATOM     83  F   UNL A   1      43.426  27.619  25.003  1.00  0.00    -0.200 F 
ATOM     84  F   UNL A   1      45.046  25.539  25.687  1.00  0.00    -0.200 F 
ENDBRANCH  50  74
BRANCH  62  85
ATOM     85  C   UNL A   1      42.645  35.700  29.289  1.00  0.00     0.064 A 
ATOM     86  C   UNL A   1      42.037  36.136  28.100  1.00  0.00     0.173 A 
ATOM     87  C   UNL A   1      43.415  36.658  29.981  1.00  0.00     0.173 A 
ATOM     88  F   UNL A   1      41.334  35.287  27.338  1.00  0.00    -0.203 F 
ATOM     89  C   UNL A   1      42.151  37.458  27.660  1.00  0.00     0.198 A 
ATOM     90  C   UNL A   1      43.571  37.962  29.512  1.00  0.00     0.198 A 
ATOM     91  F   UNL A   1      44.013  36.366  31.145  1.00  0.00    -0.203 F 
ATOM     92  F   UNL A   1      41.507  37.847  26.552  1.00  0.00    -0.200 F 
ATOM     93  C   UNL A   1      42.926  38.366  28.359  1.00  0.00     0.200 A 
ATOM     94  F   UNL A   1      44.339  38.825  30.191  1.00  0.00    -0.200 F 
ATOM     95  F   UNL A   1      43.049  39.627  27.927  1.00  0.00    -0.200 F 
ENDBRANCH  62  85
ENDBRANCH  36  37
ENDBRANCH  28  31
ENDBRANCH  26  27
ENDBRANCH  25  26
ENDBRANCH   1  25
TORSDOF 14
ENDMDL
