MODEL 1
REMARK VINA RESULT:     -13.1      0.000      0.000
REMARK SMILES C[C@]12CC[C@@H]3[C@@H](CCC4=C/C(=N\OCC(=O)N5CCC[C@@H]5C(=O)NCCCCNC(=O)c5ccc(-c6c7nc(c(-c8c(F)c(F)c(F)c(F)c8F)c8ccc([nH]8)c(-c8c(F)c(F)c(F)c(F)c8F)c8nc(c(-c9c(F)c(F)c(F)c(F)c9F)c9ccc6[nH]9)C=C8)C=C7)cc5)CC[C@@]43C)[C@@H]1CC[C@@H]2O
REMARK SMILES IDX 25 1 24 2 22 3 23 4 21 6 17 7 18 8 19 9 20 10 15 11 16 12
REMARK SMILES IDX 14 13 13 14 12 15 1 16 2 17 3 18 99 19 102 20 4 21 6 22
REMARK SMILES IDX 100 23 101 24 5 25 7 26 97 27 8 28 9 29 96 30 98 31 10 32
REMARK SMILES IDX 95 33 11 34 103 35 26 37 27 38 28 39 29 40 30 41 31 43 32 44
REMARK SMILES IDX 33 45 94 46 34 47 93 48 35 49 36 50 37 51 87 52 38 53 92 54
REMARK SMILES IDX 86 55 88 56 39 57 91 58 85 59 84 60 40 62 72 63 52 64 71 65
REMARK SMILES IDX 53 66 56 67 70 68 89 69 54 70 55 71 69 73 90 74 57 75 41 76
REMARK SMILES IDX 42 77 50 78 43 79 44 80 48 81 51 82 45 83 46 84 49 85 47 86
REMARK SMILES IDX 73 87 74 88 82 89 75 90 76 91 80 92 83 93 77 94 78 95 81 96
REMARK SMILES IDX 79 97 58 98 59 99 67 100 60 101 61 102 65 103 68 104 62 105
REMARK SMILES IDX 63 106 66 107 64 108
REMARK H PARENT 24 5 103 36 29 42 88 61 56 72
REMARK Flexibility Score: inf
ROOT
ATOM      1  C   UNL A   1      32.480  28.959  24.000  1.00  0.00     0.116 C 
ENDROOT
BRANCH   1   2
ATOM      2  N   UNL A   1      31.697  29.092  22.775  1.00  0.00    -0.354 N 
ATOM      3  C   UNL A   1      30.429  29.521  22.466  1.00  0.00     0.242 C 
ATOM      4  O   UNL A   1      30.118  29.519  21.270  1.00  0.00    -0.273 OA
ATOM      5  H   UNL A   1      32.199  28.805  21.979  1.00  0.00     0.163 HD
BRANCH   3   6
ATOM      6  C   UNL A   1      29.449  30.011  23.549  1.00  0.00     0.174 C 
ATOM      7  N   UNL A   1      27.991  29.831  23.383  1.00  0.00    -0.328 N 
ATOM      8  C   UNL A   1      27.287  31.030  23.810  1.00  0.00     0.120 C 
ATOM      9  C   UNL A   1      28.200  32.156  23.408  1.00  0.00     0.024 C 
ATOM     10  C   UNL A   1      29.597  31.570  23.602  1.00  0.00     0.037 C 
BRANCH   7  11
ATOM     11  C   UNL A   1      27.244  28.682  23.230  1.00  0.00     0.264 C 
ATOM     12  O   UNL A   1      26.203  28.704  22.558  1.00  0.00    -0.271 OA
BRANCH  11  13
ATOM     13  C   UNL A   1      27.608  27.381  23.950  1.00  0.00     0.363 C 
BRANCH  13  14
ATOM     14  O   UNL A   1      28.842  26.738  23.705  1.00  0.00    -0.385 OA
BRANCH  14  15
ATOM     15  N   UNL A   1      29.530  26.570  24.904  1.00  0.00    -0.091 NA
ATOM     16  C   UNL A   1      36.549  21.415  25.970  1.00  0.00     0.014 C 
ATOM     17  C   UNL A   1      35.620  22.610  25.609  1.00  0.00    -0.003 C 
ATOM     18  C   UNL A   1      34.745  22.856  26.829  1.00  0.00     0.010 C 
ATOM     19  C   UNL A   1      34.789  22.480  24.305  1.00  0.00     0.001 C 
ATOM     20  C   UNL A   1      36.462  23.805  25.138  1.00  0.00     0.120 C 
ATOM     21  C   UNL A   1      33.561  21.871  26.859  1.00  0.00     0.005 C 
ATOM     22  C   UNL A   1      33.631  21.502  24.340  1.00  0.00    -0.003 C 
ATOM     23  C   UNL A   1      35.885  22.320  23.262  1.00  0.00     0.007 C 
ATOM     24  C   UNL A   1      36.975  23.288  23.785  1.00  0.00     0.032 C 
ATOM     25  C   UNL A   1      32.726  21.811  25.557  1.00  0.00     0.002 C 
ATOM     26  C   UNL A   1      32.780  21.470  23.063  1.00  0.00     0.008 C 
ATOM     27  C   UNL A   1      31.690  23.006  25.407  1.00  0.00    -0.008 C 
ATOM     28  C   UNL A   1      31.949  22.727  22.793  1.00  0.00     0.032 C 
ATOM     29  C   UNL A   1      31.431  23.495  23.987  1.00  0.00    -0.062 C 
ATOM     30  C   UNL A   1      32.112  24.286  26.180  1.00  0.00     0.018 C 
ATOM     31  C   UNL A   1      30.347  22.474  25.979  1.00  0.00     0.016 C 
ATOM     32  C   UNL A   1      30.798  24.675  23.794  1.00  0.00     0.027 C 
ATOM     33  C   UNL A   1      31.076  25.391  26.227  1.00  0.00     0.061 C 
ATOM     34  C   UNL A   1      30.381  25.590  24.907  1.00  0.00     0.080 C 
BRANCH  20  35
ATOM     35  O   UNL A   1      37.484  24.194  26.022  1.00  0.00    -0.393 OA
ATOM     36  H   UNL A   1      37.853  23.409  26.455  1.00  0.00     0.210 HD
ENDBRANCH  20  35
ENDBRANCH  14  15
ENDBRANCH  13  14
ENDBRANCH  11  13
ENDBRANCH   7  11
ENDBRANCH   3   6
ENDBRANCH   1   2
BRANCH   1  37
ATOM     37  C   UNL A   1      31.811  29.176  25.383  1.00  0.00     0.023 C 
BRANCH  37  38
ATOM     38  C   UNL A   1      32.278  28.511  26.707  1.00  0.00     0.023 C 
BRANCH  38  39
ATOM     39  C   UNL A   1      33.663  28.845  27.300  1.00  0.00     0.116 C 
BRANCH  39  40
ATOM     40  N   UNL A   1      33.767  30.247  27.687  1.00  0.00    -0.352 N 
ATOM     41  C   UNL A   1      34.707  30.945  28.407  1.00  0.00     0.251 C 
ATOM     42  H   UNL A   1      33.018  30.803  27.370  1.00  0.00     0.163 HD
ATOM     43  O   UNL A   1      34.401  32.087  28.794  1.00  0.00    -0.269 OA
BRANCH  41  44
ATOM     44  C   UNL A   1      36.074  30.455  28.736  1.00  0.00     0.039 A 
ATOM     45  C   UNL A   1      37.059  30.424  27.733  1.00  0.00     0.014 A 
ATOM     46  C   UNL A   1      36.362  29.824  29.940  1.00  0.00     0.014 A 
ATOM     47  C   UNL A   1      38.330  29.838  27.952  1.00  0.00     0.010 A 
ATOM     48  C   UNL A   1      37.633  29.246  30.143  1.00  0.00     0.010 A 
ATOM     49  C   UNL A   1      38.672  29.276  29.189  1.00  0.00    -0.014 A 
BRANCH  49  50
ATOM     50  C   UNL A   1      40.086  28.823  29.544  1.00  0.00     0.031 A 
ATOM     51  C   UNL A   1      41.132  29.768  30.140  1.00  0.00     0.074 A 
ATOM     52  C   UNL A   1      40.561  27.642  29.072  1.00  0.00     0.049 A 
ATOM     53  N   UNL A   1      42.438  29.618  30.245  1.00  0.00    -0.248 NA
ATOM     54  C   UNL A   1      40.661  31.081  30.594  1.00  0.00     0.031 C 
ATOM     55  C   UNL A   1      39.798  26.664  28.296  1.00  0.00     0.029 A 
ATOM     56  N   UNL A   1      41.836  27.101  29.102  1.00  0.00    -0.354 N 
ATOM     57  C   UNL A   1      42.943  30.839  30.687  1.00  0.00     0.074 A 
ATOM     58  C   UNL A   1      41.802  31.726  30.800  1.00  0.00     0.031 C 
ATOM     59  C   UNL A   1      40.606  25.658  27.925  1.00  0.00     0.029 A 
ATOM     60  C   UNL A   1      41.959  25.920  28.406  1.00  0.00     0.049 A 
ATOM     61  H   UNL A   1      42.586  27.523  29.580  1.00  0.00     0.167 HD
ATOM     62  C   UNL A   1      44.221  31.197  30.993  1.00  0.00     0.037 A 
ATOM     63  C   UNL A   1      43.022  25.127  28.151  1.00  0.00     0.037 A 
ATOM     64  C   UNL A   1      45.364  30.310  30.999  1.00  0.00     0.049 A 
ATOM     65  C   UNL A   1      44.395  25.459  28.668  1.00  0.00     0.074 A 
ATOM     66  C   UNL A   1      46.629  30.539  31.524  1.00  0.00     0.029 A 
ATOM     67  N   UNL A   1      45.394  29.040  30.452  1.00  0.00    -0.354 N 
ATOM     68  N   UNL A   1      44.812  26.543  29.265  1.00  0.00    -0.248 NA
ATOM     69  C   UNL A   1      45.442  24.437  28.490  1.00  0.00     0.031 C 
ATOM     70  C   UNL A   1      47.432  29.423  31.267  1.00  0.00     0.029 A 
ATOM     71  C   UNL A   1      46.652  28.476  30.630  1.00  0.00     0.049 A 
ATOM     72  H   UNL A   1      44.636  28.601  30.001  1.00  0.00     0.167 HD
ATOM     73  C   UNL A   1      46.150  26.319  29.571  1.00  0.00     0.074 A 
ATOM     74  C   UNL A   1      46.480  24.996  29.095  1.00  0.00     0.031 C 
ATOM     75  C   UNL A   1      47.011  27.149  30.204  1.00  0.00     0.037 A 
BRANCH  62  76
ATOM     76  C   UNL A   1      44.485  32.620  31.422  1.00  0.00     0.064 A 
ATOM     77  C   UNL A   1      44.399  33.013  32.766  1.00  0.00     0.173 A 
ATOM     78  C   UNL A   1      44.940  33.576  30.496  1.00  0.00     0.173 A 
ATOM     79  F   UNL A   1      43.991  32.138  33.699  1.00  0.00    -0.203 F 
ATOM     80  C   UNL A   1      44.709  34.312  33.160  1.00  0.00     0.198 A 
ATOM     81  C   UNL A   1      45.292  34.863  30.901  1.00  0.00     0.198 A 
ATOM     82  F   UNL A   1      45.079  33.255  29.200  1.00  0.00    -0.203 F 
ATOM     83  F   UNL A   1      44.563  34.672  34.443  1.00  0.00    -0.200 F 
ATOM     84  C   UNL A   1      45.163  35.233  32.230  1.00  0.00     0.200 A 
ATOM     85  F   UNL A   1      45.762  35.744  30.006  1.00  0.00    -0.200 F 
ATOM     86  F   UNL A   1      45.479  36.478  32.616  1.00  0.00    -0.200 F 
ENDBRANCH  62  76
BRANCH  63  87
ATOM     87  C   UNL A   1      42.826  23.863  27.393  1.00  0.00     0.064 A 
ATOM     88  C   UNL A   1      42.392  22.704  28.054  1.00  0.00     0.173 A 
ATOM     89  C   UNL A   1      43.098  23.779  26.023  1.00  0.00     0.173 A 
ATOM     90  F   UNL A   1      42.147  22.738  29.372  1.00  0.00    -0.203 F 
ATOM     91  C   UNL A   1      42.264  21.496  27.375  1.00  0.00     0.198 A 
ATOM     92  C   UNL A   1      42.949  22.573  25.340  1.00  0.00     0.198 A 
ATOM     93  F   UNL A   1      43.500  24.867  25.348  1.00  0.00    -0.203 F 
ATOM     94  F   UNL A   1      41.895  20.394  28.039  1.00  0.00    -0.200 F 
ATOM     95  C   UNL A   1      42.541  21.432  26.017  1.00  0.00     0.200 A 
ATOM     96  F   UNL A   1      43.206  22.514  24.026  1.00  0.00    -0.200 F 
ATOM     97  F   UNL A   1      42.423  20.268  25.364  1.00  0.00    -0.200 F 
ENDBRANCH  63  87
BRANCH  75  98
ATOM     98  C   UNL A   1      48.385  26.631  30.528  1.00  0.00     0.064 A 
ATOM     99  C   UNL A   1      49.488  26.850  29.690  1.00  0.00     0.173 A 
ATOM    100  C   UNL A   1      48.600  25.915  31.716  1.00  0.00     0.173 A 
ATOM    101  F   UNL A   1      49.339  27.511  28.533  1.00  0.00    -0.203 F 
ATOM    102  C   UNL A   1      50.749  26.351  30.019  1.00  0.00     0.198 A 
ATOM    103  C   UNL A   1      49.866  25.441  32.054  1.00  0.00     0.198 A 
ATOM    104  F   UNL A   1      47.581  25.676  32.555  1.00  0.00    -0.203 F 
ATOM    105  F   UNL A   1      51.780  26.533  29.181  1.00  0.00    -0.200 F 
ATOM    106  C   UNL A   1      50.939  25.654  31.202  1.00  0.00     0.200 A 
ATOM    107  F   UNL A   1      50.046  24.774  33.203  1.00  0.00    -0.200 F 
ATOM    108  F   UNL A   1      52.151  25.178  31.518  1.00  0.00    -0.200 F 
ENDBRANCH  75  98
ENDBRANCH  49  50
ENDBRANCH  41  44
ENDBRANCH  39  40
ENDBRANCH  38  39
ENDBRANCH  37  38
ENDBRANCH   1  37
TORSDOF 16
ENDMDL
MODEL 2
REMARK VINA RESULT:     -13.0      3.755      9.319
REMARK SMILES C[C@]12CC[C@@H]3[C@@H](CCC4=C/C(=N\OCC(=O)N5CCC[C@@H]5C(=O)NCCCCNC(=O)c5ccc(-c6c7nc(c(-c8c(F)c(F)c(F)c(F)c8F)c8ccc([nH]8)c(-c8c(F)c(F)c(F)c(F)c8F)c8nc(c(-c9c(F)c(F)c(F)c(F)c9F)c9ccc6[nH]9)C=C8)C=C7)cc5)CC[C@@]43C)[C@@H]1CC[C@@H]2O
REMARK SMILES IDX 25 1 24 2 22 3 23 4 21 6 17 7 18 8 19 9 20 10 15 11 16 12
REMARK SMILES IDX 14 13 13 14 12 15 1 16 2 17 3 18 99 19 102 20 4 21 6 22
REMARK SMILES IDX 100 23 101 24 5 25 7 26 97 27 8 28 9 29 96 30 98 31 10 32
REMARK SMILES IDX 95 33 11 34 103 35 26 37 27 38 28 39 29 40 30 41 31 43 32 44
REMARK SMILES IDX 33 45 94 46 34 47 93 48 35 49 36 50 37 51 87 52 38 53 92 54
REMARK SMILES IDX 86 55 88 56 39 57 91 58 85 59 84 60 40 62 72 63 52 64 71 65
REMARK SMILES IDX 53 66 56 67 70 68 89 69 54 70 55 71 69 73 90 74 57 75 41 76
REMARK SMILES IDX 42 77 50 78 43 79 44 80 48 81 51 82 45 83 46 84 49 85 47 86
REMARK SMILES IDX 73 87 74 88 82 89 75 90 76 91 80 92 83 93 77 94 78 95 81 96
REMARK SMILES IDX 79 97 58 98 59 99 67 100 60 101 61 102 65 103 68 104 62 105
REMARK SMILES IDX 63 106 66 107 64 108
REMARK H PARENT 24 5 103 36 29 42 88 61 56 72
REMARK Flexibility Score: inf
ROOT
ATOM      1  C   UNL A   1      35.147  21.194  26.015  1.00  0.00     0.116 C 
ENDROOT
BRANCH   1   2
ATOM      2  N   UNL A   1      33.867  20.495  26.057  1.00  0.00    -0.354 N 
ATOM      3  C   UNL A   1      33.292  19.464  25.355  1.00  0.00     0.242 C 
ATOM      4  O   UNL A   1      32.161  19.113  25.710  1.00  0.00    -0.273 OA
ATOM      5  H   UNL A   1      33.273  20.847  26.758  1.00  0.00     0.163 HD
BRANCH   3   6
ATOM      6  C   UNL A   1      34.026  18.757  24.200  1.00  0.00     0.174 C 
ATOM      7  N   UNL A   1      33.272  17.994  23.182  1.00  0.00    -0.328 N 
ATOM      8  C   UNL A   1      33.962  16.750  22.876  1.00  0.00     0.120 C 
ATOM      9  C   UNL A   1      34.561  16.328  24.190  1.00  0.00     0.024 C 
ATOM     10  C   UNL A   1      34.922  17.653  24.860  1.00  0.00     0.037 C 
BRANCH   7  11
ATOM     11  C   UNL A   1      32.291  18.403  22.305  1.00  0.00     0.264 C 
ATOM     12  O   UNL A   1      31.541  17.567  21.778  1.00  0.00    -0.271 OA
BRANCH  11  13
ATOM     13  C   UNL A   1      32.152  19.865  21.874  1.00  0.00     0.363 C 
BRANCH  13  14
ATOM     14  O   UNL A   1      32.042  20.896  22.834  1.00  0.00    -0.385 OA
BRANCH  14  15
ATOM     15  N   UNL A   1      33.060  21.827  22.642  1.00  0.00    -0.091 NA
ATOM     16  C   UNL A   1      32.882  30.109  25.531  1.00  0.00     0.014 C 
ATOM     17  C   UNL A   1      33.032  28.562  25.452  1.00  0.00    -0.003 C 
ATOM     18  C   UNL A   1      33.865  28.275  24.213  1.00  0.00     0.010 C 
ATOM     19  C   UNL A   1      31.723  27.731  25.487  1.00  0.00     0.001 C 
ATOM     20  C   UNL A   1      33.595  28.022  26.776  1.00  0.00     0.120 C 
ATOM     21  C   UNL A   1      32.989  28.312  22.946  1.00  0.00     0.005 C 
ATOM     22  C   UNL A   1      30.862  27.780  24.240  1.00  0.00    -0.003 C 
ATOM     23  C   UNL A   1      31.136  28.144  26.829  1.00  0.00     0.007 C 
ATOM     24  C   UNL A   1      32.401  28.250  27.716  1.00  0.00     0.032 C 
ATOM     25  C   UNL A   1      31.720  27.427  23.001  1.00  0.00     0.002 C 
ATOM     26  C   UNL A   1      29.623  26.873  24.280  1.00  0.00     0.008 C 
ATOM     27  C   UNL A   1      32.002  25.888  22.727  1.00  0.00    -0.008 C 
ATOM     28  C   UNL A   1      29.906  25.369  24.248  1.00  0.00     0.032 C 
ATOM     29  C   UNL A   1      31.120  24.900  23.480  1.00  0.00    -0.062 C 
ATOM     30  C   UNL A   1      33.451  25.455  23.084  1.00  0.00     0.018 C 
ATOM     31  C   UNL A   1      31.759  25.680  21.207  1.00  0.00     0.016 C 
ATOM     32  C   UNL A   1      31.472  23.595  23.528  1.00  0.00     0.027 C 
ATOM     33  C   UNL A   1      33.832  24.048  22.669  1.00  0.00     0.061 C 
ATOM     34  C   UNL A   1      32.738  23.049  22.933  1.00  0.00     0.080 C 
BRANCH  20  35
ATOM     35  O   UNL A   1      34.784  28.634  27.207  1.00  0.00    -0.393 OA
ATOM     36  H   UNL A   1      34.870  28.533  28.168  1.00  0.00     0.210 HD
ENDBRANCH  20  35
ENDBRANCH  14  15
ENDBRANCH  13  14
ENDBRANCH  11  13
ENDBRANCH   7  11
ENDBRANCH   3   6
ENDBRANCH   1   2
BRANCH   1  37
ATOM     37  C   UNL A   1      35.843  21.473  24.656  1.00  0.00     0.023 C 
BRANCH  37  38
ATOM     38  C   UNL A   1      36.421  22.848  24.223  1.00  0.00     0.023 C 
BRANCH  38  39
ATOM     39  C   UNL A   1      37.403  23.604  25.141  1.00  0.00     0.116 C 
BRANCH  39  40
ATOM     40  N   UNL A   1      38.454  22.730  25.652  1.00  0.00    -0.352 N 
ATOM     41  C   UNL A   1      39.634  22.984  26.310  1.00  0.00     0.251 C 
ATOM     42  H   UNL A   1      38.285  21.773  25.496  1.00  0.00     0.163 HD
ATOM     43  O   UNL A   1      40.452  22.051  26.399  1.00  0.00    -0.269 OA
BRANCH  41  44
ATOM     44  C   UNL A   1      40.000  24.277  26.951  1.00  0.00     0.039 A 
ATOM     45  C   UNL A   1      39.479  24.594  28.218  1.00  0.00     0.014 A 
ATOM     46  C   UNL A   1      40.663  25.282  26.258  1.00  0.00     0.014 A 
ATOM     47  C   UNL A   1      39.678  25.864  28.812  1.00  0.00     0.010 A 
ATOM     48  C   UNL A   1      40.853  26.542  26.864  1.00  0.00     0.010 A 
ATOM     49  C   UNL A   1      40.421  26.863  28.167  1.00  0.00    -0.014 A 
BRANCH  49  50
ATOM     50  C   UNL A   1      40.841  28.165  28.844  1.00  0.00     0.031 A 
ATOM     51  C   UNL A   1      42.170  28.321  29.585  1.00  0.00     0.074 A 
ATOM     52  C   UNL A   1      39.925  29.143  29.066  1.00  0.00     0.049 A 
ATOM     53  N   UNL A   1      42.556  29.256  30.432  1.00  0.00    -0.248 NA
ATOM     54  C   UNL A   1      43.154  27.245  29.422  1.00  0.00     0.031 C 
ATOM     55  C   UNL A   1      38.530  29.121  28.626  1.00  0.00     0.029 A 
ATOM     56  N   UNL A   1      40.010  30.314  29.800  1.00  0.00    -0.354 N 
ATOM     57  C   UNL A   1      43.774  28.834  30.961  1.00  0.00     0.074 A 
ATOM     58  C   UNL A   1      44.045  27.542  30.360  1.00  0.00     0.031 C 
ATOM     59  C   UNL A   1      37.895  30.208  29.093  1.00  0.00     0.029 A 
ATOM     60  C   UNL A   1      38.821  31.002  29.895  1.00  0.00     0.049 A 
ATOM     61  H   UNL A   1      40.846  30.628  30.215  1.00  0.00     0.167 HD
ATOM     62  C   UNL A   1      44.606  29.454  31.843  1.00  0.00     0.037 A 
ATOM     63  C   UNL A   1      38.479  32.130  30.555  1.00  0.00     0.037 A 
ATOM     64  C   UNL A   1      44.424  30.786  32.376  1.00  0.00     0.049 A 
ATOM     65  C   UNL A   1      39.480  32.898  31.374  1.00  0.00     0.074 A 
ATOM     66  C   UNL A   1      45.335  31.565  33.076  1.00  0.00     0.029 A 
ATOM     67  N   UNL A   1      43.263  31.532  32.285  1.00  0.00    -0.354 N 
ATOM     68  N   UNL A   1      40.703  32.574  31.700  1.00  0.00    -0.248 NA
ATOM     69  C   UNL A   1      39.052  34.208  31.897  1.00  0.00     0.031 C 
ATOM     70  C   UNL A   1      44.717  32.768  33.435  1.00  0.00     0.029 A 
ATOM     71  C   UNL A   1      43.438  32.761  32.912  1.00  0.00     0.049 A 
ATOM     72  H   UNL A   1      42.434  31.237  31.842  1.00  0.00     0.167 HD
ATOM     73  C   UNL A   1      41.201  33.649  32.428  1.00  0.00     0.074 A 
ATOM     74  C   UNL A   1      40.153  34.639  32.497  1.00  0.00     0.031 C 
ATOM     75  C   UNL A   1      42.432  33.788  32.972  1.00  0.00     0.037 A 
BRANCH  62  76
ATOM     76  C   UNL A   1      45.862  28.734  32.272  1.00  0.00     0.064 A 
ATOM     77  C   UNL A   1      47.068  28.876  31.569  1.00  0.00     0.173 A 
ATOM     78  C   UNL A   1      45.891  27.988  33.463  1.00  0.00     0.173 A 
ATOM     79  F   UNL A   1      47.109  29.595  30.436  1.00  0.00    -0.203 F 
ATOM     80  C   UNL A   1      48.238  28.262  32.010  1.00  0.00     0.198 A 
ATOM     81  C   UNL A   1      47.073  27.411  33.925  1.00  0.00     0.198 A 
ATOM     82  F   UNL A   1      44.779  27.843  34.201  1.00  0.00    -0.203 F 
ATOM     83  F   UNL A   1      49.361  28.370  31.287  1.00  0.00    -0.200 F 
ATOM     84  C   UNL A   1      48.242  27.537  33.191  1.00  0.00     0.200 A 
ATOM     85  F   UNL A   1      47.083  26.737  35.085  1.00  0.00    -0.200 F 
ATOM     86  F   UNL A   1      49.374  26.964  33.624  1.00  0.00    -0.200 F 
ENDBRANCH  62  76
BRANCH  63  87
ATOM     87  C   UNL A   1      37.099  32.664  30.423  1.00  0.00     0.064 A 
ATOM     88  C   UNL A   1      36.747  33.448  29.315  1.00  0.00     0.173 A 
ATOM     89  C   UNL A   1      36.126  32.434  31.403  1.00  0.00     0.173 A 
ATOM     90  F   UNL A   1      37.658  33.712  28.367  1.00  0.00    -0.203 F 
ATOM     91  C   UNL A   1      35.478  34.009  29.205  1.00  0.00     0.198 A 
ATOM     92  C   UNL A   1      34.849  32.980  31.282  1.00  0.00     0.198 A 
ATOM     93  F   UNL A   1      36.414  31.676  32.473  1.00  0.00    -0.203 F 
ATOM     94  F   UNL A   1      35.185  34.795  28.161  1.00  0.00    -0.200 F 
ATOM     95  C   UNL A   1      34.530  33.773  30.188  1.00  0.00     0.200 A 
ATOM     96  F   UNL A   1      33.930  32.743  32.227  1.00  0.00    -0.200 F 
ATOM     97  F   UNL A   1      33.309  34.317  30.086  1.00  0.00    -0.200 F 
ENDBRANCH  63  87
BRANCH  75  98
ATOM     98  C   UNL A   1      42.777  35.103  33.615  1.00  0.00     0.064 A 
ATOM     99  C   UNL A   1      43.270  36.192  32.882  1.00  0.00     0.173 A 
ATOM    100  C   UNL A   1      42.588  35.277  34.995  1.00  0.00     0.173 A 
ATOM    101  F   UNL A   1      43.487  36.078  31.564  1.00  0.00    -0.203 F 
ATOM    102  C   UNL A   1      43.583  37.398  33.512  1.00  0.00     0.198 A 
ATOM    103  C   UNL A   1      42.878  36.491  35.616  1.00  0.00     0.198 A 
ATOM    104  F   UNL A   1      42.119  34.269  35.746  1.00  0.00    -0.203 F 
ATOM    105  F   UNL A   1      44.096  38.411  32.798  1.00  0.00    -0.200 F 
ATOM    106  C   UNL A   1      43.381  37.548  34.874  1.00  0.00     0.200 A 
ATOM    107  F   UNL A   1      42.674  36.634  36.933  1.00  0.00    -0.200 F 
ATOM    108  F   UNL A   1      43.680  38.707  35.477  1.00  0.00    -0.200 F 
ENDBRANCH  75  98
ENDBRANCH  49  50
ENDBRANCH  41  44
ENDBRANCH  39  40
ENDBRANCH  38  39
ENDBRANCH  37  38
ENDBRANCH   1  37
TORSDOF 16
ENDMDL
MODEL 3
REMARK VINA RESULT:     -13.0      3.896      8.201
REMARK SMILES C[C@]12CC[C@@H]3[C@@H](CCC4=C/C(=N\OCC(=O)N5CCC[C@@H]5C(=O)NCCCCNC(=O)c5ccc(-c6c7nc(c(-c8c(F)c(F)c(F)c(F)c8F)c8ccc([nH]8)c(-c8c(F)c(F)c(F)c(F)c8F)c8nc(c(-c9c(F)c(F)c(F)c(F)c9F)c9ccc6[nH]9)C=C8)C=C7)cc5)CC[C@@]43C)[C@@H]1CC[C@@H]2O
REMARK SMILES IDX 25 1 24 2 22 3 23 4 21 6 17 7 18 8 19 9 20 10 15 11 16 12
REMARK SMILES IDX 14 13 13 14 12 15 1 16 2 17 3 18 99 19 102 20 4 21 6 22
REMARK SMILES IDX 100 23 101 24 5 25 7 26 97 27 8 28 9 29 96 30 98 31 10 32
REMARK SMILES IDX 95 33 11 34 103 35 26 37 27 38 28 39 29 40 30 41 31 43 32 44
REMARK SMILES IDX 33 45 94 46 34 47 93 48 35 49 36 50 37 51 87 52 38 53 92 54
REMARK SMILES IDX 86 55 88 56 39 57 91 58 85 59 84 60 40 62 72 63 52 64 71 65
REMARK SMILES IDX 53 66 56 67 70 68 89 69 54 70 55 71 69 73 90 74 57 75 41 76
REMARK SMILES IDX 42 77 50 78 43 79 44 80 48 81 51 82 45 83 46 84 49 85 47 86
REMARK SMILES IDX 73 87 74 88 82 89 75 90 76 91 80 92 83 93 77 94 78 95 81 96
REMARK SMILES IDX 79 97 58 98 59 99 67 100 60 101 61 102 65 103 68 104 62 105
REMARK SMILES IDX 63 106 66 107 64 108
REMARK H PARENT 24 5 103 36 29 42 88 61 56 72
REMARK Flexibility Score: inf
ROOT
ATOM      1  C   UNL A   1      33.173  29.746  25.902  1.00  0.00     0.116 C 
ENDROOT
BRANCH   1   2
ATOM      2  N   UNL A   1      33.567  28.351  25.737  1.00  0.00    -0.354 N 
ATOM      3  C   UNL A   1      33.548  27.444  24.705  1.00  0.00     0.242 C 
ATOM      4  O   UNL A   1      34.009  26.322  24.943  1.00  0.00    -0.273 OA
ATOM      5  H   UNL A   1      33.934  27.966  26.566  1.00  0.00     0.163 HD
BRANCH   3   6
ATOM      6  C   UNL A   1      33.008  27.811  23.309  1.00  0.00     0.174 C 
ATOM      7  N   UNL A   1      31.567  27.688  23.003  1.00  0.00    -0.328 N 
ATOM      8  C   UNL A   1      31.385  27.117  21.678  1.00  0.00     0.120 C 
ATOM      9  C   UNL A   1      32.516  26.134  21.540  1.00  0.00     0.024 C 
ATOM     10  C   UNL A   1      33.659  26.796  22.307  1.00  0.00     0.037 C 
BRANCH   7  11
ATOM     11  C   UNL A   1      30.475  28.297  23.583  1.00  0.00     0.264 C 
ATOM     12  O   UNL A   1      30.632  29.285  24.315  1.00  0.00    -0.271 OA
BRANCH  11  13
ATOM     13  C   UNL A   1      29.060  27.731  23.432  1.00  0.00     0.363 C 
BRANCH  13  14
ATOM     14  O   UNL A   1      28.694  26.521  24.061  1.00  0.00    -0.385 OA
BRANCH  14  15
ATOM     15  N   UNL A   1      29.441  26.351  25.225  1.00  0.00    -0.091 NA
ATOM     16  C   UNL A   1      36.587  21.306  25.898  1.00  0.00     0.014 C 
ATOM     17  C   UNL A   1      35.622  22.489  25.596  1.00  0.00    -0.003 C 
ATOM     18  C   UNL A   1      34.802  22.706  26.858  1.00  0.00     0.010 C 
ATOM     19  C   UNL A   1      34.733  22.360  24.331  1.00  0.00     0.001 C 
ATOM     20  C   UNL A   1      36.421  23.704  25.101  1.00  0.00     0.120 C 
ATOM     21  C   UNL A   1      33.637  21.700  26.932  1.00  0.00     0.005 C 
ATOM     22  C   UNL A   1      33.595  21.361  24.409  1.00  0.00    -0.003 C 
ATOM     23  C   UNL A   1      35.781  22.230  23.235  1.00  0.00     0.007 C 
ATOM     24  C   UNL A   1      36.878  23.211  23.719  1.00  0.00     0.032 C 
ATOM     25  C   UNL A   1      32.743  21.641  25.669  1.00  0.00     0.002 C 
ATOM     26  C   UNL A   1      32.685  21.329  23.172  1.00  0.00     0.008 C 
ATOM     27  C   UNL A   1      31.681  22.820  25.583  1.00  0.00    -0.008 C 
ATOM     28  C   UNL A   1      31.822  22.575  22.956  1.00  0.00     0.032 C 
ATOM     29  C   UNL A   1      31.348  23.320  24.183  1.00  0.00    -0.062 C 
ATOM     30  C   UNL A   1      32.118  24.098  26.351  1.00  0.00     0.018 C 
ATOM     31  C   UNL A   1      30.376  22.258  26.211  1.00  0.00     0.016 C 
ATOM     32  C   UNL A   1      30.686  24.491  24.033  1.00  0.00     0.027 C 
ATOM     33  C   UNL A   1      31.067  25.185  26.459  1.00  0.00     0.061 C 
ATOM     34  C   UNL A   1      30.307  25.386  25.176  1.00  0.00     0.080 C 
BRANCH  20  35
ATOM     35  O   UNL A   1      37.477  24.100  25.941  1.00  0.00    -0.393 OA
ATOM     36  H   UNL A   1      37.632  23.416  26.610  1.00  0.00     0.210 HD
ENDBRANCH  20  35
ENDBRANCH  14  15
ENDBRANCH  13  14
ENDBRANCH  11  13
ENDBRANCH   7  11
ENDBRANCH   3   6
ENDBRANCH   1   2
BRANCH   1  37
ATOM     37  C   UNL A   1      33.546  30.517  27.196  1.00  0.00     0.023 C 
BRANCH  37  38
ATOM     38  C   UNL A   1      33.426  32.055  27.376  1.00  0.00     0.023 C 
BRANCH  38  39
ATOM     39  C   UNL A   1      32.063  32.756  27.192  1.00  0.00     0.116 C 
BRANCH  39  40
ATOM     40  N   UNL A   1      32.118  34.163  27.572  1.00  0.00    -0.352 N 
ATOM     41  C   UNL A   1      32.888  34.851  28.480  1.00  0.00     0.251 C 
ATOM     42  H   UNL A   1      31.479  34.731  27.084  1.00  0.00     0.163 HD
ATOM     43  O   UNL A   1      32.536  36.008  28.770  1.00  0.00    -0.269 OA
BRANCH  41  44
ATOM     44  C   UNL A   1      34.128  34.332  29.122  1.00  0.00     0.039 A 
ATOM     45  C   UNL A   1      34.055  33.757  30.403  1.00  0.00     0.014 A 
ATOM     46  C   UNL A   1      35.390  34.584  28.600  1.00  0.00     0.014 A 
ATOM     47  C   UNL A   1      35.218  33.376  31.118  1.00  0.00     0.010 A 
ATOM     48  C   UNL A   1      36.538  34.199  29.324  1.00  0.00     0.010 A 
ATOM     49  C   UNL A   1      36.498  33.541  30.571  1.00  0.00    -0.014 A 
BRANCH  49  50
ATOM     50  C   UNL A   1      37.761  32.962  31.202  1.00  0.00     0.031 A 
ATOM     51  C   UNL A   1      38.511  31.768  30.607  1.00  0.00     0.074 A 
ATOM     52  C   UNL A   1      38.100  33.295  32.474  1.00  0.00     0.049 A 
ATOM     53  N   UNL A   1      39.428  30.994  31.155  1.00  0.00    -0.248 NA
ATOM     54  C   UNL A   1      38.117  31.338  29.261  1.00  0.00     0.031 C 
ATOM     55  C   UNL A   1      37.403  34.267  33.317  1.00  0.00     0.029 A 
ATOM     56  N   UNL A   1      39.074  32.785  33.316  1.00  0.00    -0.354 N 
ATOM     57  C   UNL A   1      39.647  29.947  30.261  1.00  0.00     0.074 A 
ATOM     58  C   UNL A   1      38.743  30.173  29.151  1.00  0.00     0.031 C 
ATOM     59  C   UNL A   1      37.959  34.281  34.539  1.00  0.00     0.029 A 
ATOM     60  C   UNL A   1      39.038  33.300  34.592  1.00  0.00     0.049 A 
ATOM     61  H   UNL A   1      39.734  32.113  33.027  1.00  0.00     0.167 HD
ATOM     62  C   UNL A   1      40.523  28.907  30.332  1.00  0.00     0.037 A 
ATOM     63  C   UNL A   1      39.762  33.027  35.699  1.00  0.00     0.037 A 
ATOM     64  C   UNL A   1      41.515  28.711  31.367  1.00  0.00     0.049 A 
ATOM     65  C   UNL A   1      40.856  31.995  35.690  1.00  0.00     0.074 A 
ATOM     66  C   UNL A   1      42.584  27.826  31.378  1.00  0.00     0.029 A 
ATOM     67  N   UNL A   1      41.559  29.392  32.570  1.00  0.00    -0.354 N 
ATOM     68  N   UNL A   1      41.180  31.143  34.754  1.00  0.00    -0.248 NA
ATOM     69  C   UNL A   1      41.702  31.907  36.893  1.00  0.00     0.031 C 
ATOM     70  C   UNL A   1      43.256  27.948  32.600  1.00  0.00     0.029 A 
ATOM     71  C   UNL A   1      42.638  28.948  33.326  1.00  0.00     0.049 A 
ATOM     72  H   UNL A   1      40.922  30.088  32.850  1.00  0.00     0.167 HD
ATOM     73  C   UNL A   1      42.286  30.451  35.235  1.00  0.00     0.074 A 
ATOM     74  C   UNL A   1      42.582  30.979  36.546  1.00  0.00     0.031 C 
ATOM     75  C   UNL A   1      42.989  29.471  34.620  1.00  0.00     0.037 A 
BRANCH  62  76
ATOM     76  C   UNL A   1      40.519  27.888  29.217  1.00  0.00     0.064 A 
ATOM     77  C   UNL A   1      39.703  26.748  29.265  1.00  0.00     0.173 A 
ATOM     78  C   UNL A   1      41.250  28.113  28.037  1.00  0.00     0.173 A 
ATOM     79  F   UNL A   1      38.965  26.491  30.356  1.00  0.00    -0.203 F 
ATOM     80  C   UNL A   1      39.655  25.849  28.202  1.00  0.00     0.198 A 
ATOM     81  C   UNL A   1      41.166  27.233  26.958  1.00  0.00     0.198 A 
ATOM     82  F   UNL A   1      42.023  29.203  27.913  1.00  0.00    -0.203 F 
ATOM     83  F   UNL A   1      38.909  24.740  28.300  1.00  0.00    -0.200 F 
ATOM     84  C   UNL A   1      40.380  26.096  27.047  1.00  0.00     0.200 A 
ATOM     85  F   UNL A   1      41.842  27.491  25.829  1.00  0.00    -0.200 F 
ATOM     86  F   UNL A   1      40.317  25.239  26.018  1.00  0.00    -0.200 F 
ENDBRANCH  62  76
BRANCH  63  87
ATOM     87  C   UNL A   1      39.516  33.802  36.943  1.00  0.00     0.064 A 
ATOM     88  C   UNL A   1      40.125  35.052  37.127  1.00  0.00     0.173 A 
ATOM     89  C   UNL A   1      38.709  33.303  37.972  1.00  0.00     0.173 A 
ATOM     90  F   UNL A   1      40.926  35.553  36.175  1.00  0.00    -0.203 F 
ATOM     91  C   UNL A   1      39.957  35.765  38.311  1.00  0.00     0.198 A 
ATOM     92  C   UNL A   1      38.526  34.028  39.148  1.00  0.00     0.198 A 
ATOM     93  F   UNL A   1      38.095  32.119  37.832  1.00  0.00    -0.203 F 
ATOM     94  F   UNL A   1      40.589  36.933  38.481  1.00  0.00    -0.200 F 
ATOM     95  C   UNL A   1      39.157  35.252  39.320  1.00  0.00     0.200 A 
ATOM     96  F   UNL A   1      37.744  33.537  40.119  1.00  0.00    -0.200 F 
ATOM     97  F   UNL A   1      39.000  35.935  40.463  1.00  0.00    -0.200 F 
ENDBRANCH  63  87
BRANCH  75  98
ATOM     98  C   UNL A   1      44.227  28.956  35.299  1.00  0.00     0.064 A 
ATOM     99  C   UNL A   1      45.493  29.523  35.089  1.00  0.00     0.173 A 
ATOM    100  C   UNL A   1      44.136  27.881  36.197  1.00  0.00     0.173 A 
ATOM    101  F   UNL A   1      45.643  30.540  34.229  1.00  0.00    -0.203 F 
ATOM    102  C   UNL A   1      46.622  29.017  35.734  1.00  0.00     0.198 A 
ATOM    103  C   UNL A   1      45.262  27.394  36.859  1.00  0.00     0.198 A 
ATOM    104  F   UNL A   1      42.951  27.299  36.437  1.00  0.00    -0.203 F 
ATOM    105  F   UNL A   1      47.829  29.546  35.482  1.00  0.00    -0.200 F 
ATOM    106  C   UNL A   1      46.505  27.959  36.622  1.00  0.00     0.200 A 
ATOM    107  F   UNL A   1      45.143  26.376  37.722  1.00  0.00    -0.200 F 
ATOM    108  F   UNL A   1      47.590  27.476  37.241  1.00  0.00    -0.200 F 
ENDBRANCH  75  98
ENDBRANCH  49  50
ENDBRANCH  41  44
ENDBRANCH  39  40
ENDBRANCH  38  39
ENDBRANCH  37  38
ENDBRANCH   1  37
TORSDOF 16
ENDMDL
