MODEL 1
REMARK VINA RESULT:     -13.0      0.000      0.000
REMARK SMILES O=C(NCCCCNC(=O)[C@H](NC(=O)[C@H]1CC(=O)N(CC2CC2)C1)c1ccccc1C(F)(F)F)c1ccc(-c2c3nc(c(-c4c(F)c(F)c(F)c(F)c4F)c4ccc([nH]4)c(-c4c(F)c(F)c(F)c(F)c4F)c4nc(c(-c5c(F)c(F)c(F)c(F)c5F)c5ccc2[nH]5)C=C4)C=C3)cc1
REMARK SMILES IDX 6 1 5 2 4 3 3 4 1 5 2 6 35 8 36 9 97 10 37 11 96 12 38 13
REMARK SMILES IDX 39 14 40 15 90 16 41 17 95 18 89 19 91 20 42 21 94 22 88 23
REMARK SMILES IDX 87 24 43 26 75 27 55 28 74 29 56 30 59 31 73 32 92 33 57 34
REMARK SMILES IDX 58 35 72 37 93 38 60 39 44 40 45 41 53 42 46 43 47 44 51 45
REMARK SMILES IDX 54 46 48 47 49 48 52 49 50 50 76 51 77 52 85 53 78 54 79 55
REMARK SMILES IDX 83 56 86 57 80 58 81 59 84 60 82 61 61 62 62 63 70 64 63 65
REMARK SMILES IDX 64 66 68 67 71 68 65 69 66 70 69 71 67 72 7 73 8 74 9 75
REMARK SMILES IDX 10 77 11 78 25 79 26 80 30 81 27 82 29 83 28 84 31 85 32 86
REMARK SMILES IDX 33 87 34 88 12 89 13 90 14 92 15 93 16 94 24 95 17 96 19 97
REMARK SMILES IDX 18 98 20 99 21 100 22 101 23 102
REMARK H PARENT 3 7 91 25 59 36 8 76 12 91
REMARK Flexibility Score: inf
ROOT
ATOM      1  C   UNL A   1      31.543  30.527  25.751  1.00  0.00     0.023 C 
ENDROOT
BRANCH   1   2
ATOM      2  C   UNL A   1      31.400  31.709  26.700  1.00  0.00     0.023 C 
BRANCH   2   3
ATOM      3  C   UNL A   1      32.678  32.469  26.996  1.00  0.00     0.116 C 
BRANCH   3   4
ATOM      4  N   UNL A   1      32.428  33.833  27.417  1.00  0.00    -0.352 N 
ATOM      5  O   UNL A   1      32.564  35.627  28.774  1.00  0.00    -0.269 OA
ATOM      6  C   UNL A   1      33.021  34.541  28.434  1.00  0.00     0.251 C 
ATOM      7  H   UNL A   1      31.740  34.317  26.907  1.00  0.00     0.163 HD
BRANCH   6   8
ATOM      8  C   UNL A   1      34.201  33.982  29.131  1.00  0.00     0.039 A 
ATOM      9  C   UNL A   1      34.051  33.027  30.139  1.00  0.00     0.014 A 
ATOM     10  C   UNL A   1      35.481  34.399  28.753  1.00  0.00     0.014 A 
ATOM     11  C   UNL A   1      35.156  32.601  30.862  1.00  0.00     0.010 A 
ATOM     12  C   UNL A   1      36.605  33.876  29.400  1.00  0.00     0.010 A 
ATOM     13  C   UNL A   1      36.451  32.977  30.467  1.00  0.00    -0.014 A 
BRANCH  13  14
ATOM     14  C   UNL A   1      37.609  32.299  31.101  1.00  0.00     0.031 A 
ATOM     15  C   UNL A   1      38.057  32.627  32.495  1.00  0.00     0.074 A 
ATOM     16  C   UNL A   1      38.240  31.342  30.389  1.00  0.00     0.049 A 
ATOM     17  N   UNL A   1      39.034  32.097  33.188  1.00  0.00    -0.248 NA
ATOM     18  C   UNL A   1      37.326  33.686  33.204  1.00  0.00     0.031 C 
ATOM     19  C   UNL A   1      37.906  30.964  29.012  1.00  0.00     0.029 A 
ATOM     20  N   UNL A   1      39.265  30.496  30.722  1.00  0.00    -0.354 N 
ATOM     21  C   UNL A   1      39.043  32.761  34.408  1.00  0.00     0.074 A 
ATOM     22  C   UNL A   1      37.992  33.756  34.350  1.00  0.00     0.031 C 
ATOM     23  C   UNL A   1      38.663  29.924  28.641  1.00  0.00     0.029 A 
ATOM     24  C   UNL A   1      39.590  29.613  29.721  1.00  0.00     0.049 A 
ATOM     25  H   UNL A   1      39.723  30.519  31.593  1.00  0.00     0.167 HD
ATOM     26  C   UNL A   1      39.849  32.548  35.475  1.00  0.00     0.037 A 
ATOM     27  C   UNL A   1      40.547  28.669  29.665  1.00  0.00     0.037 A 
ATOM     28  C   UNL A   1      40.891  31.551  35.521  1.00  0.00     0.049 A 
ATOM     29  C   UNL A   1      41.433  28.473  30.860  1.00  0.00     0.074 A 
ATOM     30  C   UNL A   1      41.755  31.251  36.560  1.00  0.00     0.029 A 
ATOM     31  N   UNL A   1      41.210  30.691  34.479  1.00  0.00    -0.354 N 
ATOM     32  N   UNL A   1      41.412  29.093  32.015  1.00  0.00    -0.248 NA
ATOM     33  C   UNL A   1      42.479  27.450  30.743  1.00  0.00     0.031 C 
ATOM     34  C   UNL A   1      42.624  30.241  36.132  1.00  0.00     0.029 A 
ATOM     35  C   UNL A   1      42.269  29.873  34.845  1.00  0.00     0.049 A 
ATOM     36  H   UNL A   1      40.752  30.665  33.608  1.00  0.00     0.167 HD
ATOM     37  C   UNL A   1      42.433  28.530  32.765  1.00  0.00     0.074 A 
ATOM     38  C   UNL A   1      43.027  27.492  31.948  1.00  0.00     0.031 C 
ATOM     39  C   UNL A   1      42.851  28.851  34.015  1.00  0.00     0.037 A 
BRANCH  26  40
ATOM     40  C   UNL A   1      39.650  33.409  36.690  1.00  0.00     0.064 A 
ATOM     41  C   UNL A   1      40.280  34.656  36.819  1.00  0.00     0.173 A 
ATOM     42  C   UNL A   1      38.759  33.020  37.703  1.00  0.00     0.173 A 
ATOM     43  F   UNL A   1      41.149  35.072  35.885  1.00  0.00    -0.203 F 
ATOM     44  C   UNL A   1      40.035  35.475  37.919  1.00  0.00     0.198 A 
ATOM     45  C   UNL A   1      38.496  33.852  38.788  1.00  0.00     0.198 A 
ATOM     46  F   UNL A   1      38.124  31.840  37.627  1.00  0.00    -0.203 F 
ATOM     47  F   UNL A   1      40.672  36.647  38.035  1.00  0.00    -0.200 F 
ATOM     48  C   UNL A   1      39.137  35.076  38.898  1.00  0.00     0.200 A 
ATOM     49  F   UNL A   1      37.617  33.471  39.726  1.00  0.00    -0.200 F 
ATOM     50  F   UNL A   1      38.891  35.872  39.948  1.00  0.00    -0.200 F 
ENDBRANCH  26  40
BRANCH  27  51
ATOM     51  C   UNL A   1      40.726  27.863  28.430  1.00  0.00     0.064 A 
ATOM     52  C   UNL A   1      40.093  26.622  28.274  1.00  0.00     0.173 A 
ATOM     53  C   UNL A   1      41.544  28.314  27.382  1.00  0.00     0.173 A 
ATOM     54  F   UNL A   1      39.316  26.138  29.254  1.00  0.00    -0.203 F 
ATOM     55  C   UNL A   1      40.294  25.852  27.130  1.00  0.00     0.198 A 
ATOM     56  C   UNL A   1      41.713  27.561  26.223  1.00  0.00     0.198 A 
ATOM     57  F   UNL A   1      42.167  29.498  27.477  1.00  0.00    -0.203 F 
ATOM     58  F   UNL A   1      39.725  24.643  27.032  1.00  0.00    -0.200 F 
ATOM     59  C   UNL A   1      41.099  26.324  26.104  1.00  0.00     0.200 A 
ATOM     60  F   UNL A   1      42.474  28.032  25.227  1.00  0.00    -0.200 F 
ATOM     61  F   UNL A   1      41.289  25.584  25.003  1.00  0.00    -0.200 F 
ENDBRANCH  27  51
BRANCH  39  62
ATOM     62  C   UNL A   1      43.995  28.052  34.566  1.00  0.00     0.064 A 
ATOM     63  C   UNL A   1      43.784  26.849  35.256  1.00  0.00     0.173 A 
ATOM     64  C   UNL A   1      45.315  28.497  34.407  1.00  0.00     0.173 A 
ATOM     65  F   UNL A   1      42.539  26.391  35.451  1.00  0.00    -0.203 F 
ATOM     66  C   UNL A   1      44.852  26.142  35.804  1.00  0.00     0.198 A 
ATOM     67  C   UNL A   1      46.383  27.771  34.926  1.00  0.00     0.198 A 
ATOM     68  F   UNL A   1      45.571  29.638  33.749  1.00  0.00    -0.203 F 
ATOM     69  F   UNL A   1      44.621  25.032  36.518  1.00  0.00    -0.200 F 
ATOM     70  C   UNL A   1      46.149  26.601  35.635  1.00  0.00     0.200 A 
ATOM     71  F   UNL A   1      47.638  28.207  34.751  1.00  0.00    -0.200 F 
ATOM     72  F   UNL A   1      47.175  25.922  36.166  1.00  0.00    -0.200 F 
ENDBRANCH  39  62
ENDBRANCH  13  14
ENDBRANCH   6   8
ENDBRANCH   3   4
ENDBRANCH   2   3
ENDBRANCH   1   2
BRANCH   1  73
ATOM     73  C   UNL A   1      32.692  29.564  26.041  1.00  0.00     0.116 C 
BRANCH  73  74
ATOM     74  N   UNL A   1      33.596  29.322  24.928  1.00  0.00    -0.354 N 
ATOM     75  C   UNL A   1      33.365  28.547  23.824  1.00  0.00     0.247 C 
ATOM     76  H   UNL A   1      34.473  29.765  24.974  1.00  0.00     0.163 HD
ATOM     77  O   UNL A   1      33.724  29.005  22.744  1.00  0.00    -0.272 OA
BRANCH  75  78
ATOM     78  C   UNL A   1      32.636  27.196  23.929  1.00  0.00     0.202 C 
BRANCH  78  79
ATOM     79  C   UNL A   1      31.115  27.449  23.966  1.00  0.00    -0.004 A 
ATOM     80  C   UNL A   1      30.635  28.490  23.130  1.00  0.00     0.007 A 
ATOM     81  C   UNL A   1      30.156  26.606  24.573  1.00  0.00     0.061 A 
ATOM     82  C   UNL A   1      29.297  28.578  22.748  1.00  0.00     0.000 A 
ATOM     83  C   UNL A   1      28.804  26.710  24.160  1.00  0.00     0.013 A 
ATOM     84  C   UNL A   1      28.386  27.658  23.234  1.00  0.00     0.001 A 
BRANCH  81  85
ATOM     85  C   UNL A   1      30.419  25.551  25.628  1.00  0.00     0.416 C 
ATOM     86  F   UNL A   1      29.283  25.251  26.331  1.00  0.00    -0.166 F 
ATOM     87  F   UNL A   1      30.835  24.369  25.106  1.00  0.00    -0.166 F 
ATOM     88  F   UNL A   1      31.315  25.899  26.581  1.00  0.00    -0.166 F 
ENDBRANCH  81  85
ENDBRANCH  78  79
BRANCH  78  89
ATOM     89  N   UNL A   1      33.045  26.013  23.161  1.00  0.00    -0.340 N 
ATOM     90  C   UNL A   1      33.815  24.911  23.217  1.00  0.00     0.226 C 
ATOM     91  H   UNL A   1      32.592  26.033  22.288  1.00  0.00     0.164 HD
ATOM     92  O   UNL A   1      33.796  24.276  22.145  1.00  0.00    -0.275 OA
BRANCH  90  93
ATOM     93  C   UNL A   1      34.571  24.252  24.368  1.00  0.00     0.107 C 
ATOM     94  C   UNL A   1      34.142  24.355  25.819  1.00  0.00     0.115 C 
ATOM     95  C   UNL A   1      34.841  22.780  24.127  1.00  0.00     0.133 C 
ATOM     96  C   UNL A   1      33.856  22.929  26.237  1.00  0.00     0.223 C 
ATOM     97  N   UNL A   1      34.084  22.098  25.144  1.00  0.00    -0.342 N 
ATOM     98  O   UNL A   1      33.535  22.573  27.359  1.00  0.00    -0.275 OA
BRANCH  97  99
ATOM     99  C   UNL A   1      34.000  20.656  25.243  1.00  0.00     0.123 C 
BRANCH  99 100
ATOM    100  C   UNL A   1      32.716  20.057  24.740  1.00  0.00     0.008 C 
ATOM    101  C   UNL A   1      32.528  19.196  23.505  1.00  0.00     0.006 C 
ATOM    102  C   UNL A   1      32.530  18.562  24.861  1.00  0.00     0.006 C 
ENDBRANCH  99 100
ENDBRANCH  97  99
ENDBRANCH  90  93
ENDBRANCH  78  89
ENDBRANCH  75  78
ENDBRANCH  73  74
ENDBRANCH   1  73
TORSDOF 17
ENDMDL
MODEL 2
REMARK VINA RESULT:     -12.9      4.924     10.424
REMARK SMILES O=C(NCCCCNC(=O)[C@H](NC(=O)[C@H]1CC(=O)N(CC2CC2)C1)c1ccccc1C(F)(F)F)c1ccc(-c2c3nc(c(-c4c(F)c(F)c(F)c(F)c4F)c4ccc([nH]4)c(-c4c(F)c(F)c(F)c(F)c4F)c4nc(c(-c5c(F)c(F)c(F)c(F)c5F)c5ccc2[nH]5)C=C4)C=C3)cc1
REMARK SMILES IDX 6 1 5 2 4 3 3 4 1 5 2 6 35 8 36 9 97 10 37 11 96 12 38 13
REMARK SMILES IDX 39 14 40 15 90 16 41 17 95 18 89 19 91 20 42 21 94 22 88 23
REMARK SMILES IDX 87 24 43 26 75 27 55 28 74 29 56 30 59 31 73 32 92 33 57 34
REMARK SMILES IDX 58 35 72 37 93 38 60 39 44 40 45 41 53 42 46 43 47 44 51 45
REMARK SMILES IDX 54 46 48 47 49 48 52 49 50 50 76 51 77 52 85 53 78 54 79 55
REMARK SMILES IDX 83 56 86 57 80 58 81 59 84 60 82 61 61 62 62 63 70 64 63 65
REMARK SMILES IDX 64 66 68 67 71 68 65 69 66 70 69 71 67 72 7 73 8 74 9 75
REMARK SMILES IDX 10 77 11 78 25 79 26 80 30 81 27 82 29 83 28 84 31 85 32 86
REMARK SMILES IDX 33 87 34 88 12 89 13 90 14 92 15 93 16 94 24 95 17 96 19 97
REMARK SMILES IDX 18 98 20 99 21 100 22 101 23 102
REMARK H PARENT 3 7 91 25 59 36 8 76 12 91
REMARK Flexibility Score: inf
ROOT
ATOM      1  C   UNL A   1      36.720  20.379  25.047  1.00  0.00     0.023 C 
ENDROOT
BRANCH   1   2
ATOM      2  C   UNL A   1      38.153  19.962  24.746  1.00  0.00     0.023 C 
BRANCH   2   3
ATOM      3  C   UNL A   1      39.151  20.197  25.863  1.00  0.00     0.116 C 
BRANCH   3   4
ATOM      4  N   UNL A   1      40.190  19.189  25.901  1.00  0.00    -0.352 N 
ATOM      5  O   UNL A   1      42.305  18.411  25.923  1.00  0.00    -0.269 OA
ATOM      6  C   UNL A   1      41.540  19.352  26.102  1.00  0.00     0.251 C 
ATOM      7  H   UNL A   1      39.890  18.262  25.764  1.00  0.00     0.163 HD
BRANCH   6   8
ATOM      8  C   UNL A   1      42.070  20.670  26.516  1.00  0.00     0.039 A 
ATOM      9  C   UNL A   1      42.470  21.611  25.565  1.00  0.00     0.014 A 
ATOM     10  C   UNL A   1      42.143  20.982  27.877  1.00  0.00     0.014 A 
ATOM     11  C   UNL A   1      43.073  22.794  25.970  1.00  0.00     0.010 A 
ATOM     12  C   UNL A   1      42.637  22.226  28.282  1.00  0.00     0.010 A 
ATOM     13  C   UNL A   1      43.114  23.140  27.330  1.00  0.00    -0.014 A 
BRANCH  13  14
ATOM     14  C   UNL A   1      43.530  24.516  27.698  1.00  0.00     0.031 A 
ATOM     15  C   UNL A   1      44.970  24.940  27.695  1.00  0.00     0.074 A 
ATOM     16  C   UNL A   1      42.560  25.401  28.009  1.00  0.00     0.049 A 
ATOM     17  N   UNL A   1      45.480  26.116  27.967  1.00  0.00    -0.248 NA
ATOM     18  C   UNL A   1      45.970  23.918  27.354  1.00  0.00     0.031 C 
ATOM     19  C   UNL A   1      41.128  25.087  28.072  1.00  0.00     0.029 A 
ATOM     20  N   UNL A   1      42.616  26.738  28.302  1.00  0.00    -0.354 N 
ATOM     21  C   UNL A   1      46.855  25.976  27.839  1.00  0.00     0.074 A 
ATOM     22  C   UNL A   1      47.106  24.592  27.495  1.00  0.00     0.031 C 
ATOM     23  C   UNL A   1      40.439  26.208  28.319  1.00  0.00     0.029 A 
ATOM     24  C   UNL A   1      41.381  27.303  28.512  1.00  0.00     0.049 A 
ATOM     25  H   UNL A   1      43.458  27.245  28.356  1.00  0.00     0.167 HD
ATOM     26  C   UNL A   1      47.813  26.923  27.987  1.00  0.00     0.037 A 
ATOM     27  C   UNL A   1      41.040  28.560  28.847  1.00  0.00     0.037 A 
ATOM     28  C   UNL A   1      47.550  28.299  28.327  1.00  0.00     0.049 A 
ATOM     29  C   UNL A   1      42.130  29.577  29.019  1.00  0.00     0.074 A 
ATOM     30  C   UNL A   1      48.452  29.337  28.490  1.00  0.00     0.029 A 
ATOM     31  N   UNL A   1      46.289  28.831  28.558  1.00  0.00    -0.354 N 
ATOM     32  N   UNL A   1      43.424  29.435  28.871  1.00  0.00    -0.248 NA
ATOM     33  C   UNL A   1      41.712  30.929  29.410  1.00  0.00     0.031 C 
ATOM     34  C   UNL A   1      47.741  30.484  28.861  1.00  0.00     0.029 A 
ATOM     35  C   UNL A   1      46.392  30.177  28.879  1.00  0.00     0.049 A 
ATOM     36  H   UNL A   1      45.445  28.327  28.502  1.00  0.00     0.167 HD
ATOM     37  C   UNL A   1      43.975  30.679  29.140  1.00  0.00     0.074 A 
ATOM     38  C   UNL A   1      42.870  31.571  29.422  1.00  0.00     0.031 C 
ATOM     39  C   UNL A   1      45.280  31.047  29.164  1.00  0.00     0.037 A 
BRANCH  26  40
ATOM     40  C   UNL A   1      49.244  26.511  27.788  1.00  0.00     0.064 A 
ATOM     41  C   UNL A   1      49.804  26.391  26.507  1.00  0.00     0.173 A 
ATOM     42  C   UNL A   1      50.089  26.308  28.892  1.00  0.00     0.173 A 
ATOM     43  F   UNL A   1      49.039  26.563  25.419  1.00  0.00    -0.203 F 
ATOM     44  C   UNL A   1      51.149  26.073  26.338  1.00  0.00     0.198 A 
ATOM     45  C   UNL A   1      51.439  26.016  28.719  1.00  0.00     0.198 A 
ATOM     46  F   UNL A   1      49.607  26.417  30.140  1.00  0.00    -0.203 F 
ATOM     47  F   UNL A   1      51.654  25.933  25.105  1.00  0.00    -0.200 F 
ATOM     48  C   UNL A   1      51.968  25.895  27.444  1.00  0.00     0.200 A 
ATOM     49  F   UNL A   1      52.232  25.859  29.789  1.00  0.00    -0.200 F 
ATOM     50  F   UNL A   1      53.266  25.605  27.279  1.00  0.00    -0.200 F 
ENDBRANCH  26  40
BRANCH  27  51
ATOM     51  C   UNL A   1      39.613  28.912  29.063  1.00  0.00     0.064 A 
ATOM     52  C   UNL A   1      39.021  28.803  30.328  1.00  0.00     0.173 A 
ATOM     53  C   UNL A   1      38.808  29.357  28.003  1.00  0.00     0.173 A 
ATOM     54  F   UNL A   1      39.743  28.365  31.371  1.00  0.00    -0.203 F 
ATOM     55  C   UNL A   1      37.673  29.098  30.519  1.00  0.00     0.198 A 
ATOM     56  C   UNL A   1      37.470  29.688  28.202  1.00  0.00     0.198 A 
ATOM     57  F   UNL A   1      39.326  29.487  26.773  1.00  0.00    -0.203 F 
ATOM     58  F   UNL A   1      37.117  28.927  31.726  1.00  0.00    -0.200 F 
ATOM     59  C   UNL A   1      36.900  29.545  29.457  1.00  0.00     0.200 A 
ATOM     60  F   UNL A   1      36.735  30.140  27.178  1.00  0.00    -0.200 F 
ATOM     61  F   UNL A   1      35.604  29.831  29.642  1.00  0.00    -0.200 F 
ENDBRANCH  27  51
BRANCH  39  62
ATOM     62  C   UNL A   1      45.566  32.482  29.493  1.00  0.00     0.064 A 
ATOM     63  C   UNL A   1      45.788  32.903  30.813  1.00  0.00     0.173 A 
ATOM     64  C   UNL A   1      45.613  33.449  28.478  1.00  0.00     0.173 A 
ATOM     65  F   UNL A   1      45.734  32.020  31.820  1.00  0.00    -0.203 F 
ATOM     66  C   UNL A   1      46.004  34.246  31.109  1.00  0.00     0.198 A 
ATOM     67  C   UNL A   1      45.864  34.786  28.773  1.00  0.00     0.198 A 
ATOM     68  F   UNL A   1      45.414  33.098  27.198  1.00  0.00    -0.203 F 
ATOM     69  F   UNL A   1      46.146  34.634  32.384  1.00  0.00    -0.200 F 
ATOM     70  C   UNL A   1      46.047  35.185  30.089  1.00  0.00     0.200 A 
ATOM     71  F   UNL A   1      45.917  35.691  27.787  1.00  0.00    -0.200 F 
ATOM     72  F   UNL A   1      46.252  36.478  30.376  1.00  0.00    -0.200 F 
ENDBRANCH  39  62
ENDBRANCH  13  14
ENDBRANCH   6   8
ENDBRANCH   3   4
ENDBRANCH   2   3
ENDBRANCH   1   2
BRANCH   1  73
ATOM     73  C   UNL A   1      36.508  21.843  25.424  1.00  0.00     0.116 C 
BRANCH  73  74
ATOM     74  N   UNL A   1      35.766  22.068  26.653  1.00  0.00    -0.354 N 
ATOM     75  C   UNL A   1      34.407  22.101  26.809  1.00  0.00     0.247 C 
ATOM     76  H   UNL A   1      36.301  22.213  27.466  1.00  0.00     0.163 HD
ATOM     77  O   UNL A   1      33.950  21.522  27.790  1.00  0.00    -0.272 OA
BRANCH  75  78
ATOM     78  C   UNL A   1      33.495  22.778  25.771  1.00  0.00     0.202 C 
BRANCH  78  79
ATOM     79  C   UNL A   1      33.252  21.799  24.604  1.00  0.00    -0.004 A 
ATOM     80  C   UNL A   1      33.099  20.434  24.956  1.00  0.00     0.007 A 
ATOM     81  C   UNL A   1      32.950  22.167  23.271  1.00  0.00     0.061 A 
ATOM     82  C   UNL A   1      32.491  19.511  24.105  1.00  0.00     0.000 A 
ATOM     83  C   UNL A   1      32.324  21.213  22.431  1.00  0.00     0.013 A 
ATOM     84  C   UNL A   1      32.065  19.914  22.853  1.00  0.00     0.001 A 
BRANCH  81  85
ATOM     85  C   UNL A   1      33.201  23.515  22.627  1.00  0.00     0.416 C 
ATOM     86  F   UNL A   1      33.215  23.422  21.261  1.00  0.00    -0.166 F 
ATOM     87  F   UNL A   1      32.237  24.428  22.911  1.00  0.00    -0.166 F 
ATOM     88  F   UNL A   1      34.389  24.088  22.932  1.00  0.00    -0.166 F 
ENDBRANCH  81  85
ENDBRANCH  78  79
BRANCH  78  89
ATOM     89  N   UNL A   1      32.331  23.589  26.147  1.00  0.00    -0.340 N 
ATOM     90  C   UNL A   1      31.942  24.847  26.419  1.00  0.00     0.226 C 
ATOM     91  H   UNL A   1      31.550  22.996  26.234  1.00  0.00     0.164 HD
ATOM     92  O   UNL A   1      30.746  24.901  26.766  1.00  0.00    -0.275 OA
BRANCH  90  93
ATOM     93  C   UNL A   1      32.646  26.191  26.248  1.00  0.00     0.107 C 
ATOM     94  C   UNL A   1      33.711  26.452  25.200  1.00  0.00     0.115 C 
ATOM     95  C   UNL A   1      31.678  27.353  26.141  1.00  0.00     0.133 C 
ATOM     96  C   UNL A   1      33.130  27.542  24.325  1.00  0.00     0.223 C 
ATOM     97  N   UNL A   1      31.866  27.865  24.810  1.00  0.00    -0.342 N 
ATOM     98  O   UNL A   1      33.703  28.078  23.391  1.00  0.00    -0.275 OA
BRANCH  97  99
ATOM     99  C   UNL A   1      31.084  28.950  24.254  1.00  0.00     0.123 C 
BRANCH  99 100
ATOM    100  C   UNL A   1      30.199  28.570  23.099  1.00  0.00     0.008 C 
ATOM    101  C   UNL A   1      28.805  29.088  22.803  1.00  0.00     0.006 C 
ATOM    102  C   UNL A   1      29.970  29.592  22.010  1.00  0.00     0.006 C 
ENDBRANCH  99 100
ENDBRANCH  97  99
ENDBRANCH  90  93
ENDBRANCH  78  89
ENDBRANCH  75  78
ENDBRANCH  73  74
ENDBRANCH   1  73
TORSDOF 17
ENDMDL
MODEL 3
REMARK VINA RESULT:     -12.9      4.970     10.768
REMARK SMILES O=C(NCCCCNC(=O)[C@H](NC(=O)[C@H]1CC(=O)N(CC2CC2)C1)c1ccccc1C(F)(F)F)c1ccc(-c2c3nc(c(-c4c(F)c(F)c(F)c(F)c4F)c4ccc([nH]4)c(-c4c(F)c(F)c(F)c(F)c4F)c4nc(c(-c5c(F)c(F)c(F)c(F)c5F)c5ccc2[nH]5)C=C4)C=C3)cc1
REMARK SMILES IDX 6 1 5 2 4 3 3 4 1 5 2 6 35 8 36 9 97 10 37 11 96 12 38 13
REMARK SMILES IDX 39 14 40 15 90 16 41 17 95 18 89 19 91 20 42 21 94 22 88 23
REMARK SMILES IDX 87 24 43 26 75 27 55 28 74 29 56 30 59 31 73 32 92 33 57 34
REMARK SMILES IDX 58 35 72 37 93 38 60 39 44 40 45 41 53 42 46 43 47 44 51 45
REMARK SMILES IDX 54 46 48 47 49 48 52 49 50 50 76 51 77 52 85 53 78 54 79 55
REMARK SMILES IDX 83 56 86 57 80 58 81 59 84 60 82 61 61 62 62 63 70 64 63 65
REMARK SMILES IDX 64 66 68 67 71 68 65 69 66 70 69 71 67 72 7 73 8 74 9 75
REMARK SMILES IDX 10 77 11 78 25 79 26 80 30 81 27 82 29 83 28 84 31 85 32 86
REMARK SMILES IDX 33 87 34 88 12 89 13 90 14 92 15 93 16 94 24 95 17 96 19 97
REMARK SMILES IDX 18 98 20 99 21 100 22 101 23 102
REMARK H PARENT 3 7 91 25 59 36 8 76 12 91
REMARK Flexibility Score: inf
ROOT
ATOM      1  C   UNL A   1      36.624  20.345  25.001  1.00  0.00     0.023 C 
ENDROOT
BRANCH   1   2
ATOM      2  C   UNL A   1      38.062  19.946  24.704  1.00  0.00     0.023 C 
BRANCH   2   3
ATOM      3  C   UNL A   1      39.060  20.222  25.812  1.00  0.00     0.116 C 
BRANCH   3   4
ATOM      4  N   UNL A   1      40.102  19.218  25.883  1.00  0.00    -0.352 N 
ATOM      5  O   UNL A   1      42.219  18.445  25.904  1.00  0.00    -0.269 OA
ATOM      6  C   UNL A   1      41.455  19.394  26.047  1.00  0.00     0.251 C 
ATOM      7  H   UNL A   1      39.801  18.285  25.803  1.00  0.00     0.163 HD
BRANCH   6   8
ATOM      8  C   UNL A   1      41.991  20.734  26.377  1.00  0.00     0.039 A 
ATOM      9  C   UNL A   1      42.215  21.680  25.376  1.00  0.00     0.014 A 
ATOM     10  C   UNL A   1      42.247  21.059  27.712  1.00  0.00     0.014 A 
ATOM     11  C   UNL A   1      42.827  22.887  25.686  1.00  0.00     0.010 A 
ATOM     12  C   UNL A   1      42.748  22.323  28.039  1.00  0.00     0.010 A 
ATOM     13  C   UNL A   1      43.050  23.245  27.026  1.00  0.00    -0.014 A 
BRANCH  13  14
ATOM     14  C   UNL A   1      43.464  24.639  27.327  1.00  0.00     0.031 A 
ATOM     15  C   UNL A   1      44.849  25.138  27.034  1.00  0.00     0.074 A 
ATOM     16  C   UNL A   1      42.536  25.468  27.849  1.00  0.00     0.049 A 
ATOM     17  N   UNL A   1      45.344  26.337  27.217  1.00  0.00    -0.248 NA
ATOM     18  C   UNL A   1      45.806  24.174  26.473  1.00  0.00     0.031 C 
ATOM     19  C   UNL A   1      41.166  25.078  28.200  1.00  0.00     0.029 A 
ATOM     20  N   UNL A   1      42.585  26.804  28.150  1.00  0.00    -0.354 N 
ATOM     21  C   UNL A   1      46.668  26.272  26.805  1.00  0.00     0.074 A 
ATOM     22  C   UNL A   1      46.911  24.906  26.389  1.00  0.00     0.031 C 
ATOM     23  C   UNL A   1      40.489  26.159  28.606  1.00  0.00     0.029 A 
ATOM     24  C   UNL A   1      41.394  27.300  28.622  1.00  0.00     0.049 A 
ATOM     25  H   UNL A   1      43.394  27.354  28.039  1.00  0.00     0.167 HD
ATOM     26  C   UNL A   1      47.587  27.267  26.769  1.00  0.00     0.037 A 
ATOM     27  C   UNL A   1      41.067  28.535  29.044  1.00  0.00     0.037 A 
ATOM     28  C   UNL A   1      47.332  28.624  27.183  1.00  0.00     0.049 A 
ATOM     29  C   UNL A   1      42.117  29.607  29.007  1.00  0.00     0.074 A 
ATOM     30  C   UNL A   1      48.194  29.707  27.176  1.00  0.00     0.029 A 
ATOM     31  N   UNL A   1      46.121  29.087  27.680  1.00  0.00    -0.354 N 
ATOM     32  N   UNL A   1      43.358  29.535  28.591  1.00  0.00    -0.248 NA
ATOM     33  C   UNL A   1      41.722  30.931  29.502  1.00  0.00     0.031 C 
ATOM     34  C   UNL A   1      47.520  30.812  27.708  1.00  0.00     0.029 A 
ATOM     35  C   UNL A   1      46.221  30.433  27.999  1.00  0.00     0.049 A 
ATOM     36  H   UNL A   1      45.310  28.539  27.791  1.00  0.00     0.167 HD
ATOM     37  C   UNL A   1      43.889  30.804  28.764  1.00  0.00     0.074 A 
ATOM     38  C   UNL A   1      42.824  31.634  29.286  1.00  0.00     0.031 C 
ATOM     39  C   UNL A   1      45.150  31.240  28.525  1.00  0.00     0.037 A 
BRANCH  26  40
ATOM     40  C   UNL A   1      48.965  26.933  26.270  1.00  0.00     0.064 A 
ATOM     41  C   UNL A   1      49.949  26.413  27.124  1.00  0.00     0.173 A 
ATOM     42  C   UNL A   1      49.282  27.062  24.909  1.00  0.00     0.173 A 
ATOM     43  F   UNL A   1      49.703  26.281  28.436  1.00  0.00    -0.203 F 
ATOM     44  C   UNL A   1      51.201  26.046  26.636  1.00  0.00     0.198 A 
ATOM     45  C   UNL A   1      50.525  26.669  24.420  1.00  0.00     0.198 A 
ATOM     46  F   UNL A   1      48.375  27.548  24.047  1.00  0.00    -0.203 F 
ATOM     47  F   UNL A   1      52.136  25.581  27.476  1.00  0.00    -0.200 F 
ATOM     48  C   UNL A   1      51.485  26.165  25.284  1.00  0.00     0.200 A 
ATOM     49  F   UNL A   1      50.792  26.772  23.110  1.00  0.00    -0.200 F 
ATOM     50  F   UNL A   1      52.685  25.796  24.814  1.00  0.00    -0.200 F 
ENDBRANCH  26  40
BRANCH  27  51
ATOM     51  C   UNL A   1      39.700  28.809  29.558  1.00  0.00     0.064 A 
ATOM     52  C   UNL A   1      38.694  29.303  28.717  1.00  0.00     0.173 A 
ATOM     53  C   UNL A   1      39.376  28.591  30.906  1.00  0.00     0.173 A 
ATOM     54  F   UNL A   1      38.958  29.546  27.425  1.00  0.00    -0.203 F 
ATOM     55  C   UNL A   1      37.424  29.595  29.211  1.00  0.00     0.198 A 
ATOM     56  C   UNL A   1      38.095  28.847  31.390  1.00  0.00     0.198 A 
ATOM     57  F   UNL A   1      40.300  28.112  31.752  1.00  0.00    -0.203 F 
ATOM     58  F   UNL A   1      36.497  30.122  28.400  1.00  0.00    -0.200 F 
ATOM     59  C   UNL A   1      37.124  29.361  30.545  1.00  0.00     0.200 A 
ATOM     60  F   UNL A   1      37.806  28.599  32.674  1.00  0.00    -0.200 F 
ATOM     61  F   UNL A   1      35.902  29.639  31.018  1.00  0.00    -0.200 F 
ENDBRANCH  27  51
BRANCH  39  62
ATOM     62  C   UNL A   1      45.426  32.686  28.816  1.00  0.00     0.064 A 
ATOM     63  C   UNL A   1      45.208  33.683  27.853  1.00  0.00     0.173 A 
ATOM     64  C   UNL A   1      45.921  33.078  30.068  1.00  0.00     0.173 A 
ATOM     65  F   UNL A   1      44.755  33.356  26.634  1.00  0.00    -0.203 F 
ATOM     66  C   UNL A   1      45.514  35.015  28.120  1.00  0.00     0.198 A 
ATOM     67  C   UNL A   1      46.193  34.415  30.344  1.00  0.00     0.198 A 
ATOM     68  F   UNL A   1      46.141  32.164  31.026  1.00  0.00    -0.203 F 
ATOM     69  F   UNL A   1      45.361  35.940  27.163  1.00  0.00    -0.200 F 
ATOM     70  C   UNL A   1      46.001  35.380  29.366  1.00  0.00     0.200 A 
ATOM     71  F   UNL A   1      46.652  34.769  31.552  1.00  0.00    -0.200 F 
ATOM     72  F   UNL A   1      46.299  36.661  29.620  1.00  0.00    -0.200 F 
ENDBRANCH  39  62
ENDBRANCH  13  14
ENDBRANCH   6   8
ENDBRANCH   3   4
ENDBRANCH   2   3
ENDBRANCH   1   2
BRANCH   1  73
ATOM     73  C   UNL A   1      36.384  21.819  25.321  1.00  0.00     0.116 C 
BRANCH  73  74
ATOM     74  N   UNL A   1      35.715  22.081  26.584  1.00  0.00    -0.354 N 
ATOM     75  C   UNL A   1      34.377  21.981  26.852  1.00  0.00     0.247 C 
ATOM     76  H   UNL A   1      36.290  22.362  27.332  1.00  0.00     0.163 HD
ATOM     77  O   UNL A   1      34.066  21.455  27.916  1.00  0.00    -0.272 OA
BRANCH  75  78
ATOM     78  C   UNL A   1      33.318  22.451  25.840  1.00  0.00     0.202 C 
BRANCH  78  79
ATOM     79  C   UNL A   1      33.165  21.378  24.742  1.00  0.00    -0.004 A 
ATOM     80  C   UNL A   1      33.133  20.031  25.185  1.00  0.00     0.007 A 
ATOM     81  C   UNL A   1      32.833  21.628  23.389  1.00  0.00     0.061 A 
ATOM     82  C   UNL A   1      32.611  19.004  24.400  1.00  0.00     0.000 A 
ATOM     83  C   UNL A   1      32.296  20.569  22.617  1.00  0.00     0.013 A 
ATOM     84  C   UNL A   1      32.153  19.283  23.126  1.00  0.00     0.001 A 
BRANCH  81  85
ATOM     85  C   UNL A   1      32.965  22.947  22.656  1.00  0.00     0.416 C 
ATOM     86  F   UNL A   1      31.896  23.767  22.905  1.00  0.00    -0.166 F 
ATOM     87  F   UNL A   1      34.055  23.661  23.036  1.00  0.00    -0.166 F 
ATOM     88  F   UNL A   1      33.004  22.856  21.306  1.00  0.00    -0.166 F 
ENDBRANCH  81  85
ENDBRANCH  78  79
BRANCH  78  89
ATOM     89  N   UNL A   1      32.065  23.099  26.247  1.00  0.00    -0.340 N 
ATOM     90  C   UNL A   1      31.492  24.300  26.440  1.00  0.00     0.226 C 
ATOM     91  H   UNL A   1      31.404  22.401  26.456  1.00  0.00     0.164 HD
ATOM     92  O   UNL A   1      30.333  24.196  26.888  1.00  0.00    -0.275 OA
BRANCH  90  93
ATOM     93  C   UNL A   1      31.945  25.715  26.089  1.00  0.00     0.107 C 
ATOM     94  C   UNL A   1      33.263  26.027  25.405  1.00  0.00     0.115 C 
ATOM     95  C   UNL A   1      30.896  26.495  25.323  1.00  0.00     0.133 C 
ATOM     96  C   UNL A   1      32.872  26.678  24.097  1.00  0.00     0.223 C 
ATOM     97  N   UNL A   1      31.483  26.726  24.029  1.00  0.00    -0.342 N 
ATOM     98  O   UNL A   1      33.651  27.131  23.273  1.00  0.00    -0.275 OA
BRANCH  97  99
ATOM     99  C   UNL A   1      30.788  27.387  22.944  1.00  0.00     0.123 C 
BRANCH  99 100
ATOM    100  C   UNL A   1      29.906  28.533  23.357  1.00  0.00     0.008 C 
ATOM    101  C   UNL A   1      29.178  29.504  22.448  1.00  0.00     0.006 C 
ATOM    102  C   UNL A   1      28.418  28.407  23.126  1.00  0.00     0.006 C 
ENDBRANCH  99 100
ENDBRANCH  97  99
ENDBRANCH  90  93
ENDBRANCH  78  89
ENDBRANCH  75  78
ENDBRANCH  73  74
ENDBRANCH   1  73
TORSDOF 17
ENDMDL
