MODEL 1
REMARK VINA RESULT:      -9.5      0.000      0.000
REMARK SMILES [NH3+][C@]1(C(=O)NCCCCNC(=O)c2ccc(-c3c4nc(c(-c5c(F)c(F)c(F)c(F)c5F)c5ccc([nH]5)c(-c5c(F)c(F)c(F)c(F)c5F)c5nc(c(-c6c(F)c(F)c(F)c(F)c6F)c6ccc3[nH]6)C=C5)C=C4)cc2)CCC[C@@H]1CCOc1ccc(CO)cc1
REMARK SMILES IDX 3 1 4 2 5 3 2 5 76 6 79 7 77 8 78 9 1 10 80 14 81 15 82 16
REMARK SMILES IDX 83 17 84 18 90 19 85 20 89 21 86 22 87 23 88 24 6 26 7 27
REMARK SMILES IDX 8 28 9 29 10 30 11 31 12 33 13 34 14 35 75 36 15 37 74 38
REMARK SMILES IDX 16 39 17 40 18 41 68 42 19 43 73 44 67 45 69 46 20 47 72 48
REMARK SMILES IDX 66 49 65 50 21 52 53 53 33 54 52 55 34 56 37 57 51 58 70 59
REMARK SMILES IDX 35 60 36 61 50 63 71 64 38 65 22 66 23 67 31 68 24 69 25 70
REMARK SMILES IDX 29 71 32 72 26 73 27 74 30 75 28 76 54 77 55 78 63 79 56 80
REMARK SMILES IDX 57 81 61 82 64 83 58 84 59 85 62 86 60 87 39 88 40 89 48 90
REMARK SMILES IDX 41 91 42 92 46 93 49 94 43 95 44 96 47 97 45 98
REMARK H PARENT 5 4 1 11 1 12 1 13 88 25 10 32 69 51 37 62
REMARK Flexibility Score: inf
ROOT
ATOM      1  C   UNL A   1      35.294  34.942  32.538  1.00  0.00     0.281 C 
ATOM      2  O   UNL A   1      35.140  35.943  33.245  1.00  0.00    -0.268 OA
ATOM      3  N   UNL A   1      34.635  34.982  31.339  1.00  0.00    -0.351 N 
ATOM      4  H   UNL A   1      34.350  35.879  31.050  1.00  0.00     0.163 HD
ENDROOT
BRANCH   1   5
ATOM      5  C   UNL A   1      36.316  33.770  32.903  1.00  0.00     0.176 C 
ATOM      6  C   UNL A   1      37.322  33.628  31.729  1.00  0.00     0.079 C 
ATOM      7  C   UNL A   1      37.209  34.037  34.154  1.00  0.00     0.064 C 
ATOM      8  C   UNL A   1      38.688  34.096  32.201  1.00  0.00     0.008 C 
ATOM      9  C   UNL A   1      38.532  34.604  33.614  1.00  0.00     0.011 C 
BRANCH   5  10
ATOM     10  N   UNL A   1      35.476  32.571  32.912  1.00  0.00    -0.345 N 
ATOM     11  H   UNL A   1      35.757  31.965  33.683  1.00  0.00     0.345 HD
ATOM     12  H   UNL A   1      35.588  32.072  32.030  1.00  0.00     0.345 HD
ATOM     13  H   UNL A   1      34.500  32.841  33.029  1.00  0.00     0.345 HD
ENDBRANCH   5  10
BRANCH   7  14
ATOM     14  C   UNL A   1      37.420  33.152  35.423  1.00  0.00     0.052 C 
BRANCH  14  15
ATOM     15  C   UNL A   1      38.087  31.772  35.408  1.00  0.00     0.230 C 
BRANCH  15  16
ATOM     16  O   UNL A   1      37.836  31.047  34.189  1.00  0.00    -0.494 OA
BRANCH  16  17
ATOM     17  C   UNL A   1      38.934  30.341  33.790  1.00  0.00     0.119 A 
ATOM     18  C   UNL A   1      40.210  30.793  34.108  1.00  0.00     0.047 A 
ATOM     19  C   UNL A   1      38.759  29.171  33.060  1.00  0.00     0.047 A 
ATOM     20  C   UNL A   1      41.316  29.997  33.797  1.00  0.00     0.010 A 
ATOM     21  C   UNL A   1      39.859  28.371  32.766  1.00  0.00     0.010 A 
ATOM     22  C   UNL A   1      41.147  28.761  33.153  1.00  0.00    -0.022 A 
BRANCH  22  23
ATOM     23  C   UNL A   1      42.310  27.821  32.960  1.00  0.00     0.191 C 
BRANCH  23  24
ATOM     24  O   UNL A   1      42.744  27.762  31.608  1.00  0.00    -0.392 OA
ATOM     25  H   UNL A   1      43.020  26.856  31.396  1.00  0.00     0.211 HD
ENDBRANCH  23  24
ENDBRANCH  22  23
ENDBRANCH  16  17
ENDBRANCH  15  16
ENDBRANCH  14  15
ENDBRANCH   7  14
ENDBRANCH   1   5
BRANCH   3  26
ATOM     26  C   UNL A   1      34.294  33.913  30.433  1.00  0.00     0.116 C 
BRANCH  26  27
ATOM     27  C   UNL A   1      33.494  34.480  29.251  1.00  0.00     0.023 C 
BRANCH  27  28
ATOM     28  C   UNL A   1      33.297  33.520  28.098  1.00  0.00     0.023 C 
BRANCH  28  29
ATOM     29  C   UNL A   1      34.359  32.446  28.013  1.00  0.00     0.116 C 
BRANCH  29  30
ATOM     30  N   UNL A   1      33.831  31.108  27.769  1.00  0.00    -0.352 N 
ATOM     31  C   UNL A   1      34.512  29.911  27.852  1.00  0.00     0.251 C 
ATOM     32  H   UNL A   1      32.881  31.052  27.517  1.00  0.00     0.163 HD
ATOM     33  O   UNL A   1      33.998  28.850  27.562  1.00  0.00    -0.269 OA
BRANCH  31  34
ATOM     34  C   UNL A   1      35.924  29.996  28.267  1.00  0.00     0.039 A 
ATOM     35  C   UNL A   1      36.270  29.595  29.557  1.00  0.00     0.014 A 
ATOM     36  C   UNL A   1      36.892  30.228  27.288  1.00  0.00     0.014 A 
ATOM     37  C   UNL A   1      37.609  29.342  29.845  1.00  0.00     0.010 A 
ATOM     38  C   UNL A   1      38.200  29.856  27.545  1.00  0.00     0.010 A 
ATOM     39  C   UNL A   1      38.574  29.417  28.826  1.00  0.00    -0.014 A 
BRANCH  39  40
ATOM     40  C   UNL A   1      39.995  29.078  29.072  1.00  0.00     0.031 A 
ATOM     41  C   UNL A   1      40.867  30.077  29.781  1.00  0.00     0.074 A 
ATOM     42  C   UNL A   1      40.518  27.936  28.586  1.00  0.00     0.049 A 
ATOM     43  N   UNL A   1      42.157  30.055  29.985  1.00  0.00    -0.248 NA
ATOM     44  C   UNL A   1      40.202  31.295  30.278  1.00  0.00     0.031 C 
ATOM     45  C   UNL A   1      39.791  26.924  27.817  1.00  0.00     0.029 A 
ATOM     46  N   UNL A   1      41.796  27.439  28.659  1.00  0.00    -0.354 N 
ATOM     47  C   UNL A   1      42.458  31.266  30.593  1.00  0.00     0.074 A 
ATOM     48  C   UNL A   1      41.233  32.030  30.657  1.00  0.00     0.031 C 
ATOM     49  C   UNL A   1      40.624  25.911  27.523  1.00  0.00     0.029 A 
ATOM     50  C   UNL A   1      41.951  26.219  28.048  1.00  0.00     0.049 A 
ATOM     51  H   UNL A   1      42.532  27.914  29.108  1.00  0.00     0.167 HD
ATOM     52  C   UNL A   1      43.642  31.689  31.090  1.00  0.00     0.037 A 
ATOM     53  C   UNL A   1      43.043  25.439  27.934  1.00  0.00     0.037 A 
ATOM     54  C   UNL A   1      44.838  30.893  31.089  1.00  0.00     0.049 A 
ATOM     55  C   UNL A   1      44.337  25.907  28.544  1.00  0.00     0.074 A 
ATOM     56  C   UNL A   1      46.069  31.185  31.644  1.00  0.00     0.029 A 
ATOM     57  N   UNL A   1      44.940  29.635  30.515  1.00  0.00    -0.354 N 
ATOM     58  N   UNL A   1      44.595  27.023  29.181  1.00  0.00    -0.248 NA
ATOM     59  C   UNL A   1      45.490  25.002  28.429  1.00  0.00     0.031 C 
ATOM     60  C   UNL A   1      46.929  30.114  31.380  1.00  0.00     0.029 A 
ATOM     61  C   UNL A   1      46.220  29.139  30.695  1.00  0.00     0.049 A 
ATOM     62  H   UNL A   1      44.211  29.165  30.048  1.00  0.00     0.167 HD
ATOM     63  C   UNL A   1      45.927  26.946  29.566  1.00  0.00     0.074 A 
ATOM     64  C   UNL A   1      46.420  25.666  29.101  1.00  0.00     0.031 C 
ATOM     65  C   UNL A   1      46.677  27.852  30.239  1.00  0.00     0.037 A 
BRANCH  52  66
ATOM     66  C   UNL A   1      43.685  33.061  31.695  1.00  0.00     0.064 A 
ATOM     67  C   UNL A   1      43.625  33.254  33.084  1.00  0.00     0.173 A 
ATOM     68  C   UNL A   1      43.788  34.196  30.879  1.00  0.00     0.173 A 
ATOM     69  F   UNL A   1      43.505  32.201  33.908  1.00  0.00    -0.203 F 
ATOM     70  C   UNL A   1      43.625  34.534  33.631  1.00  0.00     0.198 A 
ATOM     71  C   UNL A   1      43.824  35.474  31.431  1.00  0.00     0.198 A 
ATOM     72  F   UNL A   1      43.850  34.068  29.544  1.00  0.00    -0.203 F 
ATOM     73  F   UNL A   1      43.501  34.695  34.956  1.00  0.00    -0.200 F 
ATOM     74  C   UNL A   1      43.732  35.642  32.805  1.00  0.00     0.200 A 
ATOM     75  F   UNL A   1      43.935  36.544  30.633  1.00  0.00    -0.200 F 
ATOM     76  F   UNL A   1      43.734  36.874  33.332  1.00  0.00    -0.200 F 
ENDBRANCH  52  66
BRANCH  53  77
ATOM     77  C   UNL A   1      42.952  24.120  27.256  1.00  0.00     0.064 A 
ATOM     78  C   UNL A   1      42.529  22.982  27.958  1.00  0.00     0.173 A 
ATOM     79  C   UNL A   1      43.291  23.962  25.904  1.00  0.00     0.173 A 
ATOM     80  F   UNL A   1      42.212  23.078  29.258  1.00  0.00    -0.203 F 
ATOM     81  C   UNL A   1      42.469  21.734  27.341  1.00  0.00     0.198 A 
ATOM     82  C   UNL A   1      43.206  22.718  25.281  1.00  0.00     0.198 A 
ATOM     83  F   UNL A   1      43.696  25.020  25.186  1.00  0.00    -0.203 F 
ATOM     84  F   UNL A   1      42.103  20.657  28.049  1.00  0.00    -0.200 F 
ATOM     85  C   UNL A   1      42.803  21.604  26.002  1.00  0.00     0.200 A 
ATOM     86  F   UNL A   1      43.518  22.598  23.984  1.00  0.00    -0.200 F 
ATOM     87  F   UNL A   1      42.743  20.403  25.408  1.00  0.00    -0.200 F 
ENDBRANCH  53  77
BRANCH  65  88
ATOM     88  C   UNL A   1      48.095  27.478  30.547  1.00  0.00     0.064 A 
ATOM     89  C   UNL A   1      48.427  26.750  31.698  1.00  0.00     0.173 A 
ATOM     90  C   UNL A   1      49.121  27.800  29.647  1.00  0.00     0.173 A 
ATOM     91  F   UNL A   1      47.480  26.432  32.592  1.00  0.00    -0.203 F 
ATOM     92  C   UNL A   1      49.742  26.371  31.945  1.00  0.00     0.198 A 
ATOM     93  C   UNL A   1      50.431  27.395  29.884  1.00  0.00     0.198 A 
ATOM     94  F   UNL A   1      48.850  28.489  28.529  1.00  0.00    -0.203 F 
ATOM     95  F   UNL A   1      50.047  25.706  33.069  1.00  0.00    -0.200 F 
ATOM     96  C   UNL A   1      50.742  26.685  31.035  1.00  0.00     0.200 A 
ATOM     97  F   UNL A   1      51.393  27.687  28.997  1.00  0.00    -0.200 F 
ATOM     98  F   UNL A   1      52.006  26.308  31.269  1.00  0.00    -0.200 F 
ENDBRANCH  65  88
ENDBRANCH  39  40
ENDBRANCH  31  34
ENDBRANCH  29  30
ENDBRANCH  28  29
ENDBRANCH  27  28
ENDBRANCH  26  27
ENDBRANCH   3  26
TORSDOF 18
ENDMDL
MODEL 2
REMARK VINA RESULT:      -9.3      4.258     10.374
REMARK SMILES [NH3+][C@]1(C(=O)NCCCCNC(=O)c2ccc(-c3c4nc(c(-c5c(F)c(F)c(F)c(F)c5F)c5ccc([nH]5)c(-c5c(F)c(F)c(F)c(F)c5F)c5nc(c(-c6c(F)c(F)c(F)c(F)c6F)c6ccc3[nH]6)C=C5)C=C4)cc2)CCC[C@@H]1CCOc1ccc(CO)cc1
REMARK SMILES IDX 3 1 4 2 5 3 2 5 76 6 79 7 77 8 78 9 1 10 80 14 81 15 82 16
REMARK SMILES IDX 83 17 84 18 90 19 85 20 89 21 86 22 87 23 88 24 6 26 7 27
REMARK SMILES IDX 8 28 9 29 10 30 11 31 12 33 13 34 14 35 75 36 15 37 74 38
REMARK SMILES IDX 16 39 17 40 18 41 68 42 19 43 73 44 67 45 69 46 20 47 72 48
REMARK SMILES IDX 66 49 65 50 21 52 53 53 33 54 52 55 34 56 37 57 51 58 70 59
REMARK SMILES IDX 35 60 36 61 50 63 71 64 38 65 22 66 23 67 31 68 24 69 25 70
REMARK SMILES IDX 29 71 32 72 26 73 27 74 30 75 28 76 54 77 55 78 63 79 56 80
REMARK SMILES IDX 57 81 61 82 64 83 58 84 59 85 62 86 60 87 39 88 40 89 48 90
REMARK SMILES IDX 41 91 42 92 46 93 49 94 43 95 44 96 47 97 45 98
REMARK H PARENT 5 4 1 11 1 12 1 13 88 25 10 32 69 51 37 62
REMARK Flexibility Score: inf
ROOT
ATOM      1  C   UNL A   1      33.440  28.677  23.994  1.00  0.00     0.281 C 
ATOM      2  O   UNL A   1      33.677  29.165  22.885  1.00  0.00    -0.268 OA
ATOM      3  N   UNL A   1      33.721  29.499  25.053  1.00  0.00    -0.351 N 
ATOM      4  H   UNL A   1      33.810  30.453  24.827  1.00  0.00     0.163 HD
ENDROOT
BRANCH   1   5
ATOM      5  C   UNL A   1      32.702  27.273  24.185  1.00  0.00     0.176 C 
ATOM      6  C   UNL A   1      33.299  26.275  23.156  1.00  0.00     0.079 C 
ATOM      7  C   UNL A   1      32.928  26.591  25.569  1.00  0.00     0.064 C 
ATOM      8  C   UNL A   1      34.104  25.228  23.907  1.00  0.00     0.008 C 
ATOM      9  C   UNL A   1      34.089  25.604  25.368  1.00  0.00     0.011 C 
BRANCH   5  10
ATOM     10  N   UNL A   1      31.323  27.551  23.781  1.00  0.00    -0.345 N 
ATOM     11  H   UNL A   1      31.018  28.432  24.196  1.00  0.00     0.345 HD
ATOM     12  H   UNL A   1      30.716  26.797  24.101  1.00  0.00     0.345 HD
ATOM     13  H   UNL A   1      31.274  27.620  22.765  1.00  0.00     0.345 HD
ENDBRANCH   5  10
BRANCH   7  14
ATOM     14  C   UNL A   1      31.873  26.060  26.592  1.00  0.00     0.052 C 
BRANCH  14  15
ATOM     15  C   UNL A   1      30.973  24.844  26.346  1.00  0.00     0.230 C 
BRANCH  15  16
ATOM     16  O   UNL A   1      31.226  23.770  27.272  1.00  0.00    -0.494 OA
BRANCH  16  17
ATOM     17  C   UNL A   1      32.195  22.927  26.811  1.00  0.00     0.119 A 
ATOM     18  C   UNL A   1      32.109  22.399  25.527  1.00  0.00     0.047 A 
ATOM     19  C   UNL A   1      33.263  22.602  27.640  1.00  0.00     0.047 A 
ATOM     20  C   UNL A   1      33.168  21.635  25.028  1.00  0.00     0.010 A 
ATOM     21  C   UNL A   1      34.325  21.856  27.136  1.00  0.00     0.010 A 
ATOM     22  C   UNL A   1      34.302  21.386  25.817  1.00  0.00    -0.022 A 
BRANCH  22  23
ATOM     23  C   UNL A   1      35.517  20.707  25.237  1.00  0.00     0.191 C 
BRANCH  23  24
ATOM     24  O   UNL A   1      35.275  19.345  24.908  1.00  0.00    -0.392 OA
ATOM     25  H   UNL A   1      34.428  19.066  25.288  1.00  0.00     0.211 HD
ENDBRANCH  23  24
ENDBRANCH  22  23
ENDBRANCH  16  17
ENDBRANCH  15  16
ENDBRANCH  14  15
ENDBRANCH   7  14
ENDBRANCH   1   5
BRANCH   3  26
ATOM     26  C   UNL A   1      33.906  29.182  26.447  1.00  0.00     0.116 C 
BRANCH  26  27
ATOM     27  C   UNL A   1      32.812  29.871  27.277  1.00  0.00     0.023 C 
BRANCH  27  28
ATOM     28  C   UNL A   1      32.520  31.303  26.879  1.00  0.00     0.023 C 
BRANCH  28  29
ATOM     29  C   UNL A   1      33.331  32.324  27.645  1.00  0.00     0.116 C 
BRANCH  29  30
ATOM     30  N   UNL A   1      32.723  33.650  27.692  1.00  0.00    -0.352 N 
ATOM     31  C   UNL A   1      33.070  34.701  28.515  1.00  0.00     0.251 C 
ATOM     32  H   UNL A   1      31.982  33.813  27.065  1.00  0.00     0.163 HD
ATOM     33  O   UNL A   1      32.456  35.748  28.524  1.00  0.00    -0.269 OA
BRANCH  31  34
ATOM     34  C   UNL A   1      34.205  34.465  29.425  1.00  0.00     0.039 A 
ATOM     35  C   UNL A   1      33.960  33.879  30.667  1.00  0.00     0.014 A 
ATOM     36  C   UNL A   1      35.500  34.596  28.921  1.00  0.00     0.014 A 
ATOM     37  C   UNL A   1      35.029  33.339  31.378  1.00  0.00     0.010 A 
ATOM     38  C   UNL A   1      36.536  33.951  29.573  1.00  0.00     0.010 A 
ATOM     39  C   UNL A   1      36.315  33.323  30.810  1.00  0.00    -0.014 A 
BRANCH  39  40
ATOM     40  C   UNL A   1      37.463  32.688  31.498  1.00  0.00     0.031 A 
ATOM     41  C   UNL A   1      38.171  31.546  30.823  1.00  0.00     0.074 A 
ATOM     42  C   UNL A   1      37.804  33.065  32.746  1.00  0.00     0.049 A 
ATOM     43  N   UNL A   1      39.105  30.758  31.288  1.00  0.00    -0.248 NA
ATOM     44  C   UNL A   1      37.726  31.210  29.460  1.00  0.00     0.031 C 
ATOM     45  C   UNL A   1      37.144  34.108  33.533  1.00  0.00     0.029 A 
ATOM     46  N   UNL A   1      38.793  32.600  33.577  1.00  0.00    -0.354 N 
ATOM     47  C   UNL A   1      39.325  29.816  30.292  1.00  0.00     0.074 A 
ATOM     48  C   UNL A   1      38.379  30.082  29.233  1.00  0.00     0.031 C 
ATOM     49  C   UNL A   1      37.769  34.229  34.716  1.00  0.00     0.029 A 
ATOM     50  C   UNL A   1      38.848  33.249  34.787  1.00  0.00     0.049 A 
ATOM     51  H   UNL A   1      39.405  31.870  33.330  1.00  0.00     0.167 HD
ATOM     52  C   UNL A   1      40.260  28.840  30.246  1.00  0.00     0.037 A 
ATOM     53  C   UNL A   1      39.682  33.070  35.828  1.00  0.00     0.037 A 
ATOM     54  C   UNL A   1      41.244  28.630  31.271  1.00  0.00     0.049 A 
ATOM     55  C   UNL A   1      40.750  32.014  35.732  1.00  0.00     0.074 A 
ATOM     56  C   UNL A   1      42.292  27.729  31.289  1.00  0.00     0.029 A 
ATOM     57  N   UNL A   1      41.306  29.348  32.456  1.00  0.00    -0.354 N 
ATOM     58  N   UNL A   1      40.998  31.175  34.755  1.00  0.00    -0.248 NA
ATOM     59  C   UNL A   1      41.661  31.885  36.878  1.00  0.00     0.031 C 
ATOM     60  C   UNL A   1      42.974  27.882  32.500  1.00  0.00     0.029 A 
ATOM     61  C   UNL A   1      42.373  28.904  33.218  1.00  0.00     0.049 A 
ATOM     62  H   UNL A   1      40.684  30.066  32.716  1.00  0.00     0.167 HD
ATOM     63  C   UNL A   1      42.105  30.438  35.154  1.00  0.00     0.074 A 
ATOM     64  C   UNL A   1      42.490  30.939  36.457  1.00  0.00     0.031 C 
ATOM     65  C   UNL A   1      42.745  29.436  34.504  1.00  0.00     0.037 A 
BRANCH  52  66
ATOM     66  C   UNL A   1      40.269  27.952  29.038  1.00  0.00     0.064 A 
ATOM     67  C   UNL A   1      39.533  26.757  28.999  1.00  0.00     0.173 A 
ATOM     68  C   UNL A   1      41.020  28.297  27.906  1.00  0.00     0.173 A 
ATOM     69  F   UNL A   1      38.814  26.370  30.064  1.00  0.00    -0.203 F 
ATOM     70  C   UNL A   1      39.581  25.922  27.886  1.00  0.00     0.198 A 
ATOM     71  C   UNL A   1      41.038  27.477  26.781  1.00  0.00     0.198 A 
ATOM     72  F   UNL A   1      41.741  29.429  27.890  1.00  0.00    -0.203 F 
ATOM     73  F   UNL A   1      38.923  24.754  27.898  1.00  0.00    -0.200 F 
ATOM     74  C   UNL A   1      40.328  26.285  26.776  1.00  0.00     0.200 A 
ATOM     75  F   UNL A   1      41.753  27.833  25.705  1.00  0.00    -0.200 F 
ATOM     76  F   UNL A   1      40.373  25.481  25.705  1.00  0.00    -0.200 F 
ENDBRANCH  52  66
BRANCH  53  77
ATOM     77  C   UNL A   1      39.573  33.936  37.031  1.00  0.00     0.064 A 
ATOM     78  C   UNL A   1      38.841  33.517  38.151  1.00  0.00     0.173 A 
ATOM     79  C   UNL A   1      40.186  35.197  37.088  1.00  0.00     0.173 A 
ATOM     80  F   UNL A   1      38.221  32.327  38.138  1.00  0.00    -0.203 F 
ATOM     81  C   UNL A   1      38.707  34.333  39.273  1.00  0.00     0.198 A 
ATOM     82  C   UNL A   1      40.072  36.001  38.220  1.00  0.00     0.198 A 
ATOM     83  F   UNL A   1      40.902  35.642  36.046  1.00  0.00    -0.203 F 
ATOM     84  F   UNL A   1      37.964  33.924  40.311  1.00  0.00    -0.200 F 
ATOM     85  C   UNL A   1      39.326  35.573  39.308  1.00  0.00     0.200 A 
ATOM     86  F   UNL A   1      40.682  37.194  38.256  1.00  0.00    -0.200 F 
ATOM     87  F   UNL A   1      39.198  36.357  40.388  1.00  0.00    -0.200 F 
ENDBRANCH  53  77
BRANCH  65  88
ATOM     88  C   UNL A   1      43.948  28.841  35.171  1.00  0.00     0.064 A 
ATOM     89  C   UNL A   1      45.232  29.364  34.967  1.00  0.00     0.173 A 
ATOM     90  C   UNL A   1      43.801  27.776  36.071  1.00  0.00     0.173 A 
ATOM     91  F   UNL A   1      45.421  30.373  34.105  1.00  0.00    -0.203 F 
ATOM     92  C   UNL A   1      46.332  28.829  35.631  1.00  0.00     0.198 A 
ATOM     93  C   UNL A   1      44.899  27.262  36.754  1.00  0.00     0.198 A 
ATOM     94  F   UNL A   1      42.590  27.247  36.304  1.00  0.00    -0.203 F 
ATOM     95  F   UNL A   1      47.557  29.319  35.396  1.00  0.00    -0.200 F 
ATOM     96  C   UNL A   1      46.164  27.785  36.530  1.00  0.00     0.200 A 
ATOM     97  F   UNL A   1      44.733  26.263  37.632  1.00  0.00    -0.200 F 
ATOM     98  F   UNL A   1      47.223  27.280  37.177  1.00  0.00    -0.200 F 
ENDBRANCH  65  88
ENDBRANCH  39  40
ENDBRANCH  31  34
ENDBRANCH  29  30
ENDBRANCH  28  29
ENDBRANCH  27  28
ENDBRANCH  26  27
ENDBRANCH   3  26
TORSDOF 18
ENDMDL
MODEL 3
REMARK VINA RESULT:      -9.3      4.777      8.109
REMARK SMILES [NH3+][C@]1(C(=O)NCCCCNC(=O)c2ccc(-c3c4nc(c(-c5c(F)c(F)c(F)c(F)c5F)c5ccc([nH]5)c(-c5c(F)c(F)c(F)c(F)c5F)c5nc(c(-c6c(F)c(F)c(F)c(F)c6F)c6ccc3[nH]6)C=C5)C=C4)cc2)CCC[C@@H]1CCOc1ccc(CO)cc1
REMARK SMILES IDX 3 1 4 2 5 3 2 5 76 6 79 7 77 8 78 9 1 10 80 14 81 15 82 16
REMARK SMILES IDX 83 17 84 18 90 19 85 20 89 21 86 22 87 23 88 24 6 26 7 27
REMARK SMILES IDX 8 28 9 29 10 30 11 31 12 33 13 34 14 35 75 36 15 37 74 38
REMARK SMILES IDX 16 39 17 40 18 41 68 42 19 43 73 44 67 45 69 46 20 47 72 48
REMARK SMILES IDX 66 49 65 50 21 52 53 53 33 54 52 55 34 56 37 57 51 58 70 59
REMARK SMILES IDX 35 60 36 61 50 63 71 64 38 65 22 66 23 67 31 68 24 69 25 70
REMARK SMILES IDX 29 71 32 72 26 73 27 74 30 75 28 76 54 77 55 78 63 79 56 80
REMARK SMILES IDX 57 81 61 82 64 83 58 84 59 85 62 86 60 87 39 88 40 89 48 90
REMARK SMILES IDX 41 91 42 92 46 93 49 94 43 95 44 96 47 97 45 98
REMARK H PARENT 5 4 1 11 1 12 1 13 88 25 10 32 69 51 37 62
REMARK Flexibility Score: inf
ROOT
ATOM      1  C   UNL A   1      33.653  26.142  23.028  1.00  0.00     0.281 C 
ATOM      2  O   UNL A   1      33.801  26.331  21.816  1.00  0.00    -0.268 OA
ATOM      3  N   UNL A   1      33.541  27.283  23.776  1.00  0.00    -0.351 N 
ATOM      4  H   UNL A   1      33.313  28.094  23.267  1.00  0.00     0.163 HD
ENDROOT
BRANCH   1   5
ATOM      5  C   UNL A   1      33.433  24.691  23.659  1.00  0.00     0.176 C 
ATOM      6  C   UNL A   1      33.899  23.640  22.616  1.00  0.00     0.079 C 
ATOM      7  C   UNL A   1      34.286  24.386  24.930  1.00  0.00     0.064 C 
ATOM      8  C   UNL A   1      35.161  22.970  23.132  1.00  0.00     0.008 C 
ATOM      9  C   UNL A   1      35.535  23.642  24.430  1.00  0.00     0.011 C 
BRANCH   5  10
ATOM     10  N   UNL A   1      31.978  24.582  23.775  1.00  0.00    -0.345 N 
ATOM     11  H   UNL A   1      31.641  23.851  23.149  1.00  0.00     0.345 HD
ATOM     12  H   UNL A   1      31.550  25.472  23.521  1.00  0.00     0.345 HD
ATOM     13  H   UNL A   1      31.731  24.347  24.736  1.00  0.00     0.345 HD
ENDBRANCH   5  10
BRANCH   7  14
ATOM     14  C   UNL A   1      33.821  23.883  26.333  1.00  0.00     0.052 C 
BRANCH  14  15
ATOM     15  C   UNL A   1      33.185  22.511  26.588  1.00  0.00     0.230 C 
BRANCH  15  16
ATOM     16  O   UNL A   1      32.203  22.161  25.594  1.00  0.00    -0.494 OA
BRANCH  16  17
ATOM     17  C   UNL A   1      32.513  20.986  24.974  1.00  0.00     0.119 A 
ATOM     18  C   UNL A   1      33.242  20.011  25.647  1.00  0.00     0.047 A 
ATOM     19  C   UNL A   1      32.096  20.779  23.664  1.00  0.00     0.047 A 
ATOM     20  C   UNL A   1      33.447  18.768  25.041  1.00  0.00     0.010 A 
ATOM     21  C   UNL A   1      32.285  19.536  23.068  1.00  0.00     0.010 A 
ATOM     22  C   UNL A   1      32.939  18.508  23.759  1.00  0.00    -0.022 A 
BRANCH  22  23
ATOM     23  C   UNL A   1      33.010  17.124  23.163  1.00  0.00     0.191 C 
BRANCH  23  24
ATOM     24  O   UNL A   1      34.275  16.847  22.576  1.00  0.00    -0.392 OA
ATOM     25  H   UNL A   1      34.254  17.081  21.635  1.00  0.00     0.211 HD
ENDBRANCH  23  24
ENDBRANCH  22  23
ENDBRANCH  16  17
ENDBRANCH  15  16
ENDBRANCH  14  15
ENDBRANCH   7  14
ENDBRANCH   1   5
BRANCH   3  26
ATOM     26  C   UNL A   1      33.704  27.480  25.195  1.00  0.00     0.116 C 
BRANCH  26  27
ATOM     27  C   UNL A   1      32.323  27.616  25.854  1.00  0.00     0.023 C 
BRANCH  27  28
ATOM     28  C   UNL A   1      31.857  29.042  26.063  1.00  0.00     0.023 C 
BRANCH  28  29
ATOM     29  C   UNL A   1      32.967  30.065  25.965  1.00  0.00     0.116 C 
BRANCH  29  30
ATOM     30  N   UNL A   1      32.645  31.350  26.574  1.00  0.00    -0.352 N 
ATOM     31  C   UNL A   1      33.428  32.087  27.440  1.00  0.00     0.251 C 
ATOM     32  H   UNL A   1      31.770  31.737  26.342  1.00  0.00     0.163 HD
ATOM     33  O   UNL A   1      33.038  33.119  27.947  1.00  0.00    -0.269 OA
BRANCH  31  34
ATOM     34  C   UNL A   1      34.752  31.524  27.754  1.00  0.00     0.039 A 
ATOM     35  C   UNL A   1      35.823  32.395  27.952  1.00  0.00     0.014 A 
ATOM     36  C   UNL A   1      34.837  30.171  28.093  1.00  0.00     0.014 A 
ATOM     37  C   UNL A   1      36.971  31.916  28.579  1.00  0.00     0.010 A 
ATOM     38  C   UNL A   1      35.928  29.736  28.824  1.00  0.00     0.010 A 
ATOM     39  C   UNL A   1      37.009  30.599  29.068  1.00  0.00    -0.014 A 
BRANCH  39  40
ATOM     40  C   UNL A   1      38.179  30.077  29.811  1.00  0.00     0.031 A 
ATOM     41  C   UNL A   1      38.398  30.527  31.229  1.00  0.00     0.074 A 
ATOM     42  C   UNL A   1      39.082  29.289  29.196  1.00  0.00     0.049 A 
ATOM     43  N   UNL A   1      39.414  30.310  32.021  1.00  0.00    -0.248 NA
ATOM     44  C   UNL A   1      37.354  31.386  31.815  1.00  0.00     0.031 C 
ATOM     45  C   UNL A   1      39.019  28.846  27.802  1.00  0.00     0.029 A 
ATOM     46  N   UNL A   1      40.242  28.726  29.668  1.00  0.00    -0.354 N 
ATOM     47  C   UNL A   1      39.148  31.037  33.174  1.00  0.00     0.074 A 
ATOM     48  C   UNL A   1      37.917  31.759  32.952  1.00  0.00     0.031 C 
ATOM     49  C   UNL A   1      40.071  28.052  27.543  1.00  0.00     0.029 A 
ATOM     50  C   UNL A   1      40.902  27.959  28.739  1.00  0.00     0.049 A 
ATOM     51  H   UNL A   1      40.570  28.860  30.586  1.00  0.00     0.167 HD
ATOM     52  C   UNL A   1      39.848  31.068  34.331  1.00  0.00     0.037 A 
ATOM     53  C   UNL A   1      42.046  27.258  28.850  1.00  0.00     0.037 A 
ATOM     54  C   UNL A   1      41.031  30.289  34.569  1.00  0.00     0.049 A 
ATOM     55  C   UNL A   1      42.778  27.264  30.166  1.00  0.00     0.074 A 
ATOM     56  C   UNL A   1      41.769  30.175  35.731  1.00  0.00     0.029 A 
ATOM     57  N   UNL A   1      41.636  29.475  33.623  1.00  0.00    -0.354 N 
ATOM     58  N   UNL A   1      42.481  27.897  31.275  1.00  0.00    -0.248 NA
ATOM     59  C   UNL A   1      44.000  26.451  30.249  1.00  0.00     0.031 C 
ATOM     60  C   UNL A   1      42.841  29.313  35.482  1.00  0.00     0.029 A 
ATOM     61  C   UNL A   1      42.747  28.860  34.175  1.00  0.00     0.049 A 
ATOM     62  H   UNL A   1      41.322  29.353  32.698  1.00  0.00     0.167 HD
ATOM     63  C   UNL A   1      43.458  27.540  32.194  1.00  0.00     0.074 A 
ATOM     64  C   UNL A   1      44.352  26.624  31.515  1.00  0.00     0.031 C 
ATOM     65  C   UNL A   1      43.607  27.936  33.481  1.00  0.00     0.037 A 
BRANCH  52  66
ATOM     66  C   UNL A   1      39.330  31.954  35.424  1.00  0.00     0.064 A 
ATOM     67  C   UNL A   1      39.668  33.314  35.490  1.00  0.00     0.173 A 
ATOM     68  C   UNL A   1      38.486  31.439  36.418  1.00  0.00     0.173 A 
ATOM     69  F   UNL A   1      40.491  33.851  34.575  1.00  0.00    -0.203 F 
ATOM     70  C   UNL A   1      39.213  34.117  36.532  1.00  0.00     0.198 A 
ATOM     71  C   UNL A   1      38.003  32.253  37.440  1.00  0.00     0.198 A 
ATOM     72  F   UNL A   1      38.130  30.145  36.402  1.00  0.00    -0.203 F 
ATOM     73  F   UNL A   1      39.603  35.397  36.610  1.00  0.00    -0.200 F 
ATOM     74  C   UNL A   1      38.376  33.588  37.502  1.00  0.00     0.200 A 
ATOM     75  F   UNL A   1      37.187  31.743  38.372  1.00  0.00    -0.200 F 
ATOM     76  F   UNL A   1      37.937  34.362  38.504  1.00  0.00    -0.200 F 
ENDBRANCH  52  66
BRANCH  53  77
ATOM     77  C   UNL A   1      42.547  26.457  27.703  1.00  0.00     0.064 A 
ATOM     78  C   UNL A   1      43.492  26.992  26.815  1.00  0.00     0.173 A 
ATOM     79  C   UNL A   1      42.092  25.152  27.462  1.00  0.00     0.173 A 
ATOM     80  F   UNL A   1      43.944  28.242  26.993  1.00  0.00    -0.203 F 
ATOM     81  C   UNL A   1      43.947  26.262  25.719  1.00  0.00     0.198 A 
ATOM     82  C   UNL A   1      42.567  24.414  26.379  1.00  0.00     0.198 A 
ATOM     83  F   UNL A   1      41.193  24.593  28.284  1.00  0.00    -0.203 F 
ATOM     84  F   UNL A   1      44.817  26.815  24.863  1.00  0.00    -0.200 F 
ATOM     85  C   UNL A   1      43.487  24.971  25.504  1.00  0.00     0.200 A 
ATOM     86  F   UNL A   1      42.130  23.163  26.182  1.00  0.00    -0.200 F 
ATOM     87  F   UNL A   1      43.926  24.269  24.450  1.00  0.00    -0.200 F 
ENDBRANCH  53  77
BRANCH  65  88
ATOM     88  C   UNL A   1      44.752  27.353  34.252  1.00  0.00     0.064 A 
ATOM     89  C   UNL A   1      44.631  26.136  34.937  1.00  0.00     0.173 A 
ATOM     90  C   UNL A   1      46.001  27.991  34.251  1.00  0.00     0.173 A 
ATOM     91  F   UNL A   1      43.452  25.499  34.976  1.00  0.00    -0.203 F 
ATOM     92  C   UNL A   1      45.718  25.586  35.609  1.00  0.00     0.198 A 
ATOM     93  C   UNL A   1      47.093  27.424  34.901  1.00  0.00     0.198 A 
ATOM     94  F   UNL A   1      46.167  29.154  33.603  1.00  0.00    -0.203 F 
ATOM     95  F   UNL A   1      45.573  24.440  36.288  1.00  0.00    -0.200 F 
ATOM     96  C   UNL A   1      46.950  26.225  35.583  1.00  0.00     0.200 A 
ATOM     97  F   UNL A   1      48.285  28.036  34.864  1.00  0.00    -0.200 F 
ATOM     98  F   UNL A   1      47.998  25.687  36.221  1.00  0.00    -0.200 F 
ENDBRANCH  65  88
ENDBRANCH  39  40
ENDBRANCH  31  34
ENDBRANCH  29  30
ENDBRANCH  28  29
ENDBRANCH  27  28
ENDBRANCH  26  27
ENDBRANCH   3  26
TORSDOF 18
ENDMDL
