MODEL 1
REMARK VINA RESULT:     -13.2      0.000      0.000
REMARK SMILES C/C(=N\NC(N)=S)c1nnn(-c2ccc(C(=O)NCCCCNC(=O)c3ccc(-c4c5nc(c(-c6c(F)c(F)c(F)c(F)c6F)c6ccc([nH]6)c(-c6c(F)c(F)c(F)c(F)c6F)c6nc(c(-c7c(F)c(F)c(F)c(F)c7F)c7ccc4[nH]7)C=C6)C=C5)cc3)cc2)c1C
REMARK SMILES IDX 19 1 18 2 16 3 17 4 15 6 12 7 13 8 90 9 14 10 89 11 11 12
REMARK SMILES IDX 8 13 9 14 91 15 10 16 92 17 2 18 1 19 3 20 4 21 5 23 7 24
REMARK SMILES IDX 6 25 20 28 21 29 22 30 23 31 24 32 25 34 26 35 27 36 88 37
REMARK SMILES IDX 28 38 87 39 29 40 30 41 31 42 81 43 32 44 86 45 80 46 82 47
REMARK SMILES IDX 33 48 85 49 79 50 78 51 34 53 66 54 46 55 65 56 47 57 50 58
REMARK SMILES IDX 64 59 83 60 48 61 49 62 63 64 84 65 51 66 35 67 36 68 44 69
REMARK SMILES IDX 37 70 38 71 42 72 45 73 39 74 40 75 43 76 41 77 67 78 68 79
REMARK SMILES IDX 76 80 69 81 70 82 74 83 77 84 71 85 72 86 75 87 73 88 52 89
REMARK SMILES IDX 53 90 61 91 54 92 55 93 59 94 62 95 56 96 57 97 60 98 58 99
REMARK H PARENT 18 5 4 22 6 26 6 27 23 33 82 52 50 63
REMARK Flexibility Score: inf
ROOT
ATOM      1  C   UNL A   1      36.907  20.350  25.106  1.00  0.00     0.116 C 
ENDROOT
BRANCH   1   2
ATOM      2  N   UNL A   1      35.596  19.733  25.004  1.00  0.00    -0.352 N 
ATOM      3  C   UNL A   1      34.317  20.240  25.012  1.00  0.00     0.251 C 
ATOM      4  O   UNL A   1      33.395  19.441  24.838  1.00  0.00    -0.269 OA
ATOM      5  H   UNL A   1      35.629  18.753  24.910  1.00  0.00     0.163 HD
BRANCH   3   6
ATOM      6  C   UNL A   1      33.999  21.693  25.152  1.00  0.00     0.039 A 
ATOM      7  C   UNL A   1      33.160  24.318  25.624  1.00  0.00     0.067 A 
ATOM      8  C   UNL A   1      33.759  23.603  26.661  1.00  0.00     0.029 A 
ATOM      9  C   UNL A   1      33.088  23.790  24.339  1.00  0.00     0.029 A 
ATOM     10  C   UNL A   1      34.149  22.279  26.425  1.00  0.00     0.016 A 
ATOM     11  C   UNL A   1      33.551  22.499  24.104  1.00  0.00     0.016 A 
BRANCH   7  12
ATOM     12  N   UNL A   1      32.516  25.536  25.886  1.00  0.00    -0.217 N 
ATOM     13  C   UNL A   1      31.780  27.575  25.785  1.00  0.00     0.132 A 
ATOM     14  N   UNL A   1      31.026  26.877  26.693  1.00  0.00    -0.128 NA
ATOM     15  C   UNL A   1      32.737  26.741  25.241  1.00  0.00     0.071 A 
ATOM     16  N   UNL A   1      31.441  25.618  26.694  1.00  0.00    -0.061 NA
ATOM     17  C   UNL A   1      33.644  26.929  24.084  1.00  0.00     0.069 C 
BRANCH  13  18
ATOM     18  C   UNL A   1      31.373  28.878  25.297  1.00  0.00     0.087 C 
ATOM     19  C   UNL A   1      32.068  30.041  25.951  1.00  0.00     0.071 C 
ATOM     20  N   UNL A   1      30.489  28.886  24.343  1.00  0.00    -0.176 NA
BRANCH  20  21
ATOM     21  N   UNL A   1      30.097  30.046  23.738  1.00  0.00    -0.254 N 
ATOM     22  H   UNL A   1      30.036  30.832  24.328  1.00  0.00     0.193 HD
BRANCH  21  23
ATOM     23  C   UNL A   1      29.773  30.272  22.415  1.00  0.00     0.184 C 
ATOM     24  S   UNL A   1      28.324  30.724  21.738  1.00  0.00    -0.040 S 
BRANCH  23  25
ATOM     25  N   UNL A   1      30.845  30.076  21.585  1.00  0.00    -0.375 N 
ATOM     26  H   UNL A   1      31.241  29.180  21.496  1.00  0.00     0.159 HD
ATOM     27  H   UNL A   1      31.219  30.833  21.078  1.00  0.00     0.159 HD
ENDBRANCH  23  25
ENDBRANCH  21  23
ENDBRANCH  20  21
ENDBRANCH  13  18
ENDBRANCH   7  12
ENDBRANCH   3   6
ENDBRANCH   1   2
BRANCH   1  28
ATOM     28  C   UNL A   1      37.032  21.590  24.207  1.00  0.00     0.023 C 
BRANCH  28  29
ATOM     29  C   UNL A   1      37.426  22.896  24.910  1.00  0.00     0.023 C 
BRANCH  29  30
ATOM     30  C   UNL A   1      38.159  22.721  26.232  1.00  0.00     0.116 C 
BRANCH  30  31
ATOM     31  N   UNL A   1      39.521  22.185  26.090  1.00  0.00    -0.352 N 
ATOM     32  C   UNL A   1      40.731  22.859  26.236  1.00  0.00     0.251 C 
ATOM     33  H   UNL A   1      39.585  21.228  25.865  1.00  0.00     0.163 HD
ATOM     34  O   UNL A   1      41.763  22.450  25.744  1.00  0.00    -0.269 OA
BRANCH  32  35
ATOM     35  C   UNL A   1      40.721  24.084  27.054  1.00  0.00     0.039 A 
ATOM     36  C   UNL A   1      41.430  24.229  28.248  1.00  0.00     0.014 A 
ATOM     37  C   UNL A   1      40.029  25.147  26.498  1.00  0.00     0.014 A 
ATOM     38  C   UNL A   1      41.488  25.497  28.829  1.00  0.00     0.010 A 
ATOM     39  C   UNL A   1      40.345  26.408  26.894  1.00  0.00     0.010 A 
ATOM     40  C   UNL A   1      40.947  26.584  28.127  1.00  0.00    -0.014 A 
BRANCH  40  41
ATOM     41  C   UNL A   1      40.957  27.947  28.624  1.00  0.00     0.031 A 
ATOM     42  C   UNL A   1      42.006  28.836  28.078  1.00  0.00     0.074 A 
ATOM     43  C   UNL A   1      39.935  28.423  29.371  1.00  0.00     0.049 A 
ATOM     44  N   UNL A   1      43.007  29.331  28.724  1.00  0.00    -0.248 NA
ATOM     45  C   UNL A   1      42.016  29.137  26.640  1.00  0.00     0.031 C 
ATOM     46  C   UNL A   1      38.677  27.771  29.769  1.00  0.00     0.029 A 
ATOM     47  N   UNL A   1      39.782  29.673  29.871  1.00  0.00    -0.354 N 
ATOM     48  C   UNL A   1      43.702  30.131  27.824  1.00  0.00     0.074 A 
ATOM     49  C   UNL A   1      43.130  29.866  26.528  1.00  0.00     0.031 C 
ATOM     50  C   UNL A   1      37.810  28.694  30.238  1.00  0.00     0.029 A 
ATOM     51  C   UNL A   1      38.512  29.956  30.351  1.00  0.00     0.049 A 
ATOM     52  H   UNL A   1      40.515  30.330  29.891  1.00  0.00     0.167 HD
ATOM     53  C   UNL A   1      44.571  31.084  28.263  1.00  0.00     0.037 A 
ATOM     54  C   UNL A   1      38.075  31.155  30.801  1.00  0.00     0.037 A 
ATOM     55  C   UNL A   1      44.841  30.931  29.672  1.00  0.00     0.049 A 
ATOM     56  C   UNL A   1      39.284  31.927  31.195  1.00  0.00     0.074 A 
ATOM     57  C   UNL A   1      45.433  29.944  30.436  1.00  0.00     0.029 A 
ATOM     58  N   UNL A   1      44.113  31.698  30.551  1.00  0.00    -0.354 N 
ATOM     59  N   UNL A   1      40.051  31.585  32.196  1.00  0.00    -0.248 NA
ATOM     60  C   UNL A   1      39.920  32.756  30.179  1.00  0.00     0.031 C 
ATOM     61  C   UNL A   1      44.635  29.869  31.616  1.00  0.00     0.029 A 
ATOM     62  C   UNL A   1      43.656  30.861  31.538  1.00  0.00     0.049 A 
ATOM     63  H   UNL A   1      43.950  32.667  30.484  1.00  0.00     0.167 HD
ATOM     64  C   UNL A   1      41.347  31.779  31.735  1.00  0.00     0.074 A 
ATOM     65  C   UNL A   1      41.201  32.576  30.518  1.00  0.00     0.031 C 
ATOM     66  C   UNL A   1      42.388  31.032  32.211  1.00  0.00     0.037 A 
BRANCH  53  67
ATOM     67  C   UNL A   1      44.938  32.342  27.528  1.00  0.00     0.064 A 
ATOM     68  C   UNL A   1      46.203  32.436  26.915  1.00  0.00     0.173 A 
ATOM     69  C   UNL A   1      44.226  33.549  27.657  1.00  0.00     0.173 A 
ATOM     70  F   UNL A   1      46.965  31.343  26.748  1.00  0.00    -0.203 F 
ATOM     71  C   UNL A   1      46.749  33.664  26.538  1.00  0.00     0.198 A 
ATOM     72  C   UNL A   1      44.753  34.768  27.233  1.00  0.00     0.198 A 
ATOM     73  F   UNL A   1      43.052  33.612  28.298  1.00  0.00    -0.203 F 
ATOM     74  F   UNL A   1      48.004  33.721  26.074  1.00  0.00    -0.200 F 
ATOM     75  C   UNL A   1      46.026  34.831  26.706  1.00  0.00     0.200 A 
ATOM     76  F   UNL A   1      44.044  35.892  27.418  1.00  0.00    -0.200 F 
ATOM     77  F   UNL A   1      46.571  36.017  26.408  1.00  0.00    -0.200 F 
ENDBRANCH  53  67
BRANCH  54  78
ATOM     78  C   UNL A   1      36.737  31.754  30.589  1.00  0.00     0.064 A 
ATOM     79  C   UNL A   1      35.904  32.081  31.669  1.00  0.00     0.173 A 
ATOM     80  C   UNL A   1      36.356  32.260  29.328  1.00  0.00     0.173 A 
ATOM     81  F   UNL A   1      36.218  31.675  32.908  1.00  0.00    -0.203 F 
ATOM     82  C   UNL A   1      34.770  32.884  31.502  1.00  0.00     0.198 A 
ATOM     83  C   UNL A   1      35.223  33.057  29.163  1.00  0.00     0.198 A 
ATOM     84  F   UNL A   1      37.125  32.066  28.247  1.00  0.00    -0.203 F 
ATOM     85  F   UNL A   1      34.029  33.224  32.566  1.00  0.00    -0.200 F 
ATOM     86  C   UNL A   1      34.437  33.381  30.252  1.00  0.00     0.200 A 
ATOM     87  F   UNL A   1      34.935  33.558  27.954  1.00  0.00    -0.200 F 
ATOM     88  F   UNL A   1      33.387  34.200  30.103  1.00  0.00    -0.200 F 
ENDBRANCH  54  78
BRANCH  66  89
ATOM     89  C   UNL A   1      42.123  30.135  33.392  1.00  0.00     0.064 A 
ATOM     90  C   UNL A   1      41.730  28.790  33.280  1.00  0.00     0.173 A 
ATOM     91  C   UNL A   1      42.424  30.606  34.674  1.00  0.00     0.173 A 
ATOM     92  F   UNL A   1      41.533  28.226  32.086  1.00  0.00    -0.203 F 
ATOM     93  C   UNL A   1      41.595  27.972  34.400  1.00  0.00     0.198 A 
ATOM     94  C   UNL A   1      42.323  29.779  35.791  1.00  0.00     0.198 A 
ATOM     95  F   UNL A   1      42.870  31.861  34.841  1.00  0.00    -0.203 F 
ATOM     96  F   UNL A   1      41.208  26.696  34.259  1.00  0.00    -0.200 F 
ATOM     97  C   UNL A   1      41.897  28.467  35.656  1.00  0.00     0.200 A 
ATOM     98  F   UNL A   1      42.668  30.245  36.999  1.00  0.00    -0.200 F 
ATOM     99  F   UNL A   1      41.804  27.672  36.732  1.00  0.00    -0.200 F 
ENDBRANCH  66  89
ENDBRANCH  40  41
ENDBRANCH  32  35
ENDBRANCH  30  31
ENDBRANCH  29  30
ENDBRANCH  28  29
ENDBRANCH   1  28
TORSDOF 16
ENDMDL
MODEL 2
REMARK VINA RESULT:     -13.0      2.769      4.003
REMARK SMILES C/C(=N\NC(N)=S)c1nnn(-c2ccc(C(=O)NCCCCNC(=O)c3ccc(-c4c5nc(c(-c6c(F)c(F)c(F)c(F)c6F)c6ccc([nH]6)c(-c6c(F)c(F)c(F)c(F)c6F)c6nc(c(-c7c(F)c(F)c(F)c(F)c7F)c7ccc4[nH]7)C=C6)C=C5)cc3)cc2)c1C
REMARK SMILES IDX 19 1 18 2 16 3 17 4 15 6 12 7 13 8 90 9 14 10 89 11 11 12
REMARK SMILES IDX 8 13 9 14 91 15 10 16 92 17 2 18 1 19 3 20 4 21 5 23 7 24
REMARK SMILES IDX 6 25 20 28 21 29 22 30 23 31 24 32 25 34 26 35 27 36 88 37
REMARK SMILES IDX 28 38 87 39 29 40 30 41 31 42 81 43 32 44 86 45 80 46 82 47
REMARK SMILES IDX 33 48 85 49 79 50 78 51 34 53 66 54 46 55 65 56 47 57 50 58
REMARK SMILES IDX 64 59 83 60 48 61 49 62 63 64 84 65 51 66 35 67 36 68 44 69
REMARK SMILES IDX 37 70 38 71 42 72 45 73 39 74 40 75 43 76 41 77 67 78 68 79
REMARK SMILES IDX 76 80 69 81 70 82 74 83 77 84 71 85 72 86 75 87 73 88 52 89
REMARK SMILES IDX 53 90 61 91 54 92 55 93 59 94 62 95 56 96 57 97 60 98 58 99
REMARK H PARENT 18 5 4 22 6 26 6 27 23 33 82 52 50 63
REMARK Flexibility Score: inf
ROOT
ATOM      1  C   UNL A   1      39.553  21.547  26.065  1.00  0.00     0.116 C 
ENDROOT
BRANCH   1   2
ATOM      2  N   UNL A   1      38.722  20.440  25.626  1.00  0.00    -0.352 N 
ATOM      3  C   UNL A   1      37.435  20.366  25.144  1.00  0.00     0.251 C 
ATOM      4  O   UNL A   1      37.031  19.257  24.791  1.00  0.00    -0.269 OA
ATOM      5  H   UNL A   1      39.169  19.564  25.686  1.00  0.00     0.163 HD
BRANCH   3   6
ATOM      6  C   UNL A   1      36.543  21.552  24.967  1.00  0.00     0.039 A 
ATOM      7  C   UNL A   1      34.823  23.660  24.325  1.00  0.00     0.067 A 
ATOM      8  C   UNL A   1      34.304  22.369  24.419  1.00  0.00     0.029 A 
ATOM      9  C   UNL A   1      36.146  23.926  24.664  1.00  0.00     0.029 A 
ATOM     10  C   UNL A   1      35.178  21.314  24.712  1.00  0.00     0.016 A 
ATOM     11  C   UNL A   1      36.982  22.875  25.027  1.00  0.00     0.016 A 
BRANCH   7  12
ATOM     12  N   UNL A   1      34.050  24.694  23.775  1.00  0.00    -0.217 N 
ATOM     13  C   UNL A   1      32.882  26.499  23.478  1.00  0.00     0.132 A 
ATOM     14  N   UNL A   1      33.272  26.017  22.255  1.00  0.00    -0.128 NA
ATOM     15  C   UNL A   1      33.375  25.679  24.475  1.00  0.00     0.071 A 
ATOM     16  N   UNL A   1      34.042  24.956  22.454  1.00  0.00    -0.061 NA
ATOM     17  C   UNL A   1      33.429  25.863  25.945  1.00  0.00     0.069 C 
BRANCH  13  18
ATOM     18  C   UNL A   1      32.322  27.827  23.632  1.00  0.00     0.087 C 
ATOM     19  C   UNL A   1      33.323  28.896  23.976  1.00  0.00     0.071 C 
ATOM     20  N   UNL A   1      31.044  27.941  23.427  1.00  0.00    -0.176 NA
BRANCH  20  21
ATOM     21  N   UNL A   1      30.418  29.156  23.449  1.00  0.00    -0.254 N 
ATOM     22  H   UNL A   1      30.446  29.629  24.312  1.00  0.00     0.193 HD
BRANCH  21  23
ATOM     23  C   UNL A   1      29.753  29.811  22.433  1.00  0.00     0.184 C 
ATOM     24  S   UNL A   1      28.147  30.217  22.304  1.00  0.00    -0.040 S 
BRANCH  23  25
ATOM     25  N   UNL A   1      30.594  30.150  21.406  1.00  0.00    -0.375 N 
ATOM     26  H   UNL A   1      30.614  29.605  20.587  1.00  0.00     0.159 HD
ATOM     27  H   UNL A   1      31.177  30.939  21.488  1.00  0.00     0.159 HD
ENDBRANCH  23  25
ENDBRANCH  21  23
ENDBRANCH  20  21
ENDBRANCH  13  18
ENDBRANCH   7  12
ENDBRANCH   3   6
ENDBRANCH   1   2
BRANCH   1  28
ATOM     28  C   UNL A   1      40.876  21.065  26.682  1.00  0.00     0.023 C 
BRANCH  28  29
ATOM     29  C   UNL A   1      41.552  19.876  25.987  1.00  0.00     0.023 C 
BRANCH  29  30
ATOM     30  C   UNL A   1      42.914  19.493  26.547  1.00  0.00     0.116 C 
BRANCH  30  31
ATOM     31  N   UNL A   1      43.962  19.362  25.524  1.00  0.00    -0.352 N 
ATOM     32  C   UNL A   1      44.457  20.342  24.668  1.00  0.00     0.251 C 
ATOM     33  H   UNL A   1      44.364  18.467  25.432  1.00  0.00     0.163 HD
ATOM     34  O   UNL A   1      45.028  20.070  23.631  1.00  0.00    -0.269 OA
BRANCH  32  35
ATOM     35  C   UNL A   1      44.296  21.744  25.091  1.00  0.00     0.039 A 
ATOM     36  C   UNL A   1      43.395  22.636  24.506  1.00  0.00     0.014 A 
ATOM     37  C   UNL A   1      45.041  22.104  26.202  1.00  0.00     0.014 A 
ATOM     38  C   UNL A   1      43.206  23.876  25.118  1.00  0.00     0.010 A 
ATOM     39  C   UNL A   1      44.628  23.162  26.948  1.00  0.00     0.010 A 
ATOM     40  C   UNL A   1      43.825  24.119  26.352  1.00  0.00    -0.014 A 
BRANCH  40  41
ATOM     41  C   UNL A   1      43.695  25.363  27.087  1.00  0.00     0.031 A 
ATOM     42  C   UNL A   1      44.676  26.422  26.763  1.00  0.00     0.074 A 
ATOM     43  C   UNL A   1      42.610  25.606  27.858  1.00  0.00     0.049 A 
ATOM     44  N   UNL A   1      45.606  26.871  27.536  1.00  0.00    -0.248 NA
ATOM     45  C   UNL A   1      44.706  26.983  25.405  1.00  0.00     0.031 C 
ATOM     46  C   UNL A   1      41.405  24.788  28.069  1.00  0.00     0.029 A 
ATOM     47  N   UNL A   1      42.327  26.725  28.567  1.00  0.00    -0.354 N 
ATOM     48  C   UNL A   1      46.254  27.878  26.831  1.00  0.00     0.074 A 
ATOM     49  C   UNL A   1      45.751  27.811  25.481  1.00  0.00     0.031 C 
ATOM     50  C   UNL A   1      40.442  25.533  28.655  1.00  0.00     0.029 A 
ATOM     51  C   UNL A   1      41.022  26.807  29.028  1.00  0.00     0.049 A 
ATOM     52  H   UNL A   1      42.996  27.426  28.742  1.00  0.00     0.167 HD
ATOM     53  C   UNL A   1      47.018  28.803  27.477  1.00  0.00     0.037 A 
ATOM     54  C   UNL A   1      40.464  27.862  29.666  1.00  0.00     0.037 A 
ATOM     55  C   UNL A   1      47.255  28.416  28.846  1.00  0.00     0.049 A 
ATOM     56  C   UNL A   1      41.584  28.646  30.252  1.00  0.00     0.074 A 
ATOM     57  C   UNL A   1      47.909  27.358  29.447  1.00  0.00     0.029 A 
ATOM     58  N   UNL A   1      46.432  28.944  29.813  1.00  0.00    -0.354 N 
ATOM     59  N   UNL A   1      42.346  28.191  31.210  1.00  0.00    -0.248 NA
ATOM     60  C   UNL A   1      42.174  29.699  29.435  1.00  0.00     0.031 C 
ATOM     61  C   UNL A   1      47.083  27.000  30.553  1.00  0.00     0.029 A 
ATOM     62  C   UNL A   1      46.021  27.904  30.609  1.00  0.00     0.049 A 
ATOM     63  H   UNL A   1      46.184  29.892  29.915  1.00  0.00     0.167 HD
ATOM     64  C   UNL A   1      43.633  28.574  30.856  1.00  0.00     0.074 A 
ATOM     65  C   UNL A   1      43.455  29.567  29.798  1.00  0.00     0.031 C 
ATOM     66  C   UNL A   1      44.721  27.841  31.239  1.00  0.00     0.037 A 
BRANCH  53  67
ATOM     67  C   UNL A   1      47.292  30.201  27.000  1.00  0.00     0.064 A 
ATOM     68  C   UNL A   1      48.608  30.704  27.062  1.00  0.00     0.173 A 
ATOM     69  C   UNL A   1      46.281  31.154  26.771  1.00  0.00     0.173 A 
ATOM     70  F   UNL A   1      49.645  29.879  27.282  1.00  0.00    -0.203 F 
ATOM     71  C   UNL A   1      48.878  32.071  26.987  1.00  0.00     0.198 A 
ATOM     72  C   UNL A   1      46.560  32.514  26.645  1.00  0.00     0.198 A 
ATOM     73  F   UNL A   1      44.984  30.822  26.776  1.00  0.00    -0.203 F 
ATOM     74  F   UNL A   1      50.128  32.515  27.175  1.00  0.00    -0.200 F 
ATOM     75  C   UNL A   1      47.852  32.976  26.787  1.00  0.00     0.200 A 
ATOM     76  F   UNL A   1      45.550  33.379  26.466  1.00  0.00    -0.200 F 
ATOM     77  F   UNL A   1      48.098  34.293  26.780  1.00  0.00    -0.200 F 
ENDBRANCH  53  67
BRANCH  54  78
ATOM     78  C   UNL A   1      39.085  28.376  29.501  1.00  0.00     0.064 A 
ATOM     79  C   UNL A   1      38.247  28.587  30.607  1.00  0.00     0.173 A 
ATOM     80  C   UNL A   1      38.650  28.918  28.273  1.00  0.00     0.173 A 
ATOM     81  F   UNL A   1      38.606  28.141  31.819  1.00  0.00    -0.203 F 
ATOM     82  C   UNL A   1      37.057  29.317  30.495  1.00  0.00     0.198 A 
ATOM     83  C   UNL A   1      37.462  29.641  28.163  1.00  0.00     0.198 A 
ATOM     84  F   UNL A   1      39.414  28.835  27.175  1.00  0.00    -0.203 F 
ATOM     85  F   UNL A   1      36.311  29.548  31.584  1.00  0.00    -0.200 F 
ATOM     86  C   UNL A   1      36.672  29.853  29.276  1.00  0.00     0.200 A 
ATOM     87  F   UNL A   1      37.122  30.183  26.985  1.00  0.00    -0.200 F 
ATOM     88  F   UNL A   1      35.565  30.603  29.183  1.00  0.00    -0.200 F 
ENDBRANCH  54  78
BRANCH  66  89
ATOM     89  C   UNL A   1      44.501  26.723  32.223  1.00  0.00     0.064 A 
ATOM     90  C   UNL A   1      44.294  26.922  33.600  1.00  0.00     0.173 A 
ATOM     91  C   UNL A   1      44.343  25.421  31.737  1.00  0.00     0.173 A 
ATOM     92  F   UNL A   1      44.314  28.147  34.130  1.00  0.00    -0.203 F 
ATOM     93  C   UNL A   1      43.995  25.863  34.455  1.00  0.00     0.198 A 
ATOM     94  C   UNL A   1      44.009  24.367  32.586  1.00  0.00     0.198 A 
ATOM     95  F   UNL A   1      44.460  25.176  30.423  1.00  0.00    -0.203 F 
ATOM     96  F   UNL A   1      43.814  26.086  35.765  1.00  0.00    -0.200 F 
ATOM     97  C   UNL A   1      43.847  24.585  33.945  1.00  0.00     0.200 A 
ATOM     98  F   UNL A   1      43.814  23.141  32.081  1.00  0.00    -0.200 F 
ATOM     99  F   UNL A   1      43.522  23.570  34.759  1.00  0.00    -0.200 F 
ENDBRANCH  66  89
ENDBRANCH  40  41
ENDBRANCH  32  35
ENDBRANCH  30  31
ENDBRANCH  29  30
ENDBRANCH  28  29
ENDBRANCH   1  28
TORSDOF 16
ENDMDL
MODEL 3
REMARK VINA RESULT:     -13.0      3.771      9.175
REMARK SMILES C/C(=N\NC(N)=S)c1nnn(-c2ccc(C(=O)NCCCCNC(=O)c3ccc(-c4c5nc(c(-c6c(F)c(F)c(F)c(F)c6F)c6ccc([nH]6)c(-c6c(F)c(F)c(F)c(F)c6F)c6nc(c(-c7c(F)c(F)c(F)c(F)c7F)c7ccc4[nH]7)C=C6)C=C5)cc3)cc2)c1C
REMARK SMILES IDX 19 1 18 2 16 3 17 4 15 6 12 7 13 8 90 9 14 10 89 11 11 12
REMARK SMILES IDX 8 13 9 14 91 15 10 16 92 17 2 18 1 19 3 20 4 21 5 23 7 24
REMARK SMILES IDX 6 25 20 28 21 29 22 30 23 31 24 32 25 34 26 35 27 36 88 37
REMARK SMILES IDX 28 38 87 39 29 40 30 41 31 42 81 43 32 44 86 45 80 46 82 47
REMARK SMILES IDX 33 48 85 49 79 50 78 51 34 53 66 54 46 55 65 56 47 57 50 58
REMARK SMILES IDX 64 59 83 60 48 61 49 62 63 64 84 65 51 66 35 67 36 68 44 69
REMARK SMILES IDX 37 70 38 71 42 72 45 73 39 74 40 75 43 76 41 77 67 78 68 79
REMARK SMILES IDX 76 80 69 81 70 82 74 83 77 84 71 85 72 86 75 87 73 88 52 89
REMARK SMILES IDX 53 90 61 91 54 92 55 93 59 94 62 95 56 96 57 97 60 98 58 99
REMARK H PARENT 18 5 4 22 6 26 6 27 23 33 82 52 50 63
REMARK Flexibility Score: inf
ROOT
ATOM      1  C   UNL A   1      31.435  29.799  25.158  1.00  0.00     0.116 C 
ENDROOT
BRANCH   1   2
ATOM      2  N   UNL A   1      30.810  29.685  23.852  1.00  0.00    -0.352 N 
ATOM      3  C   UNL A   1      30.530  28.612  23.036  1.00  0.00     0.251 C 
ATOM      4  O   UNL A   1      29.920  28.846  21.991  1.00  0.00    -0.269 OA
ATOM      5  H   UNL A   1      30.529  30.550  23.474  1.00  0.00     0.163 HD
BRANCH   3   6
ATOM      6  C   UNL A   1      30.865  27.197  23.377  1.00  0.00     0.039 A 
ATOM      7  C   UNL A   1      31.508  24.651  24.335  1.00  0.00     0.067 A 
ATOM      8  C   UNL A   1      30.271  25.204  24.664  1.00  0.00     0.029 A 
ATOM      9  C   UNL A   1      32.365  25.290  23.445  1.00  0.00     0.029 A 
ATOM     10  C   UNL A   1      29.969  26.491  24.205  1.00  0.00     0.016 A 
ATOM     11  C   UNL A   1      32.014  26.537  22.938  1.00  0.00     0.016 A 
BRANCH   7  12
ATOM     12  N   UNL A   1      31.961  23.493  24.987  1.00  0.00    -0.217 N 
ATOM     13  C   UNL A   1      32.734  21.516  25.438  1.00  0.00     0.132 A 
ATOM     14  N   UNL A   1      32.818  22.293  26.565  1.00  0.00    -0.128 NA
ATOM     15  C   UNL A   1      32.199  22.260  24.405  1.00  0.00     0.071 A 
ATOM     16  N   UNL A   1      32.408  23.515  26.257  1.00  0.00    -0.061 NA
ATOM     17  C   UNL A   1      32.101  21.974  22.953  1.00  0.00     0.069 C 
BRANCH  13  18
ATOM     18  C   UNL A   1      33.411  20.238  25.341  1.00  0.00     0.087 C 
ATOM     19  C   UNL A   1      34.891  20.328  25.080  1.00  0.00     0.071 C 
ATOM     20  N   UNL A   1      32.676  19.181  25.517  1.00  0.00    -0.176 NA
BRANCH  20  21
ATOM     21  N   UNL A   1      33.217  17.926  25.542  1.00  0.00    -0.254 N 
ATOM     22  H   UNL A   1      34.041  17.833  26.072  1.00  0.00     0.193 HD
BRANCH  21  23
ATOM     23  C   UNL A   1      32.771  16.773  24.929  1.00  0.00     0.184 C 
ATOM     24  S   UNL A   1      32.597  15.240  25.547  1.00  0.00    -0.040 S 
BRANCH  23  25
ATOM     25  N   UNL A   1      32.440  16.986  23.618  1.00  0.00    -0.375 N 
ATOM     26  H   UNL A   1      32.799  17.768  23.140  1.00  0.00     0.159 HD
ATOM     27  H   UNL A   1      31.843  16.357  23.152  1.00  0.00     0.159 HD
ENDBRANCH  23  25
ENDBRANCH  21  23
ENDBRANCH  20  21
ENDBRANCH  13  18
ENDBRANCH   7  12
ENDBRANCH   3   6
ENDBRANCH   1   2
BRANCH   1  28
ATOM     28  C   UNL A   1      32.926  29.431  25.118  1.00  0.00     0.023 C 
BRANCH  28  29
ATOM     29  C   UNL A   1      33.443  28.573  26.280  1.00  0.00     0.023 C 
BRANCH  29  30
ATOM     30  C   UNL A   1      34.370  29.291  27.249  1.00  0.00     0.116 C 
BRANCH  30  31
ATOM     31  N   UNL A   1      34.274  30.757  27.188  1.00  0.00    -0.352 N 
ATOM     32  C   UNL A   1      35.123  31.700  27.761  1.00  0.00     0.251 C 
ATOM     33  H   UNL A   1      33.514  31.117  26.676  1.00  0.00     0.163 HD
ATOM     34  O   UNL A   1      34.771  32.842  27.978  1.00  0.00    -0.269 OA
BRANCH  32  35
ATOM     35  C   UNL A   1      36.498  31.267  28.065  1.00  0.00     0.039 A 
ATOM     36  C   UNL A   1      37.330  31.904  28.988  1.00  0.00     0.014 A 
ATOM     37  C   UNL A   1      36.890  30.097  27.436  1.00  0.00     0.014 A 
ATOM     38  C   UNL A   1      38.537  31.288  29.321  1.00  0.00     0.010 A 
ATOM     39  C   UNL A   1      37.896  29.367  27.987  1.00  0.00     0.010 A 
ATOM     40  C   UNL A   1      38.800  30.006  28.817  1.00  0.00    -0.014 A 
BRANCH  40  41
ATOM     41  C   UNL A   1      40.013  29.263  29.100  1.00  0.00     0.031 A 
ATOM     42  C   UNL A   1      40.250  28.912  30.519  1.00  0.00     0.074 A 
ATOM     43  C   UNL A   1      40.760  28.742  28.101  1.00  0.00     0.049 A 
ATOM     44  N   UNL A   1      41.185  29.375  31.279  1.00  0.00    -0.248 NA
ATOM     45  C   UNL A   1      39.299  28.031  31.209  1.00  0.00     0.031 C 
ATOM     46  C   UNL A   1      40.522  28.746  26.648  1.00  0.00     0.029 A 
ATOM     47  N   UNL A   1      41.887  27.997  28.206  1.00  0.00    -0.354 N 
ATOM     48  C   UNL A   1      41.044  28.739  32.507  1.00  0.00     0.074 A 
ATOM     49  C   UNL A   1      39.791  28.030  32.452  1.00  0.00     0.031 C 
ATOM     50  C   UNL A   1      41.338  27.853  26.047  1.00  0.00     0.029 A 
ATOM     51  C   UNL A   1      42.275  27.362  27.036  1.00  0.00     0.049 A 
ATOM     52  H   UNL A   1      42.391  27.912  29.047  1.00  0.00     0.167 HD
ATOM     53  C   UNL A   1      42.074  28.708  33.399  1.00  0.00     0.037 A 
ATOM     54  C   UNL A   1      43.297  26.484  26.903  1.00  0.00     0.037 A 
ATOM     55  C   UNL A   1      43.127  29.613  33.008  1.00  0.00     0.049 A 
ATOM     56  C   UNL A   1      44.225  26.737  28.038  1.00  0.00     0.074 A 
ATOM     57  C   UNL A   1      43.210  30.984  32.859  1.00  0.00     0.029 A 
ATOM     58  N   UNL A   1      44.190  29.096  32.306  1.00  0.00    -0.354 N 
ATOM     59  N   UNL A   1      44.905  27.845  28.166  1.00  0.00    -0.248 NA
ATOM     60  C   UNL A   1      44.004  25.997  29.273  1.00  0.00     0.031 C 
ATOM     61  C   UNL A   1      43.994  31.176  31.683  1.00  0.00     0.029 A 
ATOM     62  C   UNL A   1      44.406  29.921  31.230  1.00  0.00     0.049 A 
ATOM     63  H   UNL A   1      44.700  28.284  32.532  1.00  0.00     0.167 HD
ATOM     64  C   UNL A   1      44.822  28.161  29.516  1.00  0.00     0.074 A 
ATOM     65  C   UNL A   1      44.324  26.945  30.159  1.00  0.00     0.031 C 
ATOM     66  C   UNL A   1      44.879  29.457  29.946  1.00  0.00     0.037 A 
BRANCH  53  67
ATOM     67  C   UNL A   1      42.298  27.651  34.443  1.00  0.00     0.064 A 
ATOM     68  C   UNL A   1      42.908  26.436  34.072  1.00  0.00     0.173 A 
ATOM     69  C   UNL A   1      41.674  27.665  35.705  1.00  0.00     0.173 A 
ATOM     70  F   UNL A   1      43.526  26.316  32.886  1.00  0.00    -0.203 F 
ATOM     71  C   UNL A   1      42.824  25.295  34.872  1.00  0.00     0.198 A 
ATOM     72  C   UNL A   1      41.636  26.538  36.525  1.00  0.00     0.198 A 
ATOM     73  F   UNL A   1      40.984  28.727  36.140  1.00  0.00    -0.203 F 
ATOM     74  F   UNL A   1      43.311  24.130  34.425  1.00  0.00    -0.200 F 
ATOM     75  C   UNL A   1      42.180  25.346  36.095  1.00  0.00     0.200 A 
ATOM     76  F   UNL A   1      40.994  26.601  37.701  1.00  0.00    -0.200 F 
ATOM     77  F   UNL A   1      42.039  24.238  36.835  1.00  0.00    -0.200 F 
ENDBRANCH  53  67
BRANCH  54  78
ATOM     78  C   UNL A   1      43.321  25.264  26.064  1.00  0.00     0.064 A 
ATOM     79  C   UNL A   1      44.382  25.004  25.183  1.00  0.00     0.173 A 
ATOM     80  C   UNL A   1      42.428  24.197  26.301  1.00  0.00     0.173 A 
ATOM     81  F   UNL A   1      45.299  25.951  24.936  1.00  0.00    -0.203 F 
ATOM     82  C   UNL A   1      44.553  23.745  24.594  1.00  0.00     0.198 A 
ATOM     83  C   UNL A   1      42.598  22.945  25.709  1.00  0.00     0.198 A 
ATOM     84  F   UNL A   1      41.426  24.322  27.182  1.00  0.00    -0.203 F 
ATOM     85  F   UNL A   1      45.611  23.516  23.804  1.00  0.00    -0.200 F 
ATOM     86  C   UNL A   1      43.668  22.715  24.866  1.00  0.00     0.200 A 
ATOM     87  F   UNL A   1      41.754  21.949  26.011  1.00  0.00    -0.200 F 
ATOM     88  F   UNL A   1      43.867  21.493  24.351  1.00  0.00    -0.200 F 
ENDBRANCH  54  78
BRANCH  66  89
ATOM     89  C   UNL A   1      45.237  30.514  28.935  1.00  0.00     0.064 A 
ATOM     90  C   UNL A   1      44.289  31.219  28.171  1.00  0.00     0.173 A 
ATOM     91  C   UNL A   1      46.568  30.937  28.846  1.00  0.00     0.173 A 
ATOM     92  F   UNL A   1      42.985  30.959  28.281  1.00  0.00    -0.203 F 
ATOM     93  C   UNL A   1      44.662  32.259  27.322  1.00  0.00     0.198 A 
ATOM     94  C   UNL A   1      46.937  32.000  28.023  1.00  0.00     0.198 A 
ATOM     95  F   UNL A   1      47.510  30.349  29.600  1.00  0.00    -0.203 F 
ATOM     96  F   UNL A   1      43.735  32.904  26.599  1.00  0.00    -0.200 F 
ATOM     97  C   UNL A   1      45.987  32.652  27.252  1.00  0.00     0.200 A 
ATOM     98  F   UNL A   1      48.211  32.412  27.999  1.00  0.00    -0.200 F 
ATOM     99  F   UNL A   1      46.344  33.677  26.465  1.00  0.00    -0.200 F 
ENDBRANCH  66  89
ENDBRANCH  40  41
ENDBRANCH  32  35
ENDBRANCH  30  31
ENDBRANCH  29  30
ENDBRANCH  28  29
ENDBRANCH   1  28
TORSDOF 16
ENDMDL
