MODEL 1
REMARK VINA RESULT:     -13.3      0.000      0.000
REMARK SMILES O=Cc1c(OCc2ccc(C(=O)NCCCCNC(=O)c3ccc(-c4c5nc(c(-c6c(F)c(F)c(F)c(F)c6F)c6ccc([nH]6)c(-c6c(F)c(F)c(F)c(F)c6F)c6nc(c(-c7c(F)c(F)c(F)c(F)c7F)c7ccc4[nH]7)C=C6)C=C5)cc3)cc2)ccc2ccccc12
REMARK SMILES IDX 14 1 13 2 11 3 12 4 10 6 7 7 8 8 85 9 9 10 84 11 6 12 5 13
REMARK SMILES IDX 4 14 3 15 93 16 86 17 88 18 92 19 87 20 89 21 91 22 90 23
REMARK SMILES IDX 2 24 1 25 15 26 16 27 17 28 18 29 19 30 20 32 21 33 22 34
REMARK SMILES IDX 83 35 23 36 82 37 24 38 25 39 26 40 76 41 27 42 81 43 75 44
REMARK SMILES IDX 77 45 28 46 80 47 74 48 73 49 29 51 61 52 41 53 60 54 42 55
REMARK SMILES IDX 45 56 59 57 78 58 43 59 44 60 58 62 79 63 46 64 30 65 31 66
REMARK SMILES IDX 39 67 32 68 33 69 37 70 40 71 34 72 35 73 38 74 36 75 62 76
REMARK SMILES IDX 63 77 71 78 64 79 65 80 69 81 72 82 66 83 67 84 70 85 68 86
REMARK SMILES IDX 47 87 48 88 56 89 49 90 50 91 54 92 57 93 51 94 52 95 55 96
REMARK SMILES IDX 53 97
REMARK H PARENT 13 5 18 31 77 50 45 61
REMARK Flexibility Score: inf
ROOT
ATOM      1  C   UNL A   1      32.194  29.763  25.519  1.00  0.00     0.116 C 
ENDROOT
BRANCH   1   2
ATOM      2  N   UNL A   1      31.197  30.082  24.518  1.00  0.00    -0.352 N 
ATOM      3  C   UNL A   1      30.434  29.302  23.686  1.00  0.00     0.251 C 
ATOM      4  O   UNL A   1      29.637  29.888  22.950  1.00  0.00    -0.269 OA
ATOM      5  H   UNL A   1      31.035  31.048  24.413  1.00  0.00     0.163 HD
BRANCH   3   6
ATOM      6  C   UNL A   1      30.502  27.810  23.632  1.00  0.00     0.039 A 
ATOM      7  C   UNL A   1      30.863  24.998  23.457  1.00  0.00    -0.011 A 
ATOM      8  C   UNL A   1      31.426  25.850  22.499  1.00  0.00     0.008 A 
ATOM      9  C   UNL A   1      30.058  25.565  24.448  1.00  0.00     0.008 A 
ATOM     10  C   UNL A   1      31.236  27.237  22.581  1.00  0.00     0.014 A 
ATOM     11  C   UNL A   1      29.938  26.949  24.571  1.00  0.00     0.014 A 
BRANCH   7  12
ATOM     12  C   UNL A   1      31.187  23.514  23.430  1.00  0.00     0.265 C 
BRANCH  12  13
ATOM     13  O   UNL A   1      31.923  23.001  24.550  1.00  0.00    -0.488 OA
BRANCH  13  14
ATOM     14  C   UNL A   1      33.290  23.104  24.596  1.00  0.00     0.130 A 
ATOM     15  C   UNL A   1      34.023  21.900  24.552  1.00  0.00     0.064 A 
ATOM     16  C   UNL A   1      35.420  21.866  24.833  1.00  0.00    -0.004 A 
ATOM     17  C   UNL A   1      33.970  24.299  24.820  1.00  0.00     0.048 A 
ATOM     18  C   UNL A   1      36.061  23.089  25.146  1.00  0.00    -0.017 A 
ATOM     19  C   UNL A   1      36.221  20.695  24.827  1.00  0.00     0.009 A 
ATOM     20  C   UNL A   1      35.334  24.287  25.113  1.00  0.00     0.012 A 
ATOM     21  C   UNL A   1      37.423  23.106  25.489  1.00  0.00     0.009 A 
ATOM     22  C   UNL A   1      37.577  20.730  25.159  1.00  0.00     0.001 A 
ATOM     23  C   UNL A   1      38.175  21.934  25.502  1.00  0.00     0.001 A 
BRANCH  15  24
ATOM     24  C   UNL A   1      33.304  20.627  24.299  1.00  0.00     0.264 C 
ATOM     25  O   UNL A   1      32.768  19.967  25.180  1.00  0.00    -0.298 OA
ENDBRANCH  15  24
ENDBRANCH  13  14
ENDBRANCH  12  13
ENDBRANCH   7  12
ENDBRANCH   3   6
ENDBRANCH   1   2
BRANCH   1  26
ATOM     26  C   UNL A   1      31.854  30.425  26.858  1.00  0.00     0.023 C 
BRANCH  26  27
ATOM     27  C   UNL A   1      31.642  31.938  26.769  1.00  0.00     0.023 C 
BRANCH  27  28
ATOM     28  C   UNL A   1      32.781  32.771  27.347  1.00  0.00     0.116 C 
BRANCH  28  29
ATOM     29  N   UNL A   1      32.400  34.142  27.649  1.00  0.00    -0.352 N 
ATOM     30  C   UNL A   1      32.961  34.996  28.569  1.00  0.00     0.251 C 
ATOM     31  H   UNL A   1      31.646  34.504  27.129  1.00  0.00     0.163 HD
ATOM     32  O   UNL A   1      32.470  36.095  28.785  1.00  0.00    -0.269 OA
BRANCH  30  33
ATOM     33  C   UNL A   1      34.137  34.542  29.338  1.00  0.00     0.039 A 
ATOM     34  C   UNL A   1      33.937  33.992  30.605  1.00  0.00     0.014 A 
ATOM     35  C   UNL A   1      35.420  34.610  28.787  1.00  0.00     0.014 A 
ATOM     36  C   UNL A   1      35.018  33.437  31.292  1.00  0.00     0.010 A 
ATOM     37  C   UNL A   1      36.484  34.000  29.444  1.00  0.00     0.010 A 
ATOM     38  C   UNL A   1      36.290  33.401  30.697  1.00  0.00    -0.014 A 
BRANCH  38  39
ATOM     39  C   UNL A   1      37.427  32.723  31.365  1.00  0.00     0.031 A 
ATOM     40  C   UNL A   1      38.094  31.548  30.712  1.00  0.00     0.074 A 
ATOM     41  C   UNL A   1      37.811  33.127  32.592  1.00  0.00     0.049 A 
ATOM     42  N   UNL A   1      39.053  30.781  31.168  1.00  0.00    -0.248 NA
ATOM     43  C   UNL A   1      37.601  31.164  29.379  1.00  0.00     0.031 C 
ATOM     44  C   UNL A   1      37.205  34.223  33.350  1.00  0.00     0.029 A 
ATOM     45  N   UNL A   1      38.795  32.654  33.423  1.00  0.00    -0.354 N 
ATOM     46  C   UNL A   1      39.270  29.825  30.185  1.00  0.00     0.074 A 
ATOM     47  C   UNL A   1      38.310  30.073  29.132  1.00  0.00     0.031 C 
ATOM     48  C   UNL A   1      37.840  34.349  34.526  1.00  0.00     0.029 A 
ATOM     49  C   UNL A   1      38.875  33.323  34.620  1.00  0.00     0.049 A 
ATOM     50  H   UNL A   1      39.388  31.905  33.185  1.00  0.00     0.167 HD
ATOM     51  C   UNL A   1      40.203  28.845  30.156  1.00  0.00     0.037 A 
ATOM     52  C   UNL A   1      39.685  33.125  35.677  1.00  0.00     0.037 A 
ATOM     53  C   UNL A   1      41.173  28.616  31.195  1.00  0.00     0.049 A 
ATOM     54  C   UNL A   1      40.712  32.027  35.616  1.00  0.00     0.074 A 
ATOM     55  C   UNL A   1      42.194  27.684  31.234  1.00  0.00     0.029 A 
ATOM     56  N   UNL A   1      41.238  29.332  32.383  1.00  0.00    -0.354 N 
ATOM     57  N   UNL A   1      40.954  31.172  34.652  1.00  0.00    -0.248 NA
ATOM     58  C   UNL A   1      41.583  31.870  36.789  1.00  0.00     0.031 C 
ATOM     59  C   UNL A   1      42.855  27.809  32.461  1.00  0.00     0.029 A 
ATOM     60  C   UNL A   1      42.274  28.849  33.167  1.00  0.00     0.049 A 
ATOM     61  H   UNL A   1      40.639  30.073  32.630  1.00  0.00     0.167 HD
ATOM     62  C   UNL A   1      42.017  30.396  35.089  1.00  0.00     0.074 A 
ATOM     63  C   UNL A   1      42.388  30.891  36.398  1.00  0.00     0.031 C 
ATOM     64  C   UNL A   1      42.632  29.362  34.464  1.00  0.00     0.037 A 
BRANCH  51  65
ATOM     65  C   UNL A   1      40.233  27.950  28.953  1.00  0.00     0.064 A 
ATOM     66  C   UNL A   1      40.970  28.287  27.808  1.00  0.00     0.173 A 
ATOM     67  C   UNL A   1      39.559  26.719  28.961  1.00  0.00     0.173 A 
ATOM     68  F   UNL A   1      41.621  29.459  27.745  1.00  0.00    -0.203 F 
ATOM     69  C   UNL A   1      41.013  27.436  26.707  1.00  0.00     0.198 A 
ATOM     70  C   UNL A   1      39.628  25.857  27.870  1.00  0.00     0.198 A 
ATOM     71  F   UNL A   1      38.844  26.346  30.033  1.00  0.00    -0.203 F 
ATOM     72  F   UNL A   1      41.690  27.799  25.608  1.00  0.00    -0.200 F 
ATOM     73  C   UNL A   1      40.350  26.219  26.742  1.00  0.00     0.200 A 
ATOM     74  F   UNL A   1      38.997  24.676  27.908  1.00  0.00    -0.200 F 
ATOM     75  F   UNL A   1      40.403  25.396  25.685  1.00  0.00    -0.200 F 
ENDBRANCH  51  65
BRANCH  52  76
ATOM     76  C   UNL A   1      39.574  33.995  36.876  1.00  0.00     0.064 A 
ATOM     77  C   UNL A   1      38.810  33.601  37.983  1.00  0.00     0.173 A 
ATOM     78  C   UNL A   1      40.213  35.242  36.935  1.00  0.00     0.173 A 
ATOM     79  F   UNL A   1      38.164  32.426  37.966  1.00  0.00    -0.203 F 
ATOM     80  C   UNL A   1      38.667  34.432  39.093  1.00  0.00     0.198 A 
ATOM     81  C   UNL A   1      40.094  36.060  38.056  1.00  0.00     0.198 A 
ATOM     82  F   UNL A   1      40.961  35.663  35.904  1.00  0.00    -0.203 F 
ATOM     83  F   UNL A   1      37.890  34.053  40.116  1.00  0.00    -0.200 F 
ATOM     84  C   UNL A   1      39.313  35.659  39.131  1.00  0.00     0.200 A 
ATOM     85  F   UNL A   1      40.730  37.238  38.094  1.00  0.00    -0.200 F 
ATOM     86  F   UNL A   1      39.175  36.458  40.197  1.00  0.00    -0.200 F 
ENDBRANCH  52  76
BRANCH  64  87
ATOM     87  C   UNL A   1      43.788  28.721  35.173  1.00  0.00     0.064 A 
ATOM     88  C   UNL A   1      45.102  29.176  34.997  1.00  0.00     0.173 A 
ATOM     89  C   UNL A   1      43.572  27.661  36.068  1.00  0.00     0.173 A 
ATOM     90  F   UNL A   1      45.360  30.175  34.141  1.00  0.00    -0.203 F 
ATOM     91  C   UNL A   1      46.161  28.579  35.675  1.00  0.00     0.198 A 
ATOM     92  C   UNL A   1      44.630  27.086  36.764  1.00  0.00     0.198 A 
ATOM     93  F   UNL A   1      42.332  27.192  36.275  1.00  0.00    -0.203 F 
ATOM     94  F   UNL A   1      47.415  29.002  35.458  1.00  0.00    -0.200 F 
ATOM     95  C   UNL A   1      45.925  27.540  36.563  1.00  0.00     0.200 A 
ATOM     96  F   UNL A   1      44.398  26.090  37.631  1.00  0.00    -0.200 F 
ATOM     97  F   UNL A   1      46.946  26.972  37.218  1.00  0.00    -0.200 F 
ENDBRANCH  64  87
ENDBRANCH  38  39
ENDBRANCH  30  33
ENDBRANCH  28  29
ENDBRANCH  27  28
ENDBRANCH  26  27
ENDBRANCH   1  26
TORSDOF 15
ENDMDL
MODEL 2
REMARK VINA RESULT:     -13.1      1.087      1.748
REMARK SMILES O=Cc1c(OCc2ccc(C(=O)NCCCCNC(=O)c3ccc(-c4c5nc(c(-c6c(F)c(F)c(F)c(F)c6F)c6ccc([nH]6)c(-c6c(F)c(F)c(F)c(F)c6F)c6nc(c(-c7c(F)c(F)c(F)c(F)c7F)c7ccc4[nH]7)C=C6)C=C5)cc3)cc2)ccc2ccccc12
REMARK SMILES IDX 14 1 13 2 11 3 12 4 10 6 7 7 8 8 85 9 9 10 84 11 6 12 5 13
REMARK SMILES IDX 4 14 3 15 93 16 86 17 88 18 92 19 87 20 89 21 91 22 90 23
REMARK SMILES IDX 2 24 1 25 15 26 16 27 17 28 18 29 19 30 20 32 21 33 22 34
REMARK SMILES IDX 83 35 23 36 82 37 24 38 25 39 26 40 76 41 27 42 81 43 75 44
REMARK SMILES IDX 77 45 28 46 80 47 74 48 73 49 29 51 61 52 41 53 60 54 42 55
REMARK SMILES IDX 45 56 59 57 78 58 43 59 44 60 58 62 79 63 46 64 30 65 31 66
REMARK SMILES IDX 39 67 32 68 33 69 37 70 40 71 34 72 35 73 38 74 36 75 62 76
REMARK SMILES IDX 63 77 71 78 64 79 65 80 69 81 72 82 66 83 67 84 70 85 68 86
REMARK SMILES IDX 47 87 48 88 56 89 49 90 50 91 54 92 57 93 51 94 52 95 55 96
REMARK SMILES IDX 53 97
REMARK H PARENT 13 5 18 31 77 50 45 61
REMARK Flexibility Score: inf
ROOT
ATOM      1  C   UNL A   1      33.343  30.143  26.547  1.00  0.00     0.116 C 
ENDROOT
BRANCH   1   2
ATOM      2  N   UNL A   1      33.698  29.683  25.221  1.00  0.00    -0.352 N 
ATOM      3  C   UNL A   1      33.497  28.493  24.567  1.00  0.00     0.251 C 
ATOM      4  O   UNL A   1      33.904  28.423  23.405  1.00  0.00    -0.269 OA
ATOM      5  H   UNL A   1      34.177  30.354  24.684  1.00  0.00     0.163 HD
BRANCH   3   6
ATOM      6  C   UNL A   1      32.815  27.306  25.166  1.00  0.00     0.039 A 
ATOM      7  C   UNL A   1      31.395  25.030  26.098  1.00  0.00    -0.011 A 
ATOM      8  C   UNL A   1      30.750  26.009  25.333  1.00  0.00     0.008 A 
ATOM      9  C   UNL A   1      32.728  25.246  26.452  1.00  0.00     0.008 A 
ATOM     10  C   UNL A   1      31.451  27.138  24.884  1.00  0.00     0.014 A 
ATOM     11  C   UNL A   1      33.442  26.330  25.938  1.00  0.00     0.014 A 
BRANCH   7  12
ATOM     12  C   UNL A   1      30.659  23.751  26.462  1.00  0.00     0.265 C 
BRANCH  12  13
ATOM     13  O   UNL A   1      30.929  22.604  25.644  1.00  0.00    -0.488 OA
BRANCH  13  14
ATOM     14  C   UNL A   1      32.047  22.556  24.851  1.00  0.00     0.130 A 
ATOM     15  C   UNL A   1      33.218  22.027  25.431  1.00  0.00     0.064 A 
ATOM     16  C   UNL A   1      34.487  22.147  24.793  1.00  0.00    -0.004 A 
ATOM     17  C   UNL A   1      32.120  23.120  23.579  1.00  0.00     0.048 A 
ATOM     18  C   UNL A   1      34.537  22.807  23.541  1.00  0.00    -0.017 A 
ATOM     19  C   UNL A   1      35.710  21.658  25.319  1.00  0.00     0.009 A 
ATOM     20  C   UNL A   1      33.354  23.263  22.944  1.00  0.00     0.012 A 
ATOM     21  C   UNL A   1      35.769  23.007  22.896  1.00  0.00     0.009 A 
ATOM     22  C   UNL A   1      36.926  21.854  24.659  1.00  0.00     0.001 A 
ATOM     23  C   UNL A   1      36.956  22.540  23.454  1.00  0.00     0.001 A 
BRANCH  15  24
ATOM     24  C   UNL A   1      33.141  21.412  26.779  1.00  0.00     0.264 C 
ATOM     25  O   UNL A   1      33.385  22.019  27.813  1.00  0.00    -0.298 OA
ENDBRANCH  15  24
ENDBRANCH  13  14
ENDBRANCH  12  13
ENDBRANCH   7  12
ENDBRANCH   3   6
ENDBRANCH   1   2
BRANCH   1  26
ATOM     26  C   UNL A   1      31.847  30.462  26.633  1.00  0.00     0.023 C 
BRANCH  26  27
ATOM     27  C   UNL A   1      31.539  31.944  26.866  1.00  0.00     0.023 C 
BRANCH  27  28
ATOM     28  C   UNL A   1      32.708  32.755  27.415  1.00  0.00     0.116 C 
BRANCH  28  29
ATOM     29  N   UNL A   1      32.379  34.149  27.665  1.00  0.00    -0.352 N 
ATOM     30  C   UNL A   1      32.986  35.021  28.538  1.00  0.00     0.251 C 
ATOM     31  H   UNL A   1      31.628  34.514  27.143  1.00  0.00     0.163 HD
ATOM     32  O   UNL A   1      32.536  36.144  28.715  1.00  0.00    -0.269 OA
BRANCH  30  33
ATOM     33  C   UNL A   1      34.161  34.559  29.303  1.00  0.00     0.039 A 
ATOM     34  C   UNL A   1      33.959  33.997  30.565  1.00  0.00     0.014 A 
ATOM     35  C   UNL A   1      35.444  34.632  28.755  1.00  0.00     0.014 A 
ATOM     36  C   UNL A   1      35.039  33.437  31.248  1.00  0.00     0.010 A 
ATOM     37  C   UNL A   1      36.507  34.017  29.408  1.00  0.00     0.010 A 
ATOM     38  C   UNL A   1      36.312  33.406  30.656  1.00  0.00    -0.014 A 
BRANCH  38  39
ATOM     39  C   UNL A   1      37.448  32.722  31.318  1.00  0.00     0.031 A 
ATOM     40  C   UNL A   1      38.127  31.563  30.648  1.00  0.00     0.074 A 
ATOM     41  C   UNL A   1      37.821  33.104  32.556  1.00  0.00     0.049 A 
ATOM     42  N   UNL A   1      39.086  30.794  31.096  1.00  0.00    -0.248 NA
ATOM     43  C   UNL A   1      37.646  31.202  29.304  1.00  0.00     0.031 C 
ATOM     44  C   UNL A   1      37.202  34.181  33.330  1.00  0.00     0.029 A 
ATOM     45  N   UNL A   1      38.801  32.620  33.385  1.00  0.00    -0.354 N 
ATOM     46  C   UNL A   1      39.317  29.858  30.097  1.00  0.00     0.074 A 
ATOM     47  C   UNL A   1      38.363  30.120  29.041  1.00  0.00     0.031 C 
ATOM     48  C   UNL A   1      37.827  34.288  34.514  1.00  0.00     0.029 A 
ATOM     49  C   UNL A   1      38.868  33.267  34.596  1.00  0.00     0.049 A 
ATOM     50  H   UNL A   1      39.400  31.879  33.137  1.00  0.00     0.167 HD
ATOM     51  C   UNL A   1      40.256  28.884  30.055  1.00  0.00     0.037 A 
ATOM     52  C   UNL A   1      39.671  33.053  35.654  1.00  0.00     0.037 A 
ATOM     53  C   UNL A   1      41.219  28.641  31.097  1.00  0.00     0.049 A 
ATOM     54  C   UNL A   1      40.705  31.962  35.580  1.00  0.00     0.074 A 
ATOM     55  C   UNL A   1      42.246  27.714  31.126  1.00  0.00     0.029 A 
ATOM     56  N   UNL A   1      41.271  29.333  32.299  1.00  0.00    -0.354 N 
ATOM     57  N   UNL A   1      40.959  31.127  34.601  1.00  0.00    -0.248 NA
ATOM     58  C   UNL A   1      41.568  31.787  36.756  1.00  0.00     0.031 C 
ATOM     59  C   UNL A   1      42.896  27.818  32.359  1.00  0.00     0.029 A 
ATOM     60  C   UNL A   1      42.303  28.841  33.082  1.00  0.00     0.049 A 
ATOM     61  H   UNL A   1      40.666  30.066  32.556  1.00  0.00     0.167 HD
ATOM     62  C   UNL A   1      42.024  30.349  35.031  1.00  0.00     0.074 A 
ATOM     63  C   UNL A   1      42.382  30.821  36.352  1.00  0.00     0.031 C 
ATOM     64  C   UNL A   1      42.650  29.331  34.391  1.00  0.00     0.037 A 
BRANCH  51  65
ATOM     65  C   UNL A   1      40.299  28.012  28.835  1.00  0.00     0.064 A 
ATOM     66  C   UNL A   1      41.035  28.381  27.699  1.00  0.00     0.173 A 
ATOM     67  C   UNL A   1      39.642  26.773  28.818  1.00  0.00     0.173 A 
ATOM     68  F   UNL A   1      41.670  29.562  27.660  1.00  0.00    -0.203 F 
ATOM     69  C   UNL A   1      41.091  27.551  26.582  1.00  0.00     0.198 A 
ATOM     70  C   UNL A   1      39.724  25.933  27.711  1.00  0.00     0.198 A 
ATOM     71  F   UNL A   1      38.929  26.370  29.881  1.00  0.00    -0.203 F 
ATOM     72  F   UNL A   1      41.766  27.945  25.492  1.00  0.00    -0.200 F 
ATOM     73  C   UNL A   1      40.444  26.326  26.592  1.00  0.00     0.200 A 
ATOM     74  F   UNL A   1      39.108  24.743  27.725  1.00  0.00    -0.200 F 
ATOM     75  F   UNL A   1      40.510  25.524  25.520  1.00  0.00    -0.200 F 
ENDBRANCH  51  65
BRANCH  52  76
ATOM     76  C   UNL A   1      39.547  33.899  36.869  1.00  0.00     0.064 A 
ATOM     77  C   UNL A   1      38.782  33.476  37.966  1.00  0.00     0.173 A 
ATOM     78  C   UNL A   1      40.172  35.151  36.954  1.00  0.00     0.173 A 
ATOM     79  F   UNL A   1      38.149  32.295  37.923  1.00  0.00    -0.203 F 
ATOM     80  C   UNL A   1      38.626  34.283  39.090  1.00  0.00     0.198 A 
ATOM     81  C   UNL A   1      40.039  35.946  38.090  1.00  0.00     0.198 A 
ATOM     82  F   UNL A   1      40.919  35.599  35.934  1.00  0.00    -0.203 F 
ATOM     83  F   UNL A   1      37.849  33.877  40.102  1.00  0.00    -0.200 F 
ATOM     84  C   UNL A   1      39.259  35.516  39.154  1.00  0.00     0.200 A 
ATOM     85  F   UNL A   1      40.662  37.130  38.153  1.00  0.00    -0.200 F 
ATOM     86  F   UNL A   1      39.108  36.294  40.234  1.00  0.00    -0.200 F 
ENDBRANCH  52  76
BRANCH  64  87
ATOM     87  C   UNL A   1      43.804  28.682  35.096  1.00  0.00     0.064 A 
ATOM     88  C   UNL A   1      43.625  27.566  35.924  1.00  0.00     0.173 A 
ATOM     89  C   UNL A   1      45.109  29.162  34.910  1.00  0.00     0.173 A 
ATOM     90  F   UNL A   1      42.394  27.081  36.146  1.00  0.00    -0.203 F 
ATOM     91  C   UNL A   1      44.709  26.966  36.559  1.00  0.00     0.198 A 
ATOM     92  C   UNL A   1      46.194  28.543  35.524  1.00  0.00     0.198 A 
ATOM     93  F   UNL A   1      45.334  30.225  34.122  1.00  0.00    -0.203 F 
ATOM     94  F   UNL A   1      44.509  25.927  37.382  1.00  0.00    -0.200 F 
ATOM     95  C   UNL A   1      45.992  27.450  36.353  1.00  0.00     0.200 A 
ATOM     96  F   UNL A   1      47.435  29.004  35.314  1.00  0.00    -0.200 F 
ATOM     97  F   UNL A   1      47.034  26.867  36.961  1.00  0.00    -0.200 F 
ENDBRANCH  64  87
ENDBRANCH  38  39
ENDBRANCH  30  33
ENDBRANCH  28  29
ENDBRANCH  27  28
ENDBRANCH  26  27
ENDBRANCH   1  26
TORSDOF 15
ENDMDL
MODEL 3
REMARK VINA RESULT:     -12.9      1.161      7.446
REMARK SMILES O=Cc1c(OCc2ccc(C(=O)NCCCCNC(=O)c3ccc(-c4c5nc(c(-c6c(F)c(F)c(F)c(F)c6F)c6ccc([nH]6)c(-c6c(F)c(F)c(F)c(F)c6F)c6nc(c(-c7c(F)c(F)c(F)c(F)c7F)c7ccc4[nH]7)C=C6)C=C5)cc3)cc2)ccc2ccccc12
REMARK SMILES IDX 14 1 13 2 11 3 12 4 10 6 7 7 8 8 85 9 9 10 84 11 6 12 5 13
REMARK SMILES IDX 4 14 3 15 93 16 86 17 88 18 92 19 87 20 89 21 91 22 90 23
REMARK SMILES IDX 2 24 1 25 15 26 16 27 17 28 18 29 19 30 20 32 21 33 22 34
REMARK SMILES IDX 83 35 23 36 82 37 24 38 25 39 26 40 76 41 27 42 81 43 75 44
REMARK SMILES IDX 77 45 28 46 80 47 74 48 73 49 29 51 61 52 41 53 60 54 42 55
REMARK SMILES IDX 45 56 59 57 78 58 43 59 44 60 58 62 79 63 46 64 30 65 31 66
REMARK SMILES IDX 39 67 32 68 33 69 37 70 40 71 34 72 35 73 38 74 36 75 62 76
REMARK SMILES IDX 63 77 71 78 64 79 65 80 69 81 72 82 66 83 67 84 70 85 68 86
REMARK SMILES IDX 47 87 48 88 56 89 49 90 50 91 54 92 57 93 51 94 52 95 55 96
REMARK SMILES IDX 53 97
REMARK H PARENT 13 5 18 31 77 50 45 61
REMARK Flexibility Score: inf
ROOT
ATOM      1  C   UNL A   1      31.311  30.057  25.095  1.00  0.00     0.116 C 
ENDROOT
BRANCH   1   2
ATOM      2  N   UNL A   1      32.428  29.492  24.366  1.00  0.00    -0.352 N 
ATOM      3  C   UNL A   1      32.909  28.212  24.250  1.00  0.00     0.251 C 
ATOM      4  O   UNL A   1      33.883  28.050  23.514  1.00  0.00    -0.269 OA
ATOM      5  H   UNL A   1      32.944  30.157  23.854  1.00  0.00     0.163 HD
BRANCH   3   6
ATOM      6  C   UNL A   1      32.320  27.025  24.941  1.00  0.00     0.039 A 
ATOM      7  C   UNL A   1      31.118  24.697  26.039  1.00  0.00    -0.011 A 
ATOM      8  C   UNL A   1      30.472  25.428  25.035  1.00  0.00     0.008 A 
ATOM      9  C   UNL A   1      32.327  25.191  26.536  1.00  0.00     0.008 A 
ATOM     10  C   UNL A   1      31.062  26.583  24.503  1.00  0.00     0.014 A 
ATOM     11  C   UNL A   1      32.947  26.296  25.950  1.00  0.00     0.014 A 
BRANCH   7  12
ATOM     12  C   UNL A   1      30.531  23.378  26.510  1.00  0.00     0.265 C 
BRANCH  12  13
ATOM     13  O   UNL A   1      30.969  22.200  25.817  1.00  0.00    -0.488 OA
BRANCH  13  14
ATOM     14  C   UNL A   1      32.111  22.219  25.057  1.00  0.00     0.130 A 
ATOM     15  C   UNL A   1      33.322  21.932  25.719  1.00  0.00     0.064 A 
ATOM     16  C   UNL A   1      34.584  22.155  25.096  1.00  0.00    -0.004 A 
ATOM     17  C   UNL A   1      32.151  22.633  23.728  1.00  0.00     0.048 A 
ATOM     18  C   UNL A   1      34.588  22.665  23.774  1.00  0.00    -0.017 A 
ATOM     19  C   UNL A   1      35.844  21.910  25.701  1.00  0.00     0.009 A 
ATOM     20  C   UNL A   1      33.376  22.874  23.104  1.00  0.00     0.012 A 
ATOM     21  C   UNL A   1      35.803  22.959  23.134  1.00  0.00     0.009 A 
ATOM     22  C   UNL A   1      37.044  22.198  25.046  1.00  0.00     0.001 A 
ATOM     23  C   UNL A   1      37.022  22.734  23.767  1.00  0.00     0.001 A 
BRANCH  15  24
ATOM     24  C   UNL A   1      33.282  21.476  27.130  1.00  0.00     0.264 C 
ATOM     25  O   UNL A   1      33.418  22.227  28.087  1.00  0.00    -0.298 OA
ENDBRANCH  15  24
ENDBRANCH  13  14
ENDBRANCH  12  13
ENDBRANCH   7  12
ENDBRANCH   3   6
ENDBRANCH   1   2
BRANCH   1  26
ATOM     26  C   UNL A   1      31.762  30.586  26.460  1.00  0.00     0.023 C 
BRANCH  26  27
ATOM     27  C   UNL A   1      31.511  32.082  26.663  1.00  0.00     0.023 C 
BRANCH  27  28
ATOM     28  C   UNL A   1      32.683  32.843  27.273  1.00  0.00     0.116 C 
BRANCH  28  29
ATOM     29  N   UNL A   1      32.357  34.211  27.642  1.00  0.00    -0.352 N 
ATOM     30  C   UNL A   1      32.959  35.001  28.593  1.00  0.00     0.251 C 
ATOM     31  H   UNL A   1      31.610  34.623  27.149  1.00  0.00     0.163 HD
ATOM     32  O   UNL A   1      32.511  36.106  28.864  1.00  0.00    -0.269 OA
BRANCH  30  33
ATOM     33  C   UNL A   1      34.127  34.470  29.323  1.00  0.00     0.039 A 
ATOM     34  C   UNL A   1      33.919  33.841  30.552  1.00  0.00     0.014 A 
ATOM     35  C   UNL A   1      35.409  34.546  28.772  1.00  0.00     0.014 A 
ATOM     36  C   UNL A   1      34.990  33.218  31.195  1.00  0.00     0.010 A 
ATOM     37  C   UNL A   1      36.461  33.870  29.381  1.00  0.00     0.010 A 
ATOM     38  C   UNL A   1      36.258  33.193  30.593  1.00  0.00    -0.014 A 
BRANCH  38  39
ATOM     39  C   UNL A   1      37.382  32.446  31.209  1.00  0.00     0.031 A 
ATOM     40  C   UNL A   1      37.891  32.832  32.567  1.00  0.00     0.074 A 
ATOM     41  C   UNL A   1      37.986  31.465  30.510  1.00  0.00     0.049 A 
ATOM     42  N   UNL A   1      38.906  32.349  33.238  1.00  0.00    -0.248 NA
ATOM     43  C   UNL A   1      37.184  33.926  33.252  1.00  0.00     0.031 C 
ATOM     44  C   UNL A   1      37.615  31.036  29.161  1.00  0.00     0.029 A 
ATOM     45  N   UNL A   1      39.048  30.659  30.834  1.00  0.00    -0.354 N 
ATOM     46  C   UNL A   1      38.961  33.081  34.416  1.00  0.00     0.074 A 
ATOM     47  C   UNL A   1      37.914  34.077  34.347  1.00  0.00     0.031 C 
ATOM     48  C   UNL A   1      38.424  30.035  28.778  1.00  0.00     0.029 A 
ATOM     49  C   UNL A   1      39.392  29.775  29.840  1.00  0.00     0.049 A 
ATOM     50  H   UNL A   1      39.521  30.710  31.696  1.00  0.00     0.167 HD
ATOM     51  C   UNL A   1      39.796  32.921  35.469  1.00  0.00     0.037 A 
ATOM     52  C   UNL A   1      40.382  28.864  29.789  1.00  0.00     0.037 A 
ATOM     53  C   UNL A   1      40.822  31.913  35.545  1.00  0.00     0.049 A 
ATOM     54  C   UNL A   1      41.295  28.708  30.974  1.00  0.00     0.074 A 
ATOM     55  C   UNL A   1      41.683  31.634  36.591  1.00  0.00     0.029 A 
ATOM     56  N   UNL A   1      41.124  31.018  34.528  1.00  0.00    -0.354 N 
ATOM     57  N   UNL A   1      41.295  29.361  32.111  1.00  0.00    -0.248 NA
ATOM     58  C   UNL A   1      42.344  27.684  30.872  1.00  0.00     0.031 C 
ATOM     59  C   UNL A   1      42.532  30.596  36.194  1.00  0.00     0.029 A 
ATOM     60  C   UNL A   1      42.170  30.198  34.918  1.00  0.00     0.049 A 
ATOM     61  H   UNL A   1      40.663  30.973  33.660  1.00  0.00     0.167 HD
ATOM     62  C   UNL A   1      42.320  28.811  32.867  1.00  0.00     0.074 A 
ATOM     63  C   UNL A   1      42.913  27.759  32.068  1.00  0.00     0.031 C 
ATOM     64  C   UNL A   1      42.739  29.149  34.111  1.00  0.00     0.037 A 
BRANCH  51  65
ATOM     65  C   UNL A   1      39.628  33.847  36.637  1.00  0.00     0.064 A 
ATOM     66  C   UNL A   1      38.842  33.494  37.744  1.00  0.00     0.173 A 
ATOM     67  C   UNL A   1      40.299  35.079  36.674  1.00  0.00     0.173 A 
ATOM     68  F   UNL A   1      38.170  32.333  37.751  1.00  0.00    -0.203 F 
ATOM     69  C   UNL A   1      38.715  34.350  38.835  1.00  0.00     0.198 A 
ATOM     70  C   UNL A   1      40.193  35.919  37.779  1.00  0.00     0.198 A 
ATOM     71  F   UNL A   1      41.068  35.463  35.644  1.00  0.00    -0.203 F 
ATOM     72  F   UNL A   1      37.924  34.009  39.862  1.00  0.00    -0.200 F 
ATOM     73  C   UNL A   1      39.397  35.556  38.855  1.00  0.00     0.200 A 
ATOM     74  F   UNL A   1      40.861  37.080  37.804  1.00  0.00    -0.200 F 
ATOM     75  F   UNL A   1      39.282  36.374  39.912  1.00  0.00    -0.200 F 
ENDBRANCH  51  65
BRANCH  52  76
ATOM     76  C   UNL A   1      40.552  28.013  28.583  1.00  0.00     0.064 A 
ATOM     77  C   UNL A   1      41.324  28.449  27.497  1.00  0.00     0.173 A 
ATOM     78  C   UNL A   1      39.935  26.758  28.482  1.00  0.00     0.173 A 
ATOM     79  F   UNL A   1      41.917  29.651  27.538  1.00  0.00    -0.203 F 
ATOM     80  C   UNL A   1      41.452  27.675  26.346  1.00  0.00     0.198 A 
ATOM     81  C   UNL A   1      40.086  25.971  27.342  1.00  0.00     0.198 A 
ATOM     82  F   UNL A   1      39.190  26.291  29.496  1.00  0.00    -0.203 F 
ATOM     83  F   UNL A   1      42.154  28.138  25.303  1.00  0.00    -0.200 F 
ATOM     84  C   UNL A   1      40.837  26.434  26.271  1.00  0.00     0.200 A 
ATOM     85  F   UNL A   1      39.502  24.767  27.279  1.00  0.00    -0.200 F 
ATOM     86  F   UNL A   1      40.958  25.689  25.164  1.00  0.00    -0.200 F 
ENDBRANCH  52  76
BRANCH  64  87
ATOM     87  C   UNL A   1      43.867  28.353  34.696  1.00  0.00     0.064 A 
ATOM     88  C   UNL A   1      43.638  27.166  35.406  1.00  0.00     0.173 A 
ATOM     89  C   UNL A   1      45.196  28.763  34.511  1.00  0.00     0.173 A 
ATOM     90  F   UNL A   1      42.384  26.741  35.622  1.00  0.00    -0.203 F 
ATOM     91  C   UNL A   1      44.698  26.431  35.929  1.00  0.00     0.198 A 
ATOM     92  C   UNL A   1      46.254  28.011  35.012  1.00  0.00     0.198 A 
ATOM     93  F   UNL A   1      45.469  29.890  33.834  1.00  0.00    -0.203 F 
ATOM     94  F   UNL A   1      44.453  25.322  36.643  1.00  0.00    -0.200 F 
ATOM     95  C   UNL A   1      46.005  26.849  35.726  1.00  0.00     0.200 A 
ATOM     96  F   UNL A   1      47.517  28.410  34.803  1.00  0.00    -0.200 F 
ATOM     97  F   UNL A   1      47.023  26.136  36.226  1.00  0.00    -0.200 F 
ENDBRANCH  64  87
ENDBRANCH  38  39
ENDBRANCH  30  33
ENDBRANCH  28  29
ENDBRANCH  27  28
ENDBRANCH  26  27
ENDBRANCH   1  26
TORSDOF 15
ENDMDL
