MODEL 1
REMARK VINA RESULT:     -11.5      0.000      0.000
REMARK SMILES CN(CCCC(=O)NCCCCNC(=O)c1ccc(-c2c3nc(c(-c4c(F)c(F)c(F)c(F)c4F)c4ccc([nH]4)c(-c4c(F)c(F)c(F)c(F)c4F)c4nc(c(-c5c(F)c(F)c(F)c(F)c5F)c5ccc2[nH]5)C=C4)C=C3)cc1)c1cccc(F)c1C(N)=O
REMARK SMILES IDX 9 1 8 2 6 3 7 4 5 6 4 7 3 8 2 9 1 10 79 11 80 12 85 13 81 14
REMARK SMILES IDX 83 15 82 16 84 17 86 18 87 19 88 20 10 23 11 24 12 25 13 26
REMARK SMILES IDX 14 27 15 29 16 30 17 31 78 32 18 33 77 34 19 35 20 36 21 37
REMARK SMILES IDX 71 38 22 39 76 40 70 41 72 42 23 43 75 44 69 45 68 46 24 48
REMARK SMILES IDX 56 49 36 50 55 51 37 52 40 53 54 54 73 55 38 56 39 57 53 59
REMARK SMILES IDX 74 60 41 61 25 62 26 63 34 64 27 65 28 66 32 67 35 68 29 69
REMARK SMILES IDX 30 70 33 71 31 72 57 73 58 74 66 75 59 76 60 77 64 78 67 79
REMARK SMILES IDX 61 80 62 81 65 82 63 83 42 84 43 85 51 86 44 87 45 88 49 89
REMARK SMILES IDX 52 90 46 91 47 92 50 93 48 94
REMARK H PARENT 8 5 87 21 87 22 13 28 72 47 40 58
REMARK Flexibility Score: inf
ROOT
ATOM      1  C   UNL A   1      33.832  29.460  26.436  1.00  0.00     0.116 C 
ENDROOT
BRANCH   1   2
ATOM      2  N   UNL A   1      33.641  29.374  25.005  1.00  0.00    -0.356 N 
ATOM      3  C   UNL A   1      33.776  28.283  24.202  1.00  0.00     0.220 C 
ATOM      4  O   UNL A   1      33.795  28.445  22.983  1.00  0.00    -0.275 OA
ATOM      5  H   UNL A   1      33.380  30.209  24.555  1.00  0.00     0.163 HD
BRANCH   3   6
ATOM      6  C   UNL A   1      33.822  26.897  24.817  1.00  0.00     0.102 C 
BRANCH   6   7
ATOM      7  C   UNL A   1      32.719  25.922  24.390  1.00  0.00     0.031 C 
BRANCH   7   8
ATOM      8  C   UNL A   1      32.987  24.410  24.441  1.00  0.00     0.117 C 
BRANCH   8   9
ATOM      9  N   UNL A   1      33.646  23.864  25.649  1.00  0.00    -0.374 N 
ATOM     10  C   UNL A   1      32.765  23.580  26.785  1.00  0.00     0.143 C 
BRANCH   9  11
ATOM     11  C   UNL A   1      34.811  23.100  25.554  1.00  0.00     0.052 A 
ATOM     12  C   UNL A   1      36.022  23.819  25.674  1.00  0.00     0.027 A 
ATOM     13  C   UNL A   1      34.913  21.697  25.372  1.00  0.00     0.098 A 
ATOM     14  C   UNL A   1      37.273  23.221  25.508  1.00  0.00     0.005 A 
ATOM     15  C   UNL A   1      36.182  21.112  25.205  1.00  0.00     0.138 A 
ATOM     16  C   UNL A   1      37.351  21.862  25.254  1.00  0.00     0.040 A 
ATOM     17  F   UNL A   1      36.306  19.797  24.960  1.00  0.00    -0.206 F 
BRANCH  13  18
ATOM     18  C   UNL A   1      33.755  20.774  25.256  1.00  0.00     0.253 C 
ATOM     19  N   UNL A   1      33.393  20.079  26.377  1.00  0.00    -0.365 N 
ATOM     20  O   UNL A   1      33.144  20.596  24.205  1.00  0.00    -0.269 OA
ATOM     21  H   UNL A   1      33.879  20.218  27.221  1.00  0.00     0.159 HD
ATOM     22  H   UNL A   1      32.646  19.439  26.338  1.00  0.00     0.159 HD
ENDBRANCH  13  18
ENDBRANCH   9  11
ENDBRANCH   8   9
ENDBRANCH   7   8
ENDBRANCH   6   7
ENDBRANCH   3   6
ENDBRANCH   1   2
BRANCH   1  23
ATOM     23  C   UNL A   1      32.527  29.903  27.102  1.00  0.00     0.023 C 
BRANCH  23  24
ATOM     24  C   UNL A   1      32.168  31.351  26.827  1.00  0.00     0.023 C 
BRANCH  24  25
ATOM     25  C   UNL A   1      33.113  32.357  27.469  1.00  0.00     0.116 C 
BRANCH  25  26
ATOM     26  N   UNL A   1      32.565  33.699  27.615  1.00  0.00    -0.352 N 
ATOM     27  C   UNL A   1      33.002  34.681  28.478  1.00  0.00     0.251 C 
ATOM     28  H   UNL A   1      31.803  33.930  27.036  1.00  0.00     0.163 HD
ATOM     29  O   UNL A   1      32.452  35.774  28.568  1.00  0.00    -0.269 OA
BRANCH  27  30
ATOM     30  C   UNL A   1      34.171  34.369  29.327  1.00  0.00     0.039 A 
ATOM     31  C   UNL A   1      33.981  33.807  30.590  1.00  0.00     0.014 A 
ATOM     32  C   UNL A   1      35.454  34.503  28.788  1.00  0.00     0.014 A 
ATOM     33  C   UNL A   1      35.082  33.298  31.283  1.00  0.00     0.010 A 
ATOM     34  C   UNL A   1      36.530  33.915  29.438  1.00  0.00     0.010 A 
ATOM     35  C   UNL A   1      36.357  33.305  30.691  1.00  0.00    -0.014 A 
BRANCH  35  36
ATOM     36  C   UNL A   1      37.533  32.684  31.353  1.00  0.00     0.031 A 
ATOM     37  C   UNL A   1      38.221  31.517  30.702  1.00  0.00     0.074 A 
ATOM     38  C   UNL A   1      37.915  33.092  32.579  1.00  0.00     0.049 A 
ATOM     39  N   UNL A   1      39.178  30.753  31.165  1.00  0.00    -0.248 NA
ATOM     40  C   UNL A   1      37.737  31.129  29.367  1.00  0.00     0.031 C 
ATOM     41  C   UNL A   1      37.285  34.165  33.351  1.00  0.00     0.029 A 
ATOM     42  N   UNL A   1      38.913  32.635  33.404  1.00  0.00    -0.354 N 
ATOM     43  C   UNL A   1      39.381  29.779  30.196  1.00  0.00     0.074 A 
ATOM     44  C   UNL A   1      38.416  30.015  29.145  1.00  0.00     0.031 C 
ATOM     45  C   UNL A   1      37.920  34.294  34.527  1.00  0.00     0.029 A 
ATOM     46  C   UNL A   1      38.980  33.292  34.609  1.00  0.00     0.049 A 
ATOM     47  H   UNL A   1      39.525  31.905  33.155  1.00  0.00     0.167 HD
ATOM     48  C   UNL A   1      40.307  28.791  30.174  1.00  0.00     0.037 A 
ATOM     49  C   UNL A   1      39.795  33.101  35.663  1.00  0.00     0.037 A 
ATOM     50  C   UNL A   1      41.299  28.591  31.195  1.00  0.00     0.049 A 
ATOM     51  C   UNL A   1      40.846  32.026  35.596  1.00  0.00     0.074 A 
ATOM     52  C   UNL A   1      42.344  27.685  31.216  1.00  0.00     0.029 A 
ATOM     53  N   UNL A   1      41.370  29.315  32.376  1.00  0.00    -0.354 N 
ATOM     54  N   UNL A   1      41.087  31.166  34.637  1.00  0.00    -0.248 NA
ATOM     55  C   UNL A   1      41.742  31.899  36.754  1.00  0.00     0.031 C 
ATOM     56  C   UNL A   1      43.024  27.833  32.429  1.00  0.00     0.029 A 
ATOM     57  C   UNL A   1      42.430  28.861  33.144  1.00  0.00     0.049 A 
ATOM     58  H   UNL A   1      40.759  30.043  32.631  1.00  0.00     0.167 HD
ATOM     59  C   UNL A   1      42.173  30.412  35.062  1.00  0.00     0.074 A 
ATOM     60  C   UNL A   1      42.553  30.925  36.362  1.00  0.00     0.031 C 
ATOM     61  C   UNL A   1      42.799  29.389  34.433  1.00  0.00     0.037 A 
BRANCH  48  62
ATOM     62  C   UNL A   1      40.289  27.854  29.001  1.00  0.00     0.064 A 
ATOM     63  C   UNL A   1      41.020  28.120  27.833  1.00  0.00     0.173 A 
ATOM     64  C   UNL A   1      39.545  26.665  29.053  1.00  0.00     0.173 A 
ATOM     65  F   UNL A   1      41.737  29.249  27.729  1.00  0.00    -0.203 F 
ATOM     66  C   UNL A   1      40.978  27.251  26.748  1.00  0.00     0.198 A 
ATOM     67  C   UNL A   1      39.530  25.783  27.976  1.00  0.00     0.198 A 
ATOM     68  F   UNL A   1      38.832  26.360  30.147  1.00  0.00    -0.203 F 
ATOM     69  F   UNL A   1      41.638  27.555  25.621  1.00  0.00    -0.200 F 
ATOM     70  C   UNL A   1      40.238  26.080  26.821  1.00  0.00     0.200 A 
ATOM     71  F   UNL A   1      38.824  24.646  28.054  1.00  0.00    -0.200 F 
ATOM     72  F   UNL A   1      40.201  25.243  25.776  1.00  0.00    -0.200 F 
ENDBRANCH  48  62
BRANCH  49  73
ATOM     73  C   UNL A   1      39.669  33.970  36.862  1.00  0.00     0.064 A 
ATOM     74  C   UNL A   1      38.882  33.578  37.954  1.00  0.00     0.173 A 
ATOM     75  C   UNL A   1      40.335  35.200  36.946  1.00  0.00     0.173 A 
ATOM     76  F   UNL A   1      38.208  32.420  37.911  1.00  0.00    -0.203 F 
ATOM     77  C   UNL A   1      38.756  34.390  39.080  1.00  0.00     0.198 A 
ATOM     78  C   UNL A   1      40.228  36.001  38.082  1.00  0.00     0.198 A 
ATOM     79  F   UNL A   1      41.104  35.619  35.929  1.00  0.00    -0.203 F 
ATOM     80  F   UNL A   1      37.968  34.008  40.094  1.00  0.00    -0.200 F 
ATOM     81  C   UNL A   1      39.434  35.597  39.146  1.00  0.00     0.200 A 
ATOM     82  F   UNL A   1      40.895  37.161  38.147  1.00  0.00    -0.200 F 
ATOM     83  F   UNL A   1      39.318  36.375  40.231  1.00  0.00    -0.200 F 
ENDBRANCH  49  73
BRANCH  61  84
ATOM     84  C   UNL A   1      43.977  28.769  35.122  1.00  0.00     0.064 A 
ATOM     85  C   UNL A   1      43.834  27.660  35.967  1.00  0.00     0.173 A 
ATOM     86  C   UNL A   1      45.273  29.255  34.886  1.00  0.00     0.173 A 
ATOM     87  F   UNL A   1      42.614  27.169  36.234  1.00  0.00    -0.203 F 
ATOM     88  C   UNL A   1      44.943  27.067  36.563  1.00  0.00     0.198 A 
ATOM     89  C   UNL A   1      46.382  28.643  35.461  1.00  0.00     0.198 A 
ATOM     90  F   UNL A   1      45.462  30.310  34.080  1.00  0.00    -0.203 F 
ATOM     91  F   UNL A   1      44.781  26.028  37.394  1.00  0.00    -0.200 F 
ATOM     92  C   UNL A   1      46.216  27.554  36.303  1.00  0.00     0.200 A 
ATOM     93  F   UNL A   1      47.612  29.106  35.199  1.00  0.00    -0.200 F 
ATOM     94  F   UNL A   1      47.284  26.973  36.867  1.00  0.00    -0.200 F 
ENDBRANCH  61  84
ENDBRANCH  35  36
ENDBRANCH  27  30
ENDBRANCH  25  26
ENDBRANCH  24  25
ENDBRANCH  23  24
ENDBRANCH   1  23
TORSDOF 16
ENDMDL
MODEL 2
REMARK VINA RESULT:     -11.4      0.640      7.462
REMARK SMILES CN(CCCC(=O)NCCCCNC(=O)c1ccc(-c2c3nc(c(-c4c(F)c(F)c(F)c(F)c4F)c4ccc([nH]4)c(-c4c(F)c(F)c(F)c(F)c4F)c4nc(c(-c5c(F)c(F)c(F)c(F)c5F)c5ccc2[nH]5)C=C4)C=C3)cc1)c1cccc(F)c1C(N)=O
REMARK SMILES IDX 9 1 8 2 6 3 7 4 5 6 4 7 3 8 2 9 1 10 79 11 80 12 85 13 81 14
REMARK SMILES IDX 83 15 82 16 84 17 86 18 87 19 88 20 10 23 11 24 12 25 13 26
REMARK SMILES IDX 14 27 15 29 16 30 17 31 78 32 18 33 77 34 19 35 20 36 21 37
REMARK SMILES IDX 71 38 22 39 76 40 70 41 72 42 23 43 75 44 69 45 68 46 24 48
REMARK SMILES IDX 56 49 36 50 55 51 37 52 40 53 54 54 73 55 38 56 39 57 53 59
REMARK SMILES IDX 74 60 41 61 25 62 26 63 34 64 27 65 28 66 32 67 35 68 29 69
REMARK SMILES IDX 30 70 33 71 31 72 57 73 58 74 66 75 59 76 60 77 64 78 67 79
REMARK SMILES IDX 61 80 62 81 65 82 63 83 42 84 43 85 51 86 44 87 45 88 49 89
REMARK SMILES IDX 52 90 46 91 47 92 50 93 48 94
REMARK H PARENT 8 5 87 21 87 22 13 28 72 47 40 58
REMARK Flexibility Score: inf
ROOT
ATOM      1  C   UNL A   1      33.306  29.989  26.281  1.00  0.00     0.116 C 
ENDROOT
BRANCH   1   2
ATOM      2  N   UNL A   1      33.166  29.503  24.925  1.00  0.00    -0.356 N 
ATOM      3  C   UNL A   1      33.509  28.283  24.429  1.00  0.00     0.220 C 
ATOM      4  O   UNL A   1      33.527  28.126  23.208  1.00  0.00    -0.275 OA
ATOM      5  H   UNL A   1      32.773  30.135  24.281  1.00  0.00     0.163 HD
BRANCH   3   6
ATOM      6  C   UNL A   1      33.783  27.134  25.379  1.00  0.00     0.102 C 
BRANCH   6   7
ATOM      7  C   UNL A   1      32.644  26.130  25.587  1.00  0.00     0.031 C 
BRANCH   7   8
ATOM      8  C   UNL A   1      32.976  24.665  25.910  1.00  0.00     0.117 C 
BRANCH   8   9
ATOM      9  N   UNL A   1      33.341  23.774  24.784  1.00  0.00    -0.374 N 
ATOM     10  C   UNL A   1      32.787  24.135  23.477  1.00  0.00     0.143 C 
BRANCH   9  11
ATOM     11  C   UNL A   1      34.549  23.073  24.781  1.00  0.00     0.052 A 
ATOM     12  C   UNL A   1      35.704  23.851  24.536  1.00  0.00     0.027 A 
ATOM     13  C   UNL A   1      34.746  21.687  25.011  1.00  0.00     0.098 A 
ATOM     14  C   UNL A   1      36.976  23.289  24.405  1.00  0.00     0.005 A 
ATOM     15  C   UNL A   1      36.034  21.139  24.873  1.00  0.00     0.138 A 
ATOM     16  C   UNL A   1      37.137  21.923  24.557  1.00  0.00     0.040 A 
ATOM     17  F   UNL A   1      36.238  19.819  25.015  1.00  0.00    -0.206 F 
BRANCH  13  18
ATOM     18  C   UNL A   1      33.659  20.719  25.313  1.00  0.00     0.253 C 
ATOM     19  N   UNL A   1      33.393  20.468  26.631  1.00  0.00    -0.365 N 
ATOM     20  O   UNL A   1      33.028  20.129  24.440  1.00  0.00    -0.269 OA
ATOM     21  H   UNL A   1      33.897  20.938  27.334  1.00  0.00     0.159 HD
ATOM     22  H   UNL A   1      32.698  19.816  26.876  1.00  0.00     0.159 HD
ENDBRANCH  13  18
ENDBRANCH   9  11
ENDBRANCH   8   9
ENDBRANCH   7   8
ENDBRANCH   6   7
ENDBRANCH   3   6
ENDBRANCH   1   2
BRANCH   1  23
ATOM     23  C   UNL A   1      31.948  30.468  26.796  1.00  0.00     0.023 C 
BRANCH  23  24
ATOM     24  C   UNL A   1      31.757  31.970  26.694  1.00  0.00     0.023 C 
BRANCH  24  25
ATOM     25  C   UNL A   1      32.779  32.780  27.478  1.00  0.00     0.116 C 
BRANCH  25  26
ATOM     26  N   UNL A   1      32.413  34.174  27.697  1.00  0.00    -0.352 N 
ATOM     27  C   UNL A   1      32.989  35.050  28.592  1.00  0.00     0.251 C 
ATOM     28  H   UNL A   1      31.676  34.527  27.147  1.00  0.00     0.163 HD
ATOM     29  O   UNL A   1      32.587  36.199  28.743  1.00  0.00    -0.269 OA
BRANCH  27  30
ATOM     30  C   UNL A   1      34.123  34.550  29.396  1.00  0.00     0.039 A 
ATOM     31  C   UNL A   1      33.882  33.903  30.609  1.00  0.00     0.014 A 
ATOM     32  C   UNL A   1      35.412  34.602  28.856  1.00  0.00     0.014 A 
ATOM     33  C   UNL A   1      34.929  33.230  31.244  1.00  0.00     0.010 A 
ATOM     34  C   UNL A   1      36.426  33.856  29.441  1.00  0.00     0.010 A 
ATOM     35  C   UNL A   1      36.196  33.160  30.639  1.00  0.00    -0.014 A 
BRANCH  35  36
ATOM     36  C   UNL A   1      37.306  32.370  31.232  1.00  0.00     0.031 A 
ATOM     37  C   UNL A   1      37.824  32.726  32.598  1.00  0.00     0.074 A 
ATOM     38  C   UNL A   1      37.916  31.411  30.508  1.00  0.00     0.049 A 
ATOM     39  N   UNL A   1      38.860  32.251  33.242  1.00  0.00    -0.248 NA
ATOM     40  C   UNL A   1      37.105  33.790  33.317  1.00  0.00     0.031 C 
ATOM     41  C   UNL A   1      37.558  31.019  29.144  1.00  0.00     0.029 A 
ATOM     42  N   UNL A   1      38.987  30.606  30.813  1.00  0.00    -0.354 N 
ATOM     43  C   UNL A   1      38.935  32.983  34.420  1.00  0.00     0.074 A 
ATOM     44  C   UNL A   1      37.875  33.966  34.379  1.00  0.00     0.031 C 
ATOM     45  C   UNL A   1      38.381  30.040  28.736  1.00  0.00     0.029 A 
ATOM     46  C   UNL A   1      39.348  29.758  29.794  1.00  0.00     0.049 A 
ATOM     47  H   UNL A   1      39.452  30.634  31.679  1.00  0.00     0.167 HD
ATOM     48  C   UNL A   1      39.796  32.832  35.454  1.00  0.00     0.037 A 
ATOM     49  C   UNL A   1      40.350  28.861  29.718  1.00  0.00     0.037 A 
ATOM     50  C   UNL A   1      40.814  31.819  35.515  1.00  0.00     0.049 A 
ATOM     51  C   UNL A   1      41.265  28.680  30.899  1.00  0.00     0.074 A 
ATOM     52  C   UNL A   1      41.669  31.518  36.561  1.00  0.00     0.029 A 
ATOM     53  N   UNL A   1      41.112  30.939  34.485  1.00  0.00    -0.354 N 
ATOM     54  N   UNL A   1      41.274  29.317  32.044  1.00  0.00    -0.248 NA
ATOM     55  C   UNL A   1      42.307  27.650  30.779  1.00  0.00     0.031 C 
ATOM     56  C   UNL A   1      42.512  30.480  36.148  1.00  0.00     0.029 A 
ATOM     57  C   UNL A   1      42.153  30.107  34.862  1.00  0.00     0.049 A 
ATOM     58  H   UNL A   1      40.652  30.910  33.615  1.00  0.00     0.167 HD
ATOM     59  C   UNL A   1      42.300  28.754  32.789  1.00  0.00     0.074 A 
ATOM     60  C   UNL A   1      42.886  27.712  31.971  1.00  0.00     0.031 C 
ATOM     61  C   UNL A   1      42.719  29.070  34.038  1.00  0.00     0.037 A 
BRANCH  48  62
ATOM     62  C   UNL A   1      39.665  33.784  36.607  1.00  0.00     0.064 A 
ATOM     63  C   UNL A   1      40.303  35.035  36.607  1.00  0.00     0.173 A 
ATOM     64  C   UNL A   1      38.876  33.450  37.718  1.00  0.00     0.173 A 
ATOM     65  F   UNL A   1      41.079  35.396  35.574  1.00  0.00    -0.203 F 
ATOM     66  C   UNL A   1      40.187  35.898  37.692  1.00  0.00     0.198 A 
ATOM     67  C   UNL A   1      38.737  34.330  38.788  1.00  0.00     0.198 A 
ATOM     68  F   UNL A   1      38.241  32.270  37.767  1.00  0.00    -0.203 F 
ATOM     69  F   UNL A   1      40.853  37.061  37.694  1.00  0.00    -0.200 F 
ATOM     70  C   UNL A   1      39.400  35.549  38.779  1.00  0.00     0.200 A 
ATOM     71  F   UNL A   1      37.966  33.996  39.833  1.00  0.00    -0.200 F 
ATOM     72  F   UNL A   1      39.287  36.383  39.821  1.00  0.00    -0.200 F 
ENDBRANCH  48  62
BRANCH  49  73
ATOM     73  C   UNL A   1      40.520  28.045  28.488  1.00  0.00     0.064 A 
ATOM     74  C   UNL A   1      41.301  28.508  27.421  1.00  0.00     0.173 A 
ATOM     75  C   UNL A   1      39.915  26.787  28.357  1.00  0.00     0.173 A 
ATOM     76  F   UNL A   1      41.882  29.714  27.490  1.00  0.00    -0.203 F 
ATOM     77  C   UNL A   1      41.462  27.749  26.263  1.00  0.00     0.198 A 
ATOM     78  C   UNL A   1      40.095  26.017  27.209  1.00  0.00     0.198 A 
ATOM     79  F   UNL A   1      39.160  26.297  29.353  1.00  0.00    -0.203 F 
ATOM     80  F   UNL A   1      42.184  28.231  25.243  1.00  0.00    -0.200 F 
ATOM     81  C   UNL A   1      40.864  26.502  26.161  1.00  0.00     0.200 A 
ATOM     82  F   UNL A   1      39.527  24.808  27.119  1.00  0.00    -0.200 F 
ATOM     83  F   UNL A   1      41.023  25.770  25.050  1.00  0.00    -0.200 F 
ENDBRANCH  49  73
BRANCH  61  84
ATOM     84  C   UNL A   1      43.847  28.267  34.614  1.00  0.00     0.064 A 
ATOM     85  C   UNL A   1      45.176  28.704  34.532  1.00  0.00     0.173 A 
ATOM     86  C   UNL A   1      43.586  27.075  35.308  1.00  0.00     0.173 A 
ATOM     87  F   UNL A   1      45.476  29.830  33.866  1.00  0.00    -0.203 F 
ATOM     88  C   UNL A   1      46.207  27.970  35.112  1.00  0.00     0.198 A 
ATOM     89  C   UNL A   1      44.615  26.358  35.910  1.00  0.00     0.198 A 
ATOM     90  F   UNL A   1      42.330  26.618  35.419  1.00  0.00    -0.203 F 
ATOM     91  F   UNL A   1      47.474  28.389  34.994  1.00  0.00    -0.200 F 
ATOM     92  C   UNL A   1      45.925  26.804  35.808  1.00  0.00     0.200 A 
ATOM     93  F   UNL A   1      44.340  25.238  36.591  1.00  0.00    -0.200 F 
ATOM     94  F   UNL A   1      46.917  26.106  36.377  1.00  0.00    -0.200 F 
ENDBRANCH  61  84
ENDBRANCH  35  36
ENDBRANCH  27  30
ENDBRANCH  25  26
ENDBRANCH  24  25
ENDBRANCH  23  24
ENDBRANCH   1  23
TORSDOF 16
ENDMDL
MODEL 3
REMARK VINA RESULT:     -11.3      0.819      7.483
REMARK SMILES CN(CCCC(=O)NCCCCNC(=O)c1ccc(-c2c3nc(c(-c4c(F)c(F)c(F)c(F)c4F)c4ccc([nH]4)c(-c4c(F)c(F)c(F)c(F)c4F)c4nc(c(-c5c(F)c(F)c(F)c(F)c5F)c5ccc2[nH]5)C=C4)C=C3)cc1)c1cccc(F)c1C(N)=O
REMARK SMILES IDX 9 1 8 2 6 3 7 4 5 6 4 7 3 8 2 9 1 10 79 11 80 12 85 13 81 14
REMARK SMILES IDX 83 15 82 16 84 17 86 18 87 19 88 20 10 23 11 24 12 25 13 26
REMARK SMILES IDX 14 27 15 29 16 30 17 31 78 32 18 33 77 34 19 35 20 36 21 37
REMARK SMILES IDX 71 38 22 39 76 40 70 41 72 42 23 43 75 44 69 45 68 46 24 48
REMARK SMILES IDX 56 49 36 50 55 51 37 52 40 53 54 54 73 55 38 56 39 57 53 59
REMARK SMILES IDX 74 60 41 61 25 62 26 63 34 64 27 65 28 66 32 67 35 68 29 69
REMARK SMILES IDX 30 70 33 71 31 72 57 73 58 74 66 75 59 76 60 77 64 78 67 79
REMARK SMILES IDX 61 80 62 81 65 82 63 83 42 84 43 85 51 86 44 87 45 88 49 89
REMARK SMILES IDX 52 90 46 91 47 92 50 93 48 94
REMARK H PARENT 8 5 87 21 87 22 13 28 72 47 40 58
REMARK Flexibility Score: inf
ROOT
ATOM      1  C   UNL A   1      31.496  29.962  25.293  1.00  0.00     0.116 C 
ENDROOT
BRANCH   1   2
ATOM      2  N   UNL A   1      32.468  29.279  24.468  1.00  0.00    -0.356 N 
ATOM      3  C   UNL A   1      32.995  28.036  24.642  1.00  0.00     0.220 C 
ATOM      4  O   UNL A   1      33.974  27.710  23.971  1.00  0.00    -0.275 OA
ATOM      5  H   UNL A   1      32.789  29.776  23.681  1.00  0.00     0.163 HD
BRANCH   3   6
ATOM      6  C   UNL A   1      32.327  27.061  25.592  1.00  0.00     0.102 C 
BRANCH   6   7
ATOM      7  C   UNL A   1      33.130  25.811  25.967  1.00  0.00     0.031 C 
BRANCH   7   8
ATOM      8  C   UNL A   1      32.546  24.421  25.671  1.00  0.00     0.117 C 
BRANCH   8   9
ATOM      9  N   UNL A   1      33.024  23.713  24.461  1.00  0.00    -0.374 N 
ATOM     10  C   UNL A   1      32.559  24.250  23.180  1.00  0.00     0.143 C 
BRANCH   9  11
ATOM     11  C   UNL A   1      34.251  23.047  24.452  1.00  0.00     0.052 A 
ATOM     12  C   UNL A   1      35.333  23.769  23.899  1.00  0.00     0.027 A 
ATOM     13  C   UNL A   1      34.534  21.748  24.947  1.00  0.00     0.098 A 
ATOM     14  C   UNL A   1      36.603  23.212  23.729  1.00  0.00     0.005 A 
ATOM     15  C   UNL A   1      35.819  21.202  24.766  1.00  0.00     0.138 A 
ATOM     16  C   UNL A   1      36.840  21.915  24.149  1.00  0.00     0.040 A 
ATOM     17  F   UNL A   1      36.095  19.948  25.161  1.00  0.00    -0.206 F 
BRANCH  13  18
ATOM     18  C   UNL A   1      33.536  20.853  25.589  1.00  0.00     0.253 C 
ATOM     19  N   UNL A   1      33.580  20.739  26.951  1.00  0.00    -0.365 N 
ATOM     20  O   UNL A   1      32.712  20.204  24.949  1.00  0.00    -0.269 OA
ATOM     21  H   UNL A   1      34.239  21.256  27.467  1.00  0.00     0.159 HD
ATOM     22  H   UNL A   1      32.953  20.139  27.414  1.00  0.00     0.159 HD
ENDBRANCH  13  18
ENDBRANCH   9  11
ENDBRANCH   8   9
ENDBRANCH   7   8
ENDBRANCH   6   7
ENDBRANCH   3   6
ENDBRANCH   1   2
BRANCH   1  23
ATOM     23  C   UNL A   1      32.182  30.515  26.543  1.00  0.00     0.023 C 
BRANCH  23  24
ATOM     24  C   UNL A   1      31.726  31.914  26.916  1.00  0.00     0.023 C 
BRANCH  24  25
ATOM     25  C   UNL A   1      32.846  32.822  27.402  1.00  0.00     0.116 C 
BRANCH  25  26
ATOM     26  N   UNL A   1      32.442  34.197  27.669  1.00  0.00    -0.352 N 
ATOM     27  C   UNL A   1      32.979  35.049  28.610  1.00  0.00     0.251 C 
ATOM     28  H   UNL A   1      31.708  34.555  27.119  1.00  0.00     0.163 HD
ATOM     29  O   UNL A   1      32.547  36.182  28.798  1.00  0.00    -0.269 OA
BRANCH  27  30
ATOM     30  C   UNL A   1      34.109  34.544  29.417  1.00  0.00     0.039 A 
ATOM     31  C   UNL A   1      33.860  33.880  30.618  1.00  0.00     0.014 A 
ATOM     32  C   UNL A   1      35.401  34.609  28.888  1.00  0.00     0.014 A 
ATOM     33  C   UNL A   1      34.905  33.203  31.253  1.00  0.00     0.010 A 
ATOM     34  C   UNL A   1      36.414  33.860  29.471  1.00  0.00     0.010 A 
ATOM     35  C   UNL A   1      36.177  33.147  30.659  1.00  0.00    -0.014 A 
BRANCH  35  36
ATOM     36  C   UNL A   1      37.286  32.354  31.250  1.00  0.00     0.031 A 
ATOM     37  C   UNL A   1      37.804  32.707  32.617  1.00  0.00     0.074 A 
ATOM     38  C   UNL A   1      37.894  31.395  30.525  1.00  0.00     0.049 A 
ATOM     39  N   UNL A   1      38.840  32.229  33.260  1.00  0.00    -0.248 NA
ATOM     40  C   UNL A   1      37.088  33.771  33.337  1.00  0.00     0.031 C 
ATOM     41  C   UNL A   1      37.535  31.006  29.160  1.00  0.00     0.029 A 
ATOM     42  N   UNL A   1      38.964  30.588  30.828  1.00  0.00    -0.354 N 
ATOM     43  C   UNL A   1      38.916  32.959  34.439  1.00  0.00     0.074 A 
ATOM     44  C   UNL A   1      37.858  33.944  34.400  1.00  0.00     0.031 C 
ATOM     45  C   UNL A   1      38.357  30.026  28.751  1.00  0.00     0.029 A 
ATOM     46  C   UNL A   1      39.323  29.740  29.808  1.00  0.00     0.049 A 
ATOM     47  H   UNL A   1      39.429  30.613  31.695  1.00  0.00     0.167 HD
ATOM     48  C   UNL A   1      39.777  32.805  35.473  1.00  0.00     0.037 A 
ATOM     49  C   UNL A   1      40.323  28.842  29.731  1.00  0.00     0.037 A 
ATOM     50  C   UNL A   1      40.793  31.790  35.533  1.00  0.00     0.049 A 
ATOM     51  C   UNL A   1      41.239  28.657  30.911  1.00  0.00     0.074 A 
ATOM     52  C   UNL A   1      41.647  31.486  36.578  1.00  0.00     0.029 A 
ATOM     53  N   UNL A   1      41.089  30.911  34.501  1.00  0.00    -0.354 N 
ATOM     54  N   UNL A   1      41.248  29.292  32.057  1.00  0.00    -0.248 NA
ATOM     55  C   UNL A   1      42.279  27.625  30.790  1.00  0.00     0.031 C 
ATOM     56  C   UNL A   1      42.488  30.448  36.164  1.00  0.00     0.029 A 
ATOM     57  C   UNL A   1      42.129  30.077  34.877  1.00  0.00     0.049 A 
ATOM     58  H   UNL A   1      40.630  30.884  33.631  1.00  0.00     0.167 HD
ATOM     59  C   UNL A   1      42.273  28.726  32.801  1.00  0.00     0.074 A 
ATOM     60  C   UNL A   1      42.857  27.685  31.982  1.00  0.00     0.031 C 
ATOM     61  C   UNL A   1      42.693  29.040  34.051  1.00  0.00     0.037 A 
BRANCH  48  62
ATOM     62  C   UNL A   1      39.648  33.756  36.627  1.00  0.00     0.064 A 
ATOM     63  C   UNL A   1      38.873  33.447  37.756  1.00  0.00     0.173 A 
ATOM     64  C   UNL A   1      40.322  34.987  36.612  1.00  0.00     0.173 A 
ATOM     65  F   UNL A   1      38.198  32.289  37.813  1.00  0.00    -0.203 F 
ATOM     66  C   UNL A   1      38.749  34.347  38.808  1.00  0.00     0.198 A 
ATOM     67  C   UNL A   1      40.220  35.872  37.681  1.00  0.00     0.198 A 
ATOM     68  F   UNL A   1      41.080  35.330  35.560  1.00  0.00    -0.203 F 
ATOM     69  F   UNL A   1      37.956  34.054  39.849  1.00  0.00    -0.200 F 
ATOM     70  C   UNL A   1      39.426  35.557  38.774  1.00  0.00     0.200 A 
ATOM     71  F   UNL A   1      40.885  37.036  37.652  1.00  0.00    -0.200 F 
ATOM     72  F   UNL A   1      39.307  36.422  39.790  1.00  0.00    -0.200 F 
ENDBRANCH  48  62
BRANCH  49  73
ATOM     73  C   UNL A   1      40.492  28.027  28.500  1.00  0.00     0.064 A 
ATOM     74  C   UNL A   1      41.265  28.495  27.429  1.00  0.00     0.173 A 
ATOM     75  C   UNL A   1      39.894  26.765  28.372  1.00  0.00     0.173 A 
ATOM     76  F   UNL A   1      41.838  29.705  27.496  1.00  0.00    -0.203 F 
ATOM     77  C   UNL A   1      41.424  27.737  26.270  1.00  0.00     0.198 A 
ATOM     78  C   UNL A   1      40.073  25.997  27.222  1.00  0.00     0.198 A 
ATOM     79  F   UNL A   1      39.148  26.270  29.371  1.00  0.00    -0.203 F 
ATOM     80  F   UNL A   1      42.137  28.225  25.246  1.00  0.00    -0.200 F 
ATOM     81  C   UNL A   1      40.833  26.487  26.170  1.00  0.00     0.200 A 
ATOM     82  F   UNL A   1      39.512  24.784  27.135  1.00  0.00    -0.200 F 
ATOM     83  F   UNL A   1      40.991  25.756  25.058  1.00  0.00    -0.200 F 
ENDBRANCH  49  73
BRANCH  61  84
ATOM     84  C   UNL A   1      43.819  28.234  34.625  1.00  0.00     0.064 A 
ATOM     85  C   UNL A   1      43.589  27.024  35.295  1.00  0.00     0.173 A 
ATOM     86  C   UNL A   1      45.149  28.647  34.450  1.00  0.00     0.173 A 
ATOM     87  F   UNL A   1      42.334  26.595  35.500  1.00  0.00    -0.203 F 
ATOM     88  C   UNL A   1      44.649  26.264  35.782  1.00  0.00     0.198 A 
ATOM     89  C   UNL A   1      46.207  27.872  34.913  1.00  0.00     0.198 A 
ATOM     90  F   UNL A   1      45.421  29.794  33.809  1.00  0.00    -0.203 F 
ATOM     91  F   UNL A   1      44.405  25.127  36.449  1.00  0.00    -0.200 F 
ATOM     92  C   UNL A   1      45.956  26.684  35.583  1.00  0.00     0.200 A 
ATOM     93  F   UNL A   1      47.469  28.272  34.709  1.00  0.00    -0.200 F 
ATOM     94  F   UNL A   1      46.975  25.943  36.040  1.00  0.00    -0.200 F 
ENDBRANCH  61  84
ENDBRANCH  35  36
ENDBRANCH  27  30
ENDBRANCH  25  26
ENDBRANCH  24  25
ENDBRANCH  23  24
ENDBRANCH   1  23
TORSDOF 16
ENDMDL
