MODEL 1
REMARK VINA RESULT:     -12.2      0.000      0.000
REMARK SMILES O=C(NCCCCNC(=O)[C@H](C[NH+]1CCCC1)c1ccc(Br)cc1)c1ccc(-c2c3nc(c(-c4c(F)c(F)c(F)c(F)c4F)c4ccc([nH]4)c(-c4c(F)c(F)c(F)c(F)c4F)c4nc(c(-c5c(F)c(F)c(F)c(F)c5F)c5ccc2[nH]5)C=C4)C=C3)cc1
REMARK SMILES IDX 5 1 4 2 3 3 1 4 2 5 25 7 26 8 87 9 27 10 86 11 28 12 29 13
REMARK SMILES IDX 30 14 80 15 31 16 85 17 79 18 81 19 32 20 84 21 78 22 77 23
REMARK SMILES IDX 33 25 65 26 45 27 64 28 46 29 49 30 63 31 82 32 47 33 48 34
REMARK SMILES IDX 62 36 83 37 50 38 34 39 35 40 43 41 36 42 37 43 41 44 44 45
REMARK SMILES IDX 38 46 39 47 42 48 40 49 66 50 67 51 75 52 68 53 69 54 73 55
REMARK SMILES IDX 76 56 70 57 71 58 74 59 72 60 51 61 52 62 60 63 53 64 54 65
REMARK SMILES IDX 58 66 61 67 55 68 56 69 59 70 57 71 6 72 7 73 8 74 9 75
REMARK SMILES IDX 10 77 11 78 18 79 19 80 24 81 20 82 23 83 21 84 22 85 12 86
REMARK SMILES IDX 13 87 14 88 17 89 15 91 16 92
REMARK H PARENT 3 6 81 24 49 35 8 76 13 90
REMARK Flexibility Score: inf
ROOT
ATOM      1  C   UNL A   1      31.505  32.372  26.874  1.00  0.00     0.023 C 
ENDROOT
BRANCH   1   2
ATOM      2  C   UNL A   1      32.708  33.113  27.429  1.00  0.00     0.116 C 
BRANCH   2   3
ATOM      3  N   UNL A   1      32.397  34.468  27.865  1.00  0.00    -0.352 N 
ATOM      4  O   UNL A   1      32.637  36.294  29.193  1.00  0.00    -0.269 OA
ATOM      5  C   UNL A   1      33.037  35.189  28.843  1.00  0.00     0.251 C 
ATOM      6  H   UNL A   1      31.647  34.915  27.409  1.00  0.00     0.163 HD
BRANCH   5   7
ATOM      7  C   UNL A   1      34.204  34.573  29.498  1.00  0.00     0.039 A 
ATOM      8  C   UNL A   1      35.469  34.683  28.912  1.00  0.00     0.014 A 
ATOM      9  C   UNL A   1      34.013  33.815  30.654  1.00  0.00     0.014 A 
ATOM     10  C   UNL A   1      36.523  33.938  29.418  1.00  0.00     0.010 A 
ATOM     11  C   UNL A   1      35.093  33.129  31.208  1.00  0.00     0.010 A 
ATOM     12  C   UNL A   1      36.350  33.173  30.583  1.00  0.00    -0.014 A 
BRANCH  12  13
ATOM     13  C   UNL A   1      37.527  32.525  31.203  1.00  0.00     0.031 A 
ATOM     14  C   UNL A   1      38.247  31.399  30.526  1.00  0.00     0.074 A 
ATOM     15  C   UNL A   1      37.921  32.969  32.412  1.00  0.00     0.049 A 
ATOM     16  N   UNL A   1      39.253  30.686  30.968  1.00  0.00    -0.248 NA
ATOM     17  C   UNL A   1      37.780  31.011  29.186  1.00  0.00     0.031 C 
ATOM     18  C   UNL A   1      37.273  34.051  33.160  1.00  0.00     0.029 A 
ATOM     19  N   UNL A   1      38.947  32.570  33.226  1.00  0.00    -0.354 N 
ATOM     20  C   UNL A   1      39.521  29.752  29.978  1.00  0.00     0.074 A 
ATOM     21  C   UNL A   1      38.571  29.981  28.910  1.00  0.00     0.031 C 
ATOM     22  C   UNL A   1      37.925  34.239  34.315  1.00  0.00     0.029 A 
ATOM     23  C   UNL A   1      38.991  33.251  34.418  1.00  0.00     0.049 A 
ATOM     24  H   UNL A   1      39.590  31.866  32.981  1.00  0.00     0.167 HD
ATOM     25  C   UNL A   1      40.477  28.792  29.973  1.00  0.00     0.037 A 
ATOM     26  C   UNL A   1      39.773  33.070  35.496  1.00  0.00     0.037 A 
ATOM     27  C   UNL A   1      41.437  28.602  31.030  1.00  0.00     0.049 A 
ATOM     28  C   UNL A   1      40.804  31.982  35.467  1.00  0.00     0.074 A 
ATOM     29  C   UNL A   1      42.510  27.728  31.073  1.00  0.00     0.029 A 
ATOM     30  N   UNL A   1      41.433  29.290  32.235  1.00  0.00    -0.354 N 
ATOM     31  N   UNL A   1      41.088  31.144  34.499  1.00  0.00    -0.248 NA
ATOM     32  C   UNL A   1      41.611  31.801  36.679  1.00  0.00     0.031 C 
ATOM     33  C   UNL A   1      43.122  27.850  32.324  1.00  0.00     0.029 A 
ATOM     34  C   UNL A   1      42.457  28.828  33.045  1.00  0.00     0.049 A 
ATOM     35  H   UNL A   1      40.797  30.001  32.477  1.00  0.00     0.167 HD
ATOM     36  C   UNL A   1      42.104  30.336  34.985  1.00  0.00     0.074 A 
ATOM     37  C   UNL A   1      42.407  30.803  36.323  1.00  0.00     0.031 C 
ATOM     38  C   UNL A   1      42.725  29.295  34.381  1.00  0.00     0.037 A 
BRANCH  25  39
ATOM     39  C   UNL A   1      40.539  27.854  28.805  1.00  0.00     0.064 A 
ATOM     40  C   UNL A   1      39.793  26.667  28.770  1.00  0.00     0.173 A 
ATOM     41  C   UNL A   1      41.276  28.202  27.663  1.00  0.00     0.173 A 
ATOM     42  F   UNL A   1      39.078  26.288  29.839  1.00  0.00    -0.203 F 
ATOM     43  C   UNL A   1      39.787  25.861  27.634  1.00  0.00     0.198 A 
ATOM     44  C   UNL A   1      41.252  27.404  26.521  1.00  0.00     0.198 A 
ATOM     45  F   UNL A   1      42.000  29.332  27.644  1.00  0.00    -0.203 F 
ATOM     46  F   UNL A   1      39.078  24.724  27.624  1.00  0.00    -0.200 F 
ATOM     47  C   UNL A   1      40.507  26.235  26.507  1.00  0.00     0.200 A 
ATOM     48  F   UNL A   1      41.939  27.774  25.432  1.00  0.00    -0.200 F 
ATOM     49  F   UNL A   1      40.482  25.469  25.408  1.00  0.00    -0.200 F 
ENDBRANCH  25  39
BRANCH  26  50
ATOM     50  C   UNL A   1      39.568  33.911  36.701  1.00  0.00     0.064 A 
ATOM     51  C   UNL A   1      40.137  35.186  36.799  1.00  0.00     0.173 A 
ATOM     52  C   UNL A   1      38.777  33.461  37.770  1.00  0.00     0.173 A 
ATOM     53  F   UNL A   1      40.913  35.651  35.810  1.00  0.00    -0.203 F 
ATOM     54  C   UNL A   1      39.932  35.977  37.927  1.00  0.00     0.198 A 
ATOM     55  C   UNL A   1      38.550  34.264  38.884  1.00  0.00     0.198 A 
ATOM     56  F   UNL A   1      38.206  32.249  37.719  1.00  0.00    -0.203 F 
ATOM     57  F   UNL A   1      40.517  37.180  38.014  1.00  0.00    -0.200 F 
ATOM     58  C   UNL A   1      39.134  35.519  38.966  1.00  0.00     0.200 A 
ATOM     59  F   UNL A   1      37.763  33.824  39.875  1.00  0.00    -0.200 F 
ATOM     60  F   UNL A   1      38.930  36.284  40.046  1.00  0.00    -0.200 F 
ENDBRANCH  26  50
BRANCH  38  61
ATOM     61  C   UNL A   1      43.782  28.588  35.172  1.00  0.00     0.064 A 
ATOM     62  C   UNL A   1      43.466  27.486  35.979  1.00  0.00     0.173 A 
ATOM     63  C   UNL A   1      45.121  28.997  35.103  1.00  0.00     0.173 A 
ATOM     64  F   UNL A   1      42.194  27.073  36.091  1.00  0.00    -0.203 F 
ATOM     65  C   UNL A   1      44.454  26.827  36.703  1.00  0.00     0.198 A 
ATOM     66  C   UNL A   1      46.109  28.321  35.810  1.00  0.00     0.198 A 
ATOM     67  F   UNL A   1      45.470  30.047  34.343  1.00  0.00    -0.203 F 
ATOM     68  F   UNL A   1      44.126  25.801  37.501  1.00  0.00    -0.200 F 
ATOM     69  C   UNL A   1      45.775  27.240  36.613  1.00  0.00     0.200 A 
ATOM     70  F   UNL A   1      47.387  28.715  35.717  1.00  0.00    -0.200 F 
ATOM     71  F   UNL A   1      46.726  26.601  37.308  1.00  0.00    -0.200 F 
ENDBRANCH  38  61
ENDBRANCH  12  13
ENDBRANCH   5   7
ENDBRANCH   2   3
ENDBRANCH   1   2
BRANCH   1  72
ATOM     72  C   UNL A   1      31.877  31.041  26.230  1.00  0.00     0.023 C 
BRANCH  72  73
ATOM     73  C   UNL A   1      32.904  30.228  27.024  1.00  0.00     0.116 C 
BRANCH  73  74
ATOM     74  N   UNL A   1      32.265  29.095  27.648  1.00  0.00    -0.355 N 
ATOM     75  C   UNL A   1      31.839  27.932  27.078  1.00  0.00     0.233 C 
ATOM     76  H   UNL A   1      32.114  29.172  28.618  1.00  0.00     0.163 HD
ATOM     77  O   UNL A   1      31.063  27.257  27.761  1.00  0.00    -0.274 OA
BRANCH  75  78
ATOM     78  C   UNL A   1      32.363  27.460  25.693  1.00  0.00     0.163 C 
BRANCH  78  79
ATOM     79  C   UNL A   1      32.828  25.991  25.834  1.00  0.00    -0.030 A 
ATOM     80  C   UNL A   1      31.984  24.977  26.326  1.00  0.00     0.006 A 
ATOM     81  C   UNL A   1      34.173  25.666  25.582  1.00  0.00     0.006 A 
ATOM     82  C   UNL A   1      32.455  23.678  26.533  1.00  0.00     0.016 A 
ATOM     83  C   UNL A   1      34.652  24.371  25.813  1.00  0.00     0.016 A 
ATOM     84  C   UNL A   1      33.790  23.384  26.283  1.00  0.00     0.017 A 
ATOM     85  Br  UNL A   1      34.438  21.640  26.619  1.00  0.00    -0.051 Br
ENDBRANCH  78  79
BRANCH  78  86
ATOM     86  C   UNL A   1      31.306  27.602  24.558  1.00  0.00     0.280 C 
BRANCH  86  87
ATOM     87  N   UNL A   1      31.744  28.036  23.216  1.00  0.00    -0.334 N 
ATOM     88  C   UNL A   1      31.952  26.870  22.331  1.00  0.00     0.262 C 
ATOM     89  C   UNL A   1      32.993  28.819  23.220  1.00  0.00     0.262 C 
ATOM     90  H   UNL A   1      30.991  28.635  22.876  1.00  0.00     0.348 HD
ATOM     91  C   UNL A   1      33.446  26.786  22.098  1.00  0.00     0.067 C 
ATOM     92  C   UNL A   1      33.849  28.241  22.104  1.00  0.00     0.067 C 
ENDBRANCH  86  87
ENDBRANCH  78  86
ENDBRANCH  75  78
ENDBRANCH  73  74
ENDBRANCH  72  73
ENDBRANCH   1  72
TORSDOF 14
ENDMDL
MODEL 2
REMARK VINA RESULT:     -12.2      0.278      1.705
REMARK SMILES O=C(NCCCCNC(=O)[C@H](C[NH+]1CCCC1)c1ccc(Br)cc1)c1ccc(-c2c3nc(c(-c4c(F)c(F)c(F)c(F)c4F)c4ccc([nH]4)c(-c4c(F)c(F)c(F)c(F)c4F)c4nc(c(-c5c(F)c(F)c(F)c(F)c5F)c5ccc2[nH]5)C=C4)C=C3)cc1
REMARK SMILES IDX 5 1 4 2 3 3 1 4 2 5 25 7 26 8 87 9 27 10 86 11 28 12 29 13
REMARK SMILES IDX 30 14 80 15 31 16 85 17 79 18 81 19 32 20 84 21 78 22 77 23
REMARK SMILES IDX 33 25 65 26 45 27 64 28 46 29 49 30 63 31 82 32 47 33 48 34
REMARK SMILES IDX 62 36 83 37 50 38 34 39 35 40 43 41 36 42 37 43 41 44 44 45
REMARK SMILES IDX 38 46 39 47 42 48 40 49 66 50 67 51 75 52 68 53 69 54 73 55
REMARK SMILES IDX 76 56 70 57 71 58 74 59 72 60 51 61 52 62 60 63 53 64 54 65
REMARK SMILES IDX 58 66 61 67 55 68 56 69 59 70 57 71 6 72 7 73 8 74 9 75
REMARK SMILES IDX 10 77 11 78 18 79 19 80 24 81 20 82 23 83 21 84 22 85 12 86
REMARK SMILES IDX 13 87 14 88 17 89 15 91 16 92
REMARK H PARENT 3 6 81 24 49 35 8 76 13 90
REMARK Flexibility Score: inf
ROOT
ATOM      1  C   UNL A   1      31.488  32.304  26.786  1.00  0.00     0.023 C 
ENDROOT
BRANCH   1   2
ATOM      2  C   UNL A   1      32.690  33.056  27.327  1.00  0.00     0.116 C 
BRANCH   2   3
ATOM      3  N   UNL A   1      32.376  34.413  27.751  1.00  0.00    -0.352 N 
ATOM      4  O   UNL A   1      32.607  36.250  29.066  1.00  0.00    -0.269 OA
ATOM      5  C   UNL A   1      33.010  35.143  28.727  1.00  0.00     0.251 C 
ATOM      6  H   UNL A   1      31.628  34.856  27.288  1.00  0.00     0.163 HD
BRANCH   5   7
ATOM      7  C   UNL A   1      34.174  34.533  29.393  1.00  0.00     0.039 A 
ATOM      8  C   UNL A   1      35.446  34.665  28.827  1.00  0.00     0.014 A 
ATOM      9  C   UNL A   1      33.974  33.760  30.538  1.00  0.00     0.014 A 
ATOM     10  C   UNL A   1      36.501  33.926  29.340  1.00  0.00     0.010 A 
ATOM     11  C   UNL A   1      35.054  33.081  31.100  1.00  0.00     0.010 A 
ATOM     12  C   UNL A   1      36.320  33.147  30.495  1.00  0.00    -0.014 A 
BRANCH  12  13
ATOM     13  C   UNL A   1      37.495  32.506  31.125  1.00  0.00     0.031 A 
ATOM     14  C   UNL A   1      38.229  31.385  30.453  1.00  0.00     0.074 A 
ATOM     15  C   UNL A   1      37.873  32.949  32.339  1.00  0.00     0.049 A 
ATOM     16  N   UNL A   1      39.235  30.678  30.904  1.00  0.00    -0.248 NA
ATOM     17  C   UNL A   1      37.778  30.997  29.108  1.00  0.00     0.031 C 
ATOM     18  C   UNL A   1      37.211  34.025  33.083  1.00  0.00     0.029 A 
ATOM     19  N   UNL A   1      38.894  32.557  33.163  1.00  0.00    -0.354 N 
ATOM     20  C   UNL A   1      39.519  29.748  29.916  1.00  0.00     0.074 A 
ATOM     21  C   UNL A   1      38.579  29.972  28.839  1.00  0.00     0.031 C 
ATOM     22  C   UNL A   1      37.850  34.216  34.244  1.00  0.00     0.029 A 
ATOM     23  C   UNL A   1      38.921  33.235  34.357  1.00  0.00     0.049 A 
ATOM     24  H   UNL A   1      39.544  31.857  32.923  1.00  0.00     0.167 HD
ATOM     25  C   UNL A   1      40.482  28.795  29.919  1.00  0.00     0.037 A 
ATOM     26  C   UNL A   1      39.694  33.058  35.442  1.00  0.00     0.037 A 
ATOM     27  C   UNL A   1      41.433  28.609  30.985  1.00  0.00     0.049 A 
ATOM     28  C   UNL A   1      40.732  31.976  35.421  1.00  0.00     0.074 A 
ATOM     29  C   UNL A   1      42.511  27.743  31.038  1.00  0.00     0.029 A 
ATOM     30  N   UNL A   1      41.412  29.295  32.191  1.00  0.00    -0.354 N 
ATOM     31  N   UNL A   1      41.032  31.142  34.455  1.00  0.00    -0.248 NA
ATOM     32  C   UNL A   1      41.528  31.799  36.641  1.00  0.00     0.031 C 
ATOM     33  C   UNL A   1      43.110  27.866  32.295  1.00  0.00     0.029 A 
ATOM     34  C   UNL A   1      42.431  28.839  33.011  1.00  0.00     0.049 A 
ATOM     35  H   UNL A   1      40.768  30.001  32.428  1.00  0.00     0.167 HD
ATOM     36  C   UNL A   1      42.049  30.341  34.949  1.00  0.00     0.074 A 
ATOM     37  C   UNL A   1      42.334  30.808  36.291  1.00  0.00     0.031 C 
ATOM     38  C   UNL A   1      42.682  29.305  34.350  1.00  0.00     0.037 A 
BRANCH  25  39
ATOM     39  C   UNL A   1      40.563  27.859  28.749  1.00  0.00     0.064 A 
ATOM     40  C   UNL A   1      39.818  26.673  28.701  1.00  0.00     0.173 A 
ATOM     41  C   UNL A   1      41.317  28.210  27.620  1.00  0.00     0.173 A 
ATOM     42  F   UNL A   1      39.086  26.291  29.757  1.00  0.00    -0.203 F 
ATOM     43  C   UNL A   1      39.829  25.869  27.562  1.00  0.00     0.198 A 
ATOM     44  C   UNL A   1      41.311  27.415  26.476  1.00  0.00     0.198 A 
ATOM     45  F   UNL A   1      42.041  29.340  27.615  1.00  0.00    -0.203 F 
ATOM     46  F   UNL A   1      39.120  24.732  27.540  1.00  0.00    -0.200 F 
ATOM     47  C   UNL A   1      40.567  26.245  26.448  1.00  0.00     0.200 A 
ATOM     48  F   UNL A   1      42.015  27.787  25.399  1.00  0.00    -0.200 F 
ATOM     49  F   UNL A   1      40.558  25.482  25.347  1.00  0.00    -0.200 F 
ENDBRANCH  25  39
BRANCH  26  50
ATOM     50  C   UNL A   1      39.470  33.896  36.646  1.00  0.00     0.064 A 
ATOM     51  C   UNL A   1      38.684  33.438  37.710  1.00  0.00     0.173 A 
ATOM     52  C   UNL A   1      40.060  35.164  36.764  1.00  0.00     0.173 A 
ATOM     53  F   UNL A   1      38.087  32.241  37.635  1.00  0.00    -0.203 F 
ATOM     54  C   UNL A   1      38.486  34.223  38.844  1.00  0.00     0.198 A 
ATOM     55  C   UNL A   1      39.886  35.935  37.909  1.00  0.00     0.198 A 
ATOM     56  F   UNL A   1      40.828  35.642  35.773  1.00  0.00    -0.203 F 
ATOM     57  F   UNL A   1      37.699  33.780  39.833  1.00  0.00    -0.200 F 
ATOM     58  C   UNL A   1      39.093  35.468  38.945  1.00  0.00     0.200 A 
ATOM     59  F   UNL A   1      40.489  37.127  38.010  1.00  0.00    -0.200 F 
ATOM     60  F   UNL A   1      38.909  36.217  40.040  1.00  0.00    -0.200 F 
ENDBRANCH  26  50
BRANCH  38  61
ATOM     61  C   UNL A   1      43.736  28.604  35.150  1.00  0.00     0.064 A 
ATOM     62  C   UNL A   1      45.070  29.034  35.124  1.00  0.00     0.173 A 
ATOM     63  C   UNL A   1      43.408  27.514  35.967  1.00  0.00     0.173 A 
ATOM     64  F   UNL A   1      45.434  30.060  34.339  1.00  0.00    -0.203 F 
ATOM     65  C   UNL A   1      46.043  28.385  35.877  1.00  0.00     0.198 A 
ATOM     66  C   UNL A   1      44.379  26.883  36.738  1.00  0.00     0.198 A 
ATOM     67  F   UNL A   1      42.143  27.068  36.025  1.00  0.00    -0.203 F 
ATOM     68  F   UNL A   1      47.320  28.786  35.806  1.00  0.00    -0.200 F 
ATOM     69  C   UNL A   1      45.696  27.315  36.688  1.00  0.00     0.200 A 
ATOM     70  F   UNL A   1      44.042  25.854  37.528  1.00  0.00    -0.200 F 
ATOM     71  F   UNL A   1      46.633  26.694  37.416  1.00  0.00    -0.200 F 
ENDBRANCH  38  61
ENDBRANCH  12  13
ENDBRANCH   5   7
ENDBRANCH   2   3
ENDBRANCH   1   2
BRANCH   1  72
ATOM     72  C   UNL A   1      31.849  30.927  26.239  1.00  0.00     0.023 C 
BRANCH  72  73
ATOM     73  C   UNL A   1      32.876  30.169  27.086  1.00  0.00     0.116 C 
BRANCH  73  74
ATOM     74  N   UNL A   1      32.280  28.978  27.641  1.00  0.00    -0.355 N 
ATOM     75  C   UNL A   1      31.883  27.841  27.000  1.00  0.00     0.233 C 
ATOM     76  H   UNL A   1      32.138  28.987  28.615  1.00  0.00     0.163 HD
ATOM     77  O   UNL A   1      31.136  27.099  27.646  1.00  0.00    -0.274 OA
BRANCH  75  78
ATOM     78  C   UNL A   1      32.404  27.477  25.582  1.00  0.00     0.163 C 
BRANCH  78  79
ATOM     79  C   UNL A   1      32.827  25.989  25.597  1.00  0.00    -0.030 A 
ATOM     80  C   UNL A   1      34.168  25.587  25.750  1.00  0.00     0.006 A 
ATOM     81  C   UNL A   1      31.867  24.996  25.328  1.00  0.00     0.006 A 
ATOM     82  C   UNL A   1      34.536  24.242  25.667  1.00  0.00     0.016 A 
ATOM     83  C   UNL A   1      32.239  23.651  25.220  1.00  0.00     0.016 A 
ATOM     84  C   UNL A   1      33.571  23.282  25.393  1.00  0.00     0.017 A 
ATOM     85  Br  UNL A   1      34.081  21.470  25.223  1.00  0.00    -0.051 Br
ENDBRANCH  78  79
BRANCH  78  86
ATOM     86  C   UNL A   1      31.361  27.749  24.458  1.00  0.00     0.280 C 
BRANCH  86  87
ATOM     87  N   UNL A   1      31.834  28.159  23.120  1.00  0.00    -0.334 N 
ATOM     88  C   UNL A   1      31.971  26.986  22.231  1.00  0.00     0.262 C 
ATOM     89  C   UNL A   1      33.131  28.860  23.135  1.00  0.00     0.262 C 
ATOM     90  H   UNL A   1      31.123  28.807  22.779  1.00  0.00     0.348 HD
ATOM     91  C   UNL A   1      33.458  26.807  22.006  1.00  0.00     0.067 C 
ATOM     92  C   UNL A   1      33.954  28.234  22.021  1.00  0.00     0.067 C 
ENDBRANCH  86  87
ENDBRANCH  78  86
ENDBRANCH  75  78
ENDBRANCH  73  74
ENDBRANCH  72  73
ENDBRANCH   1  72
TORSDOF 14
ENDMDL
MODEL 3
REMARK VINA RESULT:     -12.1      4.297     10.346
REMARK SMILES O=C(NCCCCNC(=O)[C@H](C[NH+]1CCCC1)c1ccc(Br)cc1)c1ccc(-c2c3nc(c(-c4c(F)c(F)c(F)c(F)c4F)c4ccc([nH]4)c(-c4c(F)c(F)c(F)c(F)c4F)c4nc(c(-c5c(F)c(F)c(F)c(F)c5F)c5ccc2[nH]5)C=C4)C=C3)cc1
REMARK SMILES IDX 5 1 4 2 3 3 1 4 2 5 25 7 26 8 87 9 27 10 86 11 28 12 29 13
REMARK SMILES IDX 30 14 80 15 31 16 85 17 79 18 81 19 32 20 84 21 78 22 77 23
REMARK SMILES IDX 33 25 65 26 45 27 64 28 46 29 49 30 63 31 82 32 47 33 48 34
REMARK SMILES IDX 62 36 83 37 50 38 34 39 35 40 43 41 36 42 37 43 41 44 44 45
REMARK SMILES IDX 38 46 39 47 42 48 40 49 66 50 67 51 75 52 68 53 69 54 73 55
REMARK SMILES IDX 76 56 70 57 71 58 74 59 72 60 51 61 52 62 60 63 53 64 54 65
REMARK SMILES IDX 58 66 61 67 55 68 56 69 59 70 57 71 6 72 7 73 8 74 9 75
REMARK SMILES IDX 10 77 11 78 18 79 19 80 24 81 20 82 23 83 21 84 22 85 12 86
REMARK SMILES IDX 13 87 14 88 17 89 15 91 16 92
REMARK H PARENT 3 6 81 24 49 35 8 76 13 90
REMARK Flexibility Score: inf
ROOT
ATOM      1  C   UNL A   1      34.469  33.941  27.943  1.00  0.00     0.023 C 
ENDROOT
BRANCH   1   2
ATOM      2  C   UNL A   1      35.087  32.613  28.342  1.00  0.00     0.116 C 
BRANCH   2   3
ATOM      3  N   UNL A   1      34.314  31.462  27.895  1.00  0.00    -0.352 N 
ATOM      4  O   UNL A   1      34.042  29.288  27.299  1.00  0.00    -0.269 OA
ATOM      5  C   UNL A   1      34.755  30.167  27.770  1.00  0.00     0.251 C 
ATOM      6  H   UNL A   1      33.374  31.631  27.657  1.00  0.00     0.163 HD
BRANCH   5   7
ATOM      7  C   UNL A   1      36.139  29.871  28.180  1.00  0.00     0.039 A 
ATOM      8  C   UNL A   1      37.188  30.066  27.276  1.00  0.00     0.014 A 
ATOM      9  C   UNL A   1      36.371  29.318  29.440  1.00  0.00     0.014 A 
ATOM     10  C   UNL A   1      38.455  29.599  27.590  1.00  0.00     0.010 A 
ATOM     11  C   UNL A   1      37.663  28.922  29.785  1.00  0.00     0.010 A 
ATOM     12  C   UNL A   1      38.709  29.045  28.855  1.00  0.00    -0.014 A 
BRANCH  12  13
ATOM     13  C   UNL A   1      40.100  28.712  29.233  1.00  0.00     0.031 A 
ATOM     14  C   UNL A   1      40.944  29.663  30.027  1.00  0.00     0.074 A 
ATOM     15  C   UNL A   1      40.595  27.531  28.819  1.00  0.00     0.049 A 
ATOM     16  N   UNL A   1      42.200  29.545  30.380  1.00  0.00    -0.248 NA
ATOM     17  C   UNL A   1      40.308  30.910  30.479  1.00  0.00     0.031 C 
ATOM     18  C   UNL A   1      39.856  26.543  28.025  1.00  0.00     0.029 A 
ATOM     19  N   UNL A   1      41.826  26.957  28.997  1.00  0.00    -0.354 N 
ATOM     20  C   UNL A   1      42.511  30.708  31.068  1.00  0.00     0.074 A 
ATOM     21  C   UNL A   1      41.318  31.526  31.083  1.00  0.00     0.031 C 
ATOM     22  C   UNL A   1      40.641  25.483  27.799  1.00  0.00     0.029 A 
ATOM     23  C   UNL A   1      41.956  25.742  28.371  1.00  0.00     0.049 A 
ATOM     24  H   UNL A   1      42.546  27.375  29.523  1.00  0.00     0.167 HD
ATOM     25  C   UNL A   1      43.694  31.052  31.633  1.00  0.00     0.037 A 
ATOM     26  C   UNL A   1      43.029  24.945  28.232  1.00  0.00     0.037 A 
ATOM     27  C   UNL A   1      44.862  30.209  31.639  1.00  0.00     0.049 A 
ATOM     28  C   UNL A   1      44.329  25.368  28.848  1.00  0.00     0.074 A 
ATOM     29  C   UNL A   1      46.075  30.420  32.274  1.00  0.00     0.029 A 
ATOM     30  N   UNL A   1      44.967  28.998  30.970  1.00  0.00    -0.354 N 
ATOM     31  N   UNL A   1      44.595  26.443  29.550  1.00  0.00    -0.248 NA
ATOM     32  C   UNL A   1      45.479  24.481  28.641  1.00  0.00     0.031 C 
ATOM     33  C   UNL A   1      46.930  29.364  31.945  1.00  0.00     0.029 A 
ATOM     34  C   UNL A   1      46.238  28.474  31.139  1.00  0.00     0.049 A 
ATOM     35  H   UNL A   1      44.245  28.575  30.452  1.00  0.00     0.167 HD
ATOM     36  C   UNL A   1      45.942  26.363  29.868  1.00  0.00     0.074 A 
ATOM     37  C   UNL A   1      46.431  25.120  29.306  1.00  0.00     0.031 C 
ATOM     38  C   UNL A   1      46.707  27.245  30.554  1.00  0.00     0.037 A 
BRANCH  25  39
ATOM     39  C   UNL A   1      43.809  32.398  32.282  1.00  0.00     0.064 A 
ATOM     40  C   UNL A   1      44.123  33.549  31.545  1.00  0.00     0.173 A 
ATOM     41  C   UNL A   1      43.499  32.552  33.642  1.00  0.00     0.173 A 
ATOM     42  F   UNL A   1      44.433  33.454  30.244  1.00  0.00    -0.203 F 
ATOM     43  C   UNL A   1      44.125  34.805  32.149  1.00  0.00     0.198 A 
ATOM     44  C   UNL A   1      43.483  33.810  34.238  1.00  0.00     0.198 A 
ATOM     45  F   UNL A   1      43.185  31.481  34.388  1.00  0.00    -0.203 F 
ATOM     46  F   UNL A   1      44.440  35.891  31.431  1.00  0.00    -0.200 F 
ATOM     47  C   UNL A   1      43.795  34.936  33.491  1.00  0.00     0.200 A 
ATOM     48  F   UNL A   1      43.152  33.934  35.531  1.00  0.00    -0.200 F 
ATOM     49  F   UNL A   1      43.777  36.147  34.064  1.00  0.00    -0.200 F 
ENDBRANCH  25  39
BRANCH  26  50
ATOM     50  C   UNL A   1      42.917  23.697  27.437  1.00  0.00     0.064 A 
ATOM     51  C   UNL A   1      43.296  23.662  26.090  1.00  0.00     0.173 A 
ATOM     52  C   UNL A   1      42.449  22.508  28.019  1.00  0.00     0.173 A 
ATOM     53  F   UNL A   1      43.732  24.777  25.487  1.00  0.00    -0.203 F 
ATOM     54  C   UNL A   1      43.200  22.485  25.350  1.00  0.00     0.198 A 
ATOM     55  C   UNL A   1      42.383  21.327  27.287  1.00  0.00     0.198 A 
ATOM     56  F   UNL A   1      42.082  22.491  29.309  1.00  0.00    -0.203 F 
ATOM     57  F   UNL A   1      43.533  22.485  24.052  1.00  0.00    -0.200 F 
ATOM     58  C   UNL A   1      42.750  21.318  25.950  1.00  0.00     0.200 A 
ATOM     59  F   UNL A   1      41.965  20.199  27.876  1.00  0.00    -0.200 F 
ATOM     60  F   UNL A   1      42.668  20.185  25.239  1.00  0.00    -0.200 F 
ENDBRANCH  26  50
BRANCH  38  61
ATOM     61  C   UNL A   1      48.154  26.895  30.722  1.00  0.00     0.064 A 
ATOM     62  C   UNL A   1      49.124  27.389  29.839  1.00  0.00     0.173 A 
ATOM     63  C   UNL A   1      48.576  26.085  31.784  1.00  0.00     0.173 A 
ATOM     64  F   UNL A   1      48.762  28.151  28.794  1.00  0.00    -0.203 F 
ATOM     65  C   UNL A   1      50.468  27.069  30.005  1.00  0.00     0.198 A 
ATOM     66  C   UNL A   1      49.923  25.788  31.962  1.00  0.00     0.198 A 
ATOM     67  F   UNL A   1      47.682  25.590  32.655  1.00  0.00    -0.203 F 
ATOM     68  F   UNL A   1      51.375  27.518  29.127  1.00  0.00    -0.200 F 
ATOM     69  C   UNL A   1      50.866  26.275  31.070  1.00  0.00     0.200 A 
ATOM     70  F   UNL A   1      50.309  25.027  32.995  1.00  0.00    -0.200 F 
ATOM     71  F   UNL A   1      52.162  25.972  31.232  1.00  0.00    -0.200 F 
ENDBRANCH  38  61
ENDBRANCH  12  13
ENDBRANCH   5   7
ENDBRANCH   2   3
ENDBRANCH   1   2
BRANCH   1  72
ATOM     72  C   UNL A   1      34.080  34.796  29.145  1.00  0.00     0.023 C 
BRANCH  72  73
ATOM     73  C   UNL A   1      34.259  34.094  30.495  1.00  0.00     0.116 C 
BRANCH  73  74
ATOM     74  N   UNL A   1      34.787  35.019  31.468  1.00  0.00    -0.355 N 
ATOM     75  C   UNL A   1      35.663  34.782  32.486  1.00  0.00     0.233 C 
ATOM     76  H   UNL A   1      34.471  35.948  31.388  1.00  0.00     0.163 HD
ATOM     77  O   UNL A   1      35.724  35.661  33.352  1.00  0.00    -0.274 OA
BRANCH  75  78
ATOM     78  C   UNL A   1      36.576  33.524  32.504  1.00  0.00     0.163 C 
BRANCH  78  79
ATOM     79  C   UNL A   1      37.858  33.853  31.703  1.00  0.00    -0.030 A 
ATOM     80  C   UNL A   1      39.052  34.264  32.327  1.00  0.00     0.006 A 
ATOM     81  C   UNL A   1      37.810  33.865  30.297  1.00  0.00     0.006 A 
ATOM     82  C   UNL A   1      40.167  34.646  31.577  1.00  0.00     0.016 A 
ATOM     83  C   UNL A   1      38.919  34.272  29.546  1.00  0.00     0.016 A 
ATOM     84  C   UNL A   1      40.091  34.656  30.190  1.00  0.00     0.017 A 
ATOM     85  Br  UNL A   1      41.584  35.229  29.181  1.00  0.00    -0.051 Br
ENDBRANCH  78  79
BRANCH  78  86
ATOM     86  C   UNL A   1      36.926  33.043  33.942  1.00  0.00     0.280 C 
BRANCH  86  87
ATOM     87  N   UNL A   1      37.055  31.595  34.207  1.00  0.00    -0.334 N 
ATOM     88  C   UNL A   1      38.286  31.311  34.974  1.00  0.00     0.262 C 
ATOM     89  C   UNL A   1      37.089  30.767  32.988  1.00  0.00     0.262 C 
ATOM     90  H   UNL A   1      36.217  31.351  34.736  1.00  0.00     0.348 HD
ATOM     91  C   UNL A   1      39.207  30.576  34.022  1.00  0.00     0.067 C 
ATOM     92  C   UNL A   1      38.231  29.784  33.185  1.00  0.00     0.067 C 
ENDBRANCH  86  87
ENDBRANCH  78  86
ENDBRANCH  75  78
ENDBRANCH  73  74
ENDBRANCH  72  73
ENDBRANCH   1  72
TORSDOF 14
ENDMDL
