MODEL 1
REMARK VINA RESULT:     -12.2      0.000      0.000
REMARK SMILES COc1cc([C@@H]2CC[NH2+][C@@H]2C(=O)NCCCCNC(=O)c2ccc(-c3c4nc(c(-c5c(F)c(F)c(F)c(F)c5F)c5ccc([nH]5)c(-c5c(F)c(F)c(F)c(F)c5F)c5nc(c(-c6c(F)c(F)c(F)c(F)c6F)c6ccc3[nH]6)C=C5)C=C4)cc2)cc(OC)c1OC
REMARK SMILES IDX 15 1 14 2 13 3 11 4 12 5 10 7 6 8 7 9 8 10 9 11 5 14 3 15
REMARK SMILES IDX 4 16 88 17 85 18 84 19 2 20 1 21 89 22 90 23 86 24 87 25
REMARK SMILES IDX 16 26 17 27 18 28 19 29 20 31 21 32 22 33 83 34 23 35 82 36
REMARK SMILES IDX 24 37 25 38 26 39 76 40 27 41 81 42 75 43 77 44 28 45 80 46
REMARK SMILES IDX 74 47 73 48 29 50 61 51 41 52 60 53 42 54 45 55 59 56 78 57
REMARK SMILES IDX 43 58 44 59 58 61 79 62 46 63 30 64 31 65 39 66 32 67 33 68
REMARK SMILES IDX 37 69 40 70 34 71 35 72 38 73 36 74 62 75 63 76 71 77 64 78
REMARK SMILES IDX 65 79 69 80 72 81 66 82 67 83 70 84 68 85 47 86 48 87 56 88
REMARK SMILES IDX 49 89 50 90 54 91 57 92 51 93 52 94 55 95 53 96
REMARK H PARENT 13 6 9 12 9 13 18 30 77 49 45 60
REMARK Flexibility Score: inf
ROOT
ATOM      1  C   UNL A   1      37.610  21.402  24.678  1.00  0.00     0.023 C 
ENDROOT
BRANCH   1   2
ATOM      2  C   UNL A   1      37.350  22.543  25.653  1.00  0.00     0.116 C 
BRANCH   2   3
ATOM      3  N   UNL A   1      36.194  22.288  26.456  1.00  0.00    -0.351 N 
ATOM      4  C   UNL A   1      35.043  21.631  26.248  1.00  0.00     0.278 C 
ATOM      5  O   UNL A   1      34.404  21.463  27.306  1.00  0.00    -0.268 OA
ATOM      6  H   UNL A   1      36.257  22.680  27.357  1.00  0.00     0.163 HD
BRANCH   4   7
ATOM      7  C   UNL A   1      34.444  21.060  24.923  1.00  0.00     0.280 C 
ATOM      8  C   UNL A   1      33.293  21.440  23.938  1.00  0.00     0.093 C 
ATOM      9  C   UNL A   1      32.500  20.124  23.761  1.00  0.00     0.076 C 
ATOM     10  C   UNL A   1      32.800  19.348  25.017  1.00  0.00     0.262 C 
ATOM     11  N   UNL A   1      34.216  19.599  25.210  1.00  0.00    -0.335 N 
ATOM     12  H   UNL A   1      34.765  19.026  24.569  1.00  0.00     0.346 HD
ATOM     13  H   UNL A   1      34.502  19.364  26.161  1.00  0.00     0.346 HD
BRANCH   8  14
ATOM     14  C   UNL A   1      32.369  22.637  24.033  1.00  0.00    -0.031 A 
ATOM     15  C   UNL A   1      30.861  24.037  25.379  1.00  0.00     0.164 A 
ATOM     16  C   UNL A   1      31.651  22.882  25.219  1.00  0.00     0.055 A 
ATOM     17  C   UNL A   1      30.794  25.009  24.370  1.00  0.00     0.203 A 
ATOM     18  C   UNL A   1      31.498  24.765  23.176  1.00  0.00     0.164 A 
ATOM     19  C   UNL A   1      32.276  23.602  23.023  1.00  0.00     0.055 A 
BRANCH  15  20
ATOM     20  O   UNL A   1      30.267  24.234  26.600  1.00  0.00    -0.493 OA
ATOM     21  C   UNL A   1      29.696  23.030  27.119  1.00  0.00     0.278 C 
ENDBRANCH  15  20
BRANCH  17  22
ATOM     22  O   UNL A   1      30.163  26.219  24.452  1.00  0.00    -0.490 OA
ATOM     23  C   UNL A   1      28.793  26.319  24.091  1.00  0.00     0.278 C 
ENDBRANCH  17  22
BRANCH  18  24
ATOM     24  O   UNL A   1      31.543  25.595  22.080  1.00  0.00    -0.493 OA
ATOM     25  C   UNL A   1      32.765  25.589  21.343  1.00  0.00     0.278 C 
ENDBRANCH  18  24
ENDBRANCH   8  14
ENDBRANCH   4   7
ENDBRANCH   2   3
ENDBRANCH   1   2
BRANCH   1  26
ATOM     26  C   UNL A   1      38.212  20.160  25.323  1.00  0.00     0.023 C 
BRANCH  26  27
ATOM     27  C   UNL A   1      39.572  20.380  25.977  1.00  0.00     0.116 C 
BRANCH  27  28
ATOM     28  N   UNL A   1      40.440  19.207  25.981  1.00  0.00    -0.352 N 
ATOM     29  C   UNL A   1      41.813  19.168  26.090  1.00  0.00     0.251 C 
ATOM     30  H   UNL A   1      39.989  18.335  25.897  1.00  0.00     0.163 HD
ATOM     31  O   UNL A   1      42.443  18.136  25.931  1.00  0.00    -0.269 OA
BRANCH  29  32
ATOM     32  C   UNL A   1      42.526  20.429  26.356  1.00  0.00     0.039 A 
ATOM     33  C   UNL A   1      43.037  21.151  25.277  1.00  0.00     0.014 A 
ATOM     34  C   UNL A   1      42.570  20.941  27.652  1.00  0.00     0.014 A 
ATOM     35  C   UNL A   1      43.489  22.451  25.486  1.00  0.00     0.010 A 
ATOM     36  C   UNL A   1      42.914  22.268  27.840  1.00  0.00     0.010 A 
ATOM     37  C   UNL A   1      43.364  23.038  26.755  1.00  0.00    -0.014 A 
BRANCH  37  38
ATOM     38  C   UNL A   1      43.668  24.470  26.977  1.00  0.00     0.031 A 
ATOM     39  C   UNL A   1      45.065  24.971  26.758  1.00  0.00     0.074 A 
ATOM     40  C   UNL A   1      42.713  25.276  27.481  1.00  0.00     0.049 A 
ATOM     41  N   UNL A   1      45.572  26.148  27.016  1.00  0.00    -0.248 NA
ATOM     42  C   UNL A   1      46.039  24.003  26.222  1.00  0.00     0.031 C 
ATOM     43  C   UNL A   1      41.345  24.867  27.814  1.00  0.00     0.029 A 
ATOM     44  N   UNL A   1      42.750  26.604  27.820  1.00  0.00    -0.354 N 
ATOM     45  C   UNL A   1      46.923  26.047  26.714  1.00  0.00     0.074 A 
ATOM     46  C   UNL A   1      47.171  24.685  26.303  1.00  0.00     0.031 C 
ATOM     47  C   UNL A   1      40.670  25.927  28.287  1.00  0.00     0.029 A 
ATOM     48  C   UNL A   1      41.564  27.079  28.328  1.00  0.00     0.049 A 
ATOM     49  H   UNL A   1      43.552  27.165  27.713  1.00  0.00     0.167 HD
ATOM     50  C   UNL A   1      47.864  27.019  26.754  1.00  0.00     0.037 A 
ATOM     51  C   UNL A   1      41.243  28.305  28.781  1.00  0.00     0.037 A 
ATOM     52  C   UNL A   1      47.585  28.384  27.104  1.00  0.00     0.049 A 
ATOM     53  C   UNL A   1      42.292  29.382  28.742  1.00  0.00     0.074 A 
ATOM     54  C   UNL A   1      48.437  29.473  27.074  1.00  0.00     0.029 A 
ATOM     55  N   UNL A   1      46.351  28.847  27.537  1.00  0.00    -0.354 N 
ATOM     56  N   UNL A   1      43.546  29.301  28.365  1.00  0.00    -0.248 NA
ATOM     57  C   UNL A   1      41.883  30.722  29.183  1.00  0.00     0.031 C 
ATOM     58  C   UNL A   1      47.727  30.590  27.530  1.00  0.00     0.029 A 
ATOM     59  C   UNL A   1      46.423  30.205  27.797  1.00  0.00     0.049 A 
ATOM     60  H   UNL A   1      45.544  28.293  27.644  1.00  0.00     0.167 HD
ATOM     61  C   UNL A   1      44.068  30.579  28.498  1.00  0.00     0.074 A 
ATOM     62  C   UNL A   1      42.989  31.422  28.972  1.00  0.00     0.031 C 
ATOM     63  C   UNL A   1      45.326  31.018  28.255  1.00  0.00     0.037 A 
BRANCH  50  64
ATOM     64  C   UNL A   1      49.273  26.642  26.402  1.00  0.00     0.064 A 
ATOM     65  C   UNL A   1      49.774  26.794  25.099  1.00  0.00     0.173 A 
ATOM     66  C   UNL A   1      50.145  26.158  27.387  1.00  0.00     0.173 A 
ATOM     67  F   UNL A   1      48.977  27.238  24.116  1.00  0.00    -0.203 F 
ATOM     68  C   UNL A   1      51.088  26.450  24.793  1.00  0.00     0.198 A 
ATOM     69  C   UNL A   1      51.467  25.842  27.084  1.00  0.00     0.198 A 
ATOM     70  F   UNL A   1      49.717  25.992  28.648  1.00  0.00    -0.203 F 
ATOM     71  F   UNL A   1      51.529  26.555  23.532  1.00  0.00    -0.200 F 
ATOM     72  C   UNL A   1      51.935  25.981  25.787  1.00  0.00     0.200 A 
ATOM     73  F   UNL A   1      52.287  25.400  28.047  1.00  0.00    -0.200 F 
ATOM     74  F   UNL A   1      53.202  25.659  25.491  1.00  0.00    -0.200 F 
ENDBRANCH  50  64
BRANCH  51  75
ATOM     75  C   UNL A   1      39.870  28.586  29.281  1.00  0.00     0.064 A 
ATOM     76  C   UNL A   1      39.532  28.362  30.623  1.00  0.00     0.173 A 
ATOM     77  C   UNL A   1      38.866  29.070  28.430  1.00  0.00     0.173 A 
ATOM     78  F   UNL A   1      40.453  27.886  31.475  1.00  0.00    -0.203 F 
ATOM     79  C   UNL A   1      38.237  28.582  31.088  1.00  0.00     0.198 A 
ATOM     80  C   UNL A   1      37.579  29.318  28.902  1.00  0.00     0.198 A 
ATOM     81  F   UNL A   1      39.138  29.312  27.139  1.00  0.00    -0.203 F 
ATOM     82  F   UNL A   1      37.930  28.309  32.363  1.00  0.00    -0.200 F 
ATOM     83  C   UNL A   1      37.262  29.064  30.228  1.00  0.00     0.200 A 
ATOM     84  F   UNL A   1      36.643  29.799  28.072  1.00  0.00    -0.200 F 
ATOM     85  F   UNL A   1      36.016  29.275  30.675  1.00  0.00    -0.200 F 
ENDBRANCH  51  75
BRANCH  63  86
ATOM     86  C   UNL A   1      45.592  32.479  28.465  1.00  0.00     0.064 A 
ATOM     87  C   UNL A   1      46.089  32.965  29.682  1.00  0.00     0.173 A 
ATOM     88  C   UNL A   1      45.393  33.392  27.419  1.00  0.00     0.173 A 
ATOM     89  F   UNL A   1      46.281  32.131  30.715  1.00  0.00    -0.203 F 
ATOM     90  C   UNL A   1      46.355  34.320  29.852  1.00  0.00     0.198 A 
ATOM     91  C   UNL A   1      45.689  34.741  27.584  1.00  0.00     0.198 A 
ATOM     92  F   UNL A   1      44.927  32.971  26.233  1.00  0.00    -0.203 F 
ATOM     93  F   UNL A   1      46.787  34.771  31.038  1.00  0.00    -0.200 F 
ATOM     94  C   UNL A   1      46.163  35.205  28.801  1.00  0.00     0.200 A 
ATOM     95  F   UNL A   1      45.517  35.592  26.562  1.00  0.00    -0.200 F 
ATOM     96  F   UNL A   1      46.430  36.508  28.965  1.00  0.00    -0.200 F 
ENDBRANCH  63  86
ENDBRANCH  37  38
ENDBRANCH  29  32
ENDBRANCH  27  28
ENDBRANCH  26  27
ENDBRANCH   1  26
TORSDOF 15
ENDMDL
MODEL 2
REMARK VINA RESULT:     -12.2      1.414      7.479
REMARK SMILES COc1cc([C@@H]2CC[NH2+][C@@H]2C(=O)NCCCCNC(=O)c2ccc(-c3c4nc(c(-c5c(F)c(F)c(F)c(F)c5F)c5ccc([nH]5)c(-c5c(F)c(F)c(F)c(F)c5F)c5nc(c(-c6c(F)c(F)c(F)c(F)c6F)c6ccc3[nH]6)C=C5)C=C4)cc2)cc(OC)c1OC
REMARK SMILES IDX 15 1 14 2 13 3 11 4 12 5 10 7 6 8 7 9 8 10 9 11 5 14 3 15
REMARK SMILES IDX 4 16 88 17 85 18 84 19 2 20 1 21 89 22 90 23 86 24 87 25
REMARK SMILES IDX 16 26 17 27 18 28 19 29 20 31 21 32 22 33 83 34 23 35 82 36
REMARK SMILES IDX 24 37 25 38 26 39 76 40 27 41 81 42 75 43 77 44 28 45 80 46
REMARK SMILES IDX 74 47 73 48 29 50 61 51 41 52 60 53 42 54 45 55 59 56 78 57
REMARK SMILES IDX 43 58 44 59 58 61 79 62 46 63 30 64 31 65 39 66 32 67 33 68
REMARK SMILES IDX 37 69 40 70 34 71 35 72 38 73 36 74 62 75 63 76 71 77 64 78
REMARK SMILES IDX 65 79 69 80 72 81 66 82 67 83 70 84 68 85 47 86 48 87 56 88
REMARK SMILES IDX 49 89 50 90 54 91 57 92 51 93 52 94 55 95 53 96
REMARK H PARENT 13 6 9 12 9 13 18 30 77 49 45 60
REMARK Flexibility Score: inf
ROOT
ATOM      1  C   UNL A   1      37.601  22.469  24.968  1.00  0.00     0.023 C 
ENDROOT
BRANCH   1   2
ATOM      2  C   UNL A   1      36.100  22.612  25.183  1.00  0.00     0.116 C 
BRANCH   2   3
ATOM      3  N   UNL A   1      35.407  21.411  24.832  1.00  0.00    -0.351 N 
ATOM      4  C   UNL A   1      34.123  21.028  24.890  1.00  0.00     0.278 C 
ATOM      5  O   UNL A   1      33.925  19.968  24.263  1.00  0.00    -0.268 OA
ATOM      6  H   UNL A   1      36.002  20.716  24.468  1.00  0.00     0.163 HD
BRANCH   4   7
ATOM      7  C   UNL A   1      32.905  21.716  25.585  1.00  0.00     0.280 C 
ATOM      8  C   UNL A   1      32.364  23.171  25.752  1.00  0.00     0.093 C 
ATOM      9  C   UNL A   1      32.105  23.303  27.271  1.00  0.00     0.076 C 
ATOM     10  C   UNL A   1      33.032  22.288  27.886  1.00  0.00     0.262 C 
ATOM     11  N   UNL A   1      32.903  21.158  26.984  1.00  0.00    -0.335 N 
ATOM     12  H   UNL A   1      32.030  20.663  27.163  1.00  0.00     0.346 HD
ATOM     13  H   UNL A   1      33.669  20.497  27.115  1.00  0.00     0.346 HD
BRANCH   8  14
ATOM     14  C   UNL A   1      32.963  24.439  25.177  1.00  0.00    -0.031 A 
ATOM     15  C   UNL A   1      33.667  25.737  23.211  1.00  0.00     0.164 A 
ATOM     16  C   UNL A   1      33.206  24.540  23.795  1.00  0.00     0.055 A 
ATOM     17  C   UNL A   1      33.863  26.888  23.989  1.00  0.00     0.203 A 
ATOM     18  C   UNL A   1      33.635  26.790  25.374  1.00  0.00     0.164 A 
ATOM     19  C   UNL A   1      33.184  25.587  25.948  1.00  0.00     0.055 A 
BRANCH  15  20
ATOM     20  O   UNL A   1      33.794  25.769  21.846  1.00  0.00    -0.493 OA
ATOM     21  C   UNL A   1      32.536  25.601  21.187  1.00  0.00     0.278 C 
ENDBRANCH  15  20
BRANCH  17  22
ATOM     22  O   UNL A   1      34.191  28.132  23.526  1.00  0.00    -0.490 OA
ATOM     23  C   UNL A   1      33.170  28.984  23.027  1.00  0.00     0.278 C 
ENDBRANCH  17  22
BRANCH  18  24
ATOM     24  O   UNL A   1      33.782  27.805  26.292  1.00  0.00    -0.493 OA
ATOM     25  C   UNL A   1      32.581  28.464  26.690  1.00  0.00     0.278 C 
ENDBRANCH  18  24
ENDBRANCH   8  14
ENDBRANCH   4   7
ENDBRANCH   2   3
ENDBRANCH   1   2
BRANCH   1  26
ATOM     26  C   UNL A   1      38.125  21.053  25.168  1.00  0.00     0.023 C 
BRANCH  26  27
ATOM     27  C   UNL A   1      39.307  20.942  26.125  1.00  0.00     0.116 C 
BRANCH  27  28
ATOM     28  N   UNL A   1      40.052  19.691  26.026  1.00  0.00    -0.352 N 
ATOM     29  C   UNL A   1      41.417  19.511  26.085  1.00  0.00     0.251 C 
ATOM     30  H   UNL A   1      39.514  18.876  25.903  1.00  0.00     0.163 HD
ATOM     31  O   UNL A   1      41.936  18.435  25.841  1.00  0.00    -0.269 OA
BRANCH  29  32
ATOM     32  C   UNL A   1      42.260  20.675  26.405  1.00  0.00     0.039 A 
ATOM     33  C   UNL A   1      42.772  21.441  25.357  1.00  0.00     0.014 A 
ATOM     34  C   UNL A   1      42.429  21.065  27.734  1.00  0.00     0.014 A 
ATOM     35  C   UNL A   1      43.355  22.672  25.642  1.00  0.00     0.010 A 
ATOM     36  C   UNL A   1      42.907  22.335  28.006  1.00  0.00     0.010 A 
ATOM     37  C   UNL A   1      43.362  23.154  26.961  1.00  0.00    -0.014 A 
BRANCH  37  38
ATOM     38  C   UNL A   1      43.812  24.529  27.278  1.00  0.00     0.031 A 
ATOM     39  C   UNL A   1      42.810  25.544  27.743  1.00  0.00     0.074 A 
ATOM     40  C   UNL A   1      45.091  24.877  27.036  1.00  0.00     0.049 A 
ATOM     41  N   UNL A   1      42.965  26.826  27.948  1.00  0.00    -0.248 NA
ATOM     42  C   UNL A   1      41.433  25.066  27.959  1.00  0.00     0.031 C 
ATOM     43  C   UNL A   1      46.126  23.987  26.499  1.00  0.00     0.029 A 
ATOM     44  N   UNL A   1      45.737  26.076  27.191  1.00  0.00    -0.354 N 
ATOM     45  C   UNL A   1      41.706  27.308  28.276  1.00  0.00     0.074 A 
ATOM     46  C   UNL A   1      40.786  26.197  28.192  1.00  0.00     0.031 C 
ATOM     47  C   UNL A   1      47.279  24.666  26.392  1.00  0.00     0.029 A 
ATOM     48  C   UNL A   1      47.059  26.044  26.814  1.00  0.00     0.049 A 
ATOM     49  H   UNL A   1      45.296  26.885  27.538  1.00  0.00     0.167 HD
ATOM     50  C   UNL A   1      41.358  28.564  28.638  1.00  0.00     0.037 A 
ATOM     51  C   UNL A   1      47.982  27.024  26.806  1.00  0.00     0.037 A 
ATOM     52  C   UNL A   1      42.299  29.642  28.778  1.00  0.00     0.049 A 
ATOM     53  C   UNL A   1      47.581  28.392  27.286  1.00  0.00     0.074 A 
ATOM     54  C   UNL A   1      42.076  30.925  29.241  1.00  0.00     0.029 A 
ATOM     55  N   UNL A   1      43.647  29.553  28.463  1.00  0.00    -0.354 N 
ATOM     56  N   UNL A   1      46.405  28.816  27.684  1.00  0.00    -0.248 NA
ATOM     57  C   UNL A   1      48.633  29.416  27.324  1.00  0.00     0.031 C 
ATOM     58  C   UNL A   1      43.284  31.627  29.169  1.00  0.00     0.029 A 
ATOM     59  C   UNL A   1      44.267  30.766  28.706  1.00  0.00     0.049 A 
ATOM     60  H   UNL A   1      44.096  28.747  28.119  1.00  0.00     0.167 HD
ATOM     61  C   UNL A   1      46.581  30.144  28.043  1.00  0.00     0.074 A 
ATOM     62  C   UNL A   1      47.981  30.451  27.834  1.00  0.00     0.031 C 
ATOM     63  C   UNL A   1      45.667  31.035  28.500  1.00  0.00     0.037 A 
BRANCH  50  64
ATOM     64  C   UNL A   1      39.909  28.836  28.917  1.00  0.00     0.064 A 
ATOM     65  C   UNL A   1      39.029  29.261  27.909  1.00  0.00     0.173 A 
ATOM     66  C   UNL A   1      39.385  28.633  30.202  1.00  0.00     0.173 A 
ATOM     67  F   UNL A   1      39.483  29.487  26.668  1.00  0.00    -0.203 F 
ATOM     68  C   UNL A   1      37.685  29.498  28.185  1.00  0.00     0.198 A 
ATOM     69  C   UNL A   1      38.034  28.842  30.467  1.00  0.00     0.198 A 
ATOM     70  F   UNL A   1      40.182  28.227  31.202  1.00  0.00    -0.203 F 
ATOM     71  F   UNL A   1      36.876  29.953  27.219  1.00  0.00    -0.200 F 
ATOM     72  C   UNL A   1      37.187  29.281  29.462  1.00  0.00     0.200 A 
ATOM     73  F   UNL A   1      37.552  28.621  31.698  1.00  0.00    -0.200 F 
ATOM     74  F   UNL A   1      35.891  29.500  29.723  1.00  0.00    -0.200 F 
ENDBRANCH  50  64
BRANCH  51  75
ATOM     75  C   UNL A   1      49.372  26.743  26.356  1.00  0.00     0.064 A 
ATOM     76  C   UNL A   1      50.334  26.255  27.251  1.00  0.00     0.173 A 
ATOM     77  C   UNL A   1      49.771  26.968  25.031  1.00  0.00     0.173 A 
ATOM     78  F   UNL A   1      50.006  26.037  28.534  1.00  0.00    -0.203 F 
ATOM     79  C   UNL A   1      51.649  26.031  26.846  1.00  0.00     0.198 A 
ATOM     80  C   UNL A   1      51.079  26.716  24.620  1.00  0.00     0.198 A 
ATOM     81  F   UNL A   1      48.887  27.425  24.131  1.00  0.00    -0.203 F 
ATOM     82  F   UNL A   1      52.560  25.615  27.736  1.00  0.00    -0.200 F 
ATOM     83  C   UNL A   1      52.019  26.259  25.529  1.00  0.00     0.200 A 
ATOM     84  F   UNL A   1      51.429  26.921  23.342  1.00  0.00    -0.200 F 
ATOM     85  F   UNL A   1      53.284  26.044  25.140  1.00  0.00    -0.200 F 
ENDBRANCH  51  75
BRANCH  63  86
ATOM     86  C   UNL A   1      46.162  32.410  28.837  1.00  0.00     0.064 A 
ATOM     87  C   UNL A   1      46.663  32.716  30.109  1.00  0.00     0.173 A 
ATOM     88  C   UNL A   1      46.178  33.415  27.859  1.00  0.00     0.173 A 
ATOM     89  F   UNL A   1      46.654  31.791  31.081  1.00  0.00    -0.203 F 
ATOM     90  C   UNL A   1      47.142  33.991  30.397  1.00  0.00     0.198 A 
ATOM     91  C   UNL A   1      46.686  34.678  28.142  1.00  0.00     0.198 A 
ATOM     92  F   UNL A   1      45.715  33.165  26.624  1.00  0.00    -0.203 F 
ATOM     93  F   UNL A   1      47.576  34.276  31.633  1.00  0.00    -0.200 F 
ATOM     94  C   UNL A   1      47.162  34.967  29.412  1.00  0.00     0.200 A 
ATOM     95  F   UNL A   1      46.718  35.616  27.185  1.00  0.00    -0.200 F 
ATOM     96  F   UNL A   1      47.634  36.190  29.690  1.00  0.00    -0.200 F 
ENDBRANCH  63  86
ENDBRANCH  37  38
ENDBRANCH  29  32
ENDBRANCH  27  28
ENDBRANCH  26  27
ENDBRANCH   1  26
TORSDOF 15
ENDMDL
MODEL 3
REMARK VINA RESULT:     -12.1      5.824     10.255
REMARK SMILES COc1cc([C@@H]2CC[NH2+][C@@H]2C(=O)NCCCCNC(=O)c2ccc(-c3c4nc(c(-c5c(F)c(F)c(F)c(F)c5F)c5ccc([nH]5)c(-c5c(F)c(F)c(F)c(F)c5F)c5nc(c(-c6c(F)c(F)c(F)c(F)c6F)c6ccc3[nH]6)C=C5)C=C4)cc2)cc(OC)c1OC
REMARK SMILES IDX 15 1 14 2 13 3 11 4 12 5 10 7 6 8 7 9 8 10 9 11 5 14 3 15
REMARK SMILES IDX 4 16 88 17 85 18 84 19 2 20 1 21 89 22 90 23 86 24 87 25
REMARK SMILES IDX 16 26 17 27 18 28 19 29 20 31 21 32 22 33 83 34 23 35 82 36
REMARK SMILES IDX 24 37 25 38 26 39 76 40 27 41 81 42 75 43 77 44 28 45 80 46
REMARK SMILES IDX 74 47 73 48 29 50 61 51 41 52 60 53 42 54 45 55 59 56 78 57
REMARK SMILES IDX 43 58 44 59 58 61 79 62 46 63 30 64 31 65 39 66 32 67 33 68
REMARK SMILES IDX 37 69 40 70 34 71 35 72 38 73 36 74 62 75 63 76 71 77 64 78
REMARK SMILES IDX 65 79 69 80 72 81 66 82 67 83 70 84 68 85 47 86 48 87 56 88
REMARK SMILES IDX 49 89 50 90 54 91 57 92 51 93 52 94 55 95 53 96
REMARK H PARENT 13 6 9 12 9 13 18 30 77 49 45 60
REMARK Flexibility Score: inf
ROOT
ATOM      1  C   UNL A   1      34.839  30.391  27.483  1.00  0.00     0.023 C 
ENDROOT
BRANCH   1   2
ATOM      2  C   UNL A   1      33.751  29.484  26.924  1.00  0.00     0.116 C 
BRANCH   2   3
ATOM      3  N   UNL A   1      33.884  29.322  25.509  1.00  0.00    -0.351 N 
ATOM      4  C   UNL A   1      33.008  29.169  24.504  1.00  0.00     0.278 C 
ATOM      5  O   UNL A   1      33.553  29.291  23.389  1.00  0.00    -0.268 OA
ATOM      6  H   UNL A   1      34.821  29.324  25.207  1.00  0.00     0.163 HD
BRANCH   4   7
ATOM      7  C   UNL A   1      31.470  28.896  24.551  1.00  0.00     0.280 C 
ATOM      8  C   UNL A   1      30.524  27.679  24.305  1.00  0.00     0.093 C 
ATOM      9  C   UNL A   1      29.446  28.231  23.343  1.00  0.00     0.076 C 
ATOM     10  C   UNL A   1      30.131  29.380  22.651  1.00  0.00     0.262 C 
ATOM     11  N   UNL A   1      30.864  30.007  23.735  1.00  0.00    -0.335 N 
ATOM     12  H   UNL A   1      30.231  30.561  24.312  1.00  0.00     0.346 HD
ATOM     13  H   UNL A   1      31.585  30.632  23.374  1.00  0.00     0.346 HD
BRANCH   8  14
ATOM     14  C   UNL A   1      30.930  26.267  23.933  1.00  0.00    -0.031 A 
ATOM     15  C   UNL A   1      32.228  24.755  22.493  1.00  0.00     0.164 A 
ATOM     16  C   UNL A   1      31.749  26.042  22.811  1.00  0.00     0.055 A 
ATOM     17  C   UNL A   1      31.935  23.655  23.312  1.00  0.00     0.203 A 
ATOM     18  C   UNL A   1      31.104  23.871  24.428  1.00  0.00     0.164 A 
ATOM     19  C   UNL A   1      30.623  25.158  24.730  1.00  0.00     0.055 A 
BRANCH  15  20
ATOM     20  O   UNL A   1      33.090  24.645  21.432  1.00  0.00    -0.493 OA
ATOM     21  C   UNL A   1      32.623  25.359  20.285  1.00  0.00     0.278 C 
ENDBRANCH  15  20
BRANCH  17  22
ATOM     22  O   UNL A   1      32.434  22.390  23.177  1.00  0.00    -0.490 OA
ATOM     23  C   UNL A   1      33.721  22.086  23.697  1.00  0.00     0.278 C 
ENDBRANCH  17  22
BRANCH  18  24
ATOM     24  O   UNL A   1      30.704  22.916  25.335  1.00  0.00    -0.493 OA
ATOM     25  C   UNL A   1      31.185  23.083  26.667  1.00  0.00     0.278 C 
ENDBRANCH  18  24
ENDBRANCH   8  14
ENDBRANCH   4   7
ENDBRANCH   2   3
ENDBRANCH   1   2
BRANCH   1  26
ATOM     26  C   UNL A   1      34.476  31.870  27.484  1.00  0.00     0.023 C 
BRANCH  26  27
ATOM     27  C   UNL A   1      33.023  32.167  27.841  1.00  0.00     0.116 C 
BRANCH  27  28
ATOM     28  N   UNL A   1      32.654  33.576  27.759  1.00  0.00    -0.352 N 
ATOM     29  C   UNL A   1      33.157  34.629  28.492  1.00  0.00     0.251 C 
ATOM     30  H   UNL A   1      31.960  33.803  27.098  1.00  0.00     0.163 HD
ATOM     31  O   UNL A   1      32.665  35.744  28.440  1.00  0.00    -0.269 OA
BRANCH  29  32
ATOM     32  C   UNL A   1      34.291  34.370  29.395  1.00  0.00     0.039 A 
ATOM     33  C   UNL A   1      34.048  33.719  30.605  1.00  0.00     0.014 A 
ATOM     34  C   UNL A   1      35.589  34.661  28.980  1.00  0.00     0.014 A 
ATOM     35  C   UNL A   1      35.127  33.249  31.348  1.00  0.00     0.010 A 
ATOM     36  C   UNL A   1      36.655  34.097  29.661  1.00  0.00     0.010 A 
ATOM     37  C   UNL A   1      36.431  33.375  30.844  1.00  0.00    -0.014 A 
BRANCH  37  38
ATOM     38  C   UNL A   1      37.585  32.736  31.516  1.00  0.00     0.031 A 
ATOM     39  C   UNL A   1      38.276  31.580  30.854  1.00  0.00     0.074 A 
ATOM     40  C   UNL A   1      37.924  33.127  32.760  1.00  0.00     0.049 A 
ATOM     41  N   UNL A   1      39.215  30.799  31.323  1.00  0.00    -0.248 NA
ATOM     42  C   UNL A   1      37.817  31.220  29.501  1.00  0.00     0.031 C 
ATOM     43  C   UNL A   1      37.257  34.182  33.529  1.00  0.00     0.029 A 
ATOM     44  N   UNL A   1      38.900  32.670  33.607  1.00  0.00    -0.354 N 
ATOM     45  C   UNL A   1      39.426  29.839  30.343  1.00  0.00     0.074 A 
ATOM     46  C   UNL A   1      38.486  30.099  29.277  1.00  0.00     0.031 C 
ATOM     47  C   UNL A   1      37.859  34.306  34.723  1.00  0.00     0.029 A 
ATOM     48  C   UNL A   1      38.926  33.317  34.820  1.00  0.00     0.049 A 
ATOM     49  H   UNL A   1      39.523  31.946  33.370  1.00  0.00     0.167 HD
ATOM     50  C   UNL A   1      40.343  28.844  30.330  1.00  0.00     0.037 A 
ATOM     51  C   UNL A   1      39.720  33.122  35.890  1.00  0.00     0.037 A 
ATOM     52  C   UNL A   1      41.313  28.641  31.371  1.00  0.00     0.049 A 
ATOM     53  C   UNL A   1      40.779  32.057  35.814  1.00  0.00     0.074 A 
ATOM     54  C   UNL A   1      42.356  27.735  31.412  1.00  0.00     0.029 A 
ATOM     55  N   UNL A   1      41.361  29.367  32.552  1.00  0.00    -0.354 N 
ATOM     56  N   UNL A   1      41.033  31.213  34.842  1.00  0.00    -0.248 NA
ATOM     57  C   UNL A   1      41.667  31.921  36.976  1.00  0.00     0.031 C 
ATOM     58  C   UNL A   1      43.012  27.885  32.638  1.00  0.00     0.029 A 
ATOM     59  C   UNL A   1      42.406  28.917  33.339  1.00  0.00     0.049 A 
ATOM     60  H   UNL A   1      40.743  30.095  32.794  1.00  0.00     0.167 HD
ATOM     61  C   UNL A   1      42.123  30.465  35.263  1.00  0.00     0.074 A 
ATOM     62  C   UNL A   1      42.494  30.968  36.570  1.00  0.00     0.031 C 
ATOM     63  C   UNL A   1      42.758  29.449  34.629  1.00  0.00     0.037 A 
BRANCH  50  64
ATOM     64  C   UNL A   1      40.348  27.913  29.153  1.00  0.00     0.064 A 
ATOM     65  C   UNL A   1      39.573  26.743  29.134  1.00  0.00     0.173 A 
ATOM     66  C   UNL A   1      41.108  28.214  28.014  1.00  0.00     0.173 A 
ATOM     67  F   UNL A   1      38.841  26.400  30.204  1.00  0.00    -0.203 F 
ATOM     68  C   UNL A   1      39.582  25.896  28.029  1.00  0.00     0.198 A 
ATOM     69  C   UNL A   1      41.091  27.381  26.899  1.00  0.00     0.198 A 
ATOM     70  F   UNL A   1      41.867  29.321  27.980  1.00  0.00    -0.203 F 
ATOM     71  F   UNL A   1      38.874  24.758  28.055  1.00  0.00    -0.200 F 
ATOM     72  C   UNL A   1      40.335  26.220  26.910  1.00  0.00     0.200 A 
ATOM     73  F   UNL A   1      41.811  27.700  25.814  1.00  0.00    -0.200 F 
ATOM     74  F   UNL A   1      40.334  25.408  25.843  1.00  0.00    -0.200 F 
ENDBRANCH  50  64
BRANCH  51  75
ATOM     75  C   UNL A   1      39.562  33.965  37.106  1.00  0.00     0.064 A 
ATOM     76  C   UNL A   1      40.171  35.225  37.193  1.00  0.00     0.173 A 
ATOM     77  C   UNL A   1      38.814  33.527  38.208  1.00  0.00     0.173 A 
ATOM     78  F   UNL A   1      40.910  35.684  36.171  1.00  0.00    -0.203 F 
ATOM     79  C   UNL A   1      40.064  36.000  38.346  1.00  0.00     0.198 A 
ATOM     80  C   UNL A   1      38.682  34.316  39.349  1.00  0.00     0.198 A 
ATOM     81  F   UNL A   1      38.201  32.334  38.173  1.00  0.00    -0.203 F 
ATOM     82  F   UNL A   1      40.700  37.176  38.421  1.00  0.00    -0.200 F 
ATOM     83  C   UNL A   1      39.316  35.546  39.422  1.00  0.00     0.200 A 
ATOM     84  F   UNL A   1      37.945  33.881  40.381  1.00  0.00    -0.200 F 
ATOM     85  F   UNL A   1      39.213  36.292  40.531  1.00  0.00    -0.200 F 
ENDBRANCH  51  75
BRANCH  63  86
ATOM     86  C   UNL A   1      43.939  28.841  35.327  1.00  0.00     0.064 A 
ATOM     87  C   UNL A   1      43.793  27.756  36.202  1.00  0.00     0.173 A 
ATOM     88  C   UNL A   1      45.232  29.321  35.077  1.00  0.00     0.173 A 
ATOM     89  F   UNL A   1      42.573  27.274  36.483  1.00  0.00    -0.203 F 
ATOM     90  C   UNL A   1      44.901  27.188  36.822  1.00  0.00     0.198 A 
ATOM     91  C   UNL A   1      46.340  28.730  35.674  1.00  0.00     0.198 A 
ATOM     92  F   UNL A   1      45.421  30.353  34.240  1.00  0.00    -0.203 F 
ATOM     93  F   UNL A   1      44.736  26.180  37.690  1.00  0.00    -0.200 F 
ATOM     94  C   UNL A   1      46.174  27.668  36.551  1.00  0.00     0.200 A 
ATOM     95  F   UNL A   1      47.570  29.186  35.400  1.00  0.00    -0.200 F 
ATOM     96  F   UNL A   1      47.240  27.112  37.141  1.00  0.00    -0.200 F 
ENDBRANCH  63  86
ENDBRANCH  37  38
ENDBRANCH  29  32
ENDBRANCH  27  28
ENDBRANCH  26  27
ENDBRANCH   1  26
TORSDOF 15
ENDMDL
