MODEL 1
REMARK VINA RESULT:     -11.8      0.000      0.000
REMARK SMILES CCCC1(CCC)C[NH+]([C@H]2CCC[C@@H](C(=O)NCCCCNC(=O)c3ccc(-c4c5nc(c(-c6c(F)c(F)c(F)c(F)c6F)c6ccc([nH]6)c(-c6c(F)c(F)c(F)c(F)c6F)c6nc(c(-c7c(F)c(F)c(F)c(F)c7F)c7ccc4[nH]7)C=C6)C=C5)cc3)C2)C1
REMARK SMILES IDX 19 1 18 2 17 3 15 4 16 5 14 7 10 8 11 9 88 10 12 11 13 12
REMARK SMILES IDX 9 13 4 14 8 15 89 16 3 18 2 19 1 20 5 21 6 22 7 23 20 24
REMARK SMILES IDX 21 25 22 26 23 27 24 29 25 30 26 31 87 32 27 33 86 34 28 35
REMARK SMILES IDX 29 36 30 37 80 38 31 39 85 40 79 41 81 42 32 43 84 44 78 45
REMARK SMILES IDX 77 46 33 48 65 49 45 50 64 51 46 52 49 53 63 54 82 55 47 56
REMARK SMILES IDX 48 57 62 59 83 60 50 61 34 62 35 63 43 64 36 65 37 66 41 67
REMARK SMILES IDX 44 68 38 69 39 70 42 71 40 72 66 73 67 74 75 75 68 76 69 77
REMARK SMILES IDX 73 78 76 79 70 80 71 81 74 82 72 83 51 84 52 85 60 86 53 87
REMARK SMILES IDX 54 88 58 89 61 90 55 91 56 92 59 93 57 94
REMARK H PARENT 17 6 9 17 22 28 81 47 49 58
REMARK Flexibility Score: inf
ROOT
ATOM      1  C   UNL A   1      31.690  30.647  26.088  1.00  0.00     0.023 C 
ENDROOT
BRANCH   1   2
ATOM      2  C   UNL A   1      32.674  29.683  26.742  1.00  0.00     0.116 C 
BRANCH   2   3
ATOM      3  N   UNL A   1      32.113  28.387  27.062  1.00  0.00    -0.356 N 
ATOM      4  C   UNL A   1      31.520  27.479  26.228  1.00  0.00     0.223 C 
ATOM      5  O   UNL A   1      31.126  26.424  26.732  1.00  0.00    -0.275 OA
ATOM      6  H   UNL A   1      32.165  28.124  28.010  1.00  0.00     0.163 HD
BRANCH   4   7
ATOM      7  C   UNL A   1      31.264  27.818  24.750  1.00  0.00     0.084 C 
ATOM      8  C   UNL A   1      32.544  25.952  23.517  1.00  0.00     0.184 C 
ATOM      9  C   UNL A   1      31.224  25.467  22.893  1.00  0.00     0.065 C 
ATOM     10  C   UNL A   1      32.375  27.460  23.761  1.00  0.00     0.078 C 
ATOM     11  C   UNL A   1      29.952  25.832  23.663  1.00  0.00     0.007 C 
ATOM     12  C   UNL A   1      29.920  27.256  24.231  1.00  0.00     0.014 C 
BRANCH   8  13
ATOM     13  N   UNL A   1      33.157  25.288  24.690  1.00  0.00    -0.331 N 
ATOM     14  C   UNL A   1      34.440  23.592  25.043  1.00  0.00     0.068 C 
ATOM     15  C   UNL A   1      34.603  25.057  24.505  1.00  0.00     0.275 C 
ATOM     16  C   UNL A   1      32.926  23.846  24.832  1.00  0.00     0.275 C 
ATOM     17  H   UNL A   1      32.795  25.901  25.421  1.00  0.00     0.348 HD
BRANCH  14  18
ATOM     18  C   UNL A   1      35.008  22.423  24.203  1.00  0.00     0.018 C 
BRANCH  18  19
ATOM     19  C   UNL A   1      36.495  22.448  23.856  1.00  0.00    -0.002 C 
ATOM     20  C   UNL A   1      37.314  21.379  24.565  1.00  0.00     0.004 C 
ENDBRANCH  18  19
ENDBRANCH  14  18
BRANCH  14  21
ATOM     21  C   UNL A   1      34.840  23.447  26.539  1.00  0.00     0.018 C 
BRANCH  21  22
ATOM     22  C   UNL A   1      34.402  22.148  27.242  1.00  0.00    -0.002 C 
ATOM     23  C   UNL A   1      33.099  22.198  28.025  1.00  0.00     0.004 C 
ENDBRANCH  21  22
ENDBRANCH  14  21
ENDBRANCH   8  13
ENDBRANCH   4   7
ENDBRANCH   2   3
ENDBRANCH   1   2
BRANCH   1  24
ATOM     24  C   UNL A   1      31.439  31.946  26.856  1.00  0.00     0.023 C 
BRANCH  24  25
ATOM     25  C   UNL A   1      32.688  32.712  27.289  1.00  0.00     0.116 C 
BRANCH  25  26
ATOM     26  N   UNL A   1      32.418  34.106  27.620  1.00  0.00    -0.352 N 
ATOM     27  C   UNL A   1      32.990  34.936  28.556  1.00  0.00     0.251 C 
ATOM     28  H   UNL A   1      31.706  34.523  27.083  1.00  0.00     0.163 HD
ATOM     29  O   UNL A   1      32.497  36.034  28.781  1.00  0.00    -0.269 OA
BRANCH  27  30
ATOM     30  C   UNL A   1      34.182  34.503  29.322  1.00  0.00     0.039 A 
ATOM     31  C   UNL A   1      34.007  34.012  30.619  1.00  0.00     0.014 A 
ATOM     32  C   UNL A   1      35.464  34.589  28.777  1.00  0.00     0.014 A 
ATOM     33  C   UNL A   1      35.104  33.512  31.327  1.00  0.00     0.010 A 
ATOM     34  C   UNL A   1      36.543  34.016  29.449  1.00  0.00     0.010 A 
ATOM     35  C   UNL A   1      36.372  33.456  30.725  1.00  0.00    -0.014 A 
BRANCH  35  36
ATOM     36  C   UNL A   1      37.513  32.775  31.392  1.00  0.00     0.031 A 
ATOM     37  C   UNL A   1      38.193  31.601  30.745  1.00  0.00     0.074 A 
ATOM     38  C   UNL A   1      37.886  33.170  32.627  1.00  0.00     0.049 A 
ATOM     39  N   UNL A   1      39.152  30.839  31.210  1.00  0.00    -0.248 NA
ATOM     40  C   UNL A   1      37.718  31.217  29.407  1.00  0.00     0.031 C 
ATOM     41  C   UNL A   1      37.274  34.262  33.385  1.00  0.00     0.029 A 
ATOM     42  N   UNL A   1      38.861  32.690  33.468  1.00  0.00    -0.354 N 
ATOM     43  C   UNL A   1      39.386  29.884  30.230  1.00  0.00     0.074 A 
ATOM     44  C   UNL A   1      38.434  30.128  29.168  1.00  0.00     0.031 C 
ATOM     45  C   UNL A   1      37.900  34.384  34.566  1.00  0.00     0.029 A 
ATOM     46  C   UNL A   1      38.924  33.350  34.671  1.00  0.00     0.049 A 
ATOM     47  H   UNL A   1      39.457  31.943  33.231  1.00  0.00     0.167 HD
ATOM     48  C   UNL A   1      40.324  28.906  30.210  1.00  0.00     0.037 A 
ATOM     49  C   UNL A   1      39.708  33.139  35.746  1.00  0.00     0.037 A 
ATOM     50  C   UNL A   1      41.279  28.675  31.264  1.00  0.00     0.049 A 
ATOM     51  C   UNL A   1      40.721  32.025  35.709  1.00  0.00     0.074 A 
ATOM     52  C   UNL A   1      42.310  27.752  31.307  1.00  0.00     0.029 A 
ATOM     53  N   UNL A   1      41.311  29.364  32.467  1.00  0.00    -0.354 N 
ATOM     54  N   UNL A   1      40.986  31.181  34.744  1.00  0.00    -0.248 NA
ATOM     55  C   UNL A   1      41.541  31.838  36.913  1.00  0.00     0.031 C 
ATOM     56  C   UNL A   1      42.925  27.840  32.558  1.00  0.00     0.029 A 
ATOM     57  C   UNL A   1      42.321  28.861  33.274  1.00  0.00     0.049 A 
ATOM     58  H   UNL A   1      40.707  30.102  32.713  1.00  0.00     0.167 HD
ATOM     59  C   UNL A   1      42.017  30.377  35.211  1.00  0.00     0.074 A 
ATOM     60  C   UNL A   1      42.345  30.851  36.540  1.00  0.00     0.031 C 
ATOM     61  C   UNL A   1      42.635  29.338  34.597  1.00  0.00     0.037 A 
BRANCH  48  62
ATOM     62  C   UNL A   1      40.367  28.006  29.007  1.00  0.00     0.064 A 
ATOM     63  C   UNL A   1      39.636  26.809  28.954  1.00  0.00     0.173 A 
ATOM     64  C   UNL A   1      41.112  28.366  27.874  1.00  0.00     0.173 A 
ATOM     65  F   UNL A   1      38.911  26.413  30.012  1.00  0.00    -0.203 F 
ATOM     66  C   UNL A   1      39.675  25.993  27.827  1.00  0.00     0.198 A 
ATOM     67  C   UNL A   1      41.122  27.564  26.735  1.00  0.00     0.198 A 
ATOM     68  F   UNL A   1      41.823  29.504  27.865  1.00  0.00    -0.203 F 
ATOM     69  F   UNL A   1      39.008  24.830  27.821  1.00  0.00    -0.200 F 
ATOM     70  C   UNL A   1      40.411  26.374  26.716  1.00  0.00     0.200 A 
ATOM     71  F   UNL A   1      41.821  27.943  25.656  1.00  0.00    -0.200 F 
ATOM     72  F   UNL A   1      40.440  25.592  25.628  1.00  0.00    -0.200 F 
ENDBRANCH  48  62
BRANCH  49  73
ATOM     73  C   UNL A   1      39.572  34.005  36.947  1.00  0.00     0.064 A 
ATOM     74  C   UNL A   1      38.795  33.601  38.042  1.00  0.00     0.173 A 
ATOM     75  C   UNL A   1      40.206  35.254  37.025  1.00  0.00     0.173 A 
ATOM     76  F   UNL A   1      38.150  32.426  38.007  1.00  0.00    -0.203 F 
ATOM     77  C   UNL A   1      38.639  34.421  39.158  1.00  0.00     0.198 A 
ATOM     78  C   UNL A   1      40.078  36.059  38.155  1.00  0.00     0.198 A 
ATOM     79  F   UNL A   1      40.964  35.687  36.007  1.00  0.00    -0.203 F 
ATOM     80  F   UNL A   1      37.850  34.032  40.167  1.00  0.00    -0.200 F 
ATOM     81  C   UNL A   1      39.287  35.646  39.216  1.00  0.00     0.200 A 
ATOM     82  F   UNL A   1      40.718  37.234  38.214  1.00  0.00    -0.200 F 
ATOM     83  F   UNL A   1      39.142  36.433  40.292  1.00  0.00    -0.200 F 
ENDBRANCH  49  73
BRANCH  61  84
ATOM     84  C   UNL A   1      43.743  28.654  35.346  1.00  0.00     0.064 A 
ATOM     85  C   UNL A   1      43.489  27.589  36.224  1.00  0.00     0.173 A 
ATOM     86  C   UNL A   1      45.078  29.041  35.154  1.00  0.00     0.173 A 
ATOM     87  F   UNL A   1      42.229  27.191  36.457  1.00  0.00    -0.203 F 
ATOM     88  C   UNL A   1      44.529  26.954  36.899  1.00  0.00     0.198 A 
ATOM     89  C   UNL A   1      46.118  28.382  35.804  1.00  0.00     0.198 A 
ATOM     90  F   UNL A   1      45.377  30.049  34.320  1.00  0.00    -0.203 F 
ATOM     91  F   UNL A   1      44.258  25.973  37.772  1.00  0.00    -0.200 F 
ATOM     92  C   UNL A   1      45.842  27.345  36.682  1.00  0.00     0.200 A 
ATOM     93  F   UNL A   1      47.386  28.750  35.580  1.00  0.00    -0.200 F 
ATOM     94  F   UNL A   1      46.841  26.726  37.324  1.00  0.00    -0.200 F 
ENDBRANCH  61  84
ENDBRANCH  35  36
ENDBRANCH  27  30
ENDBRANCH  25  26
ENDBRANCH  24  25
ENDBRANCH   1  24
TORSDOF 16
ENDMDL
MODEL 2
REMARK VINA RESULT:     -11.6      5.799     11.301
REMARK SMILES CCCC1(CCC)C[NH+]([C@H]2CCC[C@@H](C(=O)NCCCCNC(=O)c3ccc(-c4c5nc(c(-c6c(F)c(F)c(F)c(F)c6F)c6ccc([nH]6)c(-c6c(F)c(F)c(F)c(F)c6F)c6nc(c(-c7c(F)c(F)c(F)c(F)c7F)c7ccc4[nH]7)C=C6)C=C5)cc3)C2)C1
REMARK SMILES IDX 19 1 18 2 17 3 15 4 16 5 14 7 10 8 11 9 88 10 12 11 13 12
REMARK SMILES IDX 9 13 4 14 8 15 89 16 3 18 2 19 1 20 5 21 6 22 7 23 20 24
REMARK SMILES IDX 21 25 22 26 23 27 24 29 25 30 26 31 87 32 27 33 86 34 28 35
REMARK SMILES IDX 29 36 30 37 80 38 31 39 85 40 79 41 81 42 32 43 84 44 78 45
REMARK SMILES IDX 77 46 33 48 65 49 45 50 64 51 46 52 49 53 63 54 82 55 47 56
REMARK SMILES IDX 48 57 62 59 83 60 50 61 34 62 35 63 43 64 36 65 37 66 41 67
REMARK SMILES IDX 44 68 38 69 39 70 42 71 40 72 66 73 67 74 75 75 68 76 69 77
REMARK SMILES IDX 73 78 76 79 70 80 71 81 74 82 72 83 51 84 52 85 60 86 53 87
REMARK SMILES IDX 54 88 58 89 61 90 55 91 56 92 59 93 57 94
REMARK H PARENT 17 6 9 17 22 28 81 47 49 58
REMARK Flexibility Score: inf
ROOT
ATOM      1  C   UNL A   1      39.414  22.736  26.091  1.00  0.00     0.023 C 
ENDROOT
BRANCH   1   2
ATOM      2  C   UNL A   1      38.108  23.512  25.967  1.00  0.00     0.116 C 
BRANCH   2   3
ATOM      3  N   UNL A   1      37.403  23.295  24.721  1.00  0.00    -0.356 N 
ATOM      4  C   UNL A   1      36.323  22.494  24.474  1.00  0.00     0.223 C 
ATOM      5  O   UNL A   1      35.881  22.482  23.322  1.00  0.00    -0.275 OA
ATOM      6  H   UNL A   1      37.749  23.793  23.945  1.00  0.00     0.163 HD
BRANCH   4   7
ATOM      7  C   UNL A   1      35.762  21.570  25.568  1.00  0.00     0.084 C 
ATOM      8  C   UNL A   1      33.413  22.547  25.978  1.00  0.00     0.184 C 
ATOM      9  C   UNL A   1      32.787  21.214  25.533  1.00  0.00     0.065 C 
ATOM     10  C   UNL A   1      34.789  22.200  26.567  1.00  0.00     0.078 C 
ATOM     11  C   UNL A   1      33.653  20.348  24.615  1.00  0.00     0.007 C 
ATOM     12  C   UNL A   1      35.136  20.276  24.997  1.00  0.00     0.014 C 
BRANCH   8  13
ATOM     13  N   UNL A   1      33.499  23.722  25.079  1.00  0.00    -0.331 N 
ATOM     14  C   UNL A   1      32.885  25.788  25.131  1.00  0.00     0.068 C 
ATOM     15  C   UNL A   1      34.020  24.915  25.773  1.00  0.00     0.275 C 
ATOM     16  C   UNL A   1      32.244  24.421  24.780  1.00  0.00     0.275 C 
ATOM     17  H   UNL A   1      33.996  23.285  24.303  1.00  0.00     0.348 HD
BRANCH  14  18
ATOM     18  C   UNL A   1      32.016  26.675  26.054  1.00  0.00     0.018 C 
BRANCH  18  19
ATOM     19  C   UNL A   1      32.711  27.786  26.839  1.00  0.00    -0.002 C 
ATOM     20  C   UNL A   1      31.787  28.923  27.251  1.00  0.00     0.004 C 
ENDBRANCH  18  19
ENDBRANCH  14  18
BRANCH  14  21
ATOM     21  C   UNL A   1      33.365  26.584  23.883  1.00  0.00     0.018 C 
BRANCH  21  22
ATOM     22  C   UNL A   1      32.305  27.447  23.174  1.00  0.00    -0.002 C 
ATOM     23  C   UNL A   1      32.559  28.947  23.132  1.00  0.00     0.004 C 
ENDBRANCH  21  22
ENDBRANCH  14  21
ENDBRANCH   8  13
ENDBRANCH   4   7
ENDBRANCH   2   3
ENDBRANCH   1   2
BRANCH   1  24
ATOM     24  C   UNL A   1      39.271  21.285  26.553  1.00  0.00     0.023 C 
BRANCH  24  25
ATOM     25  C   UNL A   1      39.348  20.228  25.452  1.00  0.00     0.116 C 
BRANCH  25  26
ATOM     26  N   UNL A   1      40.291  19.157  25.753  1.00  0.00    -0.352 N 
ATOM     27  C   UNL A   1      41.616  19.201  26.118  1.00  0.00     0.251 C 
ATOM     28  H   UNL A   1      39.915  18.250  25.681  1.00  0.00     0.163 HD
ATOM     29  O   UNL A   1      42.271  18.167  26.165  1.00  0.00    -0.269 OA
BRANCH  27  30
ATOM     30  C   UNL A   1      42.272  20.492  26.427  1.00  0.00     0.039 A 
ATOM     31  C   UNL A   1      42.786  21.255  25.375  1.00  0.00     0.014 A 
ATOM     32  C   UNL A   1      42.395  20.948  27.741  1.00  0.00     0.014 A 
ATOM     33  C   UNL A   1      43.328  22.519  25.631  1.00  0.00     0.010 A 
ATOM     34  C   UNL A   1      42.858  22.239  27.987  1.00  0.00     0.010 A 
ATOM     35  C   UNL A   1      43.315  23.046  26.933  1.00  0.00    -0.014 A 
BRANCH  35  36
ATOM     36  C   UNL A   1      43.727  24.449  27.201  1.00  0.00     0.031 A 
ATOM     37  C   UNL A   1      42.730  25.463  27.690  1.00  0.00     0.074 A 
ATOM     38  C   UNL A   1      44.991  24.829  26.925  1.00  0.00     0.049 A 
ATOM     39  N   UNL A   1      42.891  26.745  27.905  1.00  0.00    -0.248 NA
ATOM     40  C   UNL A   1      41.366  24.978  27.949  1.00  0.00     0.031 C 
ATOM     41  C   UNL A   1      46.039  23.954  26.398  1.00  0.00     0.029 A 
ATOM     42  N   UNL A   1      45.607  26.052  27.036  1.00  0.00    -0.354 N 
ATOM     43  C   UNL A   1      41.653  27.219  28.314  1.00  0.00     0.074 A 
ATOM     44  C   UNL A   1      40.736  26.100  28.265  1.00  0.00     0.031 C 
ATOM     45  C   UNL A   1      47.172  24.660  26.254  1.00  0.00     0.029 A 
ATOM     46  C   UNL A   1      46.919  26.047  26.631  1.00  0.00     0.049 A 
ATOM     47  H   UNL A   1      45.150  26.856  27.374  1.00  0.00     0.167 HD
ATOM     48  C   UNL A   1      41.315  28.470  28.714  1.00  0.00     0.037 A 
ATOM     49  C   UNL A   1      47.816  27.049  26.555  1.00  0.00     0.037 A 
ATOM     50  C   UNL A   1      42.233  29.578  28.773  1.00  0.00     0.049 A 
ATOM     51  C   UNL A   1      47.407  28.435  26.975  1.00  0.00     0.074 A 
ATOM     52  C   UNL A   1      42.003  30.866  29.226  1.00  0.00     0.029 A 
ATOM     53  N   UNL A   1      43.555  29.534  28.353  1.00  0.00    -0.354 N 
ATOM     54  N   UNL A   1      46.254  28.853  27.437  1.00  0.00    -0.248 NA
ATOM     55  C   UNL A   1      48.424  29.488  26.864  1.00  0.00     0.031 C 
ATOM     56  C   UNL A   1      43.165  31.616  29.023  1.00  0.00     0.029 A 
ATOM     57  C   UNL A   1      44.141  30.782  28.502  1.00  0.00     0.049 A 
ATOM     58  H   UNL A   1      44.011  28.735  28.002  1.00  0.00     0.167 HD
ATOM     59  C   UNL A   1      46.412  30.208  27.692  1.00  0.00     0.074 A 
ATOM     60  C   UNL A   1      47.782  30.538  27.355  1.00  0.00     0.031 C 
ATOM     61  C   UNL A   1      45.504  31.100  28.160  1.00  0.00     0.037 A 
BRANCH  48  62
ATOM     62  C   UNL A   1      39.888  28.710  29.120  1.00  0.00     0.064 A 
ATOM     63  C   UNL A   1      39.459  28.541  30.445  1.00  0.00     0.173 A 
ATOM     64  C   UNL A   1      38.947  29.159  28.181  1.00  0.00     0.173 A 
ATOM     65  F   UNL A   1      40.316  28.107  31.383  1.00  0.00    -0.203 F 
ATOM     66  C   UNL A   1      38.136  28.781  30.808  1.00  0.00     0.198 A 
ATOM     67  C   UNL A   1      37.633  29.431  28.554  1.00  0.00     0.198 A 
ATOM     68  F   UNL A   1      39.304  29.347  26.901  1.00  0.00    -0.203 F 
ATOM     69  F   UNL A   1      37.740  28.563  32.070  1.00  0.00    -0.200 F 
ATOM     70  C   UNL A   1      37.227  29.234  29.865  1.00  0.00     0.200 A 
ATOM     71  F   UNL A   1      36.759  29.884  27.644  1.00  0.00    -0.200 F 
ATOM     72  F   UNL A   1      35.956  29.474  30.217  1.00  0.00    -0.200 F 
ENDBRANCH  48  62
BRANCH  49  73
ATOM     73  C   UNL A   1      49.195  26.778  26.067  1.00  0.00     0.064 A 
ATOM     74  C   UNL A   1      50.193  26.327  26.942  1.00  0.00     0.173 A 
ATOM     75  C   UNL A   1      49.547  26.970  24.723  1.00  0.00     0.173 A 
ATOM     76  F   UNL A   1      49.913  26.149  28.242  1.00  0.00    -0.203 F 
ATOM     77  C   UNL A   1      51.494  26.099  26.497  1.00  0.00     0.198 A 
ATOM     78  C   UNL A   1      50.838  26.709  24.271  1.00  0.00     0.198 A 
ATOM     79  F   UNL A   1      48.629  27.396  23.843  1.00  0.00    -0.203 F 
ATOM     80  F   UNL A   1      52.439  25.717  27.365  1.00  0.00    -0.200 F 
ATOM     81  C   UNL A   1      51.813  26.284  25.160  1.00  0.00     0.200 A 
ATOM     82  F   UNL A   1      51.139  26.874  22.975  1.00  0.00    -0.200 F 
ATOM     83  F   UNL A   1      53.063  26.059  24.730  1.00  0.00    -0.200 F 
ENDBRANCH  49  73
BRANCH  61  84
ATOM     84  C   UNL A   1      45.966  32.516  28.356  1.00  0.00     0.064 A 
ATOM     85  C   UNL A   1      46.555  32.938  29.557  1.00  0.00     0.173 A 
ATOM     86  C   UNL A   1      45.855  33.452  27.316  1.00  0.00     0.173 A 
ATOM     87  F   UNL A   1      46.669  32.088  30.589  1.00  0.00    -0.203 F 
ATOM     88  C   UNL A   1      46.992  34.251  29.718  1.00  0.00     0.198 A 
ATOM     89  C   UNL A   1      46.324  34.754  27.468  1.00  0.00     0.198 A 
ATOM     90  F   UNL A   1      45.306  33.099  26.143  1.00  0.00    -0.203 F 
ATOM     91  F   UNL A   1      47.505  34.645  30.892  1.00  0.00    -0.200 F 
ATOM     92  C   UNL A   1      46.884  35.154  28.671  1.00  0.00     0.200 A 
ATOM     93  F   UNL A   1      46.235  35.620  26.450  1.00  0.00    -0.200 F 
ATOM     94  F   UNL A   1      47.316  36.413  28.825  1.00  0.00    -0.200 F 
ENDBRANCH  61  84
ENDBRANCH  35  36
ENDBRANCH  27  30
ENDBRANCH  25  26
ENDBRANCH  24  25
ENDBRANCH   1  24
TORSDOF 16
ENDMDL
MODEL 3
REMARK VINA RESULT:     -11.6      0.758      1.878
REMARK SMILES CCCC1(CCC)C[NH+]([C@H]2CCC[C@@H](C(=O)NCCCCNC(=O)c3ccc(-c4c5nc(c(-c6c(F)c(F)c(F)c(F)c6F)c6ccc([nH]6)c(-c6c(F)c(F)c(F)c(F)c6F)c6nc(c(-c7c(F)c(F)c(F)c(F)c7F)c7ccc4[nH]7)C=C6)C=C5)cc3)C2)C1
REMARK SMILES IDX 19 1 18 2 17 3 15 4 16 5 14 7 10 8 11 9 88 10 12 11 13 12
REMARK SMILES IDX 9 13 4 14 8 15 89 16 3 18 2 19 1 20 5 21 6 22 7 23 20 24
REMARK SMILES IDX 21 25 22 26 23 27 24 29 25 30 26 31 87 32 27 33 86 34 28 35
REMARK SMILES IDX 29 36 30 37 80 38 31 39 85 40 79 41 81 42 32 43 84 44 78 45
REMARK SMILES IDX 77 46 33 48 65 49 45 50 64 51 46 52 49 53 63 54 82 55 47 56
REMARK SMILES IDX 48 57 62 59 83 60 50 61 34 62 35 63 43 64 36 65 37 66 41 67
REMARK SMILES IDX 44 68 38 69 39 70 42 71 40 72 66 73 67 74 75 75 68 76 69 77
REMARK SMILES IDX 73 78 76 79 70 80 71 81 74 82 72 83 51 84 52 85 60 86 53 87
REMARK SMILES IDX 54 88 58 89 61 90 55 91 56 92 59 93 57 94
REMARK H PARENT 17 6 9 17 22 28 81 47 49 58
REMARK Flexibility Score: inf
ROOT
ATOM      1  C   UNL A   1      34.606  31.144  28.030  1.00  0.00     0.023 C 
ENDROOT
BRANCH   1   2
ATOM      2  C   UNL A   1      34.570  29.741  27.434  1.00  0.00     0.116 C 
BRANCH   2   3
ATOM      3  N   UNL A   1      33.298  29.065  27.579  1.00  0.00    -0.356 N 
ATOM      4  C   UNL A   1      32.309  28.889  26.650  1.00  0.00     0.223 C 
ATOM      5  O   UNL A   1      31.309  28.260  27.004  1.00  0.00    -0.275 OA
ATOM      6  H   UNL A   1      33.119  28.681  28.468  1.00  0.00     0.163 HD
BRANCH   4   7
ATOM      7  C   UNL A   1      32.407  29.545  25.262  1.00  0.00     0.084 C 
ATOM      8  C   UNL A   1      32.485  27.509  23.684  1.00  0.00     0.184 C 
ATOM      9  C   UNL A   1      31.177  27.978  23.024  1.00  0.00     0.065 C 
ATOM     10  C   UNL A   1      33.188  28.777  24.194  1.00  0.00     0.078 C 
ATOM     11  C   UNL A   1      30.286  28.878  23.882  1.00  0.00     0.007 C 
ATOM     12  C   UNL A   1      31.027  29.948  24.692  1.00  0.00     0.014 C 
BRANCH   8  13
ATOM     13  N   UNL A   1      32.518  26.435  24.704  1.00  0.00    -0.331 N 
ATOM     14  C   UNL A   1      33.510  24.538  24.958  1.00  0.00     0.068 C 
ATOM     15  C   UNL A   1      33.896  26.055  25.068  1.00  0.00     0.275 C 
ATOM     16  C   UNL A   1      32.244  25.070  24.240  1.00  0.00     0.275 C 
ATOM     17  H   UNL A   1      31.873  26.846  25.379  1.00  0.00     0.348 HD
BRANCH  14  18
ATOM     18  C   UNL A   1      34.387  23.608  24.087  1.00  0.00     0.018 C 
BRANCH  18  19
ATOM     19  C   UNL A   1      35.881  23.538  24.396  1.00  0.00    -0.002 C 
ATOM     20  C   UNL A   1      36.654  22.579  23.501  1.00  0.00     0.004 C 
ENDBRANCH  18  19
ENDBRANCH  14  18
BRANCH  14  21
ATOM     21  C   UNL A   1      33.210  23.889  26.339  1.00  0.00     0.018 C 
BRANCH  21  22
ATOM     22  C   UNL A   1      33.316  22.353  26.411  1.00  0.00    -0.002 C 
ATOM     23  C   UNL A   1      34.025  21.771  27.624  1.00  0.00     0.004 C 
ENDBRANCH  21  22
ENDBRANCH  14  21
ENDBRANCH   8  13
ENDBRANCH   4   7
ENDBRANCH   2   3
ENDBRANCH   1   2
BRANCH   1  24
ATOM     24  C   UNL A   1      33.266  31.882  28.044  1.00  0.00     0.023 C 
BRANCH  24  25
ATOM     25  C   UNL A   1      33.122  33.015  27.030  1.00  0.00     0.116 C 
BRANCH  25  26
ATOM     26  N   UNL A   1      32.659  34.262  27.627  1.00  0.00    -0.352 N 
ATOM     27  C   UNL A   1      33.071  34.926  28.759  1.00  0.00     0.251 C 
ATOM     28  H   UNL A   1      31.927  34.702  27.137  1.00  0.00     0.163 HD
ATOM     29  O   UNL A   1      32.429  35.884  29.172  1.00  0.00    -0.269 OA
BRANCH  27  30
ATOM     30  C   UNL A   1      34.268  34.475  29.505  1.00  0.00     0.039 A 
ATOM     31  C   UNL A   1      34.100  33.921  30.778  1.00  0.00     0.014 A 
ATOM     32  C   UNL A   1      35.550  34.605  28.968  1.00  0.00     0.014 A 
ATOM     33  C   UNL A   1      35.203  33.405  31.464  1.00  0.00     0.010 A 
ATOM     34  C   UNL A   1      36.636  34.017  29.614  1.00  0.00     0.010 A 
ATOM     35  C   UNL A   1      36.472  33.396  30.862  1.00  0.00    -0.014 A 
BRANCH  35  36
ATOM     36  C   UNL A   1      37.622  32.701  31.498  1.00  0.00     0.031 A 
ATOM     37  C   UNL A   1      38.274  31.522  30.831  1.00  0.00     0.074 A 
ATOM     38  C   UNL A   1      38.030  33.088  32.724  1.00  0.00     0.049 A 
ATOM     39  N   UNL A   1      39.236  30.749  31.270  1.00  0.00    -0.248 NA
ATOM     40  C   UNL A   1      37.761  31.148  29.504  1.00  0.00     0.031 C 
ATOM     41  C   UNL A   1      37.448  34.184  33.501  1.00  0.00     0.029 A 
ATOM     42  N   UNL A   1      39.021  32.596  33.539  1.00  0.00    -0.354 N 
ATOM     43  C   UNL A   1      39.436  29.795  30.282  1.00  0.00     0.074 A 
ATOM     44  C   UNL A   1      38.460  30.051  29.244  1.00  0.00     0.031 C 
ATOM     45  C   UNL A   1      38.105  34.296  34.666  1.00  0.00     0.029 A 
ATOM     46  C   UNL A   1      39.121  33.252  34.742  1.00  0.00     0.049 A 
ATOM     47  H   UNL A   1      39.603  31.844  33.286  1.00  0.00     0.167 HD
ATOM     48  C   UNL A   1      40.363  28.807  30.235  1.00  0.00     0.037 A 
ATOM     49  C   UNL A   1      39.930  33.029  35.797  1.00  0.00     0.037 A 
ATOM     50  C   UNL A   1      41.341  28.563  31.264  1.00  0.00     0.049 A 
ATOM     51  C   UNL A   1      40.929  31.906  35.731  1.00  0.00     0.074 A 
ATOM     52  C   UNL A   1      42.363  27.629  31.279  1.00  0.00     0.029 A 
ATOM     53  N   UNL A   1      41.411  29.249  32.469  1.00  0.00    -0.354 N 
ATOM     54  N   UNL A   1      41.162  31.062  34.757  1.00  0.00    -0.248 NA
ATOM     55  C   UNL A   1      41.778  31.706  36.914  1.00  0.00     0.031 C 
ATOM     56  C   UNL A   1      43.011  27.708  32.515  1.00  0.00     0.029 A 
ATOM     57  C   UNL A   1      42.435  28.732  33.248  1.00  0.00     0.049 A 
ATOM     58  H   UNL A   1      40.821  29.991  32.732  1.00  0.00     0.167 HD
ATOM     59  C   UNL A   1      42.196  30.246  35.197  1.00  0.00     0.074 A 
ATOM     60  C   UNL A   1      42.562  30.713  36.518  1.00  0.00     0.031 C 
ATOM     61  C   UNL A   1      42.787  29.203  34.564  1.00  0.00     0.037 A 
BRANCH  48  62
ATOM     62  C   UNL A   1      40.366  27.910  29.029  1.00  0.00     0.064 A 
ATOM     63  C   UNL A   1      41.123  28.212  27.886  1.00  0.00     0.173 A 
ATOM     64  C   UNL A   1      39.637  26.711  29.032  1.00  0.00     0.173 A 
ATOM     65  F   UNL A   1      41.834  29.349  27.827  1.00  0.00    -0.203 F 
ATOM     66  C   UNL A   1      41.126  27.364  26.782  1.00  0.00     0.198 A 
ATOM     67  C   UNL A   1      39.669  25.849  27.939  1.00  0.00     0.198 A 
ATOM     68  F   UNL A   1      38.903  26.368  30.101  1.00  0.00    -0.203 F 
ATOM     69  F   UNL A   1      41.817  27.699  25.684  1.00  0.00    -0.200 F 
ATOM     70  C   UNL A   1      40.406  26.179  26.812  1.00  0.00     0.200 A 
ATOM     71  F   UNL A   1      38.985  24.696  27.977  1.00  0.00    -0.200 F 
ATOM     72  F   UNL A   1      40.417  25.359  25.753  1.00  0.00    -0.200 F 
ENDBRANCH  48  62
BRANCH  49  73
ATOM     73  C   UNL A   1      39.832  33.893  37.004  1.00  0.00     0.064 A 
ATOM     74  C   UNL A   1      40.582  35.074  37.107  1.00  0.00     0.173 A 
ATOM     75  C   UNL A   1      38.998  33.556  38.080  1.00  0.00     0.173 A 
ATOM     76  F   UNL A   1      41.412  35.428  36.115  1.00  0.00    -0.203 F 
ATOM     77  C   UNL A   1      40.517  35.871  38.248  1.00  0.00     0.198 A 
ATOM     78  C   UNL A   1      38.908  34.371  39.206  1.00  0.00     0.198 A 
ATOM     79  F   UNL A   1      38.257  32.440  38.031  1.00  0.00    -0.203 F 
ATOM     80  F   UNL A   1      41.282  36.967  38.340  1.00  0.00    -0.200 F 
ATOM     81  C   UNL A   1      39.675  35.523  39.293  1.00  0.00     0.200 A 
ATOM     82  F   UNL A   1      38.081  34.040  40.206  1.00  0.00    -0.200 F 
ATOM     83  F   UNL A   1      39.608  36.293  40.388  1.00  0.00    -0.200 F 
ENDBRANCH  49  73
BRANCH  61  84
ATOM     84  C   UNL A   1      43.906  28.505  35.284  1.00  0.00     0.064 A 
ATOM     85  C   UNL A   1      43.667  27.419  36.140  1.00  0.00     0.173 A 
ATOM     86  C   UNL A   1      45.238  28.900  35.084  1.00  0.00     0.173 A 
ATOM     87  F   UNL A   1      42.411  27.011  36.379  1.00  0.00    -0.203 F 
ATOM     88  C   UNL A   1      44.717  26.772  36.787  1.00  0.00     0.198 A 
ATOM     89  C   UNL A   1      46.288  28.230  35.705  1.00  0.00     0.198 A 
ATOM     90  F   UNL A   1      45.524  29.928  34.270  1.00  0.00    -0.203 F 
ATOM     91  F   UNL A   1      44.460  25.771  37.640  1.00  0.00    -0.200 F 
ATOM     92  C   UNL A   1      46.026  27.173  36.563  1.00  0.00     0.200 A 
ATOM     93  F   UNL A   1      47.552  28.607  35.475  1.00  0.00    -0.200 F 
ATOM     94  F   UNL A   1      47.035  26.542  37.178  1.00  0.00    -0.200 F 
ENDBRANCH  61  84
ENDBRANCH  35  36
ENDBRANCH  27  30
ENDBRANCH  25  26
ENDBRANCH  24  25
ENDBRANCH   1  24
TORSDOF 16
ENDMDL
