MODEL 1
REMARK VINA RESULT:     -12.1      0.000      0.000
REMARK SMILES O=C(NCCCCNC(=O)[C@@]1(Cl)C[C@@H]2CC[C@H]1C2)c1ccc(-c2c3nc(c(-c4c(F)c(F)c(F)c(F)c4F)c4ccc([nH]4)c(-c4c(F)c(F)c(F)c(F)c4F)c4nc(c(-c5c(F)c(F)c(F)c(F)c5F)c5ccc2[nH]5)C=C4)C=C3)cc1
REMARK SMILES IDX 4 1 3 2 1 3 2 4 19 6 20 7 81 8 21 9 80 10 22 11 23 12 24 13
REMARK SMILES IDX 74 14 25 15 79 16 73 17 75 18 26 19 78 20 72 21 71 22 27 24
REMARK SMILES IDX 59 25 39 26 58 27 40 28 43 29 57 30 76 31 41 32 42 33 56 35
REMARK SMILES IDX 77 36 44 37 28 38 29 39 37 40 30 41 31 42 35 43 38 44 32 45
REMARK SMILES IDX 33 46 36 47 34 48 60 49 61 50 69 51 62 52 63 53 67 54 70 55
REMARK SMILES IDX 64 56 65 57 68 58 66 59 45 60 46 61 54 62 47 63 48 64 52 65
REMARK SMILES IDX 55 66 49 67 50 68 53 69 51 70 5 71 6 72 7 73 8 74 9 75 10 77
REMARK SMILES IDX 11 78 13 79 17 80 12 81 14 82 16 83 18 84 15 85
REMARK H PARENT 3 5 75 23 43 34 8 76
REMARK Flexibility Score: inf
ROOT
ATOM      1  C   UNL A   1      32.776  32.832  27.271  1.00  0.00     0.116 C 
ENDROOT
BRANCH   1   2
ATOM      2  N   UNL A   1      32.405  34.183  27.667  1.00  0.00    -0.352 N 
ATOM      3  O   UNL A   1      32.510  36.056  28.935  1.00  0.00    -0.269 OA
ATOM      4  C   UNL A   1      32.984  34.966  28.638  1.00  0.00     0.251 C 
ATOM      5  H   UNL A   1      31.648  34.583  27.180  1.00  0.00     0.163 HD
BRANCH   4   6
ATOM      6  C   UNL A   1      34.170  34.447  29.350  1.00  0.00     0.039 A 
ATOM      7  C   UNL A   1      35.442  34.619  28.801  1.00  0.00     0.014 A 
ATOM      8  C   UNL A   1      33.999  33.733  30.539  1.00  0.00     0.014 A 
ATOM      9  C   UNL A   1      36.519  33.943  29.353  1.00  0.00     0.010 A 
ATOM     10  C   UNL A   1      35.104  33.129  31.145  1.00  0.00     0.010 A 
ATOM     11  C   UNL A   1      36.366  33.200  30.536  1.00  0.00    -0.014 A 
BRANCH  11  12
ATOM     12  C   UNL A   1      37.568  32.571  31.133  1.00  0.00     0.031 A 
ATOM     13  C   UNL A   1      38.024  32.910  32.523  1.00  0.00     0.074 A 
ATOM     14  C   UNL A   1      38.201  31.620  30.420  1.00  0.00     0.049 A 
ATOM     15  N   UNL A   1      39.005  32.386  33.215  1.00  0.00    -0.248 NA
ATOM     16  C   UNL A   1      37.298  33.975  33.228  1.00  0.00     0.031 C 
ATOM     17  C   UNL A   1      37.853  31.229  29.052  1.00  0.00     0.029 A 
ATOM     18  N   UNL A   1      39.234  30.784  30.752  1.00  0.00    -0.354 N 
ATOM     19  C   UNL A   1      39.023  33.065  34.426  1.00  0.00     0.074 A 
ATOM     20  C   UNL A   1      37.970  34.055  34.370  1.00  0.00     0.031 C 
ATOM     21  C   UNL A   1      38.611  30.187  28.686  1.00  0.00     0.029 A 
ATOM     22  C   UNL A   1      39.535  29.874  29.769  1.00  0.00     0.049 A 
ATOM     23  H   UNL A   1      39.715  30.831  31.611  1.00  0.00     0.167 HD
ATOM     24  C   UNL A   1      39.843  32.870  35.488  1.00  0.00     0.037 A 
ATOM     25  C   UNL A   1      40.456  28.893  29.741  1.00  0.00     0.037 A 
ATOM     26  C   UNL A   1      40.881  31.871  35.541  1.00  0.00     0.049 A 
ATOM     27  C   UNL A   1      41.328  28.685  30.943  1.00  0.00     0.074 A 
ATOM     28  C   UNL A   1      41.765  31.597  36.571  1.00  0.00     0.029 A 
ATOM     29  N   UNL A   1      41.169  30.977  34.520  1.00  0.00    -0.354 N 
ATOM     30  N   UNL A   1      41.331  29.333  32.083  1.00  0.00    -0.248 NA
ATOM     31  C   UNL A   1      42.326  27.613  30.856  1.00  0.00     0.031 C 
ATOM     32  C   UNL A   1      42.606  30.555  36.161  1.00  0.00     0.029 A 
ATOM     33  C   UNL A   1      42.221  30.155  34.892  1.00  0.00     0.049 A 
ATOM     34  H   UNL A   1      40.696  30.933  33.657  1.00  0.00     0.167 HD
ATOM     35  C   UNL A   1      42.333  28.755  32.845  1.00  0.00     0.074 A 
ATOM     36  C   UNL A   1      42.889  27.675  32.055  1.00  0.00     0.031 C 
ATOM     37  C   UNL A   1      42.767  29.097  34.082  1.00  0.00     0.037 A 
BRANCH  24  38
ATOM     38  C   UNL A   1      39.662  33.759  36.683  1.00  0.00     0.064 A 
ATOM     39  C   UNL A   1      40.250  35.031  36.747  1.00  0.00     0.173 A 
ATOM     40  C   UNL A   1      38.838  33.363  37.748  1.00  0.00     0.173 A 
ATOM     41  F   UNL A   1      41.056  35.452  35.761  1.00  0.00    -0.203 F 
ATOM     42  C   UNL A   1      40.030  35.868  37.838  1.00  0.00     0.198 A 
ATOM     43  C   UNL A   1      38.602  34.211  38.827  1.00  0.00     0.198 A 
ATOM     44  F   UNL A   1      38.249  32.158  37.733  1.00  0.00    -0.203 F 
ATOM     45  F   UNL A   1      40.625  37.068  37.892  1.00  0.00    -0.200 F 
ATOM     46  C   UNL A   1      39.200  35.461  38.872  1.00  0.00     0.200 A 
ATOM     47  F   UNL A   1      37.792  33.820  39.821  1.00  0.00    -0.200 F 
ATOM     48  F   UNL A   1      38.980  36.273  39.916  1.00  0.00    -0.200 F 
ENDBRANCH  24  38
BRANCH  25  49
ATOM     49  C   UNL A   1      40.589  28.048  28.530  1.00  0.00     0.064 A 
ATOM     50  C   UNL A   1      41.403  28.442  27.459  1.00  0.00     0.173 A 
ATOM     51  C   UNL A   1      39.928  26.815  28.432  1.00  0.00     0.173 A 
ATOM     52  F   UNL A   1      42.042  29.620  27.500  1.00  0.00    -0.203 F 
ATOM     53  C   UNL A   1      41.539  27.637  26.329  1.00  0.00     0.198 A 
ATOM     54  C   UNL A   1      40.089  25.999  27.316  1.00  0.00     0.198 A 
ATOM     55  F   UNL A   1      39.146  26.392  29.435  1.00  0.00    -0.203 F 
ATOM     56  F   UNL A   1      42.294  28.051  25.303  1.00  0.00    -0.200 F 
ATOM     57  C   UNL A   1      40.890  26.414  26.262  1.00  0.00     0.200 A 
ATOM     58  F   UNL A   1      39.475  24.809  27.265  1.00  0.00    -0.200 F 
ATOM     59  F   UNL A   1      41.032  25.635  25.181  1.00  0.00    -0.200 F 
ENDBRANCH  25  49
BRANCH  37  60
ATOM     60  C   UNL A   1      43.903  28.295  34.639  1.00  0.00     0.064 A 
ATOM     61  C   UNL A   1      45.236  28.687  34.440  1.00  0.00     0.173 A 
ATOM     62  C   UNL A   1      43.661  27.128  35.375  1.00  0.00     0.173 A 
ATOM     63  F   UNL A   1      45.516  29.788  33.726  1.00  0.00    -0.203 F 
ATOM     64  C   UNL A   1      46.287  27.920  34.933  1.00  0.00     0.198 A 
ATOM     65  C   UNL A   1      44.714  26.376  35.889  1.00  0.00     0.198 A 
ATOM     66  F   UNL A   1      42.403  26.714  35.594  1.00  0.00    -0.203 F 
ATOM     67  F   UNL A   1      47.553  28.284  34.686  1.00  0.00    -0.200 F 
ATOM     68  C   UNL A   1      46.026  26.768  35.659  1.00  0.00     0.200 A 
ATOM     69  F   UNL A   1      44.462  25.265  36.595  1.00  0.00    -0.200 F 
ATOM     70  F   UNL A   1      47.039  26.026  36.128  1.00  0.00    -0.200 F 
ENDBRANCH  37  60
ENDBRANCH  11  12
ENDBRANCH   4   6
ENDBRANCH   1   2
BRANCH   1  71
ATOM     71  C   UNL A   1      31.603  31.985  26.807  1.00  0.00     0.023 C 
BRANCH  71  72
ATOM     72  C   UNL A   1      31.845  30.479  26.845  1.00  0.00     0.023 C 
BRANCH  72  73
ATOM     73  C   UNL A   1      32.463  29.891  25.575  1.00  0.00     0.116 C 
BRANCH  73  74
ATOM     74  N   UNL A   1      31.530  29.929  24.464  1.00  0.00    -0.355 N 
ATOM     75  C   UNL A   1      31.164  28.957  23.574  1.00  0.00     0.241 C 
ATOM     76  H   UNL A   1      31.090  30.798  24.326  1.00  0.00     0.163 HD
ATOM     77  O   UNL A   1      30.332  29.290  22.725  1.00  0.00    -0.273 OA
BRANCH  75  78
ATOM     78  C   UNL A   1      31.740  27.518  23.648  1.00  0.00     0.126 C 
ATOM     79  C   UNL A   1      31.463  26.698  22.355  1.00  0.00     0.037 C 
ATOM     80  C   UNL A   1      33.296  27.484  23.706  1.00  0.00     0.020 C 
ATOM     81  Cl  UNL A   1      30.929  26.724  25.043  1.00  0.00    -0.108 Cl
ATOM     82  C   UNL A   1      32.875  26.329  21.857  1.00  0.00    -0.009 C 
ATOM     83  C   UNL A   1      33.842  26.087  24.044  1.00  0.00     0.006 C 
ATOM     84  C   UNL A   1      33.665  27.580  22.221  1.00  0.00     0.009 C 
ATOM     85  C   UNL A   1      33.483  25.273  22.797  1.00  0.00     0.004 C 
ENDBRANCH  75  78
ENDBRANCH  73  74
ENDBRANCH  72  73
ENDBRANCH  71  72
ENDBRANCH   1  71
TORSDOF 11
ENDMDL
MODEL 2
REMARK VINA RESULT:     -12.1      0.144      2.050
REMARK SMILES O=C(NCCCCNC(=O)[C@@]1(Cl)C[C@@H]2CC[C@H]1C2)c1ccc(-c2c3nc(c(-c4c(F)c(F)c(F)c(F)c4F)c4ccc([nH]4)c(-c4c(F)c(F)c(F)c(F)c4F)c4nc(c(-c5c(F)c(F)c(F)c(F)c5F)c5ccc2[nH]5)C=C4)C=C3)cc1
REMARK SMILES IDX 4 1 3 2 1 3 2 4 19 6 20 7 81 8 21 9 80 10 22 11 23 12 24 13
REMARK SMILES IDX 74 14 25 15 79 16 73 17 75 18 26 19 78 20 72 21 71 22 27 24
REMARK SMILES IDX 59 25 39 26 58 27 40 28 43 29 57 30 76 31 41 32 42 33 56 35
REMARK SMILES IDX 77 36 44 37 28 38 29 39 37 40 30 41 31 42 35 43 38 44 32 45
REMARK SMILES IDX 33 46 36 47 34 48 60 49 61 50 69 51 62 52 63 53 67 54 70 55
REMARK SMILES IDX 64 56 65 57 68 58 66 59 45 60 46 61 54 62 47 63 48 64 52 65
REMARK SMILES IDX 55 66 49 67 50 68 53 69 51 70 5 71 6 72 7 73 8 74 9 75 10 77
REMARK SMILES IDX 11 78 13 79 17 80 12 81 14 82 16 83 18 84 15 85
REMARK H PARENT 3 5 75 23 43 34 8 76
REMARK Flexibility Score: inf
ROOT
ATOM      1  C   UNL A   1      32.746  32.791  27.272  1.00  0.00     0.116 C 
ENDROOT
BRANCH   1   2
ATOM      2  N   UNL A   1      32.381  34.154  27.629  1.00  0.00    -0.352 N 
ATOM      3  O   UNL A   1      32.491  36.061  28.845  1.00  0.00    -0.269 OA
ATOM      4  C   UNL A   1      32.960  34.961  28.580  1.00  0.00     0.251 C 
ATOM      5  H   UNL A   1      31.628  34.545  27.128  1.00  0.00     0.163 HD
BRANCH   4   6
ATOM      6  C   UNL A   1      34.141  34.455  29.311  1.00  0.00     0.039 A 
ATOM      7  C   UNL A   1      35.420  34.652  28.789  1.00  0.00     0.014 A 
ATOM      8  C   UNL A   1      33.958  33.728  30.491  1.00  0.00     0.014 A 
ATOM      9  C   UNL A   1      36.497  33.988  29.357  1.00  0.00     0.010 A 
ATOM     10  C   UNL A   1      35.061  33.137  31.114  1.00  0.00     0.010 A 
ATOM     11  C   UNL A   1      36.333  33.234  30.531  1.00  0.00    -0.014 A 
BRANCH  11  12
ATOM     12  C   UNL A   1      37.534  32.619  31.146  1.00  0.00     0.031 A 
ATOM     13  C   UNL A   1      37.976  32.980  32.534  1.00  0.00     0.074 A 
ATOM     14  C   UNL A   1      38.177  31.662  30.451  1.00  0.00     0.049 A 
ATOM     15  N   UNL A   1      38.954  32.470  33.242  1.00  0.00    -0.248 NA
ATOM     16  C   UNL A   1      37.239  34.051  33.219  1.00  0.00     0.031 C 
ATOM     17  C   UNL A   1      37.842  31.250  29.086  1.00  0.00     0.029 A 
ATOM     18  N   UNL A   1      39.211  30.836  30.804  1.00  0.00    -0.354 N 
ATOM     19  C   UNL A   1      38.959  33.167  34.444  1.00  0.00     0.074 A 
ATOM     20  C   UNL A   1      37.901  34.151  34.365  1.00  0.00     0.031 C 
ATOM     21  C   UNL A   1      38.608  30.207  28.742  1.00  0.00     0.029 A 
ATOM     22  C   UNL A   1      39.524  29.913  29.837  1.00  0.00     0.049 A 
ATOM     23  H   UNL A   1      39.685  30.897  31.666  1.00  0.00     0.167 HD
ATOM     24  C   UNL A   1      39.771  32.991  35.514  1.00  0.00     0.037 A 
ATOM     25  C   UNL A   1      40.451  28.937  29.830  1.00  0.00     0.037 A 
ATOM     26  C   UNL A   1      40.813  31.998  35.591  1.00  0.00     0.049 A 
ATOM     27  C   UNL A   1      41.314  28.750  31.041  1.00  0.00     0.074 A 
ATOM     28  C   UNL A   1      41.691  31.743  36.631  1.00  0.00     0.029 A 
ATOM     29  N   UNL A   1      41.114  31.092  34.584  1.00  0.00    -0.354 N 
ATOM     30  N   UNL A   1      41.304  29.414  32.172  1.00  0.00    -0.248 NA
ATOM     31  C   UNL A   1      42.318  27.682  30.977  1.00  0.00     0.031 C 
ATOM     32  C   UNL A   1      42.539  30.700  36.243  1.00  0.00     0.029 A 
ATOM     33  C   UNL A   1      42.167  30.280  34.977  1.00  0.00     0.049 A 
ATOM     34  H   UNL A   1      40.648  31.033  33.718  1.00  0.00     0.167 HD
ATOM     35  C   UNL A   1      42.303  28.852  32.950  1.00  0.00     0.074 A 
ATOM     36  C   UNL A   1      42.871  27.764  32.180  1.00  0.00     0.031 C 
ATOM     37  C   UNL A   1      42.725  29.214  34.186  1.00  0.00     0.037 A 
BRANCH  24  38
ATOM     38  C   UNL A   1      39.576  33.896  36.695  1.00  0.00     0.064 A 
ATOM     39  C   UNL A   1      38.792  33.511  37.792  1.00  0.00     0.173 A 
ATOM     40  C   UNL A   1      40.232  35.135  36.761  1.00  0.00     0.173 A 
ATOM     41  F   UNL A   1      38.133  32.342  37.774  1.00  0.00    -0.203 F 
ATOM     42  C   UNL A   1      38.661  34.338  38.906  1.00  0.00     0.198 A 
ATOM     43  C   UNL A   1      40.118  35.949  37.885  1.00  0.00     0.198 A 
ATOM     44  F   UNL A   1      40.997  35.548  35.739  1.00  0.00    -0.203 F 
ATOM     45  F   UNL A   1      37.884  33.961  39.932  1.00  0.00    -0.200 F 
ATOM     46  C   UNL A   1      39.331  35.551  38.955  1.00  0.00     0.200 A 
ATOM     47  F   UNL A   1      40.774  37.117  37.934  1.00  0.00    -0.200 F 
ATOM     48  F   UNL A   1      39.215  36.340  40.033  1.00  0.00    -0.200 F 
ENDBRANCH  24  38
BRANCH  25  49
ATOM     49  C   UNL A   1      40.598  28.076  28.631  1.00  0.00     0.064 A 
ATOM     50  C   UNL A   1      39.928  26.848  28.536  1.00  0.00     0.173 A 
ATOM     51  C   UNL A   1      41.389  28.477  27.545  1.00  0.00     0.173 A 
ATOM     52  F   UNL A   1      39.174  26.415  29.557  1.00  0.00    -0.203 F 
ATOM     53  C   UNL A   1      40.055  26.049  27.402  1.00  0.00     0.198 A 
ATOM     54  C   UNL A   1      41.490  27.691  26.400  1.00  0.00     0.198 A 
ATOM     55  F   UNL A   1      42.042  29.647  27.586  1.00  0.00    -0.203 F 
ATOM     56  F   UNL A   1      39.433  24.863  27.349  1.00  0.00    -0.200 F 
ATOM     57  C   UNL A   1      40.828  26.475  26.332  1.00  0.00     0.200 A 
ATOM     58  F   UNL A   1      42.223  28.116  25.362  1.00  0.00    -0.200 F 
ATOM     59  F   UNL A   1      40.938  25.711  25.237  1.00  0.00    -0.200 F 
ENDBRANCH  25  49
BRANCH  37  60
ATOM     60  C   UNL A   1      43.861  28.425  34.763  1.00  0.00     0.064 A 
ATOM     61  C   UNL A   1      43.631  27.260  35.510  1.00  0.00     0.173 A 
ATOM     62  C   UNL A   1      45.187  28.836  34.570  1.00  0.00     0.173 A 
ATOM     63  F   UNL A   1      42.377  26.839  35.735  1.00  0.00    -0.203 F 
ATOM     64  C   UNL A   1      44.689  26.550  36.069  1.00  0.00     0.198 A 
ATOM     65  C   UNL A   1      46.245  28.109  35.110  1.00  0.00     0.198 A 
ATOM     66  F   UNL A   1      45.457  29.942  33.861  1.00  0.00    -0.203 F 
ATOM     67  F   UNL A   1      44.444  25.470  36.823  1.00  0.00    -0.200 F 
ATOM     68  C   UNL A   1      45.994  26.973  35.867  1.00  0.00     0.200 A 
ATOM     69  F   UNL A   1      47.506  28.515  34.910  1.00  0.00    -0.200 F 
ATOM     70  F   UNL A   1      47.012  26.293  36.412  1.00  0.00    -0.200 F 
ENDBRANCH  37  60
ENDBRANCH  11  12
ENDBRANCH   4   6
ENDBRANCH   1   2
BRANCH   1  71
ATOM     71  C   UNL A   1      31.572  31.941  26.814  1.00  0.00     0.023 C 
BRANCH  71  72
ATOM     72  C   UNL A   1      31.818  30.436  26.852  1.00  0.00     0.023 C 
BRANCH  72  73
ATOM     73  C   UNL A   1      32.467  29.856  25.593  1.00  0.00     0.116 C 
BRANCH  73  74
ATOM     74  N   UNL A   1      31.573  29.928  24.452  1.00  0.00    -0.355 N 
ATOM     75  C   UNL A   1      31.217  28.976  23.537  1.00  0.00     0.241 C 
ATOM     76  H   UNL A   1      31.156  30.809  24.312  1.00  0.00     0.163 HD
ATOM     77  O   UNL A   1      30.421  29.338  22.665  1.00  0.00    -0.273 OA
BRANCH  75  78
ATOM     78  C   UNL A   1      31.761  27.525  23.610  1.00  0.00     0.126 C 
ATOM     79  C   UNL A   1      31.469  26.714  22.314  1.00  0.00     0.037 C 
ATOM     80  C   UNL A   1      33.315  27.456  23.673  1.00  0.00     0.020 C 
ATOM     81  Cl  UNL A   1      30.927  26.746  25.000  1.00  0.00    -0.108 Cl
ATOM     82  C   UNL A   1      32.874  26.314  21.820  1.00  0.00    -0.009 C 
ATOM     83  C   UNL A   1      33.828  26.046  24.009  1.00  0.00     0.006 C 
ATOM     84  C   UNL A   1      33.691  27.546  22.189  1.00  0.00     0.009 C 
ATOM     85  C   UNL A   1      33.455  25.243  22.760  1.00  0.00     0.004 C 
ENDBRANCH  75  78
ENDBRANCH  73  74
ENDBRANCH  72  73
ENDBRANCH  71  72
ENDBRANCH   1  71
TORSDOF 11
ENDMDL
MODEL 3
REMARK VINA RESULT:     -11.9      5.880     10.894
REMARK SMILES O=C(NCCCCNC(=O)[C@@]1(Cl)C[C@@H]2CC[C@H]1C2)c1ccc(-c2c3nc(c(-c4c(F)c(F)c(F)c(F)c4F)c4ccc([nH]4)c(-c4c(F)c(F)c(F)c(F)c4F)c4nc(c(-c5c(F)c(F)c(F)c(F)c5F)c5ccc2[nH]5)C=C4)C=C3)cc1
REMARK SMILES IDX 4 1 3 2 1 3 2 4 19 6 20 7 81 8 21 9 80 10 22 11 23 12 24 13
REMARK SMILES IDX 74 14 25 15 79 16 73 17 75 18 26 19 78 20 72 21 71 22 27 24
REMARK SMILES IDX 59 25 39 26 58 27 40 28 43 29 57 30 76 31 41 32 42 33 56 35
REMARK SMILES IDX 77 36 44 37 28 38 29 39 37 40 30 41 31 42 35 43 38 44 32 45
REMARK SMILES IDX 33 46 36 47 34 48 60 49 61 50 69 51 62 52 63 53 67 54 70 55
REMARK SMILES IDX 64 56 65 57 68 58 66 59 45 60 46 61 54 62 47 63 48 64 52 65
REMARK SMILES IDX 55 66 49 67 50 68 53 69 51 70 5 71 6 72 7 73 8 74 9 75 10 77
REMARK SMILES IDX 11 78 13 79 17 80 12 81 14 82 16 83 18 84 15 85
REMARK H PARENT 3 5 75 23 43 34 8 76
REMARK Flexibility Score: inf
ROOT
ATOM      1  C   UNL A   1      39.797  20.104  26.637  1.00  0.00     0.116 C 
ENDROOT
BRANCH   1   2
ATOM      2  N   UNL A   1      40.836  19.296  26.015  1.00  0.00    -0.352 N 
ATOM      3  O   UNL A   1      42.902  18.890  25.179  1.00  0.00    -0.269 OA
ATOM      4  C   UNL A   1      42.153  19.633  25.802  1.00  0.00     0.251 C 
ATOM      5  H   UNL A   1      40.563  18.400  25.711  1.00  0.00     0.163 HD
BRANCH   4   6
ATOM      6  C   UNL A   1      42.638  20.935  26.304  1.00  0.00     0.039 A 
ATOM      7  C   UNL A   1      42.676  21.182  27.677  1.00  0.00     0.014 A 
ATOM      8  C   UNL A   1      42.997  21.932  25.393  1.00  0.00     0.014 A 
ATOM      9  C   UNL A   1      42.917  22.470  28.132  1.00  0.00     0.010 A 
ATOM     10  C   UNL A   1      43.330  23.206  25.860  1.00  0.00     0.010 A 
ATOM     11  C   UNL A   1      43.258  23.493  27.231  1.00  0.00    -0.014 A 
BRANCH  11  12
ATOM     12  C   UNL A   1      43.593  24.829  27.779  1.00  0.00     0.031 A 
ATOM     13  C   UNL A   1      45.015  25.301  27.881  1.00  0.00     0.074 A 
ATOM     14  C   UNL A   1      42.577  25.647  28.111  1.00  0.00     0.049 A 
ATOM     15  N   UNL A   1      45.465  26.472  28.259  1.00  0.00    -0.248 NA
ATOM     16  C   UNL A   1      46.070  24.342  27.524  1.00  0.00     0.031 C 
ATOM     17  C   UNL A   1      41.159  25.281  28.069  1.00  0.00     0.029 A 
ATOM     18  N   UNL A   1      42.569  26.959  28.506  1.00  0.00    -0.354 N 
ATOM     19  C   UNL A   1      46.850  26.386  28.200  1.00  0.00     0.074 A 
ATOM     20  C   UNL A   1      47.170  25.042  27.771  1.00  0.00     0.031 C 
ATOM     21  C   UNL A   1      40.418  26.358  28.358  1.00  0.00     0.029 A 
ATOM     22  C   UNL A   1      41.306  27.474  28.660  1.00  0.00     0.049 A 
ATOM     23  H   UNL A   1      43.389  27.482  28.664  1.00  0.00     0.167 HD
ATOM     24  C   UNL A   1      47.765  27.347  28.475  1.00  0.00     0.037 A 
ATOM     25  C   UNL A   1      40.904  28.710  29.009  1.00  0.00     0.037 A 
ATOM     26  C   UNL A   1      47.437  28.689  28.888  1.00  0.00     0.049 A 
ATOM     27  C   UNL A   1      41.941  29.758  29.276  1.00  0.00     0.074 A 
ATOM     28  C   UNL A   1      48.292  29.735  29.191  1.00  0.00     0.029 A 
ATOM     29  N   UNL A   1      46.145  29.170  29.050  1.00  0.00    -0.354 N 
ATOM     30  N   UNL A   1      43.247  29.663  29.213  1.00  0.00    -0.248 NA
ATOM     31  C   UNL A   1      41.451  31.085  29.667  1.00  0.00     0.031 C 
ATOM     32  C   UNL A   1      47.519  30.840  29.562  1.00  0.00     0.029 A 
ATOM     33  C   UNL A   1      46.182  30.496  29.455  1.00  0.00     0.049 A 
ATOM     34  H   UNL A   1      45.324  28.648  28.900  1.00  0.00     0.167 HD
ATOM     35  C   UNL A   1      43.736  30.911  29.564  1.00  0.00     0.074 A 
ATOM     36  C   UNL A   1      42.585  31.760  29.797  1.00  0.00     0.031 C 
ATOM     37  C   UNL A   1      45.022  31.315  29.697  1.00  0.00     0.037 A 
BRANCH  24  38
ATOM     38  C   UNL A   1      49.216  26.988  28.346  1.00  0.00     0.064 A 
ATOM     39  C   UNL A   1      49.970  26.573  29.453  1.00  0.00     0.173 A 
ATOM     40  C   UNL A   1      49.844  26.994  27.090  1.00  0.00     0.173 A 
ATOM     41  F   UNL A   1      49.421  26.560  30.677  1.00  0.00    -0.203 F 
ATOM     42  C   UNL A   1      51.302  26.190  29.311  1.00  0.00     0.198 A 
ATOM     43  C   UNL A   1      51.168  26.590  26.948  1.00  0.00     0.198 A 
ATOM     44  F   UNL A   1      49.165  27.379  25.999  1.00  0.00    -0.203 F 
ATOM     45  F   UNL A   1      52.012  25.824  30.388  1.00  0.00    -0.200 F 
ATOM     46  C   UNL A   1      51.897  26.191  28.058  1.00  0.00     0.200 A 
ATOM     47  F   UNL A   1      51.739  26.582  25.735  1.00  0.00    -0.200 F 
ATOM     48  F   UNL A   1      53.175  25.811  27.921  1.00  0.00    -0.200 F 
ENDBRANCH  24  38
BRANCH  25  49
ATOM     49  C   UNL A   1      39.455  29.004  29.121  1.00  0.00     0.064 A 
ATOM     50  C   UNL A   1      38.794  28.922  30.354  1.00  0.00     0.173 A 
ATOM     51  C   UNL A   1      38.709  29.403  28.002  1.00  0.00     0.173 A 
ATOM     52  F   UNL A   1      39.462  28.529  31.448  1.00  0.00    -0.203 F 
ATOM     53  C   UNL A   1      37.435  29.215  30.460  1.00  0.00     0.198 A 
ATOM     54  C   UNL A   1      37.360  29.726  28.116  1.00  0.00     0.198 A 
ATOM     55  F   UNL A   1      39.300  29.505  26.804  1.00  0.00    -0.203 F 
ATOM     56  F   UNL A   1      36.817  29.095  31.642  1.00  0.00    -0.200 F 
ATOM     57  C   UNL A   1      36.722  29.625  29.343  1.00  0.00     0.200 A 
ATOM     58  F   UNL A   1      36.679  30.139  27.038  1.00  0.00    -0.200 F 
ATOM     59  F   UNL A   1      35.419  29.920  29.449  1.00  0.00    -0.200 F 
ENDBRANCH  25  49
BRANCH  37  60
ATOM     60  C   UNL A   1      45.237  32.735  30.124  1.00  0.00     0.064 A 
ATOM     61  C   UNL A   1      45.330  33.772  29.183  1.00  0.00     0.173 A 
ATOM     62  C   UNL A   1      45.352  33.064  31.482  1.00  0.00     0.173 A 
ATOM     63  F   UNL A   1      45.243  33.501  27.872  1.00  0.00    -0.203 F 
ATOM     64  C   UNL A   1      45.561  35.083  29.585  1.00  0.00     0.198 A 
ATOM     65  C   UNL A   1      45.559  34.380  31.882  1.00  0.00     0.198 A 
ATOM     66  F   UNL A   1      45.268  32.107  32.419  1.00  0.00    -0.203 F 
ATOM     67  F   UNL A   1      45.698  36.049  28.667  1.00  0.00    -0.200 F 
ATOM     68  C   UNL A   1      45.672  35.387  30.934  1.00  0.00     0.200 A 
ATOM     69  F   UNL A   1      45.661  34.675  33.186  1.00  0.00    -0.200 F 
ATOM     70  F   UNL A   1      45.902  36.650  31.320  1.00  0.00    -0.200 F 
ENDBRANCH  37  60
ENDBRANCH  11  12
ENDBRANCH   4   6
ENDBRANCH   1   2
BRANCH   1  71
ATOM     71  C   UNL A   1      39.329  21.267  25.778  1.00  0.00     0.023 C 
BRANCH  71  72
ATOM     72  C   UNL A   1      39.288  22.615  26.492  1.00  0.00     0.023 C 
BRANCH  72  73
ATOM     73  C   UNL A   1      38.080  23.489  26.152  1.00  0.00     0.116 C 
BRANCH  73  74
ATOM     74  N   UNL A   1      37.760  23.427  24.737  1.00  0.00    -0.355 N 
ATOM     75  C   UNL A   1      36.578  23.161  24.102  1.00  0.00     0.241 C 
ATOM     76  H   UNL A   1      38.518  23.604  24.136  1.00  0.00     0.163 HD
ATOM     77  O   UNL A   1      36.614  23.181  22.868  1.00  0.00    -0.273 OA
BRANCH  75  78
ATOM     78  C   UNL A   1      35.271  22.876  24.887  1.00  0.00     0.126 C 
ATOM     79  C   UNL A   1      34.108  22.414  23.962  1.00  0.00     0.037 C 
ATOM     80  C   UNL A   1      35.391  21.666  25.860  1.00  0.00     0.020 C 
ATOM     81  Cl  UNL A   1      34.818  24.424  25.683  1.00  0.00    -0.108 Cl
ATOM     82  C   UNL A   1      33.744  21.022  24.517  1.00  0.00    -0.009 C 
ATOM     83  C   UNL A   1      34.192  21.558  26.816  1.00  0.00     0.006 C 
ATOM     84  C   UNL A   1      35.111  20.485  24.922  1.00  0.00     0.009 C 
ATOM     85  C   UNL A   1      33.041  21.188  25.876  1.00  0.00     0.004 C 
ENDBRANCH  75  78
ENDBRANCH  73  74
ENDBRANCH  72  73
ENDBRANCH  71  72
ENDBRANCH   1  71
TORSDOF 11
ENDMDL
