MODEL 1
REMARK VINA RESULT:     -12.9      0.000      0.000
REMARK SMILES O=C(NCCCCNC(=O)c1ccccc1/C=C1\SC(=S)N(Cc2ccccc2)C1=O)c1ccc(-c2c3nc(c(-c4c(F)c(F)c(F)c(F)c4F)c4ccc([nH]4)c(-c4c(F)c(F)c(F)c(F)c4F)c4nc(c(-c5c(F)c(F)c(F)c(F)c5F)c5ccc2[nH]5)C=C4)C=C3)cc1
REMARK SMILES IDX 6 1 5 2 4 3 3 4 1 5 2 6 32 8 33 9 94 10 34 11 93 12 35 13
REMARK SMILES IDX 36 14 37 15 87 16 38 17 92 18 86 19 88 20 39 21 91 22 85 23
REMARK SMILES IDX 84 24 40 26 72 27 52 28 71 29 53 30 56 31 70 32 89 33 54 34
REMARK SMILES IDX 55 35 69 37 90 38 57 39 41 40 42 41 50 42 43 43 44 44 48 45
REMARK SMILES IDX 51 46 45 47 46 48 49 49 47 50 73 51 74 52 82 53 75 54 76 55
REMARK SMILES IDX 80 56 83 57 77 58 78 59 81 60 79 61 58 62 59 63 67 64 60 65
REMARK SMILES IDX 61 66 65 67 68 68 62 69 63 70 66 71 64 72 7 73 8 74 9 75
REMARK SMILES IDX 10 77 11 78 12 79 16 80 13 81 15 82 14 83 17 84 18 85 19 86
REMARK SMILES IDX 30 87 20 88 22 89 31 90 21 91 23 92 24 93 25 94 29 95 26 96
REMARK SMILES IDX 28 97 27 98
REMARK H PARENT 3 7 88 25 56 36 8 76
REMARK Flexibility Score: inf
ROOT
ATOM      1  C   UNL A   1      32.150  30.059  27.249  1.00  0.00     0.023 C 
ENDROOT
BRANCH   1   2
ATOM      2  C   UNL A   1      31.759  31.492  26.899  1.00  0.00     0.023 C 
BRANCH   2   3
ATOM      3  C   UNL A   1      32.906  32.492  26.858  1.00  0.00     0.116 C 
BRANCH   3   4
ATOM      4  N   UNL A   1      32.539  33.811  27.357  1.00  0.00    -0.352 N 
ATOM      5  O   UNL A   1      32.523  35.567  28.783  1.00  0.00    -0.269 OA
ATOM      6  C   UNL A   1      33.049  34.518  28.423  1.00  0.00     0.251 C 
ATOM      7  H   UNL A   1      31.820  34.263  26.860  1.00  0.00     0.163 HD
BRANCH   6   8
ATOM      8  C   UNL A   1      34.221  33.994  29.156  1.00  0.00     0.039 A 
ATOM      9  C   UNL A   1      35.504  34.441  28.843  1.00  0.00     0.014 A 
ATOM     10  C   UNL A   1      34.041  33.031  30.155  1.00  0.00     0.014 A 
ATOM     11  C   UNL A   1      36.607  33.793  29.381  1.00  0.00     0.010 A 
ATOM     12  C   UNL A   1      35.155  32.458  30.780  1.00  0.00     0.010 A 
ATOM     13  C   UNL A   1      36.450  32.805  30.368  1.00  0.00    -0.014 A 
BRANCH  13  14
ATOM     14  C   UNL A   1      37.671  32.215  30.979  1.00  0.00     0.031 A 
ATOM     15  C   UNL A   1      38.113  32.572  32.370  1.00  0.00     0.074 A 
ATOM     16  C   UNL A   1      38.339  31.277  30.277  1.00  0.00     0.049 A 
ATOM     17  N   UNL A   1      39.104  32.075  33.070  1.00  0.00    -0.248 NA
ATOM     18  C   UNL A   1      37.360  33.625  33.068  1.00  0.00     0.031 C 
ATOM     19  C   UNL A   1      38.018  30.868  28.907  1.00  0.00     0.029 A 
ATOM     20  N   UNL A   1      39.392  30.471  30.624  1.00  0.00    -0.354 N 
ATOM     21  C   UNL A   1      39.099  32.757  34.281  1.00  0.00     0.074 A 
ATOM     22  C   UNL A   1      38.026  33.727  34.211  1.00  0.00     0.031 C 
ATOM     23  C   UNL A   1      38.806  29.844  28.556  1.00  0.00     0.029 A 
ATOM     24  C   UNL A   1      39.733  29.568  29.647  1.00  0.00     0.049 A 
ATOM     25  H   UNL A   1      39.860  30.534  31.488  1.00  0.00     0.167 HD
ATOM     26  C   UNL A   1      39.910  32.581  35.352  1.00  0.00     0.037 A 
ATOM     27  C   UNL A   1      40.691  28.624  29.623  1.00  0.00     0.037 A 
ATOM     28  C   UNL A   1      40.970  31.606  35.421  1.00  0.00     0.049 A 
ATOM     29  C   UNL A   1      41.565  28.448  30.830  1.00  0.00     0.074 A 
ATOM     30  C   UNL A   1      41.841  31.347  36.466  1.00  0.00     0.029 A 
ATOM     31  N   UNL A   1      41.302  30.726  34.402  1.00  0.00    -0.354 N 
ATOM     32  N   UNL A   1      41.536  29.090  31.972  1.00  0.00    -0.248 NA
ATOM     33  C   UNL A   1      42.607  27.418  30.744  1.00  0.00     0.031 C 
ATOM     34  C   UNL A   1      42.721  30.336  36.066  1.00  0.00     0.029 A 
ATOM     35  C   UNL A   1      42.371  29.932  34.789  1.00  0.00     0.049 A 
ATOM     36  H   UNL A   1      40.845  30.672  33.531  1.00  0.00     0.167 HD
ATOM     37  C   UNL A   1      42.552  28.545  32.740  1.00  0.00     0.074 A 
ATOM     38  C   UNL A   1      43.153  27.490  31.950  1.00  0.00     0.031 C 
ATOM     39  C   UNL A   1      42.964  28.896  33.984  1.00  0.00     0.037 A 
BRANCH  26  40
ATOM     40  C   UNL A   1      39.692  33.463  36.549  1.00  0.00     0.064 A 
ATOM     41  C   UNL A   1      40.302  34.721  36.654  1.00  0.00     0.173 A 
ATOM     42  C   UNL A   1      38.804  33.079  37.567  1.00  0.00     0.173 A 
ATOM     43  F   UNL A   1      41.166  35.133  35.714  1.00  0.00    -0.203 F 
ATOM     44  C   UNL A   1      40.043  35.556  37.739  1.00  0.00     0.198 A 
ATOM     45  C   UNL A   1      38.530  33.925  38.638  1.00  0.00     0.198 A 
ATOM     46  F   UNL A   1      38.188  31.888  37.512  1.00  0.00    -0.203 F 
ATOM     47  F   UNL A   1      40.661  36.742  37.834  1.00  0.00    -0.200 F 
ATOM     48  C   UNL A   1      39.151  35.161  38.725  1.00  0.00     0.200 A 
ATOM     49  F   UNL A   1      37.657  33.547  39.582  1.00  0.00    -0.200 F 
ATOM     50  F   UNL A   1      38.892  35.971  39.761  1.00  0.00    -0.200 F 
ENDBRANCH  26  40
BRANCH  27  51
ATOM     51  C   UNL A   1      40.874  27.789  28.409  1.00  0.00     0.064 A 
ATOM     52  C   UNL A   1      40.171  26.589  28.239  1.00  0.00     0.173 A 
ATOM     53  C   UNL A   1      41.752  28.182  27.388  1.00  0.00     0.173 A 
ATOM     54  F   UNL A   1      39.333  26.162  29.194  1.00  0.00    -0.203 F 
ATOM     55  C   UNL A   1      40.354  25.805  27.102  1.00  0.00     0.198 A 
ATOM     56  C   UNL A   1      41.909  27.415  26.237  1.00  0.00     0.198 A 
ATOM     57  F   UNL A   1      42.443  29.326  27.500  1.00  0.00    -0.203 F 
ATOM     58  F   UNL A   1      39.705  24.638  26.983  1.00  0.00    -0.200 F 
ATOM     59  C   UNL A   1      41.216  26.222  26.098  1.00  0.00     0.200 A 
ATOM     60  F   UNL A   1      42.727  27.833  25.262  1.00  0.00    -0.200 F 
ATOM     61  F   UNL A   1      41.384  25.472  25.001  1.00  0.00    -0.200 F 
ENDBRANCH  27  51
BRANCH  39  62
ATOM     62  C   UNL A   1      44.116  28.124  34.554  1.00  0.00     0.064 A 
ATOM     63  C   UNL A   1      43.917  26.918  35.244  1.00  0.00     0.173 A 
ATOM     64  C   UNL A   1      45.429  28.593  34.414  1.00  0.00     0.173 A 
ATOM     65  F   UNL A   1      42.676  26.438  35.419  1.00  0.00    -0.203 F 
ATOM     66  C   UNL A   1      44.988  26.230  35.805  1.00  0.00     0.198 A 
ATOM     67  C   UNL A   1      46.502  27.887  34.952  1.00  0.00     0.198 A 
ATOM     68  F   UNL A   1      45.672  29.738  33.759  1.00  0.00    -0.203 F 
ATOM     69  F   UNL A   1      44.768  25.112  36.512  1.00  0.00    -0.200 F 
ATOM     70  C   UNL A   1      46.280  26.713  35.656  1.00  0.00     0.200 A 
ATOM     71  F   UNL A   1      47.751  28.350  34.799  1.00  0.00    -0.200 F 
ATOM     72  F   UNL A   1      47.310  26.053  36.202  1.00  0.00    -0.200 F 
ENDBRANCH  39  62
ENDBRANCH  13  14
ENDBRANCH   6   8
ENDBRANCH   3   4
ENDBRANCH   2   3
ENDBRANCH   1   2
BRANCH   1  73
ATOM     73  C   UNL A   1      31.735  29.006  26.228  1.00  0.00     0.116 C 
BRANCH  73  74
ATOM     74  N   UNL A   1      32.419  29.139  24.953  1.00  0.00    -0.352 N 
ATOM     75  C   UNL A   1      31.881  29.272  23.696  1.00  0.00     0.251 C 
ATOM     76  H   UNL A   1      33.402  29.133  24.995  1.00  0.00     0.163 HD
ATOM     77  O   UNL A   1      32.618  29.329  22.716  1.00  0.00    -0.269 OA
BRANCH  75  78
ATOM     78  C   UNL A   1      30.412  29.303  23.516  1.00  0.00     0.047 A 
ATOM     79  C   UNL A   1      29.785  30.536  23.738  1.00  0.00     0.014 A 
ATOM     80  C   UNL A   1      29.665  28.178  23.116  1.00  0.00    -0.012 A 
ATOM     81  C   UNL A   1      28.419  30.671  23.500  1.00  0.00     0.001 A 
ATOM     82  C   UNL A   1      28.295  28.333  22.872  1.00  0.00     0.009 A 
ATOM     83  C   UNL A   1      27.679  29.574  23.058  1.00  0.00     0.001 A 
BRANCH  80  84
ATOM     84  C   UNL A   1      30.295  26.887  22.819  1.00  0.00     0.030 C 
ATOM     85  C   UNL A   1      30.595  25.914  23.687  1.00  0.00     0.081 C 
ATOM     86  S   UNL A   1      30.119  25.718  25.315  1.00  0.00    -0.054 SA
ATOM     87  C   UNL A   1      31.534  24.837  23.292  1.00  0.00     0.266 C 
ATOM     88  C   UNL A   1      30.971  24.178  25.469  1.00  0.00     0.148 C 
ATOM     89  N   UNL A   1      31.642  23.896  24.297  1.00  0.00    -0.288 N 
ATOM     90  O   UNL A   1      32.177  24.870  22.250  1.00  0.00    -0.268 OA
ATOM     91  S   UNL A   1      30.922  23.281  26.874  1.00  0.00    -0.052 S 
BRANCH  89  92
ATOM     92  C   UNL A   1      32.504  22.736  24.073  1.00  0.00     0.163 C 
BRANCH  92  93
ATOM     93  C   UNL A   1      33.965  23.056  24.303  1.00  0.00    -0.028 A 
ATOM     94  C   UNL A   1      34.409  23.545  25.539  1.00  0.00     0.005 A 
ATOM     95  C   UNL A   1      34.909  22.845  23.285  1.00  0.00     0.005 A 
ATOM     96  C   UNL A   1      35.764  23.813  25.747  1.00  0.00     0.000 A 
ATOM     97  C   UNL A   1      36.263  23.098  23.499  1.00  0.00     0.000 A 
ATOM     98  C   UNL A   1      36.691  23.584  24.731  1.00  0.00     0.000 A 
ENDBRANCH  92  93
ENDBRANCH  89  92
ENDBRANCH  80  84
ENDBRANCH  75  78
ENDBRANCH  73  74
ENDBRANCH   1  73
TORSDOF 14
ENDMDL
MODEL 2
REMARK VINA RESULT:     -12.9      0.082      1.552
REMARK SMILES O=C(NCCCCNC(=O)c1ccccc1/C=C1\SC(=S)N(Cc2ccccc2)C1=O)c1ccc(-c2c3nc(c(-c4c(F)c(F)c(F)c(F)c4F)c4ccc([nH]4)c(-c4c(F)c(F)c(F)c(F)c4F)c4nc(c(-c5c(F)c(F)c(F)c(F)c5F)c5ccc2[nH]5)C=C4)C=C3)cc1
REMARK SMILES IDX 6 1 5 2 4 3 3 4 1 5 2 6 32 8 33 9 94 10 34 11 93 12 35 13
REMARK SMILES IDX 36 14 37 15 87 16 38 17 92 18 86 19 88 20 39 21 91 22 85 23
REMARK SMILES IDX 84 24 40 26 72 27 52 28 71 29 53 30 56 31 70 32 89 33 54 34
REMARK SMILES IDX 55 35 69 37 90 38 57 39 41 40 42 41 50 42 43 43 44 44 48 45
REMARK SMILES IDX 51 46 45 47 46 48 49 49 47 50 73 51 74 52 82 53 75 54 76 55
REMARK SMILES IDX 80 56 83 57 77 58 78 59 81 60 79 61 58 62 59 63 67 64 60 65
REMARK SMILES IDX 61 66 65 67 68 68 62 69 63 70 66 71 64 72 7 73 8 74 9 75
REMARK SMILES IDX 10 77 11 78 12 79 16 80 13 81 15 82 14 83 17 84 18 85 19 86
REMARK SMILES IDX 30 87 20 88 22 89 31 90 21 91 23 92 24 93 25 94 29 95 26 96
REMARK SMILES IDX 28 97 27 98
REMARK H PARENT 3 7 88 25 56 36 8 76
REMARK Flexibility Score: inf
ROOT
ATOM      1  C   UNL A   1      32.145  30.010  27.251  1.00  0.00     0.023 C 
ENDROOT
BRANCH   1   2
ATOM      2  C   UNL A   1      31.775  31.442  26.877  1.00  0.00     0.023 C 
BRANCH   2   3
ATOM      3  C   UNL A   1      32.925  32.438  26.876  1.00  0.00     0.116 C 
BRANCH   3   4
ATOM      4  N   UNL A   1      32.552  33.751  27.384  1.00  0.00    -0.352 N 
ATOM      5  O   UNL A   1      32.528  35.496  28.823  1.00  0.00    -0.269 OA
ATOM      6  C   UNL A   1      33.059  34.452  28.455  1.00  0.00     0.251 C 
ATOM      7  H   UNL A   1      31.831  34.203  26.890  1.00  0.00     0.163 HD
BRANCH   6   8
ATOM      8  C   UNL A   1      34.233  33.928  29.186  1.00  0.00     0.039 A 
ATOM      9  C   UNL A   1      35.511  34.398  28.891  1.00  0.00     0.014 A 
ATOM     10  C   UNL A   1      34.058  32.943  30.163  1.00  0.00     0.014 A 
ATOM     11  C   UNL A   1      36.620  33.753  29.423  1.00  0.00     0.010 A 
ATOM     12  C   UNL A   1      35.176  32.371  30.784  1.00  0.00     0.010 A 
ATOM     13  C   UNL A   1      36.468  32.743  30.388  1.00  0.00    -0.014 A 
BRANCH  13  14
ATOM     14  C   UNL A   1      37.693  32.156  30.995  1.00  0.00     0.031 A 
ATOM     15  C   UNL A   1      38.134  32.507  32.388  1.00  0.00     0.074 A 
ATOM     16  C   UNL A   1      38.366  31.226  30.287  1.00  0.00     0.049 A 
ATOM     17  N   UNL A   1      39.127  32.011  33.085  1.00  0.00    -0.248 NA
ATOM     18  C   UNL A   1      37.374  33.551  33.092  1.00  0.00     0.031 C 
ATOM     19  C   UNL A   1      38.047  30.824  28.914  1.00  0.00     0.029 A 
ATOM     20  N   UNL A   1      39.423  30.424  30.628  1.00  0.00    -0.354 N 
ATOM     21  C   UNL A   1      39.118  32.686  34.300  1.00  0.00     0.074 A 
ATOM     22  C   UNL A   1      38.041  33.650  34.236  1.00  0.00     0.031 C 
ATOM     23  C   UNL A   1      38.840  29.807  28.557  1.00  0.00     0.029 A 
ATOM     24  C   UNL A   1      39.769  29.529  29.646  1.00  0.00     0.049 A 
ATOM     25  H   UNL A   1      39.891  30.484  31.493  1.00  0.00     0.167 HD
ATOM     26  C   UNL A   1      39.931  32.508  35.370  1.00  0.00     0.037 A 
ATOM     27  C   UNL A   1      40.733  28.590  29.616  1.00  0.00     0.037 A 
ATOM     28  C   UNL A   1      40.996  31.539  35.432  1.00  0.00     0.049 A 
ATOM     29  C   UNL A   1      41.608  28.412  30.822  1.00  0.00     0.074 A 
ATOM     30  C   UNL A   1      41.869  31.278  36.476  1.00  0.00     0.029 A 
ATOM     31  N   UNL A   1      41.333  30.666  34.408  1.00  0.00    -0.354 N 
ATOM     32  N   UNL A   1      41.575  29.047  31.968  1.00  0.00    -0.248 NA
ATOM     33  C   UNL A   1      42.656  27.388  30.729  1.00  0.00     0.031 C 
ATOM     34  C   UNL A   1      42.755  30.274  36.069  1.00  0.00     0.029 A 
ATOM     35  C   UNL A   1      42.407  29.876  34.790  1.00  0.00     0.049 A 
ATOM     36  H   UNL A   1      40.877  30.615  33.537  1.00  0.00     0.167 HD
ATOM     37  C   UNL A   1      42.595  28.503  32.732  1.00  0.00     0.074 A 
ATOM     38  C   UNL A   1      43.201  27.456  31.936  1.00  0.00     0.031 C 
ATOM     39  C   UNL A   1      43.005  28.848  33.978  1.00  0.00     0.037 A 
BRANCH  26  40
ATOM     40  C   UNL A   1      39.708  33.381  36.572  1.00  0.00     0.064 A 
ATOM     41  C   UNL A   1      40.327  34.634  36.694  1.00  0.00     0.173 A 
ATOM     42  C   UNL A   1      38.809  32.995  37.578  1.00  0.00     0.173 A 
ATOM     43  F   UNL A   1      41.202  35.048  35.764  1.00  0.00    -0.203 F 
ATOM     44  C   UNL A   1      40.064  35.461  37.783  1.00  0.00     0.198 A 
ATOM     45  C   UNL A   1      38.531  33.834  38.654  1.00  0.00     0.198 A 
ATOM     46  F   UNL A   1      38.184  31.809  37.508  1.00  0.00    -0.203 F 
ATOM     47  F   UNL A   1      40.690  36.642  37.894  1.00  0.00    -0.200 F 
ATOM     48  C   UNL A   1      39.160  35.064  38.757  1.00  0.00     0.200 A 
ATOM     49  F   UNL A   1      37.646  33.455  39.587  1.00  0.00    -0.200 F 
ATOM     50  F   UNL A   1      38.898  35.868  39.798  1.00  0.00    -0.200 F 
ENDBRANCH  26  40
BRANCH  27  51
ATOM     51  C   UNL A   1      40.920  27.764  28.397  1.00  0.00     0.064 A 
ATOM     52  C   UNL A   1      41.799  28.157  27.380  1.00  0.00     0.173 A 
ATOM     53  C   UNL A   1      40.228  26.555  28.231  1.00  0.00     0.173 A 
ATOM     54  F   UNL A   1      42.472  29.313  27.484  1.00  0.00    -0.203 F 
ATOM     55  C   UNL A   1      41.964  27.382  26.233  1.00  0.00     0.198 A 
ATOM     56  C   UNL A   1      40.419  25.764  27.102  1.00  0.00     0.198 A 
ATOM     57  F   UNL A   1      39.381  26.130  29.180  1.00  0.00    -0.203 F 
ATOM     58  F   UNL A   1      42.776  27.803  25.254  1.00  0.00    -0.200 F 
ATOM     59  C   UNL A   1      41.280  26.183  26.099  1.00  0.00     0.200 A 
ATOM     60  F   UNL A   1      39.772  24.597  26.987  1.00  0.00    -0.200 F 
ATOM     61  F   UNL A   1      41.446  25.433  25.001  1.00  0.00    -0.200 F 
ENDBRANCH  27  51
BRANCH  39  62
ATOM     62  C   UNL A   1      44.161  28.079  34.543  1.00  0.00     0.064 A 
ATOM     63  C   UNL A   1      45.483  28.521  34.378  1.00  0.00     0.173 A 
ATOM     64  C   UNL A   1      43.949  26.888  35.251  1.00  0.00     0.173 A 
ATOM     65  F   UNL A   1      45.738  29.646  33.692  1.00  0.00    -0.203 F 
ATOM     66  C   UNL A   1      46.552  27.778  34.870  1.00  0.00     0.198 A 
ATOM     67  C   UNL A   1      45.019  26.162  35.766  1.00  0.00     0.198 A 
ATOM     68  F   UNL A   1      42.704  26.425  35.439  1.00  0.00    -0.203 F 
ATOM     69  F   UNL A   1      47.809  28.189  34.649  1.00  0.00    -0.200 F 
ATOM     70  C   UNL A   1      46.319  26.601  35.567  1.00  0.00     0.200 A 
ATOM     71  F   UNL A   1      44.793  25.030  36.448  1.00  0.00    -0.200 F 
ATOM     72  F   UNL A   1      47.350  25.884  36.034  1.00  0.00    -0.200 F 
ENDBRANCH  39  62
ENDBRANCH  13  14
ENDBRANCH   6   8
ENDBRANCH   3   4
ENDBRANCH   2   3
ENDBRANCH   1   2
BRANCH   1  73
ATOM     73  C   UNL A   1      31.758  28.950  26.225  1.00  0.00     0.116 C 
BRANCH  73  74
ATOM     74  N   UNL A   1      32.443  29.104  24.953  1.00  0.00    -0.352 N 
ATOM     75  C   UNL A   1      31.907  29.255  23.697  1.00  0.00     0.251 C 
ATOM     76  H   UNL A   1      33.427  29.099  24.996  1.00  0.00     0.163 HD
ATOM     77  O   UNL A   1      32.644  29.328  22.719  1.00  0.00    -0.269 OA
BRANCH  75  78
ATOM     78  C   UNL A   1      30.438  29.286  23.516  1.00  0.00     0.047 A 
ATOM     79  C   UNL A   1      29.810  30.518  23.740  1.00  0.00     0.014 A 
ATOM     80  C   UNL A   1      29.691  28.161  23.114  1.00  0.00    -0.012 A 
ATOM     81  C   UNL A   1      28.445  30.653  23.501  1.00  0.00     0.001 A 
ATOM     82  C   UNL A   1      28.322  28.316  22.869  1.00  0.00     0.009 A 
ATOM     83  C   UNL A   1      27.705  29.557  23.056  1.00  0.00     0.001 A 
BRANCH  80  84
ATOM     84  C   UNL A   1      30.322  26.871  22.816  1.00  0.00     0.030 C 
ATOM     85  C   UNL A   1      30.632  25.901  23.684  1.00  0.00     0.081 C 
ATOM     86  S   UNL A   1      30.170  25.709  25.317  1.00  0.00    -0.054 SA
ATOM     87  C   UNL A   1      31.570  24.825  23.284  1.00  0.00     0.266 C 
ATOM     88  C   UNL A   1      31.028  24.172  25.468  1.00  0.00     0.148 C 
ATOM     89  N   UNL A   1      31.690  23.888  24.291  1.00  0.00    -0.288 N 
ATOM     90  O   UNL A   1      32.204  24.856  22.236  1.00  0.00    -0.268 OA
ATOM     91  S   UNL A   1      30.994  23.279  26.876  1.00  0.00    -0.052 S 
BRANCH  89  92
ATOM     92  C   UNL A   1      32.552  22.729  24.063  1.00  0.00     0.163 C 
BRANCH  92  93
ATOM     93  C   UNL A   1      34.011  23.044  24.313  1.00  0.00    -0.028 A 
ATOM     94  C   UNL A   1      34.458  23.420  25.586  1.00  0.00     0.005 A 
ATOM     95  C   UNL A   1      34.950  22.942  23.274  1.00  0.00     0.005 A 
ATOM     96  C   UNL A   1      35.812  23.684  25.811  1.00  0.00     0.000 A 
ATOM     97  C   UNL A   1      36.302  23.191  23.502  1.00  0.00     0.000 A 
ATOM     98  C   UNL A   1      36.733  23.564  24.771  1.00  0.00     0.000 A 
ENDBRANCH  92  93
ENDBRANCH  89  92
ENDBRANCH  80  84
ENDBRANCH  75  78
ENDBRANCH  73  74
ENDBRANCH   1  73
TORSDOF 14
ENDMDL
MODEL 3
REMARK VINA RESULT:     -12.7      5.145     10.688
REMARK SMILES O=C(NCCCCNC(=O)c1ccccc1/C=C1\SC(=S)N(Cc2ccccc2)C1=O)c1ccc(-c2c3nc(c(-c4c(F)c(F)c(F)c(F)c4F)c4ccc([nH]4)c(-c4c(F)c(F)c(F)c(F)c4F)c4nc(c(-c5c(F)c(F)c(F)c(F)c5F)c5ccc2[nH]5)C=C4)C=C3)cc1
REMARK SMILES IDX 6 1 5 2 4 3 3 4 1 5 2 6 32 8 33 9 94 10 34 11 93 12 35 13
REMARK SMILES IDX 36 14 37 15 87 16 38 17 92 18 86 19 88 20 39 21 91 22 85 23
REMARK SMILES IDX 84 24 40 26 72 27 52 28 71 29 53 30 56 31 70 32 89 33 54 34
REMARK SMILES IDX 55 35 69 37 90 38 57 39 41 40 42 41 50 42 43 43 44 44 48 45
REMARK SMILES IDX 51 46 45 47 46 48 49 49 47 50 73 51 74 52 82 53 75 54 76 55
REMARK SMILES IDX 80 56 83 57 77 58 78 59 81 60 79 61 58 62 59 63 67 64 60 65
REMARK SMILES IDX 61 66 65 67 68 68 62 69 63 70 66 71 64 72 7 73 8 74 9 75
REMARK SMILES IDX 10 77 11 78 12 79 16 80 13 81 15 82 14 83 17 84 18 85 19 86
REMARK SMILES IDX 30 87 20 88 22 89 31 90 21 91 23 92 24 93 25 94 29 95 26 96
REMARK SMILES IDX 28 97 27 98
REMARK H PARENT 3 7 88 25 56 36 8 76
REMARK Flexibility Score: inf
ROOT
ATOM      1  C   UNL A   1      37.460  21.769  24.348  1.00  0.00     0.023 C 
ENDROOT
BRANCH   1   2
ATOM      2  C   UNL A   1      37.866  20.423  24.940  1.00  0.00     0.023 C 
BRANCH   2   3
ATOM      3  C   UNL A   1      38.898  20.483  26.057  1.00  0.00     0.116 C 
BRANCH   3   4
ATOM      4  N   UNL A   1      39.921  19.451  25.953  1.00  0.00    -0.352 N 
ATOM      5  O   UNL A   1      42.011  18.601  25.787  1.00  0.00    -0.269 OA
ATOM      6  C   UNL A   1      41.291  19.564  26.034  1.00  0.00     0.251 C 
ATOM      7  H   UNL A   1      39.584  18.539  25.800  1.00  0.00     0.163 HD
BRANCH   6   8
ATOM      8  C   UNL A   1      41.900  20.863  26.394  1.00  0.00     0.039 A 
ATOM      9  C   UNL A   1      42.197  21.156  27.724  1.00  0.00     0.014 A 
ATOM     10  C   UNL A   1      42.159  21.808  25.395  1.00  0.00     0.014 A 
ATOM     11  C   UNL A   1      42.563  22.447  28.077  1.00  0.00     0.010 A 
ATOM     12  C   UNL A   1      42.640  23.076  25.743  1.00  0.00     0.010 A 
ATOM     13  C   UNL A   1      42.806  23.421  27.091  1.00  0.00    -0.014 A 
BRANCH  13  14
ATOM     14  C   UNL A   1      43.291  24.758  27.524  1.00  0.00     0.031 A 
ATOM     15  C   UNL A   1      44.709  25.200  27.290  1.00  0.00     0.074 A 
ATOM     16  C   UNL A   1      42.399  25.610  28.067  1.00  0.00     0.049 A 
ATOM     17  N   UNL A   1      45.255  26.368  27.530  1.00  0.00    -0.248 NA
ATOM     18  C   UNL A   1      45.639  24.212  26.723  1.00  0.00     0.031 C 
ATOM     19  C   UNL A   1      41.002  25.282  28.367  1.00  0.00     0.029 A 
ATOM     20  N   UNL A   1      42.512  26.928  28.425  1.00  0.00    -0.354 N 
ATOM     21  C   UNL A   1      46.588  26.252  27.154  1.00  0.00     0.074 A 
ATOM     22  C   UNL A   1      46.779  24.892  26.699  1.00  0.00     0.031 C 
ATOM     23  C   UNL A   1      40.372  26.383  28.794  1.00  0.00     0.029 A 
ATOM     24  C   UNL A   1      41.333  27.478  28.865  1.00  0.00     0.049 A 
ATOM     25  H   UNL A   1      43.357  27.432  28.373  1.00  0.00     0.167 HD
ATOM     26  C   UNL A   1      47.558  27.199  27.179  1.00  0.00     0.037 A 
ATOM     27  C   UNL A   1      41.052  28.724  29.287  1.00  0.00     0.037 A 
ATOM     28  C   UNL A   1      47.359  28.556  27.623  1.00  0.00     0.049 A 
ATOM     29  C   UNL A   1      42.145  29.751  29.293  1.00  0.00     0.074 A 
ATOM     30  C   UNL A   1      48.278  29.591  27.679  1.00  0.00     0.029 A 
ATOM     31  N   UNL A   1      46.157  29.070  28.086  1.00  0.00    -0.354 N 
ATOM     32  N   UNL A   1      43.395  29.629  28.919  1.00  0.00    -0.248 NA
ATOM     33  C   UNL A   1      41.789  31.089  29.782  1.00  0.00     0.031 C 
ATOM     34  C   UNL A   1      47.641  30.719  28.208  1.00  0.00     0.029 A 
ATOM     35  C   UNL A   1      46.314  30.401  28.440  1.00  0.00     0.049 A 
ATOM     36  H   UNL A   1      45.315  28.564  28.153  1.00  0.00     0.167 HD
ATOM     37  C   UNL A   1      43.976  30.870  29.127  1.00  0.00     0.074 A 
ATOM     38  C   UNL A   1      42.931  31.743  29.620  1.00  0.00     0.031 C 
ATOM     39  C   UNL A   1      45.264  31.251  28.941  1.00  0.00     0.037 A 
BRANCH  26  40
ATOM     40  C   UNL A   1      48.932  26.808  26.716  1.00  0.00     0.064 A 
ATOM     41  C   UNL A   1      49.336  26.987  25.385  1.00  0.00     0.173 A 
ATOM     42  C   UNL A   1      49.881  26.319  27.628  1.00  0.00     0.173 A 
ATOM     43  F   UNL A   1      48.466  27.443  24.471  1.00  0.00    -0.203 F 
ATOM     44  C   UNL A   1      50.633  26.679  24.981  1.00  0.00     0.198 A 
ATOM     45  C   UNL A   1      51.183  26.035  27.226  1.00  0.00     0.198 A 
ATOM     46  F   UNL A   1      49.549  26.136  28.915  1.00  0.00    -0.203 F 
ATOM     47  F   UNL A   1      50.989  26.831  23.697  1.00  0.00    -0.200 F 
ATOM     48  C   UNL A   1      51.558  26.212  25.903  1.00  0.00     0.200 A 
ATOM     49  F   UNL A   1      52.079  25.596  28.122  1.00  0.00    -0.200 F 
ATOM     50  F   UNL A   1      52.810  25.930  25.516  1.00  0.00    -0.200 F 
ENDBRANCH  26  40
BRANCH  27  51
ATOM     51  C   UNL A   1      39.680  29.054  29.749  1.00  0.00     0.064 A 
ATOM     52  C   UNL A   1      38.705  29.522  28.858  1.00  0.00     0.173 A 
ATOM     53  C   UNL A   1      39.313  28.898  31.094  1.00  0.00     0.173 A 
ATOM     54  F   UNL A   1      39.011  29.703  27.564  1.00  0.00    -0.203 F 
ATOM     55  C   UNL A   1      37.422  29.839  29.298  1.00  0.00     0.198 A 
ATOM     56  C   UNL A   1      38.021  29.183  31.527  1.00  0.00     0.198 A 
ATOM     57  F   UNL A   1      40.207  28.446  31.986  1.00  0.00    -0.203 F 
ATOM     58  F   UNL A   1      36.521  30.329  28.434  1.00  0.00    -0.200 F 
ATOM     59  C   UNL A   1      37.078  29.662  30.630  1.00  0.00     0.200 A 
ATOM     60  F   UNL A   1      37.690  28.991  32.810  1.00  0.00    -0.200 F 
ATOM     61  F   UNL A   1      35.842  29.958  31.051  1.00  0.00    -0.200 F 
ENDBRANCH  27  51
BRANCH  39  62
ATOM     62  C   UNL A   1      45.600  32.674  29.275  1.00  0.00     0.064 A 
ATOM     63  C   UNL A   1      46.036  33.041  30.557  1.00  0.00     0.173 A 
ATOM     64  C   UNL A   1      45.480  33.681  28.307  1.00  0.00     0.173 A 
ATOM     65  F   UNL A   1      46.148  32.115  31.522  1.00  0.00    -0.203 F 
ATOM     66  C   UNL A   1      46.304  34.370  30.868  1.00  0.00     0.198 A 
ATOM     67  C   UNL A   1      45.778  35.006  28.614  1.00  0.00     0.198 A 
ATOM     68  F   UNL A   1      45.072  33.382  27.065  1.00  0.00    -0.203 F 
ATOM     69  F   UNL A   1      46.661  34.705  32.117  1.00  0.00    -0.200 F 
ATOM     70  C   UNL A   1      46.179  35.351  29.896  1.00  0.00     0.200 A 
ATOM     71  F   UNL A   1      45.666  35.952  27.671  1.00  0.00    -0.200 F 
ATOM     72  F   UNL A   1      46.432  36.631  30.199  1.00  0.00    -0.200 F 
ENDBRANCH  39  62
ENDBRANCH  13  14
ENDBRANCH   6   8
ENDBRANCH   3   4
ENDBRANCH   2   3
ENDBRANCH   1   2
BRANCH   1  73
ATOM     73  C   UNL A   1      35.962  22.049  24.339  1.00  0.00     0.116 C 
BRANCH  73  74
ATOM     74  N   UNL A   1      35.327  21.828  25.627  1.00  0.00    -0.352 N 
ATOM     75  C   UNL A   1      34.361  20.912  25.966  1.00  0.00     0.251 C 
ATOM     76  H   UNL A   1      35.631  22.413  26.358  1.00  0.00     0.163 HD
ATOM     77  O   UNL A   1      33.904  20.895  27.105  1.00  0.00    -0.269 OA
BRANCH  75  78
ATOM     78  C   UNL A   1      33.837  19.974  24.948  1.00  0.00     0.047 A 
ATOM     79  C   UNL A   1      34.569  18.794  24.756  1.00  0.00     0.014 A 
ATOM     80  C   UNL A   1      32.656  20.214  24.219  1.00  0.00    -0.012 A 
ATOM     81  C   UNL A   1      34.093  17.818  23.884  1.00  0.00     0.001 A 
ATOM     82  C   UNL A   1      32.186  19.219  23.354  1.00  0.00     0.009 A 
ATOM     83  C   UNL A   1      32.898  18.026  23.192  1.00  0.00     0.001 A 
BRANCH  80  84
ATOM     84  C   UNL A   1      31.835  21.410  24.435  1.00  0.00     0.030 C 
ATOM     85  C   UNL A   1      31.966  22.601  23.839  1.00  0.00     0.081 C 
ATOM     86  S   UNL A   1      32.902  23.045  22.481  1.00  0.00    -0.054 SA
ATOM     87  C   UNL A   1      31.294  23.791  24.413  1.00  0.00     0.266 C 
ATOM     88  C   UNL A   1      32.325  24.714  22.522  1.00  0.00     0.148 C 
ATOM     89  N   UNL A   1      31.489  24.894  23.605  1.00  0.00    -0.288 N 
ATOM     90  O   UNL A   1      30.739  23.774  25.505  1.00  0.00    -0.268 OA
ATOM     91  S   UNL A   1      32.794  25.837  21.381  1.00  0.00    -0.052 S 
BRANCH  89  92
ATOM     92  C   UNL A   1      30.869  26.159  23.996  1.00  0.00     0.163 C 
BRANCH  92  93
ATOM     93  C   UNL A   1      31.671  26.886  25.054  1.00  0.00    -0.028 A 
ATOM     94  C   UNL A   1      31.114  27.179  26.305  1.00  0.00     0.005 A 
ATOM     95  C   UNL A   1      33.002  27.261  24.806  1.00  0.00     0.005 A 
ATOM     96  C   UNL A   1      31.873  27.829  27.283  1.00  0.00     0.000 A 
ATOM     97  C   UNL A   1      33.763  27.895  25.787  1.00  0.00     0.000 A 
ATOM     98  C   UNL A   1      33.197  28.180  27.026  1.00  0.00     0.000 A 
ENDBRANCH  92  93
ENDBRANCH  89  92
ENDBRANCH  80  84
ENDBRANCH  75  78
ENDBRANCH  73  74
ENDBRANCH   1  73
TORSDOF 14
ENDMDL
