MODEL 1
REMARK VINA RESULT:     -13.9      0.000      0.000
REMARK SMILES COc1ccc(-c2nc3cc(N4C[C@@H](C(=O)NCCCCNC(=O)c5ccc(-c6c7nc(c(-c8c(F)c(F)c(F)c(F)c8F)c8ccc([nH]8)c(-c8c(F)c(F)c(F)c(F)c8F)c8nc(c(-c9c(F)c(F)c(F)c(F)c9F)c9ccc6[nH]9)C=C8)C=C7)cc5)CC4=O)ccc3o2)cc1
REMARK SMILES IDX 19 1 18 2 17 3 15 4 16 5 14 7 12 8 13 9 89 10 88 11 90 12
REMARK SMILES IDX 11 13 7 14 8 15 94 16 9 17 93 18 10 19 92 20 91 21 6 22 3 23
REMARK SMILES IDX 4 24 96 25 5 26 95 27 2 28 1 29 20 30 21 31 22 32 23 33
REMARK SMILES IDX 24 35 25 36 26 37 87 38 27 39 86 40 28 41 29 42 30 43 80 44
REMARK SMILES IDX 31 45 85 46 79 47 81 48 32 49 84 50 78 51 77 52 33 54 65 55
REMARK SMILES IDX 45 56 64 57 46 58 49 59 63 60 82 61 47 62 48 63 62 65 83 66
REMARK SMILES IDX 50 67 34 68 35 69 43 70 36 71 37 72 41 73 44 74 38 75 39 76
REMARK SMILES IDX 42 77 40 78 66 79 67 80 75 81 68 82 69 83 73 84 76 85 70 86
REMARK SMILES IDX 71 87 74 88 72 89 51 90 52 91 60 92 53 93 54 94 58 95 61 96
REMARK SMILES IDX 55 97 56 98 59 99 57 100
REMARK H PARENT 17 6 22 34 81 53 49 64
REMARK Flexibility Score: inf
ROOT
ATOM      1  C   UNL A   1      31.787  30.349  26.739  1.00  0.00     0.023 C 
ENDROOT
BRANCH   1   2
ATOM      2  C   UNL A   1      31.404  29.626  25.451  1.00  0.00     0.116 C 
BRANCH   2   3
ATOM      3  N   UNL A   1      32.398  29.836  24.414  1.00  0.00    -0.356 N 
ATOM      4  C   UNL A   1      32.957  28.975  23.526  1.00  0.00     0.225 C 
ATOM      5  O   UNL A   1      33.812  29.426  22.760  1.00  0.00    -0.275 OA
ATOM      6  H   UNL A   1      32.724  30.762  24.344  1.00  0.00     0.163 HD
BRANCH   4   7
ATOM      7  C   UNL A   1      32.514  27.536  23.401  1.00  0.00     0.107 C 
ATOM      8  N   UNL A   1      33.629  25.461  23.314  1.00  0.00    -0.312 N 
ATOM      9  C   UNL A   1      33.453  26.621  24.153  1.00  0.00     0.139 C 
ATOM     10  C   UNL A   1      33.146  25.659  22.021  1.00  0.00     0.227 C 
ATOM     11  C   UNL A   1      32.395  26.973  21.994  1.00  0.00     0.116 C 
ATOM     12  O   UNL A   1      33.225  24.917  21.062  1.00  0.00    -0.274 OA
BRANCH   8  13
ATOM     13  C   UNL A   1      34.197  24.261  23.806  1.00  0.00     0.046 A 
ATOM     14  C   UNL A   1      34.161  19.942  24.857  1.00  0.00     0.227 A 
ATOM     15  N   UNL A   1      33.191  20.819  24.707  1.00  0.00    -0.209 NA
ATOM     16  O   UNL A   1      35.433  20.467  24.836  1.00  0.00    -0.436 OA
ATOM     17  C   UNL A   1      33.850  21.982  24.487  1.00  0.00     0.112 A 
ATOM     18  C   UNL A   1      35.217  21.796  24.555  1.00  0.00     0.155 A 
ATOM     19  C   UNL A   1      33.324  23.224  24.154  1.00  0.00     0.058 A 
ATOM     20  C   UNL A   1      36.135  22.809  24.307  1.00  0.00     0.051 A 
ATOM     21  C   UNL A   1      35.585  24.045  23.893  1.00  0.00     0.030 A 
BRANCH  14  22
ATOM     22  C   UNL A   1      33.981  18.504  24.841  1.00  0.00     0.037 A 
ATOM     23  C   UNL A   1      33.633  15.740  25.182  1.00  0.00     0.118 A 
ATOM     24  C   UNL A   1      34.725  16.240  24.461  1.00  0.00     0.047 A 
ATOM     25  C   UNL A   1      32.710  16.624  25.732  1.00  0.00     0.047 A 
ATOM     26  C   UNL A   1      34.894  17.618  24.273  1.00  0.00     0.017 A 
ATOM     27  C   UNL A   1      32.887  17.994  25.560  1.00  0.00     0.017 A 
BRANCH  23  28
ATOM     28  O   UNL A   1      33.594  14.382  25.339  1.00  0.00    -0.497 OA
ATOM     29  C   UNL A   1      32.342  13.855  25.771  1.00  0.00     0.278 C 
ENDBRANCH  23  28
ENDBRANCH  14  22
ENDBRANCH   8  13
ENDBRANCH   4   7
ENDBRANCH   2   3
ENDBRANCH   1   2
BRANCH   1  30
ATOM     30  C   UNL A   1      31.655  31.870  26.669  1.00  0.00     0.023 C 
BRANCH  30  31
ATOM     31  C   UNL A   1      32.811  32.644  27.291  1.00  0.00     0.116 C 
BRANCH  31  32
ATOM     32  N   UNL A   1      32.464  34.021  27.609  1.00  0.00    -0.352 N 
ATOM     33  C   UNL A   1      32.998  34.850  28.564  1.00  0.00     0.251 C 
ATOM     34  H   UNL A   1      31.745  34.413  27.063  1.00  0.00     0.163 HD
ATOM     35  O   UNL A   1      32.489  35.942  28.792  1.00  0.00    -0.269 OA
BRANCH  33  36
ATOM     36  C   UNL A   1      34.169  34.402  29.345  1.00  0.00     0.039 A 
ATOM     37  C   UNL A   1      33.957  33.746  30.559  1.00  0.00     0.014 A 
ATOM     38  C   UNL A   1      35.466  34.600  28.866  1.00  0.00     0.014 A 
ATOM     39  C   UNL A   1      35.044  33.220  31.258  1.00  0.00     0.010 A 
ATOM     40  C   UNL A   1      36.540  34.005  29.522  1.00  0.00     0.010 A 
ATOM     41  C   UNL A   1      36.340  33.307  30.721  1.00  0.00    -0.014 A 
BRANCH  41  42
ATOM     42  C   UNL A   1      37.492  32.653  31.391  1.00  0.00     0.031 A 
ATOM     43  C   UNL A   1      38.183  31.487  30.744  1.00  0.00     0.074 A 
ATOM     44  C   UNL A   1      37.867  33.066  32.618  1.00  0.00     0.049 A 
ATOM     45  N   UNL A   1      39.162  30.747  31.202  1.00  0.00    -0.248 NA
ATOM     46  C   UNL A   1      37.689  31.076  29.421  1.00  0.00     0.031 C 
ATOM     47  C   UNL A   1      37.236  34.148  33.375  1.00  0.00     0.029 A 
ATOM     48  N   UNL A   1      38.860  32.614  33.451  1.00  0.00    -0.354 N 
ATOM     49  C   UNL A   1      39.390  29.780  30.233  1.00  0.00     0.074 A 
ATOM     50  C   UNL A   1      38.412  29.991  29.187  1.00  0.00     0.031 C 
ATOM     51  C   UNL A   1      37.868  34.291  34.549  1.00  0.00     0.029 A 
ATOM     52  C   UNL A   1      38.923  33.285  34.647  1.00  0.00     0.049 A 
ATOM     53  H   UNL A   1      39.470  31.878  33.213  1.00  0.00     0.167 HD
ATOM     54  C   UNL A   1      40.342  28.817  30.208  1.00  0.00     0.037 A 
ATOM     55  C   UNL A   1      39.731  33.104  35.709  1.00  0.00     0.037 A 
ATOM     56  C   UNL A   1      41.327  28.628  31.240  1.00  0.00     0.049 A 
ATOM     57  C   UNL A   1      40.781  32.028  35.656  1.00  0.00     0.074 A 
ATOM     58  C   UNL A   1      42.382  27.733  31.272  1.00  0.00     0.029 A 
ATOM     59  N   UNL A   1      41.373  29.340  32.431  1.00  0.00    -0.354 N 
ATOM     60  N   UNL A   1      41.043  31.175  34.697  1.00  0.00    -0.248 NA
ATOM     61  C   UNL A   1      41.653  31.897  36.830  1.00  0.00     0.031 C 
ATOM     62  C   UNL A   1      43.030  27.862  32.505  1.00  0.00     0.029 A 
ATOM     63  C   UNL A   1      42.418  28.881  33.217  1.00  0.00     0.049 A 
ATOM     64  H   UNL A   1      40.754  30.064  32.680  1.00  0.00     0.167 HD
ATOM     65  C   UNL A   1      42.121  30.421  35.139  1.00  0.00     0.074 A 
ATOM     66  C   UNL A   1      42.477  30.932  36.447  1.00  0.00     0.031 C 
ATOM     67  C   UNL A   1      42.759  29.397  34.519  1.00  0.00     0.037 A 
BRANCH  54  68
ATOM     68  C   UNL A   1      40.363  27.891  29.026  1.00  0.00     0.064 A 
ATOM     69  C   UNL A   1      39.620  26.700  29.006  1.00  0.00     0.173 A 
ATOM     70  C   UNL A   1      41.112  28.213  27.883  1.00  0.00     0.173 A 
ATOM     71  F   UNL A   1      38.894  26.338  30.076  1.00  0.00    -0.203 F 
ATOM     72  C   UNL A   1      39.652  25.851  27.902  1.00  0.00     0.198 A 
ATOM     73  C   UNL A   1      41.114  27.379  26.768  1.00  0.00     0.198 A 
ATOM     74  F   UNL A   1      41.835  29.342  27.845  1.00  0.00    -0.203 F 
ATOM     75  F   UNL A   1      38.978  24.694  27.930  1.00  0.00    -0.200 F 
ATOM     76  C   UNL A   1      40.394  26.195  26.782  1.00  0.00     0.200 A 
ATOM     77  F   UNL A   1      41.820  27.720  25.681  1.00  0.00    -0.200 F 
ATOM     78  F   UNL A   1      40.418  25.381  25.717  1.00  0.00    -0.200 F 
ENDBRANCH  54  68
BRANCH  55  79
ATOM     79  C   UNL A   1      39.586  33.976  36.904  1.00  0.00     0.064 A 
ATOM     80  C   UNL A   1      38.807  33.574  37.999  1.00  0.00     0.173 A 
ATOM     81  C   UNL A   1      40.227  35.220  36.982  1.00  0.00     0.173 A 
ATOM     82  F   UNL A   1      38.157  32.401  37.964  1.00  0.00    -0.203 F 
ATOM     83  C   UNL A   1      38.660  34.392  39.117  1.00  0.00     0.198 A 
ATOM     84  C   UNL A   1      40.106  36.024  38.113  1.00  0.00     0.198 A 
ATOM     85  F   UNL A   1      40.990  35.648  35.964  1.00  0.00    -0.203 F 
ATOM     86  F   UNL A   1      37.875  34.004  40.131  1.00  0.00    -0.200 F 
ATOM     87  C   UNL A   1      39.316  35.614  39.177  1.00  0.00     0.200 A 
ATOM     88  F   UNL A   1      40.753  37.196  38.173  1.00  0.00    -0.200 F 
ATOM     89  F   UNL A   1      39.182  36.396  40.256  1.00  0.00    -0.200 F 
ENDBRANCH  55  79
BRANCH  67  90
ATOM     90  C   UNL A   1      43.924  28.776  35.236  1.00  0.00     0.064 A 
ATOM     91  C   UNL A   1      43.755  27.710  36.131  1.00  0.00     0.173 A 
ATOM     92  C   UNL A   1      45.230  29.230  34.995  1.00  0.00     0.173 A 
ATOM     93  F   UNL A   1      42.525  27.249  36.408  1.00  0.00    -0.203 F 
ATOM     94  C   UNL A   1      44.848  27.138  36.778  1.00  0.00     0.198 A 
ATOM     95  C   UNL A   1      46.322  28.633  35.617  1.00  0.00     0.198 A 
ATOM     96  F   UNL A   1      45.447  30.243  34.142  1.00  0.00    -0.203 F 
ATOM     97  F   UNL A   1      44.656  26.153  37.667  1.00  0.00    -0.200 F 
ATOM     98  C   UNL A   1      46.130  27.595  36.515  1.00  0.00     0.200 A 
ATOM     99  F   UNL A   1      47.563  29.067  35.350  1.00  0.00    -0.200 F 
ATOM    100  F   UNL A   1      47.180  27.037  37.131  1.00  0.00    -0.200 F 
ENDBRANCH  67  90
ENDBRANCH  41  42
ENDBRANCH  33  36
ENDBRANCH  31  32
ENDBRANCH  30  31
ENDBRANCH   1  30
TORSDOF 14
ENDMDL
MODEL 2
REMARK VINA RESULT:     -13.6      1.745      2.521
REMARK SMILES COc1ccc(-c2nc3cc(N4C[C@@H](C(=O)NCCCCNC(=O)c5ccc(-c6c7nc(c(-c8c(F)c(F)c(F)c(F)c8F)c8ccc([nH]8)c(-c8c(F)c(F)c(F)c(F)c8F)c8nc(c(-c9c(F)c(F)c(F)c(F)c9F)c9ccc6[nH]9)C=C8)C=C7)cc5)CC4=O)ccc3o2)cc1
REMARK SMILES IDX 19 1 18 2 17 3 15 4 16 5 14 7 12 8 13 9 89 10 88 11 90 12
REMARK SMILES IDX 11 13 7 14 8 15 94 16 9 17 93 18 10 19 92 20 91 21 6 22 3 23
REMARK SMILES IDX 4 24 96 25 5 26 95 27 2 28 1 29 20 30 21 31 22 32 23 33
REMARK SMILES IDX 24 35 25 36 26 37 87 38 27 39 86 40 28 41 29 42 30 43 80 44
REMARK SMILES IDX 31 45 85 46 79 47 81 48 32 49 84 50 78 51 77 52 33 54 65 55
REMARK SMILES IDX 45 56 64 57 46 58 49 59 63 60 82 61 47 62 48 63 62 65 83 66
REMARK SMILES IDX 50 67 34 68 35 69 43 70 36 71 37 72 41 73 44 74 38 75 39 76
REMARK SMILES IDX 42 77 40 78 66 79 67 80 75 81 68 82 69 83 73 84 76 85 70 86
REMARK SMILES IDX 71 87 74 88 72 89 51 90 52 91 60 92 53 93 54 94 58 95 61 96
REMARK SMILES IDX 55 97 56 98 59 99 57 100
REMARK H PARENT 17 6 22 34 81 53 49 64
REMARK Flexibility Score: inf
ROOT
ATOM      1  C   UNL A   1      31.949  30.219  26.789  1.00  0.00     0.023 C 
ENDROOT
BRANCH   1   2
ATOM      2  C   UNL A   1      31.482  29.532  25.509  1.00  0.00     0.116 C 
BRANCH   2   3
ATOM      3  N   UNL A   1      32.441  29.714  24.435  1.00  0.00    -0.356 N 
ATOM      4  C   UNL A   1      32.944  28.838  23.529  1.00  0.00     0.225 C 
ATOM      5  O   UNL A   1      33.780  29.265  22.729  1.00  0.00    -0.275 OA
ATOM      6  H   UNL A   1      32.788  30.632  24.349  1.00  0.00     0.163 HD
BRANCH   4   7
ATOM      7  C   UNL A   1      32.460  27.410  23.425  1.00  0.00     0.107 C 
ATOM      8  N   UNL A   1      33.518  25.309  23.279  1.00  0.00    -0.312 N 
ATOM      9  C   UNL A   1      33.413  26.471  24.128  1.00  0.00     0.139 C 
ATOM     10  C   UNL A   1      32.975  25.521  22.013  1.00  0.00     0.227 C 
ATOM     11  C   UNL A   1      32.256  26.853  22.026  1.00  0.00     0.116 C 
ATOM     12  O   UNL A   1      32.987  24.779  21.051  1.00  0.00    -0.274 OA
BRANCH   8  13
ATOM     13  C   UNL A   1      34.080  24.094  23.741  1.00  0.00     0.046 A 
ATOM     14  C   UNL A   1      37.417  21.444  25.008  1.00  0.00     0.227 A 
ATOM     15  N   UNL A   1      37.389  22.529  24.262  1.00  0.00    -0.209 NA
ATOM     16  O   UNL A   1      36.184  20.935  25.347  1.00  0.00    -0.436 OA
ATOM     17  C   UNL A   1      36.068  22.810  24.167  1.00  0.00     0.112 A 
ATOM     18  C   UNL A   1      35.311  21.859  24.822  1.00  0.00     0.155 A 
ATOM     19  C   UNL A   1      35.459  23.915  23.583  1.00  0.00     0.058 A 
ATOM     20  C   UNL A   1      33.928  21.935  24.937  1.00  0.00     0.051 A 
ATOM     21  C   UNL A   1      33.333  23.104  24.406  1.00  0.00     0.030 A 
BRANCH  14  22
ATOM     22  C   UNL A   1      38.609  20.902  25.629  1.00  0.00     0.037 A 
ATOM     23  C   UNL A   1      41.104  20.116  26.647  1.00  0.00     0.118 A 
ATOM     24  C   UNL A   1      40.303  19.212  25.938  1.00  0.00     0.047 A 
ATOM     25  C   UNL A   1      40.655  21.417  26.852  1.00  0.00     0.047 A 
ATOM     26  C   UNL A   1      39.049  19.594  25.443  1.00  0.00     0.017 A 
ATOM     27  C   UNL A   1      39.417  21.802  26.345  1.00  0.00     0.017 A 
BRANCH  23  28
ATOM     28  O   UNL A   1      42.326  19.647  27.045  1.00  0.00    -0.497 OA
ATOM     29  C   UNL A   1      42.748  18.440  26.415  1.00  0.00     0.278 C 
ENDBRANCH  23  28
ENDBRANCH  14  22
ENDBRANCH   8  13
ENDBRANCH   4   7
ENDBRANCH   2   3
ENDBRANCH   1   2
BRANCH   1  30
ATOM     30  C   UNL A   1      31.679  31.723  26.831  1.00  0.00     0.023 C 
BRANCH  30  31
ATOM     31  C   UNL A   1      32.874  32.579  27.231  1.00  0.00     0.116 C 
BRANCH  31  32
ATOM     32  N   UNL A   1      32.503  33.946  27.569  1.00  0.00    -0.352 N 
ATOM     33  C   UNL A   1      33.019  34.768  28.539  1.00  0.00     0.251 C 
ATOM     34  H   UNL A   1      31.781  34.335  27.024  1.00  0.00     0.163 HD
ATOM     35  O   UNL A   1      32.492  35.848  28.781  1.00  0.00    -0.269 OA
BRANCH  33  36
ATOM     36  C   UNL A   1      34.193  34.326  29.320  1.00  0.00     0.039 A 
ATOM     37  C   UNL A   1      33.985  33.685  30.542  1.00  0.00     0.014 A 
ATOM     38  C   UNL A   1      35.488  34.516  28.832  1.00  0.00     0.014 A 
ATOM     39  C   UNL A   1      35.074  33.165  31.241  1.00  0.00     0.010 A 
ATOM     40  C   UNL A   1      36.564  33.927  29.489  1.00  0.00     0.010 A 
ATOM     41  C   UNL A   1      36.368  33.243  30.698  1.00  0.00    -0.014 A 
BRANCH  41  42
ATOM     42  C   UNL A   1      37.522  32.594  31.369  1.00  0.00     0.031 A 
ATOM     43  C   UNL A   1      38.210  31.421  30.731  1.00  0.00     0.074 A 
ATOM     44  C   UNL A   1      37.902  33.019  32.591  1.00  0.00     0.049 A 
ATOM     45  N   UNL A   1      39.190  30.685  31.193  1.00  0.00    -0.248 NA
ATOM     46  C   UNL A   1      37.710  30.998  29.414  1.00  0.00     0.031 C 
ATOM     47  C   UNL A   1      37.275  34.109  33.339  1.00  0.00     0.029 A 
ATOM     48  N   UNL A   1      38.898  32.574  33.424  1.00  0.00    -0.354 N 
ATOM     49  C   UNL A   1      39.413  29.708  30.232  1.00  0.00     0.074 A 
ATOM     50  C   UNL A   1      38.431  29.910  29.188  1.00  0.00     0.031 C 
ATOM     51  C   UNL A   1      37.912  34.263  34.510  1.00  0.00     0.029 A 
ATOM     52  C   UNL A   1      38.966  33.257  34.613  1.00  0.00     0.049 A 
ATOM     53  H   UNL A   1      39.506  31.835  33.191  1.00  0.00     0.167 HD
ATOM     54  C   UNL A   1      40.364  28.745  30.212  1.00  0.00     0.037 A 
ATOM     55  C   UNL A   1      39.778  33.086  35.674  1.00  0.00     0.037 A 
ATOM     56  C   UNL A   1      41.353  28.564  31.243  1.00  0.00     0.049 A 
ATOM     57  C   UNL A   1      40.827  32.008  35.628  1.00  0.00     0.074 A 
ATOM     58  C   UNL A   1      42.407  27.668  31.280  1.00  0.00     0.029 A 
ATOM     59  N   UNL A   1      41.404  29.288  32.427  1.00  0.00    -0.354 N 
ATOM     60  N   UNL A   1      41.084  31.145  34.676  1.00  0.00    -0.248 NA
ATOM     61  C   UNL A   1      41.704  31.887  36.800  1.00  0.00     0.031 C 
ATOM     62  C   UNL A   1      43.059  27.809  32.508  1.00  0.00     0.029 A 
ATOM     63  C   UNL A   1      42.451  28.836  33.213  1.00  0.00     0.049 A 
ATOM     64  H   UNL A   1      40.787  30.015  32.670  1.00  0.00     0.167 HD
ATOM     65  C   UNL A   1      42.164  30.394  35.121  1.00  0.00     0.074 A 
ATOM     66  C   UNL A   1      42.525  30.918  36.423  1.00  0.00     0.031 C 
ATOM     67  C   UNL A   1      42.798  29.364  34.509  1.00  0.00     0.037 A 
BRANCH  54  68
ATOM     68  C   UNL A   1      40.379  27.807  29.040  1.00  0.00     0.064 A 
ATOM     69  C   UNL A   1      39.623  26.624  29.028  1.00  0.00     0.173 A 
ATOM     70  C   UNL A   1      41.137  28.109  27.898  1.00  0.00     0.173 A 
ATOM     71  F   UNL A   1      38.888  26.281  30.097  1.00  0.00    -0.203 F 
ATOM     72  C   UNL A   1      39.650  25.765  27.932  1.00  0.00     0.198 A 
ATOM     73  C   UNL A   1      41.135  27.265  26.790  1.00  0.00     0.198 A 
ATOM     74  F   UNL A   1      41.874  29.229  27.852  1.00  0.00    -0.203 F 
ATOM     75  F   UNL A   1      38.962  24.616  27.967  1.00  0.00    -0.200 F 
ATOM     76  C   UNL A   1      40.401  26.089  26.812  1.00  0.00     0.200 A 
ATOM     77  F   UNL A   1      41.850  27.587  25.703  1.00  0.00    -0.200 F 
ATOM     78  F   UNL A   1      40.421  25.264  25.755  1.00  0.00    -0.200 F 
ENDBRANCH  54  68
BRANCH  55  79
ATOM     79  C   UNL A   1      39.639  33.969  36.862  1.00  0.00     0.064 A 
ATOM     80  C   UNL A   1      38.867  33.577  37.965  1.00  0.00     0.173 A 
ATOM     81  C   UNL A   1      40.278  35.215  36.923  1.00  0.00     0.173 A 
ATOM     82  F   UNL A   1      38.219  32.403  37.945  1.00  0.00    -0.203 F 
ATOM     83  C   UNL A   1      38.725  34.406  39.075  1.00  0.00     0.198 A 
ATOM     84  C   UNL A   1      40.162  36.030  38.046  1.00  0.00     0.198 A 
ATOM     85  F   UNL A   1      41.034  35.633  35.897  1.00  0.00    -0.203 F 
ATOM     86  F   UNL A   1      37.946  34.027  40.097  1.00  0.00    -0.200 F 
ATOM     87  C   UNL A   1      39.379  35.629  39.119  1.00  0.00     0.200 A 
ATOM     88  F   UNL A   1      40.808  37.203  38.091  1.00  0.00    -0.200 F 
ATOM     89  F   UNL A   1      39.250  36.422  40.191  1.00  0.00    -0.200 F 
ENDBRANCH  55  79
BRANCH  67  90
ATOM     90  C   UNL A   1      43.965  28.749  35.228  1.00  0.00     0.064 A 
ATOM     91  C   UNL A   1      43.800  27.681  36.121  1.00  0.00     0.173 A 
ATOM     92  C   UNL A   1      45.269  29.209  34.988  1.00  0.00     0.173 A 
ATOM     93  F   UNL A   1      42.573  27.214  36.396  1.00  0.00    -0.203 F 
ATOM     94  C   UNL A   1      44.895  27.115  36.770  1.00  0.00     0.198 A 
ATOM     95  C   UNL A   1      46.364  28.618  35.612  1.00  0.00     0.198 A 
ATOM     96  F   UNL A   1      45.482  30.224  34.136  1.00  0.00    -0.203 F 
ATOM     97  F   UNL A   1      44.708  26.129  37.658  1.00  0.00    -0.200 F 
ATOM     98  C   UNL A   1      46.176  27.578  36.509  1.00  0.00     0.200 A 
ATOM     99  F   UNL A   1      47.602  29.058  35.347  1.00  0.00    -0.200 F 
ATOM    100  F   UNL A   1      47.228  27.026  37.126  1.00  0.00    -0.200 F 
ENDBRANCH  67  90
ENDBRANCH  41  42
ENDBRANCH  33  36
ENDBRANCH  31  32
ENDBRANCH  30  31
ENDBRANCH   1  30
TORSDOF 14
ENDMDL
MODEL 3
REMARK VINA RESULT:     -13.4      1.763      7.649
REMARK SMILES COc1ccc(-c2nc3cc(N4C[C@@H](C(=O)NCCCCNC(=O)c5ccc(-c6c7nc(c(-c8c(F)c(F)c(F)c(F)c8F)c8ccc([nH]8)c(-c8c(F)c(F)c(F)c(F)c8F)c8nc(c(-c9c(F)c(F)c(F)c(F)c9F)c9ccc6[nH]9)C=C8)C=C7)cc5)CC4=O)ccc3o2)cc1
REMARK SMILES IDX 19 1 18 2 17 3 15 4 16 5 14 7 12 8 13 9 89 10 88 11 90 12
REMARK SMILES IDX 11 13 7 14 8 15 94 16 9 17 93 18 10 19 92 20 91 21 6 22 3 23
REMARK SMILES IDX 4 24 96 25 5 26 95 27 2 28 1 29 20 30 21 31 22 32 23 33
REMARK SMILES IDX 24 35 25 36 26 37 87 38 27 39 86 40 28 41 29 42 30 43 80 44
REMARK SMILES IDX 31 45 85 46 79 47 81 48 32 49 84 50 78 51 77 52 33 54 65 55
REMARK SMILES IDX 45 56 64 57 46 58 49 59 63 60 82 61 47 62 48 63 62 65 83 66
REMARK SMILES IDX 50 67 34 68 35 69 43 70 36 71 37 72 41 73 44 74 38 75 39 76
REMARK SMILES IDX 42 77 40 78 66 79 67 80 75 81 68 82 69 83 73 84 76 85 70 86
REMARK SMILES IDX 71 87 74 88 72 89 51 90 52 91 60 92 53 93 54 94 58 95 61 96
REMARK SMILES IDX 55 97 56 98 59 99 57 100
REMARK H PARENT 17 6 22 34 81 53 49 64
REMARK Flexibility Score: inf
ROOT
ATOM      1  C   UNL A   1      34.305  34.150  28.413  1.00  0.00     0.023 C 
ENDROOT
BRANCH   1   2
ATOM      2  C   UNL A   1      34.352  32.758  29.037  1.00  0.00     0.116 C 
BRANCH   2   3
ATOM      3  N   UNL A   1      35.233  31.877  28.292  1.00  0.00    -0.356 N 
ATOM      4  C   UNL A   1      35.001  30.682  27.693  1.00  0.00     0.225 C 
ATOM      5  O   UNL A   1      35.956  30.128  27.141  1.00  0.00    -0.275 OA
ATOM      6  H   UNL A   1      36.158  32.202  28.209  1.00  0.00     0.163 HD
BRANCH   4   7
ATOM      7  C   UNL A   1      33.623  30.065  27.616  1.00  0.00     0.107 C 
ATOM      8  N   UNL A   1      32.622  28.410  26.269  1.00  0.00    -0.312 N 
ATOM      9  C   UNL A   1      33.710  28.617  27.194  1.00  0.00     0.139 C 
ATOM     10  C   UNL A   1      32.043  29.607  25.850  1.00  0.00     0.227 C 
ATOM     11  C   UNL A   1      32.624  30.729  26.684  1.00  0.00     0.116 C 
ATOM     12  O   UNL A   1      31.177  29.777  25.015  1.00  0.00    -0.274 OA
BRANCH   8  13
ATOM     13  C   UNL A   1      32.197  27.114  25.892  1.00  0.00     0.046 A 
ATOM     14  C   UNL A   1      32.817  22.914  24.574  1.00  0.00     0.227 A 
ATOM     15  N   UNL A   1      33.573  23.987  24.478  1.00  0.00    -0.209 NA
ATOM     16  O   UNL A   1      31.536  23.138  25.027  1.00  0.00    -0.436 OA
ATOM     17  C   UNL A   1      32.787  24.971  24.974  1.00  0.00     0.112 A 
ATOM     18  C   UNL A   1      31.542  24.482  25.321  1.00  0.00     0.155 A 
ATOM     19  C   UNL A   1      33.113  26.300  25.217  1.00  0.00     0.058 A 
ATOM     20  C   UNL A   1      30.557  25.262  25.914  1.00  0.00     0.051 A 
ATOM     21  C   UNL A   1      30.933  26.591  26.225  1.00  0.00     0.030 A 
BRANCH  14  22
ATOM     22  C   UNL A   1      33.294  21.553  24.430  1.00  0.00     0.037 A 
ATOM     23  C   UNL A   1      33.924  18.819  24.353  1.00  0.00     0.118 A 
ATOM     24  C   UNL A   1      34.835  19.749  24.869  1.00  0.00     0.047 A 
ATOM     25  C   UNL A   1      32.695  19.257  23.871  1.00  0.00     0.047 A 
ATOM     26  C   UNL A   1      34.534  21.117  24.893  1.00  0.00     0.017 A 
ATOM     27  C   UNL A   1      32.387  20.614  23.911  1.00  0.00     0.017 A 
BRANCH  23  28
ATOM     28  O   UNL A   1      34.307  17.507  24.421  1.00  0.00    -0.497 OA
ATOM     29  C   UNL A   1      33.429  16.583  23.783  1.00  0.00     0.278 C 
ENDBRANCH  23  28
ENDBRANCH  14  22
ENDBRANCH   8  13
ENDBRANCH   4   7
ENDBRANCH   2   3
ENDBRANCH   1   2
BRANCH   1  30
ATOM     30  C   UNL A   1      33.045  34.947  28.749  1.00  0.00     0.023 C 
BRANCH  30  31
ATOM     31  C   UNL A   1      33.293  36.267  29.468  1.00  0.00     0.116 C 
BRANCH  31  32
ATOM     32  N   UNL A   1      32.539  36.387  30.707  1.00  0.00    -0.352 N 
ATOM     33  C   UNL A   1      32.743  35.759  31.910  1.00  0.00     0.251 C 
ATOM     34  H   UNL A   1      31.774  37.007  30.678  1.00  0.00     0.163 HD
ATOM     35  O   UNL A   1      31.923  35.871  32.815  1.00  0.00    -0.269 OA
BRANCH  33  36
ATOM     36  C   UNL A   1      33.940  34.913  32.096  1.00  0.00     0.039 A 
ATOM     37  C   UNL A   1      35.195  35.451  31.803  1.00  0.00     0.014 A 
ATOM     38  C   UNL A   1      33.826  33.611  32.588  1.00  0.00     0.014 A 
ATOM     39  C   UNL A   1      36.343  34.708  32.074  1.00  0.00     0.010 A 
ATOM     40  C   UNL A   1      34.974  32.903  32.933  1.00  0.00     0.010 A 
ATOM     41  C   UNL A   1      36.243  33.445  32.683  1.00  0.00    -0.014 A 
BRANCH  41  42
ATOM     42  C   UNL A   1      37.456  32.690  33.086  1.00  0.00     0.031 A 
ATOM     43  C   UNL A   1      38.158  33.013  34.373  1.00  0.00     0.074 A 
ATOM     44  C   UNL A   1      37.965  31.761  32.252  1.00  0.00     0.049 A 
ATOM     45  N   UNL A   1      39.264  32.509  34.862  1.00  0.00    -0.248 NA
ATOM     46  C   UNL A   1      37.558  34.064  35.208  1.00  0.00     0.031 C 
ATOM     47  C   UNL A   1      37.408  31.400  30.948  1.00  0.00     0.029 A 
ATOM     48  N   UNL A   1      39.076  30.963  32.371  1.00  0.00    -0.354 N 
ATOM     49  C   UNL A   1      39.496  33.190  36.049  1.00  0.00     0.074 A 
ATOM     50  C   UNL A   1      38.449  34.180  36.181  1.00  0.00     0.031 C 
ATOM     51  C   UNL A   1      38.164  30.439  30.397  1.00  0.00     0.029 A 
ATOM     52  C   UNL A   1      39.282  30.144  31.289  1.00  0.00     0.049 A 
ATOM     53  H   UNL A   1      39.667  30.976  33.158  1.00  0.00     0.167 HD
ATOM     54  C   UNL A   1      40.481  32.991  36.958  1.00  0.00     0.037 A 
ATOM     55  C   UNL A   1      40.268  29.262  31.036  1.00  0.00     0.037 A 
ATOM     56  C   UNL A   1      41.506  31.989  36.832  1.00  0.00     0.049 A 
ATOM     57  C   UNL A   1      41.351  29.060  32.062  1.00  0.00     0.074 A 
ATOM     58  C   UNL A   1      42.502  31.655  37.734  1.00  0.00     0.029 A 
ATOM     59  N   UNL A   1      41.674  31.162  35.729  1.00  0.00    -0.354 N 
ATOM     60  N   UNL A   1      41.512  29.649  33.221  1.00  0.00    -0.248 NA
ATOM     61  C   UNL A   1      42.383  28.063  31.746  1.00  0.00     0.031 C 
ATOM     62  C   UNL A   1      43.306  30.670  37.153  1.00  0.00     0.029 A 
ATOM     63  C   UNL A   1      42.776  30.343  35.915  1.00  0.00     0.049 A 
ATOM     64  H   UNL A   1      41.095  31.158  34.933  1.00  0.00     0.167 HD
ATOM     65  C   UNL A   1      42.647  29.081  33.784  1.00  0.00     0.074 A 
ATOM     66  C   UNL A   1      43.124  28.087  32.845  1.00  0.00     0.031 C 
ATOM     67  C   UNL A   1      43.242  29.359  34.970  1.00  0.00     0.037 A 
BRANCH  54  68
ATOM     68  C   UNL A   1      40.499  33.880  38.168  1.00  0.00     0.064 A 
ATOM     69  C   UNL A   1      41.252  35.064  38.205  1.00  0.00     0.173 A 
ATOM     70  C   UNL A   1      39.729  33.560  39.297  1.00  0.00     0.173 A 
ATOM     71  F   UNL A   1      42.015  35.413  37.157  1.00  0.00    -0.203 F 
ATOM     72  C   UNL A   1      41.259  35.876  39.337  1.00  0.00     0.198 A 
ATOM     73  C   UNL A   1      39.712  34.392  40.414  1.00  0.00     0.198 A 
ATOM     74  F   UNL A   1      38.985  32.444  39.314  1.00  0.00    -0.203 F 
ATOM     75  F   UNL A   1      42.029  36.972  39.367  1.00  0.00    -0.200 F 
ATOM     76  C   UNL A   1      40.484  35.543  40.437  1.00  0.00     0.200 A 
ATOM     77  F   UNL A   1      38.951  34.076  41.471  1.00  0.00    -0.200 F 
ATOM     78  F   UNL A   1      40.487  36.329  41.523  1.00  0.00    -0.200 F 
ENDBRANCH  54  68
BRANCH  55  79
ATOM     79  C   UNL A   1      40.265  28.494  29.764  1.00  0.00     0.064 A 
ATOM     80  C   UNL A   1      39.600  27.262  29.667  1.00  0.00     0.173 A 
ATOM     81  C   UNL A   1      40.916  28.975  28.619  1.00  0.00     0.173 A 
ATOM     82  F   UNL A   1      38.981  26.750  30.741  1.00  0.00    -0.203 F 
ATOM     83  C   UNL A   1      39.604  26.534  28.479  1.00  0.00     0.198 A 
ATOM     84  C   UNL A   1      40.892  28.262  27.423  1.00  0.00     0.198 A 
ATOM     85  F   UNL A   1      41.560  30.152  28.658  1.00  0.00    -0.203 F 
ATOM     86  F   UNL A   1      38.999  25.340  28.426  1.00  0.00    -0.200 F 
ATOM     87  C   UNL A   1      40.243  27.038  27.356  1.00  0.00     0.200 A 
ATOM     88  F   UNL A   1      41.497  28.759  26.336  1.00  0.00    -0.200 F 
ATOM     89  F   UNL A   1      40.239  26.342  26.211  1.00  0.00    -0.200 F 
ENDBRANCH  55  79
BRANCH  67  90
ATOM     90  C   UNL A   1      44.461  28.560  35.334  1.00  0.00     0.064 A 
ATOM     91  C   UNL A   1      45.753  28.998  35.009  1.00  0.00     0.173 A 
ATOM     92  C   UNL A   1      44.335  27.360  36.050  1.00  0.00     0.173 A 
ATOM     93  F   UNL A   1      45.926  30.131  34.312  1.00  0.00    -0.203 F 
ATOM     94  C   UNL A   1      46.873  28.250  35.364  1.00  0.00     0.198 A 
ATOM     95  C   UNL A   1      45.459  26.633  36.432  1.00  0.00     0.198 A 
ATOM     96  F   UNL A   1      43.122  26.899  36.392  1.00  0.00    -0.203 F 
ATOM     97  F   UNL A   1      48.095  28.664  34.999  1.00  0.00    -0.200 F 
ATOM     98  C   UNL A   1      46.725  27.073  36.082  1.00  0.00     0.200 A 
ATOM     99  F   UNL A   1      45.314  25.502  37.140  1.00  0.00    -0.200 F 
ATOM    100  F   UNL A   1      47.804  26.360  36.431  1.00  0.00    -0.200 F 
ENDBRANCH  67  90
ENDBRANCH  41  42
ENDBRANCH  33  36
ENDBRANCH  31  32
ENDBRANCH  30  31
ENDBRANCH   1  30
TORSDOF 14
ENDMDL
