MODEL 1
REMARK VINA RESULT:     -11.7      0.000      0.000
REMARK SMILES O=C(NCCCCNC(=O)c1cccc(OCC(F)F)c1)c1ccc(-c2c3nc(c(-c4c(F)c(F)c(F)c(F)c4F)c4ccc([nH]4)c(-c4c(F)c(F)c(F)c(F)c4F)c4nc(c(-c5c(F)c(F)c(F)c(F)c5F)c5ccc2[nH]5)C=C4)C=C3)cc1
REMARK SMILES IDX 6 1 5 2 4 3 3 4 1 5 2 6 22 8 23 9 84 10 24 11 83 12 25 13
REMARK SMILES IDX 26 14 27 15 77 16 28 17 82 18 76 19 78 20 29 21 81 22 75 23
REMARK SMILES IDX 74 24 30 26 62 27 42 28 61 29 43 30 46 31 60 32 79 33 44 34
REMARK SMILES IDX 45 35 59 37 80 38 47 39 31 40 32 41 40 42 33 43 34 44 38 45
REMARK SMILES IDX 41 46 35 47 36 48 39 49 37 50 63 51 64 52 72 53 65 54 66 55
REMARK SMILES IDX 70 56 73 57 67 58 68 59 71 60 69 61 48 62 49 63 57 64 50 65
REMARK SMILES IDX 51 66 55 67 58 68 52 69 53 70 56 71 54 72 7 73 8 74 9 75
REMARK SMILES IDX 10 77 11 78 12 79 21 80 13 81 15 82 14 83 16 84 17 85 18 86
REMARK SMILES IDX 19 87 20 88
REMARK H PARENT 3 7 78 25 46 36 8 76
REMARK Flexibility Score: inf
ROOT
ATOM      1  C   UNL A   1      31.368  31.088  25.809  1.00  0.00     0.023 C 
ENDROOT
BRANCH   1   2
ATOM      2  C   UNL A   1      31.282  32.228  26.819  1.00  0.00     0.023 C 
BRANCH   2   3
ATOM      3  C   UNL A   1      32.587  32.974  27.060  1.00  0.00     0.116 C 
BRANCH   3   4
ATOM      4  N   UNL A   1      32.381  34.314  27.588  1.00  0.00    -0.352 N 
ATOM      5  O   UNL A   1      32.587  36.019  29.055  1.00  0.00    -0.269 OA
ATOM      6  C   UNL A   1      33.006  34.943  28.639  1.00  0.00     0.251 C 
ATOM      7  H   UNL A   1      31.695  34.848  27.128  1.00  0.00     0.163 HD
BRANCH   6   8
ATOM      8  C   UNL A   1      34.176  34.313  29.286  1.00  0.00     0.039 A 
ATOM      9  C   UNL A   1      34.009  33.402  30.332  1.00  0.00     0.014 A 
ATOM     10  C   UNL A   1      35.460  34.620  28.824  1.00  0.00     0.014 A 
ATOM     11  C   UNL A   1      35.121  32.908  31.006  1.00  0.00     0.010 A 
ATOM     12  C   UNL A   1      36.576  34.051  29.445  1.00  0.00     0.010 A 
ATOM     13  C   UNL A   1      36.416  33.208  30.554  1.00  0.00    -0.014 A 
BRANCH  13  14
ATOM     14  C   UNL A   1      37.581  32.548  31.194  1.00  0.00     0.031 A 
ATOM     15  C   UNL A   1      38.322  31.435  30.511  1.00  0.00     0.074 A 
ATOM     16  C   UNL A   1      37.959  32.968  32.417  1.00  0.00     0.049 A 
ATOM     17  N   UNL A   1      39.337  30.733  30.950  1.00  0.00    -0.248 NA
ATOM     18  C   UNL A   1      37.865  31.052  29.167  1.00  0.00     0.031 C 
ATOM     19  C   UNL A   1      37.301  34.031  33.181  1.00  0.00     0.029 A 
ATOM     20  N   UNL A   1      38.982  32.558  33.233  1.00  0.00    -0.354 N 
ATOM     21  C   UNL A   1      39.625  29.813  29.950  1.00  0.00     0.074 A 
ATOM     22  C   UNL A   1      38.669  30.034  28.886  1.00  0.00     0.031 C 
ATOM     23  C   UNL A   1      37.947  34.204  34.342  1.00  0.00     0.029 A 
ATOM     24  C   UNL A   1      39.021  33.223  34.435  1.00  0.00     0.049 A 
ATOM     25  H   UNL A   1      39.625  31.856  32.983  1.00  0.00     0.167 HD
ATOM     26  C   UNL A   1      40.602  28.875  29.930  1.00  0.00     0.037 A 
ATOM     27  C   UNL A   1      39.811  33.041  35.509  1.00  0.00     0.037 A 
ATOM     28  C   UNL A   1      41.565  28.683  30.984  1.00  0.00     0.049 A 
ATOM     29  C   UNL A   1      40.863  31.970  35.466  1.00  0.00     0.074 A 
ATOM     30  C   UNL A   1      42.646  27.817  31.017  1.00  0.00     0.029 A 
ATOM     31  N   UNL A   1      41.558  29.358  32.195  1.00  0.00    -0.354 N 
ATOM     32  N   UNL A   1      41.167  31.152  34.488  1.00  0.00    -0.248 NA
ATOM     33  C   UNL A   1      41.674  31.790  36.676  1.00  0.00     0.031 C 
ATOM     34  C   UNL A   1      43.256  27.925  32.271  1.00  0.00     0.029 A 
ATOM     35  C   UNL A   1      42.588  28.895  33.000  1.00  0.00     0.049 A 
ATOM     36  H   UNL A   1      40.917  30.062  32.447  1.00  0.00     0.167 HD
ATOM     37  C   UNL A   1      42.209  30.369  34.959  1.00  0.00     0.074 A 
ATOM     38  C   UNL A   1      42.503  30.826  36.302  1.00  0.00     0.031 C 
ATOM     39  C   UNL A   1      42.861  29.357  34.337  1.00  0.00     0.037 A 
BRANCH  26  40
ATOM     40  C   UNL A   1      40.680  27.959  28.743  1.00  0.00     0.064 A 
ATOM     41  C   UNL A   1      39.931  26.775  28.670  1.00  0.00     0.173 A 
ATOM     42  C   UNL A   1      41.451  28.318  27.625  1.00  0.00     0.173 A 
ATOM     43  F   UNL A   1      39.183  26.385  29.712  1.00  0.00    -0.203 F 
ATOM     44  C   UNL A   1      39.960  25.980  27.526  1.00  0.00     0.198 A 
ATOM     45  C   UNL A   1      41.458  27.532  26.476  1.00  0.00     0.198 A 
ATOM     46  F   UNL A   1      42.179  29.444  27.641  1.00  0.00    -0.203 F 
ATOM     47  F   UNL A   1      39.255  24.840  27.487  1.00  0.00    -0.200 F 
ATOM     48  C   UNL A   1      40.715  26.364  26.428  1.00  0.00     0.200 A 
ATOM     49  F   UNL A   1      42.178  27.913  25.412  1.00  0.00    -0.200 F 
ATOM     50  F   UNL A   1      40.728  25.606  25.322  1.00  0.00    -0.200 F 
ENDBRANCH  26  40
BRANCH  27  51
ATOM     51  C   UNL A   1      39.603  33.868  36.725  1.00  0.00     0.064 A 
ATOM     52  C   UNL A   1      38.803  33.416  37.782  1.00  0.00     0.173 A 
ATOM     53  C   UNL A   1      40.208  35.127  36.856  1.00  0.00     0.173 A 
ATOM     54  F   UNL A   1      38.188  32.226  37.695  1.00  0.00    -0.203 F 
ATOM     55  C   UNL A   1      38.600  34.200  38.916  1.00  0.00     0.198 A 
ATOM     56  C   UNL A   1      40.031  35.896  38.004  1.00  0.00     0.198 A 
ATOM     57  F   UNL A   1      40.988  35.605  35.875  1.00  0.00    -0.203 F 
ATOM     58  F   UNL A   1      37.793  33.764  39.892  1.00  0.00    -0.200 F 
ATOM     59  C   UNL A   1      39.220  35.435  39.029  1.00  0.00     0.200 A 
ATOM     60  F   UNL A   1      40.646  37.081  38.116  1.00  0.00    -0.200 F 
ATOM     61  F   UNL A   1      39.028  36.186  40.122  1.00  0.00    -0.200 F 
ENDBRANCH  27  51
BRANCH  39  62
ATOM     62  C   UNL A   1      43.960  28.681  35.102  1.00  0.00     0.064 A 
ATOM     63  C   UNL A   1      45.278  29.160  35.062  1.00  0.00     0.173 A 
ATOM     64  C   UNL A   1      43.685  27.569  35.911  1.00  0.00     0.173 A 
ATOM     65  F   UNL A   1      45.591  30.208  34.286  1.00  0.00    -0.203 F 
ATOM     66  C   UNL A   1      46.285  28.539  35.794  1.00  0.00     0.198 A 
ATOM     67  C   UNL A   1      44.689  26.968  36.664  1.00  0.00     0.198 A 
ATOM     68  F   UNL A   1      42.440  27.076  35.985  1.00  0.00    -0.203 F 
ATOM     69  F   UNL A   1      47.545  28.986  35.709  1.00  0.00    -0.200 F 
ATOM     70  C   UNL A   1      45.989  27.450  36.601  1.00  0.00     0.200 A 
ATOM     71  F   UNL A   1      44.400  25.923  37.452  1.00  0.00    -0.200 F 
ATOM     72  F   UNL A   1      46.959  26.858  37.312  1.00  0.00    -0.200 F 
ENDBRANCH  39  62
ENDBRANCH  13  14
ENDBRANCH   6   8
ENDBRANCH   3   4
ENDBRANCH   2   3
ENDBRANCH   1   2
BRANCH   1  73
ATOM     73  C   UNL A   1      32.360  29.985  26.154  1.00  0.00     0.116 C 
BRANCH  73  74
ATOM     74  N   UNL A   1      33.292  29.684  25.079  1.00  0.00    -0.352 N 
ATOM     75  C   UNL A   1      33.060  28.974  23.925  1.00  0.00     0.251 C 
ATOM     76  H   UNL A   1      34.207  30.032  25.193  1.00  0.00     0.163 HD
ATOM     77  O   UNL A   1      33.976  28.732  23.146  1.00  0.00    -0.269 OA
BRANCH  75  78
ATOM     78  C   UNL A   1      31.698  28.474  23.646  1.00  0.00     0.043 A 
ATOM     79  C   UNL A   1      31.265  27.316  24.294  1.00  0.00     0.014 A 
ATOM     80  C   UNL A   1      30.848  29.173  22.778  1.00  0.00     0.060 A 
ATOM     81  C   UNL A   1      29.952  26.890  24.117  1.00  0.00     0.005 A 
ATOM     82  C   UNL A   1      29.524  28.772  22.631  1.00  0.00     0.120 A 
ATOM     83  C   UNL A   1      29.086  27.624  23.302  1.00  0.00     0.046 A 
BRANCH  82  84
ATOM     84  O   UNL A   1      28.564  29.407  21.894  1.00  0.00    -0.488 OA
BRANCH  84  85
ATOM     85  C   UNL A   1      28.593  30.837  21.807  1.00  0.00     0.302 C 
BRANCH  85  86
ATOM     86  C   UNL A   1      27.905  31.514  22.986  1.00  0.00     0.379 C 
ATOM     87  F   UNL A   1      27.352  30.589  23.812  1.00  0.00    -0.207 F 
ATOM     88  F   UNL A   1      28.832  32.169  23.732  1.00  0.00    -0.207 F 
ENDBRANCH  85  86
ENDBRANCH  84  85
ENDBRANCH  82  84
ENDBRANCH  75  78
ENDBRANCH  73  74
ENDBRANCH   1  73
TORSDOF 14
ENDMDL
MODEL 2
REMARK VINA RESULT:     -11.5      0.725      2.194
REMARK SMILES O=C(NCCCCNC(=O)c1cccc(OCC(F)F)c1)c1ccc(-c2c3nc(c(-c4c(F)c(F)c(F)c(F)c4F)c4ccc([nH]4)c(-c4c(F)c(F)c(F)c(F)c4F)c4nc(c(-c5c(F)c(F)c(F)c(F)c5F)c5ccc2[nH]5)C=C4)C=C3)cc1
REMARK SMILES IDX 6 1 5 2 4 3 3 4 1 5 2 6 22 8 23 9 84 10 24 11 83 12 25 13
REMARK SMILES IDX 26 14 27 15 77 16 28 17 82 18 76 19 78 20 29 21 81 22 75 23
REMARK SMILES IDX 74 24 30 26 62 27 42 28 61 29 43 30 46 31 60 32 79 33 44 34
REMARK SMILES IDX 45 35 59 37 80 38 47 39 31 40 32 41 40 42 33 43 34 44 38 45
REMARK SMILES IDX 41 46 35 47 36 48 39 49 37 50 63 51 64 52 72 53 65 54 66 55
REMARK SMILES IDX 70 56 73 57 67 58 68 59 71 60 69 61 48 62 49 63 57 64 50 65
REMARK SMILES IDX 51 66 55 67 58 68 52 69 53 70 56 71 54 72 7 73 8 74 9 75
REMARK SMILES IDX 10 77 11 78 12 79 21 80 13 81 15 82 14 83 16 84 17 85 18 86
REMARK SMILES IDX 19 87 20 88
REMARK H PARENT 3 7 78 25 46 36 8 76
REMARK Flexibility Score: inf
ROOT
ATOM      1  C   UNL A   1      31.293  30.946  25.700  1.00  0.00     0.023 C 
ENDROOT
BRANCH   1   2
ATOM      2  C   UNL A   1      31.214  32.076  26.721  1.00  0.00     0.023 C 
BRANCH   2   3
ATOM      3  C   UNL A   1      32.559  32.625  27.179  1.00  0.00     0.116 C 
BRANCH   3   4
ATOM      4  N   UNL A   1      32.479  34.004  27.634  1.00  0.00    -0.352 N 
ATOM      5  O   UNL A   1      32.897  35.773  28.975  1.00  0.00    -0.269 OA
ATOM      6  C   UNL A   1      33.214  34.647  28.602  1.00  0.00     0.251 C 
ATOM      7  H   UNL A   1      31.800  34.558  27.186  1.00  0.00     0.163 HD
BRANCH   6   8
ATOM      8  C   UNL A   1      34.381  33.975  29.211  1.00  0.00     0.039 A 
ATOM      9  C   UNL A   1      35.680  34.407  28.932  1.00  0.00     0.014 A 
ATOM     10  C   UNL A   1      34.171  32.913  30.096  1.00  0.00     0.014 A 
ATOM     11  C   UNL A   1      36.769  33.692  29.420  1.00  0.00     0.010 A 
ATOM     12  C   UNL A   1      35.267  32.252  30.659  1.00  0.00     0.010 A 
ATOM     13  C   UNL A   1      36.575  32.623  30.309  1.00  0.00    -0.014 A 
BRANCH  13  14
ATOM     14  C   UNL A   1      37.752  31.974  30.936  1.00  0.00     0.031 A 
ATOM     15  C   UNL A   1      38.570  30.954  30.197  1.00  0.00     0.074 A 
ATOM     16  C   UNL A   1      38.071  32.315  32.200  1.00  0.00     0.049 A 
ATOM     17  N   UNL A   1      39.606  30.271  30.616  1.00  0.00    -0.248 NA
ATOM     18  C   UNL A   1      38.174  30.654  28.813  1.00  0.00     0.031 C 
ATOM     19  C   UNL A   1      37.336  33.283  33.020  1.00  0.00     0.029 A 
ATOM     20  N   UNL A   1      39.088  31.895  33.018  1.00  0.00    -0.354 N 
ATOM     21  C   UNL A   1      39.971  29.446  29.560  1.00  0.00     0.074 A 
ATOM     22  C   UNL A   1      39.038  29.702  28.483  1.00  0.00     0.031 C 
ATOM     23  C   UNL A   1      37.936  33.397  34.212  1.00  0.00     0.029 A 
ATOM     24  C   UNL A   1      39.056  32.466  34.267  1.00  0.00     0.049 A 
ATOM     25  H   UNL A   1      39.774  31.246  32.737  1.00  0.00     0.167 HD
ATOM     26  C   UNL A   1      40.995  28.561  29.502  1.00  0.00     0.037 A 
ATOM     27  C   UNL A   1      39.821  32.239  35.351  1.00  0.00     0.037 A 
ATOM     28  C   UNL A   1      41.935  28.336  30.571  1.00  0.00     0.049 A 
ATOM     29  C   UNL A   1      40.927  31.228  35.262  1.00  0.00     0.074 A 
ATOM     30  C   UNL A   1      43.056  27.524  30.576  1.00  0.00     0.029 A 
ATOM     31  N   UNL A   1      41.856  28.914  31.829  1.00  0.00    -0.354 N 
ATOM     32  N   UNL A   1      41.303  30.504  34.237  1.00  0.00    -0.248 NA
ATOM     33  C   UNL A   1      41.710  30.995  36.483  1.00  0.00     0.031 C 
ATOM     34  C   UNL A   1      43.622  27.565  31.854  1.00  0.00     0.029 A 
ATOM     35  C   UNL A   1      42.882  28.441  32.631  1.00  0.00     0.049 A 
ATOM     36  H   UNL A   1      41.171  29.564  32.111  1.00  0.00     0.167 HD
ATOM     37  C   UNL A   1      42.369  29.739  34.683  1.00  0.00     0.074 A 
ATOM     38  C   UNL A   1      42.598  30.104  36.065  1.00  0.00     0.031 C 
ATOM     39  C   UNL A   1      43.091  28.811  34.008  1.00  0.00     0.037 A 
BRANCH  26  40
ATOM     40  C   UNL A   1      41.157  27.745  28.253  1.00  0.00     0.064 A 
ATOM     41  C   UNL A   1      41.929  28.192  27.171  1.00  0.00     0.173 A 
ATOM     42  C   UNL A   1      40.602  26.457  28.175  1.00  0.00     0.173 A 
ATOM     43  F   UNL A   1      42.477  29.416  27.193  1.00  0.00    -0.203 F 
ATOM     44  C   UNL A   1      42.128  27.384  26.053  1.00  0.00     0.198 A 
ATOM     45  C   UNL A   1      40.824  25.645  27.067  1.00  0.00     0.198 A 
ATOM     46  F   UNL A   1      39.862  25.979  29.187  1.00  0.00    -0.203 F 
ATOM     47  F   UNL A   1      42.850  27.841  25.019  1.00  0.00    -0.200 F 
ATOM     48  C   UNL A   1      41.585  26.109  26.006  1.00  0.00     0.200 A 
ATOM     49  F   UNL A   1      40.308  24.408  27.031  1.00  0.00    -0.200 F 
ATOM     50  F   UNL A   1      41.793  25.328  24.937  1.00  0.00    -0.200 F 
ENDBRANCH  26  40
BRANCH  27  51
ATOM     51  C   UNL A   1      39.534  32.958  36.618  1.00  0.00     0.064 A 
ATOM     52  C   UNL A   1      40.191  34.154  36.937  1.00  0.00     0.173 A 
ATOM     53  C   UNL A   1      38.593  32.465  37.535  1.00  0.00     0.173 A 
ATOM     54  F   UNL A   1      41.113  34.655  36.102  1.00  0.00    -0.203 F 
ATOM     55  C   UNL A   1      39.929  34.820  38.133  1.00  0.00     0.198 A 
ATOM     56  C   UNL A   1      38.309  33.148  38.714  1.00  0.00     0.198 A 
ATOM     57  F   UNL A   1      37.934  31.326  37.274  1.00  0.00    -0.203 F 
ATOM     58  F   UNL A   1      40.604  35.937  38.436  1.00  0.00    -0.200 F 
ATOM     59  C   UNL A   1      38.984  34.320  39.016  1.00  0.00     0.200 A 
ATOM     60  F   UNL A   1      37.382  32.671  39.555  1.00  0.00    -0.200 F 
ATOM     61  F   UNL A   1      38.729  34.965  40.164  1.00  0.00    -0.200 F 
ENDBRANCH  27  51
BRANCH  39  62
ATOM     62  C   UNL A   1      44.199  28.132  34.756  1.00  0.00     0.064 A 
ATOM     63  C   UNL A   1      43.991  26.917  35.425  1.00  0.00     0.173 A 
ATOM     64  C   UNL A   1      45.490  28.681  34.771  1.00  0.00     0.173 A 
ATOM     65  F   UNL A   1      42.769  26.364  35.455  1.00  0.00    -0.203 F 
ATOM     66  C   UNL A   1      45.032  26.285  36.097  1.00  0.00     0.198 A 
ATOM     67  C   UNL A   1      46.535  28.031  35.419  1.00  0.00     0.198 A 
ATOM     68  F   UNL A   1      45.740  29.839  34.142  1.00  0.00    -0.203 F 
ATOM     69  F   UNL A   1      44.803  25.147  36.766  1.00  0.00    -0.200 F 
ATOM     70  C   UNL A   1      46.305  26.837  36.086  1.00  0.00     0.200 A 
ATOM     71  F   UNL A   1      47.767  28.560  35.398  1.00  0.00    -0.200 F 
ATOM     72  F   UNL A   1      47.309  26.221  36.726  1.00  0.00    -0.200 F 
ENDBRANCH  39  62
ENDBRANCH  13  14
ENDBRANCH   6   8
ENDBRANCH   3   4
ENDBRANCH   2   3
ENDBRANCH   1   2
BRANCH   1  73
ATOM     73  C   UNL A   1      32.417  29.942  25.924  1.00  0.00     0.116 C 
BRANCH  73  74
ATOM     74  N   UNL A   1      33.217  29.691  24.736  1.00  0.00    -0.352 N 
ATOM     75  C   UNL A   1      32.868  28.990  23.606  1.00  0.00     0.251 C 
ATOM     76  H   UNL A   1      34.126  30.071  24.742  1.00  0.00     0.163 HD
ATOM     77  O   UNL A   1      33.687  28.794  22.715  1.00  0.00    -0.269 OA
BRANCH  75  78
ATOM     78  C   UNL A   1      31.499  28.446  23.489  1.00  0.00     0.043 A 
ATOM     79  C   UNL A   1      31.217  27.214  24.081  1.00  0.00     0.014 A 
ATOM     80  C   UNL A   1      30.499  29.173  22.828  1.00  0.00     0.060 A 
ATOM     81  C   UNL A   1      29.910  26.736  24.063  1.00  0.00     0.005 A 
ATOM     82  C   UNL A   1      29.185  28.716  22.844  1.00  0.00     0.120 A 
ATOM     83  C   UNL A   1      28.901  27.493  23.461  1.00  0.00     0.046 A 
BRANCH  82  84
ATOM     84  O   UNL A   1      28.099  29.362  22.324  1.00  0.00    -0.488 OA
BRANCH  84  85
ATOM     85  C   UNL A   1      28.226  30.740  21.954  1.00  0.00     0.302 C 
BRANCH  85  86
ATOM     86  C   UNL A   1      27.782  31.691  23.058  1.00  0.00     0.379 C 
ATOM     87  F   UNL A   1      27.259  31.000  24.103  1.00  0.00    -0.207 F 
ATOM     88  F   UNL A   1      28.866  32.344  23.552  1.00  0.00    -0.207 F 
ENDBRANCH  85  86
ENDBRANCH  84  85
ENDBRANCH  82  84
ENDBRANCH  75  78
ENDBRANCH  73  74
ENDBRANCH   1  73
TORSDOF 14
ENDMDL
MODEL 3
REMARK VINA RESULT:     -11.5      0.709      7.569
REMARK SMILES O=C(NCCCCNC(=O)c1cccc(OCC(F)F)c1)c1ccc(-c2c3nc(c(-c4c(F)c(F)c(F)c(F)c4F)c4ccc([nH]4)c(-c4c(F)c(F)c(F)c(F)c4F)c4nc(c(-c5c(F)c(F)c(F)c(F)c5F)c5ccc2[nH]5)C=C4)C=C3)cc1
REMARK SMILES IDX 6 1 5 2 4 3 3 4 1 5 2 6 22 8 23 9 84 10 24 11 83 12 25 13
REMARK SMILES IDX 26 14 27 15 77 16 28 17 82 18 76 19 78 20 29 21 81 22 75 23
REMARK SMILES IDX 74 24 30 26 62 27 42 28 61 29 43 30 46 31 60 32 79 33 44 34
REMARK SMILES IDX 45 35 59 37 80 38 47 39 31 40 32 41 40 42 33 43 34 44 38 45
REMARK SMILES IDX 41 46 35 47 36 48 39 49 37 50 63 51 64 52 72 53 65 54 66 55
REMARK SMILES IDX 70 56 73 57 67 58 68 59 71 60 69 61 48 62 49 63 57 64 50 65
REMARK SMILES IDX 51 66 55 67 58 68 52 69 53 70 56 71 54 72 7 73 8 74 9 75
REMARK SMILES IDX 10 77 11 78 12 79 21 80 13 81 15 82 14 83 16 84 17 85 18 86
REMARK SMILES IDX 19 87 20 88
REMARK H PARENT 3 7 78 25 46 36 8 76
REMARK Flexibility Score: inf
ROOT
ATOM      1  C   UNL A   1      31.324  30.754  25.604  1.00  0.00     0.023 C 
ENDROOT
BRANCH   1   2
ATOM      2  C   UNL A   1      31.216  31.952  26.541  1.00  0.00     0.023 C 
BRANCH   2   3
ATOM      3  C   UNL A   1      32.546  32.500  27.042  1.00  0.00     0.116 C 
BRANCH   3   4
ATOM      4  N   UNL A   1      32.455  33.884  27.480  1.00  0.00    -0.352 N 
ATOM      5  O   UNL A   1      32.841  35.667  28.812  1.00  0.00    -0.269 OA
ATOM      6  C   UNL A   1      33.167  34.537  28.459  1.00  0.00     0.251 C 
ATOM      7  H   UNL A   1      31.789  34.433  27.009  1.00  0.00     0.163 HD
BRANCH   6   8
ATOM      8  C   UNL A   1      34.317  33.870  29.106  1.00  0.00     0.039 A 
ATOM      9  C   UNL A   1      35.624  34.282  28.837  1.00  0.00     0.014 A 
ATOM     10  C   UNL A   1      34.082  32.834  30.014  1.00  0.00     0.014 A 
ATOM     11  C   UNL A   1      36.698  33.571  29.362  1.00  0.00     0.010 A 
ATOM     12  C   UNL A   1      35.163  32.178  30.613  1.00  0.00     0.010 A 
ATOM     13  C   UNL A   1      36.479  32.527  30.275  1.00  0.00    -0.014 A 
BRANCH  13  14
ATOM     14  C   UNL A   1      37.640  31.884  30.939  1.00  0.00     0.031 A 
ATOM     15  C   UNL A   1      38.077  32.290  32.316  1.00  0.00     0.074 A 
ATOM     16  C   UNL A   1      38.306  30.924  30.268  1.00  0.00     0.049 A 
ATOM     17  N   UNL A   1      39.091  31.851  33.020  1.00  0.00    -0.248 NA
ATOM     18  C   UNL A   1      37.283  33.327  32.992  1.00  0.00     0.031 C 
ATOM     19  C   UNL A   1      37.979  30.462  28.916  1.00  0.00     0.029 A 
ATOM     20  N   UNL A   1      39.391  30.165  30.624  1.00  0.00    -0.354 N 
ATOM     21  C   UNL A   1      39.071  32.570  34.207  1.00  0.00     0.074 A 
ATOM     22  C   UNL A   1      37.953  33.487  34.127  1.00  0.00     0.031 C 
ATOM     23  C   UNL A   1      38.828  29.486  28.566  1.00  0.00     0.029 A 
ATOM     24  C   UNL A   1      39.800  29.300  29.637  1.00  0.00     0.049 A 
ATOM     25  H   UNL A   1      39.834  30.233  31.500  1.00  0.00     0.167 HD
ATOM     26  C   UNL A   1      39.912  32.467  35.264  1.00  0.00     0.037 A 
ATOM     27  C   UNL A   1      40.860  28.474  29.584  1.00  0.00     0.037 A 
ATOM     28  C   UNL A   1      41.004  31.531  35.345  1.00  0.00     0.049 A 
ATOM     29  C   UNL A   1      41.790  28.407  30.761  1.00  0.00     0.074 A 
ATOM     30  C   UNL A   1      41.858  31.291  36.408  1.00  0.00     0.029 A 
ATOM     31  N   UNL A   1      41.402  30.689  34.317  1.00  0.00    -0.354 N 
ATOM     32  N   UNL A   1      41.722  29.043  31.904  1.00  0.00    -0.248 NA
ATOM     33  C   UNL A   1      42.950  27.515  30.638  1.00  0.00     0.031 C 
ATOM     34  C   UNL A   1      42.808  30.347  36.004  1.00  0.00     0.029 A 
ATOM     35  C   UNL A   1      42.516  29.962  34.706  1.00  0.00     0.049 A 
ATOM     36  H   UNL A   1      40.959  30.618  33.440  1.00  0.00     0.167 HD
ATOM     37  C   UNL A   1      42.819  28.623  32.639  1.00  0.00     0.074 A 
ATOM     38  C   UNL A   1      43.525  27.657  31.824  1.00  0.00     0.031 C 
ATOM     39  C   UNL A   1      43.210  29.009  33.878  1.00  0.00     0.037 A 
BRANCH  26  40
ATOM     40  C   UNL A   1      39.710  33.397  36.425  1.00  0.00     0.064 A 
ATOM     41  C   UNL A   1      40.313  34.663  36.473  1.00  0.00     0.173 A 
ATOM     42  C   UNL A   1      38.828  33.051  37.461  1.00  0.00     0.173 A 
ATOM     43  F   UNL A   1      41.167  35.041  35.511  1.00  0.00    -0.203 F 
ATOM     44  C   UNL A   1      40.049  35.541  37.523  1.00  0.00     0.198 A 
ATOM     45  C   UNL A   1      38.549  33.940  38.495  1.00  0.00     0.198 A 
ATOM     46  F   UNL A   1      38.219  31.855  37.458  1.00  0.00    -0.203 F 
ATOM     47  F   UNL A   1      40.655  36.736  37.562  1.00  0.00    -0.200 F 
ATOM     48  C   UNL A   1      39.161  35.183  38.526  1.00  0.00     0.200 A 
ATOM     49  F   UNL A   1      37.680  33.597  39.456  1.00  0.00    -0.200 F 
ATOM     50  F   UNL A   1      38.896  36.037  39.525  1.00  0.00    -0.200 F 
ENDBRANCH  26  40
BRANCH  27  51
ATOM     51  C   UNL A   1      41.113  27.678  28.356  1.00  0.00     0.064 A 
ATOM     52  C   UNL A   1      40.533  26.415  28.178  1.00  0.00     0.173 A 
ATOM     53  C   UNL A   1      41.939  28.167  27.332  1.00  0.00     0.173 A 
ATOM     54  F   UNL A   1      39.751  25.897  29.137  1.00  0.00    -0.203 F 
ATOM     55  C   UNL A   1      40.783  25.665  27.030  1.00  0.00     0.198 A 
ATOM     56  C   UNL A   1      42.162  27.431  26.172  1.00  0.00     0.198 A 
ATOM     57  F   UNL A   1      42.515  29.373  27.452  1.00  0.00    -0.203 F 
ATOM     58  F   UNL A   1      40.252  24.442  26.905  1.00  0.00    -0.200 F 
ATOM     59  C   UNL A   1      41.590  26.177  26.026  1.00  0.00     0.200 A 
ATOM     60  F   UNL A   1      42.928  27.937  25.197  1.00  0.00    -0.200 F 
ATOM     61  F   UNL A   1      41.825  25.456  24.920  1.00  0.00    -0.200 F 
ENDBRANCH  27  51
BRANCH  39  62
ATOM     62  C   UNL A   1      44.456  28.378  34.427  1.00  0.00     0.064 A 
ATOM     63  C   UNL A   1      45.709  28.990  34.280  1.00  0.00     0.173 A 
ATOM     64  C   UNL A   1      44.388  27.173  35.141  1.00  0.00     0.173 A 
ATOM     65  F   UNL A   1      45.825  30.133  33.587  1.00  0.00    -0.203 F 
ATOM     66  C   UNL A   1      46.854  28.407  34.813  1.00  0.00     0.198 A 
ATOM     67  C   UNL A   1      45.532  26.608  35.698  1.00  0.00     0.198 A 
ATOM     68  F   UNL A   1      43.212  26.552  35.313  1.00  0.00    -0.203 F 
ATOM     69  F   UNL A   1      48.048  28.985  34.624  1.00  0.00    -0.200 F 
ATOM     70  C   UNL A   1      46.764  27.222  35.529  1.00  0.00     0.200 A 
ATOM     71  F   UNL A   1      45.441  25.470  36.400  1.00  0.00    -0.200 F 
ATOM     72  F   UNL A   1      47.867  26.667  36.051  1.00  0.00    -0.200 F 
ENDBRANCH  39  62
ENDBRANCH  13  14
ENDBRANCH   6   8
ENDBRANCH   3   4
ENDBRANCH   2   3
ENDBRANCH   1   2
BRANCH   1  73
ATOM     73  C   UNL A   1      32.524  29.845  25.844  1.00  0.00     0.116 C 
BRANCH  73  74
ATOM     74  N   UNL A   1      33.327  29.616  24.653  1.00  0.00    -0.352 N 
ATOM     75  C   UNL A   1      32.959  28.991  23.485  1.00  0.00     0.251 C 
ATOM     76  H   UNL A   1      34.253  29.951  24.688  1.00  0.00     0.163 HD
ATOM     77  O   UNL A   1      33.779  28.801  22.593  1.00  0.00    -0.269 OA
BRANCH  75  78
ATOM     78  C   UNL A   1      31.568  28.519  23.326  1.00  0.00     0.043 A 
ATOM     79  C   UNL A   1      31.164  27.381  24.026  1.00  0.00     0.014 A 
ATOM     80  C   UNL A   1      30.666  29.225  22.518  1.00  0.00     0.060 A 
ATOM     81  C   UNL A   1      29.832  26.984  23.963  1.00  0.00     0.005 A 
ATOM     82  C   UNL A   1      29.326  28.852  22.485  1.00  0.00     0.120 A 
ATOM     83  C   UNL A   1      28.919  27.725  23.208  1.00  0.00     0.046 A 
BRANCH  82  84
ATOM     84  O   UNL A   1      28.323  29.498  21.818  1.00  0.00    -0.488 OA
BRANCH  84  85
ATOM     85  C   UNL A   1      28.315  30.931  21.801  1.00  0.00     0.302 C 
BRANCH  85  86
ATOM     86  C   UNL A   1      27.812  31.533  23.107  1.00  0.00     0.379 C 
ATOM     87  F   UNL A   1      27.215  30.584  23.873  1.00  0.00    -0.207 F 
ATOM     88  F   UNL A   1      28.868  31.983  23.832  1.00  0.00    -0.207 F 
ENDBRANCH  85  86
ENDBRANCH  84  85
ENDBRANCH  82  84
ENDBRANCH  75  78
ENDBRANCH  73  74
ENDBRANCH   1  73
TORSDOF 14
ENDMDL
