MODEL 1
REMARK VINA RESULT:     -11.4      0.000      0.000
REMARK SMILES CN(Cc1ccc(Cl)cc1Cl)S(=O)(=O)CCCC(=O)NCCCCNC(=O)c1ccc(-c2c3nc(c(-c4c(F)c(F)c(F)c(F)c4F)c4ccc([nH]4)c(-c4c(F)c(F)c(F)c(F)c4F)c4nc(c(-c5c(F)c(F)c(F)c(F)c5F)c5ccc2[nH]5)C=C4)C=C3)cc1
REMARK SMILES IDX 18 1 19 2 20 3 17 5 16 6 15 7 12 8 13 9 14 10 2 11 1 12 3 13
REMARK SMILES IDX 4 14 5 15 10 16 6 17 9 18 11 19 7 20 8 21 21 22 22 23 23 24
REMARK SMILES IDX 24 25 25 26 26 27 27 29 28 30 29 31 90 32 30 33 89 34 31 35
REMARK SMILES IDX 32 36 33 37 83 38 34 39 88 40 82 41 84 42 35 43 87 44 81 45
REMARK SMILES IDX 80 46 36 48 68 49 48 50 67 51 49 52 52 53 66 54 85 55 50 56
REMARK SMILES IDX 51 57 65 59 86 60 53 61 37 62 38 63 46 64 39 65 40 66 44 67
REMARK SMILES IDX 47 68 41 69 42 70 45 71 43 72 69 73 70 74 78 75 71 76 72 77
REMARK SMILES IDX 76 78 79 79 73 80 74 81 77 82 75 83 54 84 55 85 63 86 56 87
REMARK SMILES IDX 57 88 61 89 64 90 58 91 59 92 62 93 60 94
REMARK H PARENT 20 4 25 28 84 47 52 58
REMARK Flexibility Score: inf
ROOT
ATOM      1  C   UNL A   1      34.720  23.502  26.358  1.00  0.00     0.220 C 
ATOM      2  O   UNL A   1      33.805  22.993  27.010  1.00  0.00    -0.275 OA
ATOM      3  N   UNL A   1      35.962  22.970  26.518  1.00  0.00    -0.356 N 
ATOM      4  H   UNL A   1      36.032  22.309  27.244  1.00  0.00     0.163 HD
ENDROOT
BRANCH   1   5
ATOM      5  C   UNL A   1      34.423  24.629  25.376  1.00  0.00     0.101 C 
BRANCH   5   6
ATOM      6  C   UNL A   1      34.283  24.277  23.898  1.00  0.00     0.027 C 
BRANCH   6   7
ATOM      7  C   UNL A   1      32.971  24.550  23.189  1.00  0.00     0.155 C 
BRANCH   7   8
ATOM      8  S   UNL A   1      32.736  26.014  22.178  1.00  0.00     0.214 S 
ATOM      9  O   UNL A   1      31.953  25.592  21.039  1.00  0.00    -0.212 OA
ATOM     10  O   UNL A   1      34.073  26.544  21.973  1.00  0.00    -0.212 OA
BRANCH   8  11
ATOM     11  N   UNL A   1      31.865  27.191  23.020  1.00  0.00    -0.201 NA
ATOM     12  C   UNL A   1      30.633  27.633  22.312  1.00  0.00     0.124 C 
BRANCH  11  13
ATOM     13  C   UNL A   1      31.640  27.164  24.502  1.00  0.00     0.138 C 
BRANCH  13  14
ATOM     14  C   UNL A   1      32.221  28.265  25.364  1.00  0.00    -0.014 A 
ATOM     15  C   UNL A   1      33.344  27.984  26.162  1.00  0.00     0.008 A 
ATOM     16  C   UNL A   1      31.718  29.579  25.400  1.00  0.00     0.047 A 
ATOM     17  C   UNL A   1      33.888  28.941  27.018  1.00  0.00     0.021 A 
ATOM     18  C   UNL A   1      32.276  30.544  26.249  1.00  0.00     0.041 A 
ATOM     19  Cl  UNL A   1      30.430  30.105  24.377  1.00  0.00    -0.084 Cl
ATOM     20  C   UNL A   1      33.351  30.216  27.063  1.00  0.00     0.042 A 
ATOM     21  Cl  UNL A   1      34.032  31.389  28.119  1.00  0.00    -0.084 Cl
ENDBRANCH  13  14
ENDBRANCH  11  13
ENDBRANCH   8  11
ENDBRANCH   7   8
ENDBRANCH   6   7
ENDBRANCH   5   6
ENDBRANCH   1   5
BRANCH   3  22
ATOM     22  C   UNL A   1      37.193  23.208  25.804  1.00  0.00     0.116 C 
BRANCH  22  23
ATOM     23  C   UNL A   1      37.448  22.200  24.683  1.00  0.00     0.023 C 
BRANCH  23  24
ATOM     24  C   UNL A   1      37.944  20.840  25.167  1.00  0.00     0.023 C 
BRANCH  24  25
ATOM     25  C   UNL A   1      39.278  20.884  25.911  1.00  0.00     0.116 C 
BRANCH  25  26
ATOM     26  N   UNL A   1      40.020  19.632  25.880  1.00  0.00    -0.352 N 
ATOM     27  C   UNL A   1      41.366  19.431  26.102  1.00  0.00     0.251 C 
ATOM     28  H   UNL A   1      39.494  18.826  25.675  1.00  0.00     0.163 HD
ATOM     29  O   UNL A   1      41.859  18.319  25.952  1.00  0.00    -0.269 OA
BRANCH  27  30
ATOM     30  C   UNL A   1      42.227  20.572  26.483  1.00  0.00     0.039 A 
ATOM     31  C   UNL A   1      42.940  21.220  25.473  1.00  0.00     0.014 A 
ATOM     32  C   UNL A   1      42.270  21.053  27.795  1.00  0.00     0.014 A 
ATOM     33  C   UNL A   1      43.566  22.435  25.747  1.00  0.00     0.010 A 
ATOM     34  C   UNL A   1      42.826  22.300  28.053  1.00  0.00     0.010 A 
ATOM     35  C   UNL A   1      43.434  23.022  27.017  1.00  0.00    -0.014 A 
BRANCH  35  36
ATOM     36  C   UNL A   1      43.793  24.446  27.215  1.00  0.00     0.031 A 
ATOM     37  C   UNL A   1      42.772  25.456  27.636  1.00  0.00     0.074 A 
ATOM     38  C   UNL A   1      45.058  24.824  26.937  1.00  0.00     0.049 A 
ATOM     39  N   UNL A   1      42.931  26.731  27.883  1.00  0.00    -0.248 NA
ATOM     40  C   UNL A   1      41.388  24.983  27.776  1.00  0.00     0.031 C 
ATOM     41  C   UNL A   1      46.111  23.935  26.440  1.00  0.00     0.029 A 
ATOM     42  N   UNL A   1      45.675  26.045  27.033  1.00  0.00    -0.354 N 
ATOM     43  C   UNL A   1      41.673  27.210  28.217  1.00  0.00     0.074 A 
ATOM     44  C   UNL A   1      40.750  26.104  28.081  1.00  0.00     0.031 C 
ATOM     45  C   UNL A   1      47.253  24.627  26.317  1.00  0.00     0.029 A 
ATOM     46  C   UNL A   1      47.006  26.015  26.688  1.00  0.00     0.049 A 
ATOM     47  H   UNL A   1      45.211  26.864  27.321  1.00  0.00     0.167 HD
ATOM     48  C   UNL A   1      41.332  28.458  28.622  1.00  0.00     0.037 A 
ATOM     49  C   UNL A   1      47.925  26.999  26.678  1.00  0.00     0.037 A 
ATOM     50  C   UNL A   1      42.265  29.548  28.745  1.00  0.00     0.049 A 
ATOM     51  C   UNL A   1      47.512  28.376  27.122  1.00  0.00     0.074 A 
ATOM     52  C   UNL A   1      42.035  30.833  29.204  1.00  0.00     0.029 A 
ATOM     53  N   UNL A   1      43.606  29.486  28.389  1.00  0.00    -0.354 N 
ATOM     54  N   UNL A   1      46.342  28.793  27.539  1.00  0.00    -0.248 NA
ATOM     55  C   UNL A   1      48.550  29.415  27.100  1.00  0.00     0.031 C 
ATOM     56  C   UNL A   1      43.220  31.566  29.065  1.00  0.00     0.029 A 
ATOM     57  C   UNL A   1      44.207  30.720  28.585  1.00  0.00     0.049 A 
ATOM     58  H   UNL A   1      44.063  28.684  28.048  1.00  0.00     0.167 HD
ATOM     59  C   UNL A   1      46.509  30.133  27.862  1.00  0.00     0.074 A 
ATOM     60  C   UNL A   1      47.899  30.452  27.606  1.00  0.00     0.031 C 
ATOM     61  C   UNL A   1      45.594  31.019  28.327  1.00  0.00     0.037 A 
BRANCH  48  62
ATOM     62  C   UNL A   1      39.890  28.709  28.959  1.00  0.00     0.064 A 
ATOM     63  C   UNL A   1      39.385  28.490  30.250  1.00  0.00     0.173 A 
ATOM     64  C   UNL A   1      39.009  29.216  27.990  1.00  0.00     0.173 A 
ATOM     65  F   UNL A   1      40.180  27.999  31.213  1.00  0.00    -0.203 F 
ATOM     66  C   UNL A   1      38.047  28.737  30.550  1.00  0.00     0.198 A 
ATOM     67  C   UNL A   1      37.681  29.493  28.303  1.00  0.00     0.198 A 
ATOM     68  F   UNL A   1      39.438  29.450  26.741  1.00  0.00    -0.203 F 
ATOM     69  F   UNL A   1      37.577  28.470  31.777  1.00  0.00    -0.200 F 
ATOM     70  C   UNL A   1      37.198  29.245  29.578  1.00  0.00     0.200 A 
ATOM     71  F   UNL A   1      36.866  29.999  27.366  1.00  0.00    -0.200 F 
ATOM     72  F   UNL A   1      35.913  29.491  29.870  1.00  0.00    -0.200 F 
ENDBRANCH  48  62
BRANCH  49  73
ATOM     73  C   UNL A   1      49.325  26.709  26.269  1.00  0.00     0.064 A 
ATOM     74  C   UNL A   1      49.746  26.910  24.946  1.00  0.00     0.173 A 
ATOM     75  C   UNL A   1      50.269  26.223  27.185  1.00  0.00     0.173 A 
ATOM     76  F   UNL A   1      48.877  27.360  24.028  1.00  0.00    -0.203 F 
ATOM     77  C   UNL A   1      51.048  26.610  24.551  1.00  0.00     0.198 A 
ATOM     78  C   UNL A   1      51.580  25.955  26.796  1.00  0.00     0.198 A 
ATOM     79  F   UNL A   1      49.922  26.024  28.465  1.00  0.00    -0.203 F 
ATOM     80  F   UNL A   1      51.408  26.763  23.269  1.00  0.00    -0.200 F 
ATOM     81  C   UNL A   1      51.965  26.138  25.476  1.00  0.00     0.200 A 
ATOM     82  F   UNL A   1      52.469  25.518  27.699  1.00  0.00    -0.200 F 
ATOM     83  F   UNL A   1      53.218  25.853  25.096  1.00  0.00    -0.200 F 
ENDBRANCH  49  73
BRANCH  61  84
ATOM     84  C   UNL A   1      46.078  32.410  28.624  1.00  0.00     0.064 A 
ATOM     85  C   UNL A   1      46.604  32.759  29.877  1.00  0.00     0.173 A 
ATOM     86  C   UNL A   1      46.045  33.398  27.628  1.00  0.00     0.173 A 
ATOM     87  F   UNL A   1      46.643  31.856  30.868  1.00  0.00    -0.203 F 
ATOM     88  C   UNL A   1      47.051  34.053  30.130  1.00  0.00     0.198 A 
ATOM     89  C   UNL A   1      46.527  34.681  27.874  1.00  0.00     0.198 A 
ATOM     90  F   UNL A   1      45.558  33.116  26.410  1.00  0.00    -0.203 F 
ATOM     91  F   UNL A   1      47.497  34.378  31.351  1.00  0.00    -0.200 F 
ATOM     92  C   UNL A   1      47.021  35.009  29.126  1.00  0.00     0.200 A 
ATOM     93  F   UNL A   1      46.513  35.597  26.897  1.00  0.00    -0.200 F 
ATOM     94  F   UNL A   1      47.460  36.252  29.369  1.00  0.00    -0.200 F 
ENDBRANCH  61  84
ENDBRANCH  35  36
ENDBRANCH  27  30
ENDBRANCH  25  26
ENDBRANCH  24  25
ENDBRANCH  23  24
ENDBRANCH  22  23
ENDBRANCH   3  22
TORSDOF 17
ENDMDL
MODEL 2
REMARK VINA RESULT:     -11.4      1.215      2.151
REMARK SMILES CN(Cc1ccc(Cl)cc1Cl)S(=O)(=O)CCCC(=O)NCCCCNC(=O)c1ccc(-c2c3nc(c(-c4c(F)c(F)c(F)c(F)c4F)c4ccc([nH]4)c(-c4c(F)c(F)c(F)c(F)c4F)c4nc(c(-c5c(F)c(F)c(F)c(F)c5F)c5ccc2[nH]5)C=C4)C=C3)cc1
REMARK SMILES IDX 18 1 19 2 20 3 17 5 16 6 15 7 12 8 13 9 14 10 2 11 1 12 3 13
REMARK SMILES IDX 4 14 5 15 10 16 6 17 9 18 11 19 7 20 8 21 21 22 22 23 23 24
REMARK SMILES IDX 24 25 25 26 26 27 27 29 28 30 29 31 90 32 30 33 89 34 31 35
REMARK SMILES IDX 32 36 33 37 83 38 34 39 88 40 82 41 84 42 35 43 87 44 81 45
REMARK SMILES IDX 80 46 36 48 68 49 48 50 67 51 49 52 52 53 66 54 85 55 50 56
REMARK SMILES IDX 51 57 65 59 86 60 53 61 37 62 38 63 46 64 39 65 40 66 44 67
REMARK SMILES IDX 47 68 41 69 42 70 45 71 43 72 69 73 70 74 78 75 71 76 72 77
REMARK SMILES IDX 76 78 79 79 73 80 74 81 77 82 75 83 54 84 55 85 63 86 56 87
REMARK SMILES IDX 57 88 61 89 64 90 58 91 59 92 62 93 60 94
REMARK H PARENT 20 4 25 28 84 47 52 58
REMARK Flexibility Score: inf
ROOT
ATOM      1  C   UNL A   1      33.853  20.827  24.721  1.00  0.00     0.220 C 
ATOM      2  O   UNL A   1      33.490  19.906  25.456  1.00  0.00    -0.275 OA
ATOM      3  N   UNL A   1      35.056  21.399  24.997  1.00  0.00    -0.356 N 
ATOM      4  H   UNL A   1      35.463  21.105  25.843  1.00  0.00     0.163 HD
ENDROOT
BRANCH   1   5
ATOM      5  C   UNL A   1      32.999  21.234  23.526  1.00  0.00     0.101 C 
BRANCH   5   6
ATOM      6  C   UNL A   1      31.953  22.326  23.726  1.00  0.00     0.027 C 
BRANCH   6   7
ATOM      7  C   UNL A   1      31.432  22.610  25.121  1.00  0.00     0.155 C 
BRANCH   7   8
ATOM      8  S   UNL A   1      31.922  24.081  26.027  1.00  0.00     0.214 S 
ATOM      9  O   UNL A   1      33.366  24.102  26.003  1.00  0.00    -0.212 OA
ATOM     10  O   UNL A   1      31.226  23.984  27.299  1.00  0.00    -0.212 OA
BRANCH   8  11
ATOM     11  N   UNL A   1      31.353  25.475  25.260  1.00  0.00    -0.201 NA
ATOM     12  C   UNL A   1      30.243  26.140  25.994  1.00  0.00     0.124 C 
BRANCH  11  13
ATOM     13  C   UNL A   1      32.240  26.492  24.611  1.00  0.00     0.138 C 
BRANCH  13  14
ATOM     14  C   UNL A   1      32.612  27.750  25.369  1.00  0.00    -0.014 A 
ATOM     15  C   UNL A   1      33.658  27.695  26.306  1.00  0.00     0.008 A 
ATOM     16  C   UNL A   1      31.986  28.995  25.175  1.00  0.00     0.047 A 
ATOM     17  C   UNL A   1      34.008  28.805  27.075  1.00  0.00     0.021 A 
ATOM     18  C   UNL A   1      32.349  30.114  25.936  1.00  0.00     0.041 A 
ATOM     19  Cl  UNL A   1      30.778  29.245  23.966  1.00  0.00    -0.084 Cl
ATOM     20  C   UNL A   1      33.350  30.010  26.892  1.00  0.00     0.042 A 
ATOM     21  Cl  UNL A   1      33.792  31.372  27.841  1.00  0.00    -0.084 Cl
ENDBRANCH  13  14
ENDBRANCH  11  13
ENDBRANCH   8  11
ENDBRANCH   7   8
ENDBRANCH   6   7
ENDBRANCH   5   6
ENDBRANCH   1   5
BRANCH   3  22
ATOM     22  C   UNL A   1      35.839  22.361  24.259  1.00  0.00     0.116 C 
BRANCH  22  23
ATOM     23  C   UNL A   1      37.328  22.323  24.605  1.00  0.00     0.023 C 
BRANCH  23  24
ATOM     24  C   UNL A   1      37.795  21.002  25.209  1.00  0.00     0.023 C 
BRANCH  24  25
ATOM     25  C   UNL A   1      39.185  21.055  25.843  1.00  0.00     0.116 C 
BRANCH  25  26
ATOM     26  N   UNL A   1      39.902  19.789  25.816  1.00  0.00    -0.352 N 
ATOM     27  C   UNL A   1      41.245  19.564  26.031  1.00  0.00     0.251 C 
ATOM     28  H   UNL A   1      39.360  18.993  25.619  1.00  0.00     0.163 HD
ATOM     29  O   UNL A   1      41.716  18.441  25.885  1.00  0.00    -0.269 OA
BRANCH  27  30
ATOM     30  C   UNL A   1      42.131  20.690  26.398  1.00  0.00     0.039 A 
ATOM     31  C   UNL A   1      42.763  21.388  25.368  1.00  0.00     0.014 A 
ATOM     32  C   UNL A   1      42.274  21.109  27.724  1.00  0.00     0.014 A 
ATOM     33  C   UNL A   1      43.406  22.592  25.650  1.00  0.00     0.010 A 
ATOM     34  C   UNL A   1      42.846  22.346  27.997  1.00  0.00     0.010 A 
ATOM     35  C   UNL A   1      43.371  23.119  26.952  1.00  0.00    -0.014 A 
BRANCH  35  36
ATOM     36  C   UNL A   1      43.741  24.534  27.189  1.00  0.00     0.031 A 
ATOM     37  C   UNL A   1      42.721  25.548  27.601  1.00  0.00     0.074 A 
ATOM     38  C   UNL A   1      45.019  24.901  26.955  1.00  0.00     0.049 A 
ATOM     39  N   UNL A   1      42.889  26.816  27.878  1.00  0.00    -0.248 NA
ATOM     40  C   UNL A   1      41.328  25.090  27.692  1.00  0.00     0.031 C 
ATOM     41  C   UNL A   1      46.075  24.008  26.471  1.00  0.00     0.029 A 
ATOM     42  N   UNL A   1      45.648  26.111  27.093  1.00  0.00    -0.354 N 
ATOM     43  C   UNL A   1      41.628  27.305  28.186  1.00  0.00     0.074 A 
ATOM     44  C   UNL A   1      40.696  26.213  28.001  1.00  0.00     0.031 C 
ATOM     45  C   UNL A   1      47.228  24.688  26.395  1.00  0.00     0.029 A 
ATOM     46  C   UNL A   1      46.988  26.072  26.787  1.00  0.00     0.049 A 
ATOM     47  H   UNL A   1      45.186  26.930  27.384  1.00  0.00     0.167 HD
ATOM     48  C   UNL A   1      41.291  28.548  28.606  1.00  0.00     0.037 A 
ATOM     49  C   UNL A   1      47.919  27.043  26.823  1.00  0.00     0.037 A 
ATOM     50  C   UNL A   1      42.234  29.624  28.778  1.00  0.00     0.049 A 
ATOM     51  C   UNL A   1      47.510  28.416  27.282  1.00  0.00     0.074 A 
ATOM     52  C   UNL A   1      42.006  30.902  29.256  1.00  0.00     0.029 A 
ATOM     53  N   UNL A   1      43.583  29.551  28.459  1.00  0.00    -0.354 N 
ATOM     54  N   UNL A   1      46.334  28.840  27.674  1.00  0.00    -0.248 NA
ATOM     55  C   UNL A   1      48.561  29.442  27.311  1.00  0.00     0.031 C 
ATOM     56  C   UNL A   1      43.203  31.622  29.165  1.00  0.00     0.029 A 
ATOM     57  C   UNL A   1      44.193  30.774  28.697  1.00  0.00     0.049 A 
ATOM     58  H   UNL A   1      44.040  28.750  28.115  1.00  0.00     0.167 HD
ATOM     59  C   UNL A   1      46.508  30.172  28.028  1.00  0.00     0.074 A 
ATOM     60  C   UNL A   1      47.908  30.477  27.819  1.00  0.00     0.031 C 
ATOM     61  C   UNL A   1      45.591  31.060  28.485  1.00  0.00     0.037 A 
BRANCH  48  62
ATOM     62  C   UNL A   1      39.842  28.811  28.906  1.00  0.00     0.064 A 
ATOM     63  C   UNL A   1      39.304  28.598  30.185  1.00  0.00     0.173 A 
ATOM     64  C   UNL A   1      38.990  29.323  27.915  1.00  0.00     0.173 A 
ATOM     65  F   UNL A   1      40.071  28.104  31.168  1.00  0.00    -0.203 F 
ATOM     66  C   UNL A   1      37.961  28.856  30.451  1.00  0.00     0.198 A 
ATOM     67  C   UNL A   1      37.657  29.612  28.194  1.00  0.00     0.198 A 
ATOM     68  F   UNL A   1      39.453  29.552  26.677  1.00  0.00    -0.203 F 
ATOM     69  F   UNL A   1      37.458  28.596  31.666  1.00  0.00    -0.200 F 
ATOM     70  C   UNL A   1      37.141  29.369  29.458  1.00  0.00     0.200 A 
ATOM     71  F   UNL A   1      36.870  30.122  27.237  1.00  0.00    -0.200 F 
ATOM     72  F   UNL A   1      35.851  29.626  29.717  1.00  0.00    -0.200 F 
ENDBRANCH  48  62
BRANCH  49  73
ATOM     73  C   UNL A   1      49.326  26.744  26.448  1.00  0.00     0.064 A 
ATOM     74  C   UNL A   1      50.245  26.285  27.403  1.00  0.00     0.173 A 
ATOM     75  C   UNL A   1      49.785  26.913  25.134  1.00  0.00     0.173 A 
ATOM     76  F   UNL A   1      49.859  26.120  28.678  1.00  0.00    -0.203 F 
ATOM     77  C   UNL A   1      51.573  26.033  27.063  1.00  0.00     0.198 A 
ATOM     78  C   UNL A   1      51.105  26.629  24.788  1.00  0.00     0.198 A 
ATOM     79  F   UNL A   1      48.945  27.338  24.178  1.00  0.00    -0.203 F 
ATOM     80  F   UNL A   1      52.441  25.646  28.008  1.00  0.00    -0.200 F 
ATOM     81  C   UNL A   1      52.001  26.200  25.756  1.00  0.00     0.200 A 
ATOM     82  F   UNL A   1      51.509  26.773  23.518  1.00  0.00    -0.200 F 
ATOM     83  F   UNL A   1      53.277  25.956  25.429  1.00  0.00    -0.200 F 
ENDBRANCH  49  73
BRANCH  61  84
ATOM     84  C   UNL A   1      46.083  32.438  28.824  1.00  0.00     0.064 A 
ATOM     85  C   UNL A   1      46.071  33.480  27.884  1.00  0.00     0.173 A 
ATOM     86  C   UNL A   1      46.539  32.728  30.119  1.00  0.00     0.173 A 
ATOM     87  F   UNL A   1      45.660  33.251  26.628  1.00  0.00    -0.203 F 
ATOM     88  C   UNL A   1      46.528  34.752  28.220  1.00  0.00     0.198 A 
ATOM     89  C   UNL A   1      46.959  34.010  30.461  1.00  0.00     0.198 A 
ATOM     90  F   UNL A   1      46.565  31.771  31.059  1.00  0.00    -0.203 F 
ATOM     91  F   UNL A   1      46.561  35.716  27.290  1.00  0.00    -0.200 F 
ATOM     92  C   UNL A   1      46.962  35.018  29.509  1.00  0.00     0.200 A 
ATOM     93  F   UNL A   1      47.362  34.269  31.713  1.00  0.00    -0.200 F 
ATOM     94  F   UNL A   1      47.393  36.245  29.833  1.00  0.00    -0.200 F 
ENDBRANCH  61  84
ENDBRANCH  35  36
ENDBRANCH  27  30
ENDBRANCH  25  26
ENDBRANCH  24  25
ENDBRANCH  23  24
ENDBRANCH  22  23
ENDBRANCH   3  22
TORSDOF 17
ENDMDL
MODEL 3
REMARK VINA RESULT:     -11.3      0.877      7.318
REMARK SMILES CN(Cc1ccc(Cl)cc1Cl)S(=O)(=O)CCCC(=O)NCCCCNC(=O)c1ccc(-c2c3nc(c(-c4c(F)c(F)c(F)c(F)c4F)c4ccc([nH]4)c(-c4c(F)c(F)c(F)c(F)c4F)c4nc(c(-c5c(F)c(F)c(F)c(F)c5F)c5ccc2[nH]5)C=C4)C=C3)cc1
REMARK SMILES IDX 18 1 19 2 20 3 17 5 16 6 15 7 12 8 13 9 14 10 2 11 1 12 3 13
REMARK SMILES IDX 4 14 5 15 10 16 6 17 9 18 11 19 7 20 8 21 21 22 22 23 23 24
REMARK SMILES IDX 24 25 25 26 26 27 27 29 28 30 29 31 90 32 30 33 89 34 31 35
REMARK SMILES IDX 32 36 33 37 83 38 34 39 88 40 82 41 84 42 35 43 87 44 81 45
REMARK SMILES IDX 80 46 36 48 68 49 48 50 67 51 49 52 52 53 66 54 85 55 50 56
REMARK SMILES IDX 51 57 65 59 86 60 53 61 37 62 38 63 46 64 39 65 40 66 44 67
REMARK SMILES IDX 47 68 41 69 42 70 45 71 43 72 69 73 70 74 78 75 71 76 72 77
REMARK SMILES IDX 76 78 79 79 73 80 74 81 77 82 75 83 54 84 55 85 63 86 56 87
REMARK SMILES IDX 57 88 61 89 64 90 58 91 59 92 62 93 60 94
REMARK H PARENT 20 4 25 28 84 47 52 58
REMARK Flexibility Score: inf
ROOT
ATOM      1  C   UNL A   1      33.863  22.611  27.285  1.00  0.00     0.220 C 
ATOM      2  O   UNL A   1      33.144  22.009  28.085  1.00  0.00    -0.275 OA
ATOM      3  N   UNL A   1      35.088  22.077  27.032  1.00  0.00    -0.356 N 
ATOM      4  H   UNL A   1      35.334  21.325  27.619  1.00  0.00     0.163 HD
ENDROOT
BRANCH   1   5
ATOM      5  C   UNL A   1      33.342  23.856  26.575  1.00  0.00     0.101 C 
BRANCH   5   6
ATOM      6  C   UNL A   1      33.105  23.780  25.070  1.00  0.00     0.027 C 
BRANCH   6   7
ATOM      7  C   UNL A   1      33.722  24.829  24.166  1.00  0.00     0.155 C 
BRANCH   7   8
ATOM      8  S   UNL A   1      32.823  25.514  22.771  1.00  0.00     0.214 S 
ATOM      9  O   UNL A   1      31.875  24.501  22.370  1.00  0.00    -0.212 OA
ATOM     10  O   UNL A   1      33.852  25.945  21.840  1.00  0.00    -0.212 OA
BRANCH   8  11
ATOM     11  N   UNL A   1      31.967  26.897  23.231  1.00  0.00    -0.201 NA
ATOM     12  C   UNL A   1      30.946  27.317  22.234  1.00  0.00     0.124 C 
BRANCH  11  13
ATOM     13  C   UNL A   1      31.480  27.153  24.625  1.00  0.00     0.138 C 
BRANCH  13  14
ATOM     14  C   UNL A   1      32.077  28.292  25.426  1.00  0.00    -0.014 A 
ATOM     15  C   UNL A   1      33.191  28.037  26.245  1.00  0.00     0.008 A 
ATOM     16  C   UNL A   1      31.599  29.614  25.382  1.00  0.00     0.047 A 
ATOM     17  C   UNL A   1      33.748  29.031  27.048  1.00  0.00     0.021 A 
ATOM     18  C   UNL A   1      32.171  30.617  26.177  1.00  0.00     0.041 A 
ATOM     19  Cl  UNL A   1      30.327  30.104  24.322  1.00  0.00    -0.084 Cl
ATOM     20  C   UNL A   1      33.235  30.317  27.016  1.00  0.00     0.042 A 
ATOM     21  Cl  UNL A   1      33.933  31.535  28.006  1.00  0.00    -0.084 Cl
ENDBRANCH  13  14
ENDBRANCH  11  13
ENDBRANCH   8  11
ENDBRANCH   7   8
ENDBRANCH   6   7
ENDBRANCH   5   6
ENDBRANCH   1   5
BRANCH   3  22
ATOM     22  C   UNL A   1      36.089  22.421  26.051  1.00  0.00     0.116 C 
BRANCH  22  23
ATOM     23  C   UNL A   1      36.718  21.204  25.374  1.00  0.00     0.023 C 
BRANCH  23  24
ATOM     24  C   UNL A   1      38.181  21.392  24.983  1.00  0.00     0.023 C 
BRANCH  24  25
ATOM     25  C   UNL A   1      39.177  21.088  26.102  1.00  0.00     0.116 C 
BRANCH  25  26
ATOM     26  N   UNL A   1      39.916  19.847  25.921  1.00  0.00    -0.352 N 
ATOM     27  C   UNL A   1      41.270  19.632  26.063  1.00  0.00     0.251 C 
ATOM     28  H   UNL A   1      39.381  19.063  25.666  1.00  0.00     0.163 HD
ATOM     29  O   UNL A   1      41.756  18.540  25.788  1.00  0.00    -0.269 OA
BRANCH  27  30
ATOM     30  C   UNL A   1      42.148  20.736  26.509  1.00  0.00     0.039 A 
ATOM     31  C   UNL A   1      42.757  21.524  25.530  1.00  0.00     0.014 A 
ATOM     32  C   UNL A   1      42.307  21.046  27.862  1.00  0.00     0.014 A 
ATOM     33  C   UNL A   1      43.390  22.709  25.901  1.00  0.00     0.010 A 
ATOM     34  C   UNL A   1      42.870  22.264  28.227  1.00  0.00     0.010 A 
ATOM     35  C   UNL A   1      43.369  23.126  27.243  1.00  0.00    -0.014 A 
BRANCH  35  36
ATOM     36  C   UNL A   1      43.727  24.522  27.590  1.00  0.00     0.031 A 
ATOM     37  C   UNL A   1      45.151  24.978  27.615  1.00  0.00     0.074 A 
ATOM     38  C   UNL A   1      42.732  25.359  27.951  1.00  0.00     0.049 A 
ATOM     39  N   UNL A   1      45.627  26.171  27.866  1.00  0.00    -0.248 NA
ATOM     40  C   UNL A   1      46.179  23.962  27.349  1.00  0.00     0.031 C 
ATOM     41  C   UNL A   1      41.315  24.992  28.040  1.00  0.00     0.029 A 
ATOM     42  N   UNL A   1      42.752  26.683  28.307  1.00  0.00    -0.354 N 
ATOM     43  C   UNL A   1      47.007  26.052  27.778  1.00  0.00     0.074 A 
ATOM     44  C   UNL A   1      47.294  24.659  27.512  1.00  0.00     0.031 C 
ATOM     45  C   UNL A   1      40.600  26.073  28.382  1.00  0.00     0.029 A 
ATOM     46  C   UNL A   1      41.506  27.199  28.573  1.00  0.00     0.049 A 
ATOM     47  H   UNL A   1      43.579  27.213  28.366  1.00  0.00     0.167 HD
ATOM     48  C   UNL A   1      47.941  27.028  27.887  1.00  0.00     0.037 A 
ATOM     49  C   UNL A   1      41.137  28.444  28.928  1.00  0.00     0.037 A 
ATOM     50  C   UNL A   1      47.634  28.410  28.160  1.00  0.00     0.049 A 
ATOM     51  C   UNL A   1      42.198  29.503  29.053  1.00  0.00     0.074 A 
ATOM     52  C   UNL A   1      48.498  29.487  28.230  1.00  0.00     0.029 A 
ATOM     53  N   UNL A   1      46.362  28.900  28.424  1.00  0.00    -0.354 N 
ATOM     54  N   UNL A   1      43.491  29.403  28.862  1.00  0.00    -0.248 NA
ATOM     55  C   UNL A   1      41.748  30.847  29.436  1.00  0.00     0.031 C 
ATOM     56  C   UNL A   1      47.760  30.617  28.601  1.00  0.00     0.029 A 
ATOM     57  C   UNL A   1      46.424  30.259  28.693  1.00  0.00     0.049 A 
ATOM     58  H   UNL A   1      45.537  28.363  28.420  1.00  0.00     0.167 HD
ATOM     59  C   UNL A   1      44.005  30.676  29.068  1.00  0.00     0.074 A 
ATOM     60  C   UNL A   1      42.880  31.533  29.382  1.00  0.00     0.031 C 
ATOM     61  C   UNL A   1      45.292  31.098  29.002  1.00  0.00     0.037 A 
BRANCH  48  62
ATOM     62  C   UNL A   1      49.380  26.635  27.717  1.00  0.00     0.064 A 
ATOM     63  C   UNL A   1      49.964  26.507  26.446  1.00  0.00     0.173 A 
ATOM     64  C   UNL A   1      50.200  26.424  28.836  1.00  0.00     0.173 A 
ATOM     65  F   UNL A   1      49.225  26.690  25.341  1.00  0.00    -0.203 F 
ATOM     66  C   UNL A   1      51.303  26.151  26.303  1.00  0.00     0.198 A 
ATOM     67  C   UNL A   1      51.546  26.103  28.690  1.00  0.00     0.198 A 
ATOM     68  F   UNL A   1      49.698  26.540  30.075  1.00  0.00    -0.203 F 
ATOM     69  F   UNL A   1      51.823  25.985  25.079  1.00  0.00    -0.200 F 
ATOM     70  C   UNL A   1      52.095  25.957  27.424  1.00  0.00     0.200 A 
ATOM     71  F   UNL A   1      52.314  25.929  29.774  1.00  0.00    -0.200 F 
ATOM     72  F   UNL A   1      53.386  25.623  27.286  1.00  0.00    -0.200 F 
ENDBRANCH  48  62
BRANCH  49  73
ATOM     73  C   UNL A   1      39.702  28.762  29.153  1.00  0.00     0.064 A 
ATOM     74  C   UNL A   1      38.897  29.244  28.110  1.00  0.00     0.173 A 
ATOM     75  C   UNL A   1      39.105  28.597  30.411  1.00  0.00     0.173 A 
ATOM     76  F   UNL A   1      39.424  29.432  26.891  1.00  0.00    -0.203 F 
ATOM     77  C   UNL A   1      37.560  29.573  28.324  1.00  0.00     0.198 A 
ATOM     78  C   UNL A   1      37.759  28.896  30.616  1.00  0.00     0.198 A 
ATOM     79  F   UNL A   1      39.826  28.129  31.441  1.00  0.00    -0.203 F 
ATOM     80  F   UNL A   1      36.830  30.081  27.322  1.00  0.00    -0.200 F 
ATOM     81  C   UNL A   1      36.991  29.394  29.575  1.00  0.00     0.200 A 
ATOM     82  F   UNL A   1      37.208  28.702  31.822  1.00  0.00    -0.200 F 
ATOM     83  F   UNL A   1      35.705  29.709  29.779  1.00  0.00    -0.200 F 
ENDBRANCH  49  73
BRANCH  61  84
ATOM     84  C   UNL A   1      45.547  32.559  29.241  1.00  0.00     0.064 A 
ATOM     85  C   UNL A   1      45.868  33.056  30.513  1.00  0.00     0.173 A 
ATOM     86  C   UNL A   1      45.504  33.468  28.172  1.00  0.00     0.173 A 
ATOM     87  F   UNL A   1      45.907  32.231  31.570  1.00  0.00    -0.203 F 
ATOM     88  C   UNL A   1      46.105  34.413  30.712  1.00  0.00     0.198 A 
ATOM     89  C   UNL A   1      45.779  34.819  28.369  1.00  0.00     0.198 A 
ATOM     90  F   UNL A   1      45.209  33.045  26.934  1.00  0.00    -0.203 F 
ATOM     91  F   UNL A   1      46.354  34.873  31.946  1.00  0.00    -0.200 F 
ATOM     92  C   UNL A   1      46.069  35.291  29.639  1.00  0.00     0.200 A 
ATOM     93  F   UNL A   1      45.760  35.662  27.328  1.00  0.00    -0.200 F 
ATOM     94  F   UNL A   1      46.307  36.596  29.831  1.00  0.00    -0.200 F 
ENDBRANCH  61  84
ENDBRANCH  35  36
ENDBRANCH  27  30
ENDBRANCH  25  26
ENDBRANCH  24  25
ENDBRANCH  23  24
ENDBRANCH  22  23
ENDBRANCH   3  22
TORSDOF 17
ENDMDL
