MODEL 1
REMARK VINA RESULT:     -13.9      0.000      0.000
REMARK SMILES O=C(NCCCCNC(=O)[C@H]1Cc2c([nH]c3ccccc23)[C@H](c2c[nH]c3ccccc23)[NH2+]1)c1ccc(-c2c3nc(c(-c4c(F)c(F)c(F)c(F)c4F)c4ccc([nH]4)c(-c4c(F)c(F)c(F)c(F)c4F)c4nc(c(-c5c(F)c(F)c(F)c(F)c5F)c5ccc2[nH]5)C=C4)C=C3)cc1
REMARK SMILES IDX 5 1 4 2 3 3 1 4 2 5 33 7 34 8 95 9 35 10 94 11 36 12 37 13
REMARK SMILES IDX 38 14 88 15 39 16 93 17 87 18 89 19 40 20 92 21 86 22 85 23
REMARK SMILES IDX 41 25 73 26 53 27 72 28 54 29 57 30 71 31 90 32 55 33 56 34
REMARK SMILES IDX 70 36 91 37 58 38 42 39 43 40 51 41 44 42 45 43 49 44 52 45
REMARK SMILES IDX 46 46 47 47 50 48 48 49 74 50 75 51 83 52 76 53 77 54 81 55
REMARK SMILES IDX 84 56 78 57 79 58 82 59 80 60 59 61 60 62 68 63 61 64 62 65
REMARK SMILES IDX 66 66 69 67 63 68 64 69 67 70 65 71 6 72 7 73 8 74 9 75
REMARK SMILES IDX 10 77 11 78 12 79 32 80 13 81 22 82 14 85 21 86 15 87 16 88
REMARK SMILES IDX 20 89 17 91 19 92 18 93 23 94 24 95 31 96 25 97 26 98 30 99
REMARK SMILES IDX 27 101 29 102 28 103
REMARK H PARENT 3 6 89 24 57 35 8 76 32 83 32 84 15 90 25 100
REMARK Flexibility Score: inf
ROOT
ATOM      1  C   UNL A   1      32.636  27.899  25.334  1.00  0.00     0.023 C 
ENDROOT
BRANCH   1   2
ATOM      2  C   UNL A   1      33.429  29.184  25.207  1.00  0.00     0.116 C 
BRANCH   2   3
ATOM      3  N   UNL A   1      32.775  30.327  25.832  1.00  0.00    -0.352 N 
ATOM      4  O   UNL A   1      32.453  31.935  27.391  1.00  0.00    -0.269 OA
ATOM      5  C   UNL A   1      33.187  31.078  26.909  1.00  0.00     0.251 C 
ATOM      6  H   UNL A   1      31.920  30.600  25.428  1.00  0.00     0.163 HD
BRANCH   5   7
ATOM      7  C   UNL A   1      34.514  30.815  27.506  1.00  0.00     0.039 A 
ATOM      8  C   UNL A   1      34.822  29.545  27.992  1.00  0.00     0.014 A 
ATOM      9  C   UNL A   1      35.436  31.858  27.628  1.00  0.00     0.014 A 
ATOM     10  C   UNL A   1      35.952  29.368  28.774  1.00  0.00     0.010 A 
ATOM     11  C   UNL A   1      36.637  31.644  28.312  1.00  0.00     0.010 A 
ATOM     12  C   UNL A   1      36.884  30.409  28.929  1.00  0.00    -0.014 A 
BRANCH  12  13
ATOM     13  C   UNL A   1      38.125  30.134  29.696  1.00  0.00     0.031 A 
ATOM     14  C   UNL A   1      38.300  30.614  31.109  1.00  0.00     0.074 A 
ATOM     15  C   UNL A   1      39.066  29.362  29.118  1.00  0.00     0.049 A 
ATOM     16  N   UNL A   1      39.297  30.399  31.931  1.00  0.00    -0.248 NA
ATOM     17  C   UNL A   1      37.230  31.450  31.674  1.00  0.00     0.031 C 
ATOM     18  C   UNL A   1      39.006  28.854  27.745  1.00  0.00     0.029 A 
ATOM     19  N   UNL A   1      40.228  28.832  29.616  1.00  0.00    -0.354 N 
ATOM     20  C   UNL A   1      38.987  31.086  33.097  1.00  0.00     0.074 A 
ATOM     21  C   UNL A   1      37.717  31.744  32.873  1.00  0.00     0.031 C 
ATOM     22  C   UNL A   1      40.037  28.026  27.535  1.00  0.00     0.029 A 
ATOM     23  C   UNL A   1      40.870  28.001  28.731  1.00  0.00     0.049 A 
ATOM     24  H   UNL A   1      40.567  29.028  30.519  1.00  0.00     0.167 HD
ATOM     25  C   UNL A   1      39.697  31.153  34.250  1.00  0.00     0.037 A 
ATOM     26  C   UNL A   1      42.011  27.301  28.862  1.00  0.00     0.037 A 
ATOM     27  C   UNL A   1      40.950  30.478  34.472  1.00  0.00     0.049 A 
ATOM     28  C   UNL A   1      42.761  27.378  30.158  1.00  0.00     0.074 A 
ATOM     29  C   UNL A   1      41.750  30.488  35.603  1.00  0.00     0.029 A 
ATOM     30  N   UNL A   1      41.581  29.660  33.545  1.00  0.00    -0.354 N 
ATOM     31  N   UNL A   1      42.458  28.040  31.248  1.00  0.00    -0.248 NA
ATOM     32  C   UNL A   1      44.014  26.619  30.240  1.00  0.00     0.031 C 
ATOM     33  C   UNL A   1      42.879  29.699  35.349  1.00  0.00     0.029 A 
ATOM     34  C   UNL A   1      42.763  29.166  34.076  1.00  0.00     0.049 A 
ATOM     35  H   UNL A   1      41.241  29.461  32.643  1.00  0.00     0.167 HD
ATOM     36  C   UNL A   1      43.483  27.783  32.144  1.00  0.00     0.074 A 
ATOM     37  C   UNL A   1      44.397  26.872  31.484  1.00  0.00     0.031 C 
ATOM     38  C   UNL A   1      43.661  28.269  33.396  1.00  0.00     0.037 A 
BRANCH  25  39
ATOM     39  C   UNL A   1      39.144  31.994  35.364  1.00  0.00     0.064 A 
ATOM     40  C   UNL A   1      38.375  31.435  36.395  1.00  0.00     0.173 A 
ATOM     41  C   UNL A   1      39.436  33.364  35.433  1.00  0.00     0.173 A 
ATOM     42  F   UNL A   1      38.057  30.131  36.368  1.00  0.00    -0.203 F 
ATOM     43  C   UNL A   1      37.908  32.220  37.446  1.00  0.00     0.198 A 
ATOM     44  C   UNL A   1      38.987  34.142  36.497  1.00  0.00     0.198 A 
ATOM     45  F   UNL A   1      40.173  33.948  34.475  1.00  0.00    -0.203 F 
ATOM     46  F   UNL A   1      37.148  31.670  38.404  1.00  0.00    -0.200 F 
ATOM     47  C   UNL A   1      38.220  33.569  37.501  1.00  0.00     0.200 A 
ATOM     48  F   UNL A   1      39.299  35.444  36.555  1.00  0.00    -0.200 F 
ATOM     49  F   UNL A   1      37.779  34.321  38.520  1.00  0.00    -0.200 F 
ENDBRANCH  25  39
BRANCH  26  50
ATOM     50  C   UNL A   1      42.503  26.482  27.727  1.00  0.00     0.064 A 
ATOM     51  C   UNL A   1      42.110  25.146  27.573  1.00  0.00     0.173 A 
ATOM     52  C   UNL A   1      43.355  27.029  26.756  1.00  0.00     0.173 A 
ATOM     53  F   UNL A   1      41.310  24.573  28.486  1.00  0.00    -0.203 F 
ATOM     54  C   UNL A   1      42.561  24.384  26.498  1.00  0.00     0.198 A 
ATOM     55  C   UNL A   1      43.778  26.276  25.664  1.00  0.00     0.198 A 
ATOM     56  F   UNL A   1      43.751  28.307  26.854  1.00  0.00    -0.203 F 
ATOM     57  F   UNL A   1      42.200  23.098  26.393  1.00  0.00    -0.200 F 
ATOM     58  C   UNL A   1      43.388  24.953  25.540  1.00  0.00     0.200 A 
ATOM     59  F   UNL A   1      44.561  26.836  24.731  1.00  0.00    -0.200 F 
ATOM     60  F   UNL A   1      43.809  24.223  24.498  1.00  0.00    -0.200 F 
ENDBRANCH  26  50
BRANCH  38  61
ATOM     61  C   UNL A   1      44.891  27.818  34.122  1.00  0.00     0.064 A 
ATOM     62  C   UNL A   1      44.908  26.620  34.851  1.00  0.00     0.173 A 
ATOM     63  C   UNL A   1      46.063  28.587  34.085  1.00  0.00     0.173 A 
ATOM     64  F   UNL A   1      43.803  25.863  34.929  1.00  0.00    -0.203 F 
ATOM     65  C   UNL A   1      46.047  26.222  35.544  1.00  0.00     0.198 A 
ATOM     66  C   UNL A   1      47.208  28.174  34.759  1.00  0.00     0.198 A 
ATOM     67  F   UNL A   1      46.096  29.739  33.399  1.00  0.00    -0.203 F 
ATOM     68  F   UNL A   1      46.026  25.100  36.276  1.00  0.00    -0.200 F 
ATOM     69  C   UNL A   1      47.198  26.997  35.494  1.00  0.00     0.200 A 
ATOM     70  F   UNL A   1      48.320  28.919  34.706  1.00  0.00    -0.200 F 
ATOM     71  F   UNL A   1      48.292  26.614  36.165  1.00  0.00    -0.200 F 
ENDBRANCH  38  61
ENDBRANCH  12  13
ENDBRANCH   5   7
ENDBRANCH   2   3
ENDBRANCH   1   2
BRANCH   1  72
ATOM     72  C   UNL A   1      32.647  27.023  24.091  1.00  0.00     0.023 C 
BRANCH  72  73
ATOM     73  C   UNL A   1      31.569  25.944  24.035  1.00  0.00     0.116 C 
BRANCH  73  74
ATOM     74  N   UNL A   1      31.116  25.600  25.369  1.00  0.00    -0.351 N 
ATOM     75  C   UNL A   1      31.398  24.519  26.151  1.00  0.00     0.278 C 
ATOM     76  H   UNL A   1      30.503  26.254  25.776  1.00  0.00     0.163 HD
ATOM     77  O   UNL A   1      30.769  24.421  27.208  1.00  0.00    -0.268 OA
BRANCH  75  78
ATOM     78  C   UNL A   1      32.485  23.507  25.734  1.00  0.00     0.277 C 
ATOM     79  C   UNL A   1      33.840  24.132  26.159  1.00  0.00     0.114 C 
ATOM     80  N   UNL A   1      32.222  22.187  26.370  1.00  0.00    -0.324 N 
ATOM     81  C   UNL A   1      34.908  23.102  26.102  1.00  0.00    -0.006 A 
ATOM     82  C   UNL A   1      33.212  21.148  26.050  1.00  0.00     0.264 C 
ATOM     83  H   UNL A   1      31.307  21.861  26.061  1.00  0.00     0.347 HD
ATOM     84  H   UNL A   1      32.274  22.336  27.378  1.00  0.00     0.347 HD
ATOM     85  C   UNL A   1      34.591  21.757  26.076  1.00  0.00     0.083 A 
ATOM     86  C   UNL A   1      36.322  23.227  26.085  1.00  0.00     0.003 A 
ATOM     87  N   UNL A   1      35.770  21.061  26.108  1.00  0.00    -0.353 N 
ATOM     88  C   UNL A   1      36.839  21.930  26.067  1.00  0.00     0.046 A 
ATOM     89  C   UNL A   1      37.219  24.312  26.085  1.00  0.00     0.010 A 
ATOM     90  H   UNL A   1      35.843  20.081  26.153  1.00  0.00     0.166 HD
ATOM     91  C   UNL A   1      38.211  21.663  26.028  1.00  0.00     0.026 A 
ATOM     92  C   UNL A   1      38.597  24.062  26.048  1.00  0.00     0.001 A 
ATOM     93  C   UNL A   1      39.082  22.756  26.015  1.00  0.00     0.002 A 
BRANCH  82  94
ATOM     94  C   UNL A   1      32.943  20.375  24.756  1.00  0.00     0.041 A 
ATOM     95  C   UNL A   1      32.208  20.904  23.699  1.00  0.00     0.093 A 
ATOM     96  C   UNL A   1      33.371  19.072  24.286  1.00  0.00     0.009 A 
ATOM     97  N   UNL A   1      32.062  19.964  22.722  1.00  0.00    -0.361 N 
ATOM     98  C   UNL A   1      32.756  18.832  23.052  1.00  0.00     0.046 A 
ATOM     99  C   UNL A   1      34.223  18.055  24.764  1.00  0.00     0.011 A 
ATOM    100  H   UNL A   1      31.532  20.082  21.901  1.00  0.00     0.166 HD
ATOM    101  C   UNL A   1      32.889  17.637  22.332  1.00  0.00     0.026 A 
ATOM    102  C   UNL A   1      34.385  16.856  24.051  1.00  0.00     0.001 A 
ATOM    103  C   UNL A   1      33.708  16.643  22.860  1.00  0.00     0.002 A 
ENDBRANCH  82  94
ENDBRANCH  75  78
ENDBRANCH  73  74
ENDBRANCH  72  73
ENDBRANCH   1  72
TORSDOF 12
ENDMDL
MODEL 2
REMARK VINA RESULT:     -13.6      0.339      7.173
REMARK SMILES O=C(NCCCCNC(=O)[C@H]1Cc2c([nH]c3ccccc23)[C@H](c2c[nH]c3ccccc23)[NH2+]1)c1ccc(-c2c3nc(c(-c4c(F)c(F)c(F)c(F)c4F)c4ccc([nH]4)c(-c4c(F)c(F)c(F)c(F)c4F)c4nc(c(-c5c(F)c(F)c(F)c(F)c5F)c5ccc2[nH]5)C=C4)C=C3)cc1
REMARK SMILES IDX 5 1 4 2 3 3 1 4 2 5 33 7 34 8 95 9 35 10 94 11 36 12 37 13
REMARK SMILES IDX 38 14 88 15 39 16 93 17 87 18 89 19 40 20 92 21 86 22 85 23
REMARK SMILES IDX 41 25 73 26 53 27 72 28 54 29 57 30 71 31 90 32 55 33 56 34
REMARK SMILES IDX 70 36 91 37 58 38 42 39 43 40 51 41 44 42 45 43 49 44 52 45
REMARK SMILES IDX 46 46 47 47 50 48 48 49 74 50 75 51 83 52 76 53 77 54 81 55
REMARK SMILES IDX 84 56 78 57 79 58 82 59 80 60 59 61 60 62 68 63 61 64 62 65
REMARK SMILES IDX 66 66 69 67 63 68 64 69 67 70 65 71 6 72 7 73 8 74 9 75
REMARK SMILES IDX 10 77 11 78 12 79 32 80 13 81 22 82 14 85 21 86 15 87 16 88
REMARK SMILES IDX 20 89 17 91 19 92 18 93 23 94 24 95 31 96 25 97 26 98 30 99
REMARK SMILES IDX 27 101 29 102 28 103
REMARK H PARENT 3 6 89 24 57 35 8 76 32 83 32 84 15 90 25 100
REMARK Flexibility Score: inf
ROOT
ATOM      1  C   UNL A   1      32.343  28.086  25.246  1.00  0.00     0.023 C 
ENDROOT
BRANCH   1   2
ATOM      2  C   UNL A   1      33.255  29.293  25.154  1.00  0.00     0.116 C 
BRANCH   2   3
ATOM      3  N   UNL A   1      32.691  30.488  25.769  1.00  0.00    -0.352 N 
ATOM      4  O   UNL A   1      32.470  32.109  27.331  1.00  0.00    -0.269 OA
ATOM      5  C   UNL A   1      33.137  31.190  26.865  1.00  0.00     0.251 C 
ATOM      6  H   UNL A   1      31.878  30.842  25.341  1.00  0.00     0.163 HD
BRANCH   5   7
ATOM      7  C   UNL A   1      34.414  30.801  27.500  1.00  0.00     0.039 A 
ATOM      8  C   UNL A   1      34.603  29.493  27.943  1.00  0.00     0.014 A 
ATOM      9  C   UNL A   1      35.407  31.763  27.701  1.00  0.00     0.014 A 
ATOM     10  C   UNL A   1      35.684  29.198  28.759  1.00  0.00     0.010 A 
ATOM     11  C   UNL A   1      36.559  31.430  28.420  1.00  0.00     0.010 A 
ATOM     12  C   UNL A   1      36.685  30.155  28.993  1.00  0.00    -0.014 A 
BRANCH  12  13
ATOM     13  C   UNL A   1      37.869  29.754  29.794  1.00  0.00     0.031 A 
ATOM     14  C   UNL A   1      38.954  28.890  29.218  1.00  0.00     0.074 A 
ATOM     15  C   UNL A   1      37.989  30.259  31.038  1.00  0.00     0.049 A 
ATOM     16  N   UNL A   1      40.079  28.508  29.771  1.00  0.00    -0.248 NA
ATOM     17  C   UNL A   1      38.755  28.376  27.855  1.00  0.00     0.031 C 
ATOM     18  C   UNL A   1      36.987  31.097  31.703  1.00  0.00     0.029 A 
ATOM     19  N   UNL A   1      39.013  30.186  31.946  1.00  0.00    -0.354 N 
ATOM     20  C   UNL A   1      40.709  27.698  28.836  1.00  0.00     0.074 A 
ATOM     21  C   UNL A   1      39.833  27.623  27.686  1.00  0.00     0.031 C 
ATOM     22  C   UNL A   1      37.475  31.523  32.874  1.00  0.00     0.029 A 
ATOM     23  C   UNL A   1      38.792  30.932  33.077  1.00  0.00     0.049 A 
ATOM     24  H   UNL A   1      39.826  29.650  31.800  1.00  0.00     0.167 HD
ATOM     25  C   UNL A   1      41.912  27.079  28.931  1.00  0.00     0.037 A 
ATOM     26  C   UNL A   1      39.560  31.115  34.166  1.00  0.00     0.037 A 
ATOM     27  C   UNL A   1      42.787  27.175  30.072  1.00  0.00     0.049 A 
ATOM     28  C   UNL A   1      40.896  30.436  34.231  1.00  0.00     0.074 A 
ATOM     29  C   UNL A   1      44.022  26.582  30.267  1.00  0.00     0.029 A 
ATOM     30  N   UNL A   1      42.520  27.925  31.209  1.00  0.00    -0.354 N 
ATOM     31  N   UNL A   1      41.472  29.665  33.341  1.00  0.00    -0.248 NA
ATOM     32  C   UNL A   1      41.683  30.644  35.451  1.00  0.00     0.031 C 
ATOM     33  C   UNL A   1      44.491  26.949  31.534  1.00  0.00     0.029 A 
ATOM     34  C   UNL A   1      43.566  27.803  32.112  1.00  0.00     0.049 A 
ATOM     35  H   UNL A   1      41.708  28.462  31.354  1.00  0.00     0.167 HD
ATOM     36  C   UNL A   1      42.686  29.291  33.894  1.00  0.00     0.074 A 
ATOM     37  C   UNL A   1      42.780  29.952  35.180  1.00  0.00     0.031 C 
ATOM     38  C   UNL A   1      43.632  28.463  33.390  1.00  0.00     0.037 A 
BRANCH  25  39
ATOM     39  C   UNL A   1      42.355  26.232  27.774  1.00  0.00     0.064 A 
ATOM     40  C   UNL A   1      43.171  26.747  26.755  1.00  0.00     0.173 A 
ATOM     41  C   UNL A   1      42.011  24.873  27.714  1.00  0.00     0.173 A 
ATOM     42  F   UNL A   1      43.517  28.043  26.760  1.00  0.00    -0.203 F 
ATOM     43  C   UNL A   1      43.612  25.936  25.712  1.00  0.00     0.198 A 
ATOM     44  C   UNL A   1      42.473  24.060  26.682  1.00  0.00     0.198 A 
ATOM     45  F   UNL A   1      41.238  24.329  28.666  1.00  0.00    -0.203 F 
ATOM     46  F   UNL A   1      44.365  26.458  24.733  1.00  0.00    -0.200 F 
ATOM     47  C   UNL A   1      43.270  24.593  25.681  1.00  0.00     0.200 A 
ATOM     48  F   UNL A   1      42.151  22.759  26.659  1.00  0.00    -0.200 F 
ATOM     49  F   UNL A   1      43.706  23.812  24.682  1.00  0.00    -0.200 F 
ENDBRANCH  25  39
BRANCH  26  50
ATOM     50  C   UNL A   1      39.070  31.970  35.275  1.00  0.00     0.064 A 
ATOM     51  C   UNL A   1      38.366  31.423  36.356  1.00  0.00     0.173 A 
ATOM     52  C   UNL A   1      39.321  33.351  35.289  1.00  0.00     0.173 A 
ATOM     53  F   UNL A   1      38.087  30.111  36.379  1.00  0.00    -0.203 F 
ATOM     54  C   UNL A   1      37.922  32.227  37.404  1.00  0.00     0.198 A 
ATOM     55  C   UNL A   1      38.905  34.146  36.352  1.00  0.00     0.198 A 
ATOM     56  F   UNL A   1      39.999  33.919  34.281  1.00  0.00    -0.203 F 
ATOM     57  F   UNL A   1      37.220  31.686  38.408  1.00  0.00    -0.200 F 
ATOM     58  C   UNL A   1      38.200  33.586  37.405  1.00  0.00     0.200 A 
ATOM     59  F   UNL A   1      39.194  35.455  36.358  1.00  0.00    -0.200 F 
ATOM     60  F   UNL A   1      37.784  34.355  38.420  1.00  0.00    -0.200 F 
ENDBRANCH  26  50
BRANCH  38  61
ATOM     61  C   UNL A   1      44.845  28.234  34.240  1.00  0.00     0.064 A 
ATOM     62  C   UNL A   1      45.966  29.072  34.148  1.00  0.00     0.173 A 
ATOM     63  C   UNL A   1      44.885  27.172  35.155  1.00  0.00     0.173 A 
ATOM     64  F   UNL A   1      45.979  30.088  33.273  1.00  0.00    -0.203 F 
ATOM     65  C   UNL A   1      47.098  28.836  34.923  1.00  0.00     0.198 A 
ATOM     66  C   UNL A   1      46.009  26.954  35.945  1.00  0.00     0.198 A 
ATOM     67  F   UNL A   1      43.835  26.346  35.279  1.00  0.00    -0.203 F 
ATOM     68  F   UNL A   1      48.177  29.617  34.783  1.00  0.00    -0.200 F 
ATOM     69  C   UNL A   1      47.117  27.780  35.823  1.00  0.00     0.200 A 
ATOM     70  F   UNL A   1      46.025  25.938  36.818  1.00  0.00    -0.200 F 
ATOM     71  F   UNL A   1      48.209  27.552  36.564  1.00  0.00    -0.200 F 
ENDBRANCH  38  61
ENDBRANCH  12  13
ENDBRANCH   5   7
ENDBRANCH   2   3
ENDBRANCH   1   2
BRANCH   1  72
ATOM     72  C   UNL A   1      32.588  27.026  24.183  1.00  0.00     0.023 C 
BRANCH  72  73
ATOM     73  C   UNL A   1      31.520  25.941  24.076  1.00  0.00     0.116 C 
BRANCH  73  74
ATOM     74  N   UNL A   1      31.036  25.564  25.389  1.00  0.00    -0.351 N 
ATOM     75  C   UNL A   1      31.306  24.465  26.152  1.00  0.00     0.278 C 
ATOM     76  H   UNL A   1      30.409  26.204  25.797  1.00  0.00     0.163 HD
ATOM     77  O   UNL A   1      30.651  24.339  27.191  1.00  0.00    -0.268 OA
BRANCH  75  78
ATOM     78  C   UNL A   1      32.409  23.470  25.739  1.00  0.00     0.277 C 
ATOM     79  C   UNL A   1      33.753  24.118  26.163  1.00  0.00     0.114 C 
ATOM     80  N   UNL A   1      32.167  22.148  26.380  1.00  0.00    -0.324 N 
ATOM     81  C   UNL A   1      34.838  23.105  26.110  1.00  0.00    -0.006 A 
ATOM     82  C   UNL A   1      33.173  21.124  26.063  1.00  0.00     0.264 C 
ATOM     83  H   UNL A   1      31.257  21.806  26.072  1.00  0.00     0.347 HD
ATOM     84  H   UNL A   1      32.216  22.301  27.387  1.00  0.00     0.347 HD
ATOM     85  C   UNL A   1      34.543  21.755  26.088  1.00  0.00     0.083 A 
ATOM     86  C   UNL A   1      36.249  23.253  26.093  1.00  0.00     0.003 A 
ATOM     87  N   UNL A   1      35.732  21.079  26.122  1.00  0.00    -0.353 N 
ATOM     88  C   UNL A   1      36.787  21.964  26.079  1.00  0.00     0.046 A 
ATOM     89  C   UNL A   1      37.129  24.352  26.089  1.00  0.00     0.010 A 
ATOM     90  H   UNL A   1      35.821  20.100  26.171  1.00  0.00     0.166 HD
ATOM     91  C   UNL A   1      38.164  21.720  26.042  1.00  0.00     0.026 A 
ATOM     92  C   UNL A   1      38.511  24.124  26.053  1.00  0.00     0.001 A 
ATOM     93  C   UNL A   1      39.017  22.826  26.025  1.00  0.00     0.002 A 
BRANCH  82  94
ATOM     94  C   UNL A   1      32.917  20.342  24.773  1.00  0.00     0.041 A 
ATOM     95  C   UNL A   1      32.166  20.852  23.717  1.00  0.00     0.093 A 
ATOM     96  C   UNL A   1      33.375  19.049  24.303  1.00  0.00     0.009 A 
ATOM     97  N   UNL A   1      32.037  19.907  22.743  1.00  0.00    -0.361 N 
ATOM     98  C   UNL A   1      32.760  18.793  23.072  1.00  0.00     0.046 A 
ATOM     99  C   UNL A   1      34.253  18.054  24.778  1.00  0.00     0.011 A 
ATOM    100  H   UNL A   1      31.501  20.010  21.924  1.00  0.00     0.166 HD
ATOM    101  C   UNL A   1      32.918  17.599  22.354  1.00  0.00     0.026 A 
ATOM    102  C   UNL A   1      34.440  16.857  24.067  1.00  0.00     0.001 A 
ATOM    103  C   UNL A   1      33.764  16.626  22.879  1.00  0.00     0.002 A 
ENDBRANCH  82  94
ENDBRANCH  75  78
ENDBRANCH  73  74
ENDBRANCH  72  73
ENDBRANCH   1  72
TORSDOF 12
ENDMDL
MODEL 3
REMARK VINA RESULT:     -13.4      2.608      5.123
REMARK SMILES O=C(NCCCCNC(=O)[C@H]1Cc2c([nH]c3ccccc23)[C@H](c2c[nH]c3ccccc23)[NH2+]1)c1ccc(-c2c3nc(c(-c4c(F)c(F)c(F)c(F)c4F)c4ccc([nH]4)c(-c4c(F)c(F)c(F)c(F)c4F)c4nc(c(-c5c(F)c(F)c(F)c(F)c5F)c5ccc2[nH]5)C=C4)C=C3)cc1
REMARK SMILES IDX 5 1 4 2 3 3 1 4 2 5 33 7 34 8 95 9 35 10 94 11 36 12 37 13
REMARK SMILES IDX 38 14 88 15 39 16 93 17 87 18 89 19 40 20 92 21 86 22 85 23
REMARK SMILES IDX 41 25 73 26 53 27 72 28 54 29 57 30 71 31 90 32 55 33 56 34
REMARK SMILES IDX 70 36 91 37 58 38 42 39 43 40 51 41 44 42 45 43 49 44 52 45
REMARK SMILES IDX 46 46 47 47 50 48 48 49 74 50 75 51 83 52 76 53 77 54 81 55
REMARK SMILES IDX 84 56 78 57 79 58 82 59 80 60 59 61 60 62 68 63 61 64 62 65
REMARK SMILES IDX 66 66 69 67 63 68 64 69 67 70 65 71 6 72 7 73 8 74 9 75
REMARK SMILES IDX 10 77 11 78 12 79 32 80 13 81 22 82 14 85 21 86 15 87 16 88
REMARK SMILES IDX 20 89 17 91 19 92 18 93 23 94 24 95 31 96 25 97 26 98 30 99
REMARK SMILES IDX 27 101 29 102 28 103
REMARK H PARENT 3 6 89 24 57 35 8 76 32 83 32 84 15 90 25 100
REMARK Flexibility Score: inf
ROOT
ATOM      1  C   UNL A   1      33.995  32.411  27.284  1.00  0.00     0.023 C 
ENDROOT
BRANCH   1   2
ATOM      2  C   UNL A   1      32.583  32.752  27.714  1.00  0.00     0.116 C 
BRANCH   2   3
ATOM      3  N   UNL A   1      32.380  34.178  27.940  1.00  0.00    -0.352 N 
ATOM      4  O   UNL A   1      32.674  36.179  28.952  1.00  0.00    -0.269 OA
ATOM      5  C   UNL A   1      33.055  35.024  28.789  1.00  0.00     0.251 C 
ATOM      6  H   UNL A   1      31.660  34.592  27.412  1.00  0.00     0.163 HD
BRANCH   5   7
ATOM      7  C   UNL A   1      34.226  34.515  29.534  1.00  0.00     0.039 A 
ATOM      8  C   UNL A   1      35.514  34.732  29.044  1.00  0.00     0.014 A 
ATOM      9  C   UNL A   1      34.034  33.772  30.702  1.00  0.00     0.014 A 
ATOM     10  C   UNL A   1      36.580  34.043  29.598  1.00  0.00     0.010 A 
ATOM     11  C   UNL A   1      35.130  33.177  31.333  1.00  0.00     0.010 A 
ATOM     12  C   UNL A   1      36.407  33.272  30.760  1.00  0.00    -0.014 A 
BRANCH  12  13
ATOM     13  C   UNL A   1      37.603  32.635  31.366  1.00  0.00     0.031 A 
ATOM     14  C   UNL A   1      38.050  32.965  32.761  1.00  0.00     0.074 A 
ATOM     15  C   UNL A   1      38.236  31.679  30.657  1.00  0.00     0.049 A 
ATOM     16  N   UNL A   1      39.035  32.445  33.453  1.00  0.00    -0.248 NA
ATOM     17  C   UNL A   1      37.311  34.017  33.475  1.00  0.00     0.031 C 
ATOM     18  C   UNL A   1      37.896  31.289  29.285  1.00  0.00     0.029 A 
ATOM     19  N   UNL A   1      39.259  30.833  30.997  1.00  0.00    -0.354 N 
ATOM     20  C   UNL A   1      39.046  33.118  34.667  1.00  0.00     0.074 A 
ATOM     21  C   UNL A   1      37.983  34.099  34.615  1.00  0.00     0.031 C 
ATOM     22  C   UNL A   1      38.639  30.234  28.930  1.00  0.00     0.029 A 
ATOM     23  C   UNL A   1      39.557  29.918  30.017  1.00  0.00     0.049 A 
ATOM     24  H   UNL A   1      39.733  30.878  31.858  1.00  0.00     0.167 HD
ATOM     25  C   UNL A   1      39.867  32.926  35.729  1.00  0.00     0.037 A 
ATOM     26  C   UNL A   1      40.476  28.937  29.990  1.00  0.00     0.037 A 
ATOM     27  C   UNL A   1      40.910  31.933  35.780  1.00  0.00     0.049 A 
ATOM     28  C   UNL A   1      41.353  28.734  31.189  1.00  0.00     0.074 A 
ATOM     29  C   UNL A   1      41.799  31.663  36.807  1.00  0.00     0.029 A 
ATOM     30  N   UNL A   1      41.196  31.036  34.760  1.00  0.00    -0.354 N 
ATOM     31  N   UNL A   1      41.356  29.385  32.327  1.00  0.00    -0.248 NA
ATOM     32  C   UNL A   1      42.358  27.669  31.099  1.00  0.00     0.031 C 
ATOM     33  C   UNL A   1      42.641  30.623  36.398  1.00  0.00     0.029 A 
ATOM     34  C   UNL A   1      42.252  30.217  35.132  1.00  0.00     0.049 A 
ATOM     35  H   UNL A   1      40.720  30.989  33.900  1.00  0.00     0.167 HD
ATOM     36  C   UNL A   1      42.364  28.814  33.087  1.00  0.00     0.074 A 
ATOM     37  C   UNL A   1      42.924  27.737  32.296  1.00  0.00     0.031 C 
ATOM     38  C   UNL A   1      42.798  29.159  34.323  1.00  0.00     0.037 A 
BRANCH  25  39
ATOM     39  C   UNL A   1      39.682  33.813  36.925  1.00  0.00     0.064 A 
ATOM     40  C   UNL A   1      40.260  35.090  36.990  1.00  0.00     0.173 A 
ATOM     41  C   UNL A   1      38.867  33.408  37.993  1.00  0.00     0.173 A 
ATOM     42  F   UNL A   1      41.058  35.519  36.000  1.00  0.00    -0.203 F 
ATOM     43  C   UNL A   1      40.041  35.921  38.086  1.00  0.00     0.198 A 
ATOM     44  C   UNL A   1      38.631  34.250  39.076  1.00  0.00     0.198 A 
ATOM     45  F   UNL A   1      38.285  32.199  37.979  1.00  0.00    -0.203 F 
ATOM     46  F   UNL A   1      40.629  37.124  38.140  1.00  0.00    -0.200 F 
ATOM     47  C   UNL A   1      39.221  35.504  39.124  1.00  0.00     0.200 A 
ATOM     48  F   UNL A   1      37.829  33.851  40.074  1.00  0.00    -0.200 F 
ATOM     49  F   UNL A   1      39.002  36.311  40.172  1.00  0.00    -0.200 F 
ENDBRANCH  25  39
BRANCH  26  50
ATOM     50  C   UNL A   1      40.606  28.087  28.780  1.00  0.00     0.064 A 
ATOM     51  C   UNL A   1      39.910  26.877  28.666  1.00  0.00     0.173 A 
ATOM     52  C   UNL A   1      41.410  28.484  27.701  1.00  0.00     0.173 A 
ATOM     53  F   UNL A   1      39.142  26.447  29.679  1.00  0.00    -0.203 F 
ATOM     54  C   UNL A   1      40.022  26.089  27.522  1.00  0.00     0.198 A 
ATOM     55  C   UNL A   1      41.495  27.712  26.546  1.00  0.00     0.198 A 
ATOM     56  F   UNL A   1      42.089  29.639  27.760  1.00  0.00    -0.203 F 
ATOM     57  F   UNL A   1      39.375  24.919  27.451  1.00  0.00    -0.200 F 
ATOM     58  C   UNL A   1      40.808  26.513  26.460  1.00  0.00     0.200 A 
ATOM     59  F   UNL A   1      42.240  28.135  25.515  1.00  0.00    -0.200 F 
ATOM     60  F   UNL A   1      40.903  25.761  25.354  1.00  0.00    -0.200 F 
ENDBRANCH  26  50
BRANCH  38  61
ATOM     61  C   UNL A   1      43.933  28.357  34.884  1.00  0.00     0.064 A 
ATOM     62  C   UNL A   1      45.264  28.764  34.715  1.00  0.00     0.173 A 
ATOM     63  C   UNL A   1      43.687  27.176  35.599  1.00  0.00     0.173 A 
ATOM     64  F   UNL A   1      45.547  29.877  34.021  1.00  0.00    -0.203 F 
ATOM     65  C   UNL A   1      46.313  27.999  35.217  1.00  0.00     0.198 A 
ATOM     66  C   UNL A   1      44.737  26.427  36.120  1.00  0.00     0.198 A 
ATOM     67  F   UNL A   1      42.430  26.749  35.788  1.00  0.00    -0.203 F 
ATOM     68  F   UNL A   1      47.579  28.378  35.000  1.00  0.00    -0.200 F 
ATOM     69  C   UNL A   1      46.048  26.834  35.923  1.00  0.00     0.200 A 
ATOM     70  F   UNL A   1      44.480  25.305  36.806  1.00  0.00    -0.200 F 
ATOM     71  F   UNL A   1      47.059  26.096  36.400  1.00  0.00    -0.200 F 
ENDBRANCH  38  61
ENDBRANCH  12  13
ENDBRANCH   5   7
ENDBRANCH   2   3
ENDBRANCH   1   2
BRANCH   1  72
ATOM     72  C   UNL A   1      34.588  31.190  27.972  1.00  0.00     0.023 C 
BRANCH  72  73
ATOM     73  C   UNL A   1      34.296  29.850  27.303  1.00  0.00     0.116 C 
BRANCH  73  74
ATOM     74  N   UNL A   1      33.307  29.104  28.055  1.00  0.00    -0.351 N 
ATOM     75  C   UNL A   1      32.340  28.238  27.635  1.00  0.00     0.278 C 
ATOM     76  H   UNL A   1      33.337  29.247  29.029  1.00  0.00     0.163 HD
ATOM     77  O   UNL A   1      31.547  27.836  28.491  1.00  0.00    -0.268 OA
BRANCH  75  78
ATOM     78  C   UNL A   1      32.289  27.766  26.168  1.00  0.00     0.277 C 
ATOM     79  C   UNL A   1      33.191  26.506  26.090  1.00  0.00     0.114 C 
ATOM     80  N   UNL A   1      30.879  27.504  25.767  1.00  0.00    -0.324 N 
ATOM     81  C   UNL A   1      32.947  25.792  24.811  1.00  0.00    -0.006 A 
ATOM     82  C   UNL A   1      30.716  27.031  24.384  1.00  0.00     0.264 C 
ATOM     83  H   UNL A   1      30.351  28.370  25.872  1.00  0.00     0.347 HD
ATOM     84  H   UNL A   1      30.540  26.754  26.371  1.00  0.00     0.347 HD
ATOM     85  C   UNL A   1      31.805  26.036  24.072  1.00  0.00     0.083 A 
ATOM     86  C   UNL A   1      33.711  24.804  24.137  1.00  0.00     0.003 A 
ATOM     87  N   UNL A   1      31.822  25.181  23.004  1.00  0.00    -0.353 N 
ATOM     88  C   UNL A   1      32.992  24.453  22.992  1.00  0.00     0.046 A 
ATOM     89  C   UNL A   1      34.943  24.168  24.382  1.00  0.00     0.010 A 
ATOM     90  H   UNL A   1      31.103  25.099  22.338  1.00  0.00     0.166 HD
ATOM     91  C   UNL A   1      33.454  23.510  22.069  1.00  0.00     0.026 A 
ATOM     92  C   UNL A   1      35.419  23.220  23.467  1.00  0.00     0.001 A 
ATOM     93  C   UNL A   1      34.686  22.902  22.326  1.00  0.00     0.002 A 
BRANCH  82  94
ATOM     94  C   UNL A   1      30.620  28.137  23.330  1.00  0.00     0.041 A 
ATOM     95  C   UNL A   1      31.713  28.564  22.582  1.00  0.00     0.093 A 
ATOM     96  C   UNL A   1      29.505  28.910  22.820  1.00  0.00     0.009 A 
ATOM     97  N   UNL A   1      31.349  29.611  21.788  1.00  0.00    -0.361 N 
ATOM     98  C   UNL A   1      30.008  29.850  21.913  1.00  0.00     0.046 A 
ATOM     99  C   UNL A   1      28.108  28.922  23.017  1.00  0.00     0.011 A 
ATOM    100  H   UNL A   1      31.962  30.122  21.211  1.00  0.00     0.166 HD
ATOM    101  C   UNL A   1      29.220  30.817  21.272  1.00  0.00     0.026 A 
ATOM    102  C   UNL A   1      27.297  29.870  22.372  1.00  0.00     0.001 A 
ATOM    103  C   UNL A   1      27.851  30.818  21.526  1.00  0.00     0.002 A 
ENDBRANCH  82  94
ENDBRANCH  75  78
ENDBRANCH  73  74
ENDBRANCH  72  73
ENDBRANCH   1  72
TORSDOF 12
ENDMDL
