MODEL 1
REMARK VINA RESULT:     -12.6      0.000      0.000
REMARK SMILES CCc1cc(OC(F)(F)F)cc2c1O[C@@H](C(F)(F)F)C(C(=O)NCCCCNC(=O)c1ccc(-c3c4nc(c(-c5c(F)c(F)c(F)c(F)c5F)c5ccc([nH]5)c(-c5c(F)c(F)c(F)c(F)c5F)c5nc(c(-c6c(F)c(F)c(F)c(F)c6F)c6ccc3[nH]6)C=C5)C=C4)cc1)=C2
REMARK SMILES IDX 25 1 24 2 23 3 21 4 22 5 20 7 3 8 4 9 13 10 5 11 12 12 14 13
REMARK SMILES IDX 11 14 94 15 15 16 2 17 1 18 6 19 7 20 8 21 9 22 10 23 16 24
REMARK SMILES IDX 17 25 18 26 19 27 26 28 27 29 28 30 29 31 30 33 31 34 32 35
REMARK SMILES IDX 93 36 33 37 92 38 34 39 35 40 36 41 86 42 37 43 91 44 85 45
REMARK SMILES IDX 87 46 38 47 90 48 84 49 83 50 39 52 71 53 51 54 70 55 52 56
REMARK SMILES IDX 55 57 69 58 88 59 53 60 54 61 68 63 89 64 56 65 40 66 41 67
REMARK SMILES IDX 49 68 42 69 43 70 47 71 50 72 44 73 45 74 48 75 46 76 72 77
REMARK SMILES IDX 73 78 81 79 74 80 75 81 79 82 82 83 76 84 77 85 80 86 78 87
REMARK SMILES IDX 57 88 58 89 66 90 59 91 60 92 64 93 67 94 61 95 62 96 65 97
REMARK SMILES IDX 63 98
REMARK H PARENT 23 6 28 32 87 51 55 62
REMARK Flexibility Score: inf
ROOT
ATOM      1  C   UNL A   1      37.293  21.159  24.594  1.00  0.00     0.023 C 
ENDROOT
BRANCH   1   2
ATOM      2  C   UNL A   1      36.834  22.012  25.784  1.00  0.00     0.116 C 
BRANCH   2   3
ATOM      3  N   UNL A   1      35.689  21.393  26.428  1.00  0.00    -0.352 N 
ATOM      4  C   UNL A   1      34.412  21.812  26.629  1.00  0.00     0.251 C 
ATOM      5  O   UNL A   1      33.698  21.134  27.364  1.00  0.00    -0.270 OA
ATOM      6  H   UNL A   1      35.874  20.496  26.790  1.00  0.00     0.163 HD
BRANCH   4   7
ATOM      7  C   UNL A   1      33.828  23.003  25.954  1.00  0.00     0.067 C 
ATOM      8  C   UNL A   1      32.140  26.200  23.786  1.00  0.00    -0.002 A 
ATOM      9  C   UNL A   1      32.513  27.517  24.126  1.00  0.00     0.054 A 
ATOM     10  C   UNL A   1      32.684  25.126  24.508  1.00  0.00     0.131 A 
ATOM     11  C   UNL A   1      33.412  27.763  25.164  1.00  0.00     0.130 A 
ATOM     12  C   UNL A   1      33.559  25.369  25.563  1.00  0.00     0.021 A 
ATOM     13  O   UNL A   1      32.374  23.863  24.102  1.00  0.00    -0.475 OA
ATOM     14  C   UNL A   1      33.920  26.682  25.887  1.00  0.00     0.058 A 
ATOM     15  C   UNL A   1      34.154  24.260  26.285  1.00  0.00     0.025 C 
ATOM     16  C   UNL A   1      32.701  22.731  24.962  1.00  0.00     0.314 C 
BRANCH   8  17
ATOM     17  C   UNL A   1      31.165  25.985  22.650  1.00  0.00     0.036 C 
ATOM     18  C   UNL A   1      31.847  25.994  21.290  1.00  0.00     0.009 C 
ENDBRANCH   8  17
BRANCH  11  19
ATOM     19  O   UNL A   1      33.880  28.978  25.572  1.00  0.00    -0.406 OA
BRANCH  19  20
ATOM     20  C   UNL A   1      33.347  29.529  26.764  1.00  0.00     0.573 C 
ATOM     21  F   UNL A   1      33.463  30.873  26.776  1.00  0.00    -0.132 F 
ATOM     22  F   UNL A   1      32.050  29.184  26.916  1.00  0.00    -0.132 F 
ATOM     23  F   UNL A   1      34.040  29.036  27.814  1.00  0.00    -0.132 F 
ENDBRANCH  19  20
ENDBRANCH  11  19
BRANCH  16  24
ATOM     24  C   UNL A   1      32.886  21.502  24.042  1.00  0.00     0.429 C 
ATOM     25  F   UNL A   1      32.495  20.346  24.623  1.00  0.00    -0.167 F 
ATOM     26  F   UNL A   1      32.130  21.616  22.918  1.00  0.00    -0.167 F 
ATOM     27  F   UNL A   1      34.169  21.355  23.633  1.00  0.00    -0.167 F 
ENDBRANCH  16  24
ENDBRANCH   4   7
ENDBRANCH   2   3
ENDBRANCH   1   2
BRANCH   1  28
ATOM     28  C   UNL A   1      38.108  19.923  24.982  1.00  0.00     0.023 C 
BRANCH  28  29
ATOM     29  C   UNL A   1      39.308  20.206  25.876  1.00  0.00     0.116 C 
BRANCH  29  30
ATOM     30  N   UNL A   1      40.276  19.121  25.897  1.00  0.00    -0.352 N 
ATOM     31  C   UNL A   1      41.634  19.190  26.105  1.00  0.00     0.251 C 
ATOM     32  H   UNL A   1      39.912  18.220  25.741  1.00  0.00     0.163 HD
ATOM     33  O   UNL A   1      42.331  18.191  25.991  1.00  0.00    -0.269 OA
BRANCH  31  34
ATOM     34  C   UNL A   1      42.247  20.494  26.424  1.00  0.00     0.039 A 
ATOM     35  C   UNL A   1      42.793  21.249  25.383  1.00  0.00     0.014 A 
ATOM     36  C   UNL A   1      42.251  20.984  27.732  1.00  0.00     0.014 A 
ATOM     37  C   UNL A   1      43.286  22.527  25.644  1.00  0.00     0.010 A 
ATOM     38  C   UNL A   1      42.681  22.282  27.980  1.00  0.00     0.010 A 
ATOM     39  C   UNL A   1      43.200  23.067  26.938  1.00  0.00    -0.014 A 
BRANCH  39  40
ATOM     40  C   UNL A   1      43.644  24.452  27.223  1.00  0.00     0.031 A 
ATOM     41  C   UNL A   1      42.658  25.472  27.715  1.00  0.00     0.074 A 
ATOM     42  C   UNL A   1      44.919  24.806  26.970  1.00  0.00     0.049 A 
ATOM     43  N   UNL A   1      42.834  26.748  27.951  1.00  0.00    -0.248 NA
ATOM     44  C   UNL A   1      41.283  25.003  27.944  1.00  0.00     0.031 C 
ATOM     45  C   UNL A   1      45.954  23.916  26.442  1.00  0.00     0.029 A 
ATOM     46  N   UNL A   1      45.558  26.012  27.112  1.00  0.00    -0.354 N 
ATOM     47  C   UNL A   1      41.594  27.234  28.339  1.00  0.00     0.074 A 
ATOM     48  C   UNL A   1      40.662  26.129  28.259  1.00  0.00     0.031 C 
ATOM     49  C   UNL A   1      47.103  24.601  26.322  1.00  0.00     0.029 A 
ATOM     50  C   UNL A   1      46.877  25.983  26.732  1.00  0.00     0.049 A 
ATOM     51  H   UNL A   1      45.112  26.821  27.453  1.00  0.00     0.167 HD
ATOM     52  C   UNL A   1      41.268  28.483  28.748  1.00  0.00     0.037 A 
ATOM     53  C   UNL A   1      47.798  26.966  26.715  1.00  0.00     0.037 A 
ATOM     54  C   UNL A   1      42.205  29.569  28.855  1.00  0.00     0.049 A 
ATOM     55  C   UNL A   1      47.411  28.342  27.182  1.00  0.00     0.074 A 
ATOM     56  C   UNL A   1      41.988  30.854  29.319  1.00  0.00     0.029 A 
ATOM     57  N   UNL A   1      43.541  29.497  28.487  1.00  0.00    -0.354 N 
ATOM     58  N   UNL A   1      46.252  28.773  27.616  1.00  0.00    -0.248 NA
ATOM     59  C   UNL A   1      48.465  29.367  27.165  1.00  0.00     0.031 C 
ATOM     60  C   UNL A   1      43.183  31.571  29.197  1.00  0.00     0.029 A 
ATOM     61  C   UNL A   1      44.156  30.719  28.697  1.00  0.00     0.049 A 
ATOM     62  H   UNL A   1      43.986  28.694  28.129  1.00  0.00     0.167 HD
ATOM     63  C   UNL A   1      46.441  30.107  27.947  1.00  0.00     0.074 A 
ATOM     64  C   UNL A   1      47.831  30.412  27.678  1.00  0.00     0.031 C 
ATOM     65  C   UNL A   1      45.544  31.001  28.432  1.00  0.00     0.037 A 
BRANCH  52  66
ATOM     66  C   UNL A   1      39.835  28.737  29.119  1.00  0.00     0.064 A 
ATOM     67  C   UNL A   1      39.364  28.517  30.421  1.00  0.00     0.173 A 
ATOM     68  C   UNL A   1      38.931  29.233  28.168  1.00  0.00     0.173 A 
ATOM     69  F   UNL A   1      40.186  28.030  31.364  1.00  0.00    -0.203 F 
ATOM     70  C   UNL A   1      38.032  28.755  30.751  1.00  0.00     0.198 A 
ATOM     71  C   UNL A   1      37.608  29.500  28.509  1.00  0.00     0.198 A 
ATOM     72  F   UNL A   1      39.332  29.466  26.909  1.00  0.00    -0.203 F 
ATOM     73  F   UNL A   1      37.592  28.489  31.988  1.00  0.00    -0.200 F 
ATOM     74  C   UNL A   1      37.157  29.253  29.797  1.00  0.00     0.200 A 
ATOM     75  F   UNL A   1      36.766  29.991  27.589  1.00  0.00    -0.200 F 
ATOM     76  F   UNL A   1      35.877  29.486  30.118  1.00  0.00    -0.200 F 
ENDBRANCH  52  66
BRANCH  53  77
ATOM     77  C   UNL A   1      49.184  26.673  26.268  1.00  0.00     0.064 A 
ATOM     78  C   UNL A   1      49.569  26.889  24.938  1.00  0.00     0.173 A 
ATOM     79  C   UNL A   1      50.148  26.174  27.156  1.00  0.00     0.173 A 
ATOM     80  F   UNL A   1      48.677  27.346  24.048  1.00  0.00    -0.203 F 
ATOM     81  C   UNL A   1      50.862  26.599  24.507  1.00  0.00     0.198 A 
ATOM     82  C   UNL A   1      51.449  25.909  26.729  1.00  0.00     0.198 A 
ATOM     83  F   UNL A   1      49.831  25.956  28.440  1.00  0.00    -0.203 F 
ATOM     84  F   UNL A   1      51.192  26.774  23.220  1.00  0.00    -0.200 F 
ATOM     85  C   UNL A   1      51.802  26.114  25.404  1.00  0.00     0.200 A 
ATOM     86  F   UNL A   1      52.357  25.454  27.602  1.00  0.00    -0.200 F 
ATOM     87  F   UNL A   1      53.047  25.839  24.990  1.00  0.00    -0.200 F 
ENDBRANCH  53  77
BRANCH  65  88
ATOM     88  C   UNL A   1      46.045  32.382  28.733  1.00  0.00     0.064 A 
ATOM     89  C   UNL A   1      46.598  32.708  29.979  1.00  0.00     0.173 A 
ATOM     90  C   UNL A   1      46.006  33.380  27.748  1.00  0.00     0.173 A 
ATOM     91  F   UNL A   1      46.641  31.793  30.958  1.00  0.00    -0.203 F 
ATOM     92  C   UNL A   1      47.075  33.990  30.236  1.00  0.00     0.198 A 
ATOM     93  C   UNL A   1      46.511  34.653  27.998  1.00  0.00     0.198 A 
ATOM     94  F   UNL A   1      45.492  33.117  26.537  1.00  0.00    -0.203 F 
ATOM     95  F   UNL A   1      47.560  34.293  31.448  1.00  0.00    -0.200 F 
ATOM     96  C   UNL A   1      47.038  34.959  29.244  1.00  0.00     0.200 A 
ATOM     97  F   UNL A   1      46.484  35.584  27.035  1.00  0.00    -0.200 F 
ATOM     98  F   UNL A   1      47.505  36.191  29.490  1.00  0.00    -0.200 F 
ENDBRANCH  65  88
ENDBRANCH  39  40
ENDBRANCH  31  34
ENDBRANCH  29  30
ENDBRANCH  28  29
ENDBRANCH   1  28
TORSDOF 15
ENDMDL
MODEL 2
REMARK VINA RESULT:     -12.6      5.480     10.970
REMARK SMILES CCc1cc(OC(F)(F)F)cc2c1O[C@@H](C(F)(F)F)C(C(=O)NCCCCNC(=O)c1ccc(-c3c4nc(c(-c5c(F)c(F)c(F)c(F)c5F)c5ccc([nH]5)c(-c5c(F)c(F)c(F)c(F)c5F)c5nc(c(-c6c(F)c(F)c(F)c(F)c6F)c6ccc3[nH]6)C=C5)C=C4)cc1)=C2
REMARK SMILES IDX 25 1 24 2 23 3 21 4 22 5 20 7 3 8 4 9 13 10 5 11 12 12 14 13
REMARK SMILES IDX 11 14 94 15 15 16 2 17 1 18 6 19 7 20 8 21 9 22 10 23 16 24
REMARK SMILES IDX 17 25 18 26 19 27 26 28 27 29 28 30 29 31 30 33 31 34 32 35
REMARK SMILES IDX 93 36 33 37 92 38 34 39 35 40 36 41 86 42 37 43 91 44 85 45
REMARK SMILES IDX 87 46 38 47 90 48 84 49 83 50 39 52 71 53 51 54 70 55 52 56
REMARK SMILES IDX 55 57 69 58 88 59 53 60 54 61 68 63 89 64 56 65 40 66 41 67
REMARK SMILES IDX 49 68 42 69 43 70 47 71 50 72 44 73 45 74 48 75 46 76 72 77
REMARK SMILES IDX 73 78 81 79 74 80 75 81 79 82 82 83 76 84 77 85 80 86 78 87
REMARK SMILES IDX 57 88 58 89 66 90 59 91 60 92 64 93 67 94 61 95 62 96 65 97
REMARK SMILES IDX 63 98
REMARK H PARENT 23 6 28 32 87 51 55 62
REMARK Flexibility Score: inf
ROOT
ATOM      1  C   UNL A   1      31.778  30.307  26.570  1.00  0.00     0.023 C 
ENDROOT
BRANCH   1   2
ATOM      2  C   UNL A   1      33.056  29.773  25.911  1.00  0.00     0.116 C 
BRANCH   2   3
ATOM      3  N   UNL A   1      32.884  29.702  24.471  1.00  0.00    -0.352 N 
ATOM      4  C   UNL A   1      32.927  28.668  23.590  1.00  0.00     0.251 C 
ATOM      5  O   UNL A   1      32.908  28.937  22.391  1.00  0.00    -0.270 OA
ATOM      6  H   UNL A   1      32.700  30.574  24.050  1.00  0.00     0.163 HD
BRANCH   4   7
ATOM      7  C   UNL A   1      32.927  27.240  24.009  1.00  0.00     0.067 C 
ATOM      8  C   UNL A   1      32.628  23.231  25.277  1.00  0.00    -0.002 A 
ATOM      9  C   UNL A   1      33.789  22.585  25.752  1.00  0.00     0.054 A 
ATOM     10  C   UNL A   1      32.715  24.562  24.839  1.00  0.00     0.131 A 
ATOM     11  C   UNL A   1      35.015  23.250  25.791  1.00  0.00     0.130 A 
ATOM     12  C   UNL A   1      33.943  25.219  24.851  1.00  0.00     0.021 A 
ATOM     13  O   UNL A   1      31.563  25.187  24.470  1.00  0.00    -0.475 OA
ATOM     14  C   UNL A   1      35.085  24.564  25.325  1.00  0.00     0.058 A 
ATOM     15  C   UNL A   1      34.028  26.607  24.436  1.00  0.00     0.025 C 
ATOM     16  C   UNL A   1      31.632  26.467  23.774  1.00  0.00     0.314 C 
BRANCH   8  17
ATOM     17  C   UNL A   1      31.322  22.469  25.259  1.00  0.00     0.036 C 
ATOM     18  C   UNL A   1      30.479  22.730  26.499  1.00  0.00     0.009 C 
ENDBRANCH   8  17
BRANCH  11  19
ATOM     19  O   UNL A   1      36.200  22.757  26.253  1.00  0.00    -0.406 OA
BRANCH  19  20
ATOM     20  C   UNL A   1      37.313  22.771  25.376  1.00  0.00     0.573 C 
ATOM     21  F   UNL A   1      36.984  22.288  24.160  1.00  0.00    -0.132 F 
ATOM     22  F   UNL A   1      37.810  24.020  25.249  1.00  0.00    -0.132 F 
ATOM     23  F   UNL A   1      38.280  21.983  25.894  1.00  0.00    -0.132 F 
ENDBRANCH  19  20
ENDBRANCH  11  19
BRANCH  16  24
ATOM     24  C   UNL A   1      30.322  27.225  24.088  1.00  0.00     0.429 C 
ATOM     25  F   UNL A   1      29.239  26.418  24.110  1.00  0.00    -0.167 F 
ATOM     26  F   UNL A   1      30.372  27.796  25.322  1.00  0.00    -0.167 F 
ATOM     27  F   UNL A   1      30.083  28.226  23.207  1.00  0.00    -0.167 F 
ENDBRANCH  16  24
ENDBRANCH   4   7
ENDBRANCH   2   3
ENDBRANCH   1   2
BRANCH   1  28
ATOM     28  C   UNL A   1      31.648  31.832  26.545  1.00  0.00     0.023 C 
BRANCH  28  29
ATOM     29  C   UNL A   1      32.772  32.578  27.253  1.00  0.00     0.116 C 
BRANCH  29  30
ATOM     30  N   UNL A   1      32.428  33.953  27.581  1.00  0.00    -0.352 N 
ATOM     31  C   UNL A   1      33.000  34.776  28.523  1.00  0.00     0.251 C 
ATOM     32  H   UNL A   1      31.691  34.345  27.062  1.00  0.00     0.163 HD
ATOM     33  O   UNL A   1      32.529  35.882  28.751  1.00  0.00    -0.269 OA
BRANCH  31  34
ATOM     34  C   UNL A   1      34.164  34.290  29.291  1.00  0.00     0.039 A 
ATOM     35  C   UNL A   1      33.938  33.615  30.493  1.00  0.00     0.014 A 
ATOM     36  C   UNL A   1      35.464  34.469  28.812  1.00  0.00     0.014 A 
ATOM     37  C   UNL A   1      35.014  33.058  31.182  1.00  0.00     0.010 A 
ATOM     38  C   UNL A   1      36.528  33.857  29.464  1.00  0.00     0.010 A 
ATOM     39  C   UNL A   1      36.313  33.145  30.655  1.00  0.00    -0.014 A 
BRANCH  39  40
ATOM     40  C   UNL A   1      37.461  32.493  31.329  1.00  0.00     0.031 A 
ATOM     41  C   UNL A   1      38.161  31.338  30.675  1.00  0.00     0.074 A 
ATOM     42  C   UNL A   1      37.824  32.899  32.562  1.00  0.00     0.049 A 
ATOM     43  N   UNL A   1      39.135  30.592  31.133  1.00  0.00    -0.248 NA
ATOM     44  C   UNL A   1      37.686  30.950  29.338  1.00  0.00     0.031 C 
ATOM     45  C   UNL A   1      37.185  33.975  33.320  1.00  0.00     0.029 A 
ATOM     46  N   UNL A   1      38.811  32.443  33.398  1.00  0.00    -0.354 N 
ATOM     47  C   UNL A   1      39.375  29.641  30.151  1.00  0.00     0.074 A 
ATOM     48  C   UNL A   1      38.414  29.871  29.094  1.00  0.00     0.031 C 
ATOM     49  C   UNL A   1      37.808  34.110  34.502  1.00  0.00     0.029 A 
ATOM     50  C   UNL A   1      38.866  33.109  34.598  1.00  0.00     0.049 A 
ATOM     51  H   UNL A   1      39.422  31.708  33.162  1.00  0.00     0.167 HD
ATOM     52  C   UNL A   1      40.327  28.678  30.125  1.00  0.00     0.037 A 
ATOM     53  C   UNL A   1      39.678  32.928  35.657  1.00  0.00     0.037 A 
ATOM     54  C   UNL A   1      41.300  28.474  31.165  1.00  0.00     0.049 A 
ATOM     55  C   UNL A   1      40.732  31.857  35.598  1.00  0.00     0.074 A 
ATOM     56  C   UNL A   1      42.346  27.569  31.204  1.00  0.00     0.029 A 
ATOM     57  N   UNL A   1      41.343  29.186  32.355  1.00  0.00    -0.354 N 
ATOM     58  N   UNL A   1      40.998  31.010  34.633  1.00  0.00    -0.248 NA
ATOM     59  C   UNL A   1      41.606  31.723  36.772  1.00  0.00     0.031 C 
ATOM     60  C   UNL A   1      42.998  27.707  32.434  1.00  0.00     0.029 A 
ATOM     61  C   UNL A   1      42.386  28.729  33.143  1.00  0.00     0.049 A 
ATOM     62  H   UNL A   1      40.723  29.911  32.603  1.00  0.00     0.167 HD
ATOM     63  C   UNL A   1      42.081  30.262  35.070  1.00  0.00     0.074 A 
ATOM     64  C   UNL A   1      42.434  30.764  36.382  1.00  0.00     0.031 C 
ATOM     65  C   UNL A   1      42.727  29.248  34.443  1.00  0.00     0.037 A 
BRANCH  52  66
ATOM     66  C   UNL A   1      40.366  27.778  28.925  1.00  0.00     0.064 A 
ATOM     67  C   UNL A   1      41.135  28.094  27.795  1.00  0.00     0.173 A 
ATOM     68  C   UNL A   1      39.650  26.572  28.916  1.00  0.00     0.173 A 
ATOM     69  F   UNL A   1      41.828  29.242  27.748  1.00  0.00    -0.203 F 
ATOM     70  C   UNL A   1      41.161  27.250  26.687  1.00  0.00     0.198 A 
ATOM     71  C   UNL A   1      39.703  25.716  27.819  1.00  0.00     0.198 A 
ATOM     72  F   UNL A   1      38.903  26.220  29.973  1.00  0.00    -0.203 F 
ATOM     73  F   UNL A   1      41.861  27.596  25.599  1.00  0.00    -0.200 F 
ATOM     74  C   UNL A   1      40.450  26.059  26.703  1.00  0.00     0.200 A 
ATOM     75  F   UNL A   1      39.024  24.560  27.840  1.00  0.00    -0.200 F 
ATOM     76  F   UNL A   1      40.480  25.245  25.638  1.00  0.00    -0.200 F 
ENDBRANCH  52  66
BRANCH  53  77
ATOM     77  C   UNL A   1      39.546  33.803  36.849  1.00  0.00     0.064 A 
ATOM     78  C   UNL A   1      38.767  33.408  37.946  1.00  0.00     0.173 A 
ATOM     79  C   UNL A   1      40.190  35.047  36.919  1.00  0.00     0.173 A 
ATOM     80  F   UNL A   1      38.116  32.237  37.917  1.00  0.00    -0.203 F 
ATOM     81  C   UNL A   1      38.623  34.232  39.061  1.00  0.00     0.198 A 
ATOM     82  C   UNL A   1      40.066  35.858  38.046  1.00  0.00     0.198 A 
ATOM     83  F   UNL A   1      40.951  35.467  35.899  1.00  0.00    -0.203 F 
ATOM     84  F   UNL A   1      37.839  33.849  40.077  1.00  0.00    -0.200 F 
ATOM     85  C   UNL A   1      39.277  35.454  39.112  1.00  0.00     0.200 A 
ATOM     86  F   UNL A   1      40.711  37.032  38.097  1.00  0.00    -0.200 F 
ATOM     87  F   UNL A   1      39.141  36.244  40.185  1.00  0.00    -0.200 F 
ENDBRANCH  53  77
BRANCH  65  88
ATOM     88  C   UNL A   1      43.901  28.639  35.150  1.00  0.00     0.064 A 
ATOM     89  C   UNL A   1      45.200  29.139  34.984  1.00  0.00     0.173 A 
ATOM     90  C   UNL A   1      43.716  27.567  36.036  1.00  0.00     0.173 A 
ATOM     91  F   UNL A   1      45.430  30.151  34.135  1.00  0.00    -0.203 F 
ATOM     92  C   UNL A   1      46.276  28.573  35.662  1.00  0.00     0.198 A 
ATOM     93  C   UNL A   1      44.789  27.022  36.736  1.00  0.00     0.198 A 
ATOM     94  F   UNL A   1      42.491  27.057  36.234  1.00  0.00    -0.203 F 
ATOM     95  F   UNL A   1      47.515  29.037  35.456  1.00  0.00    -0.200 F 
ATOM     96  C   UNL A   1      46.068  27.521  36.543  1.00  0.00     0.200 A 
ATOM     97  F   UNL A   1      44.585  26.014  37.594  1.00  0.00    -0.200 F 
ATOM     98  F   UNL A   1      47.104  26.982  37.201  1.00  0.00    -0.200 F 
ENDBRANCH  65  88
ENDBRANCH  39  40
ENDBRANCH  31  34
ENDBRANCH  29  30
ENDBRANCH  28  29
ENDBRANCH   1  28
TORSDOF 15
ENDMDL
MODEL 3
REMARK VINA RESULT:     -12.6      5.496     10.949
REMARK SMILES CCc1cc(OC(F)(F)F)cc2c1O[C@@H](C(F)(F)F)C(C(=O)NCCCCNC(=O)c1ccc(-c3c4nc(c(-c5c(F)c(F)c(F)c(F)c5F)c5ccc([nH]5)c(-c5c(F)c(F)c(F)c(F)c5F)c5nc(c(-c6c(F)c(F)c(F)c(F)c6F)c6ccc3[nH]6)C=C5)C=C4)cc1)=C2
REMARK SMILES IDX 25 1 24 2 23 3 21 4 22 5 20 7 3 8 4 9 13 10 5 11 12 12 14 13
REMARK SMILES IDX 11 14 94 15 15 16 2 17 1 18 6 19 7 20 8 21 9 22 10 23 16 24
REMARK SMILES IDX 17 25 18 26 19 27 26 28 27 29 28 30 29 31 30 33 31 34 32 35
REMARK SMILES IDX 93 36 33 37 92 38 34 39 35 40 36 41 86 42 37 43 91 44 85 45
REMARK SMILES IDX 87 46 38 47 90 48 84 49 83 50 39 52 71 53 51 54 70 55 52 56
REMARK SMILES IDX 55 57 69 58 88 59 53 60 54 61 68 63 89 64 56 65 40 66 41 67
REMARK SMILES IDX 49 68 42 69 43 70 47 71 50 72 44 73 45 74 48 75 46 76 72 77
REMARK SMILES IDX 73 78 81 79 74 80 75 81 79 82 82 83 76 84 77 85 80 86 78 87
REMARK SMILES IDX 57 88 58 89 66 90 59 91 60 92 64 93 67 94 61 95 62 96 65 97
REMARK SMILES IDX 63 98
REMARK H PARENT 23 6 28 32 87 51 55 62
REMARK Flexibility Score: inf
ROOT
ATOM      1  C   UNL A   1      31.889  30.206  26.770  1.00  0.00     0.023 C 
ENDROOT
BRANCH   1   2
ATOM      2  C   UNL A   1      33.142  29.688  26.052  1.00  0.00     0.116 C 
BRANCH   2   3
ATOM      3  N   UNL A   1      32.919  29.662  24.617  1.00  0.00    -0.352 N 
ATOM      4  C   UNL A   1      32.919  28.653  23.707  1.00  0.00     0.251 C 
ATOM      5  O   UNL A   1      32.863  28.957  22.517  1.00  0.00    -0.270 OA
ATOM      6  H   UNL A   1      32.732  30.547  24.228  1.00  0.00     0.163 HD
BRANCH   4   7
ATOM      7  C   UNL A   1      32.916  27.213  24.084  1.00  0.00     0.067 C 
ATOM      8  C   UNL A   1      32.616  23.175  25.255  1.00  0.00    -0.002 A 
ATOM      9  C   UNL A   1      33.790  22.495  25.641  1.00  0.00     0.054 A 
ATOM     10  C   UNL A   1      32.702  24.516  24.850  1.00  0.00     0.131 A 
ATOM     11  C   UNL A   1      35.028  23.136  25.625  1.00  0.00     0.130 A 
ATOM     12  C   UNL A   1      33.941  25.151  24.807  1.00  0.00     0.021 A 
ATOM     13  O   UNL A   1      31.542  25.173  24.568  1.00  0.00    -0.475 OA
ATOM     14  C   UNL A   1      35.096  24.461  25.193  1.00  0.00     0.058 A 
ATOM     15  C   UNL A   1      34.028  26.549  24.427  1.00  0.00     0.025 C 
ATOM     16  C   UNL A   1      31.595  26.471  23.905  1.00  0.00     0.314 C 
BRANCH   8  17
ATOM     17  C   UNL A   1      31.296  22.437  25.294  1.00  0.00     0.036 C 
ATOM     18  C   UNL A   1      30.521  22.698  26.577  1.00  0.00     0.009 C 
ENDBRANCH   8  17
BRANCH  11  19
ATOM     19  O   UNL A   1      36.229  22.609  26.002  1.00  0.00    -0.406 OA
BRANCH  19  20
ATOM     20  C   UNL A   1      36.820  21.635  25.159  1.00  0.00     0.573 C 
ATOM     21  F   UNL A   1      38.156  21.577  25.339  1.00  0.00    -0.132 F 
ATOM     22  F   UNL A   1      36.279  20.417  25.376  1.00  0.00    -0.132 F 
ATOM     23  F   UNL A   1      36.584  21.978  23.873  1.00  0.00    -0.132 F 
ENDBRANCH  19  20
ENDBRANCH  11  19
BRANCH  16  24
ATOM     24  C   UNL A   1      30.321  27.243  24.319  1.00  0.00     0.429 C 
ATOM     25  F   UNL A   1      29.996  28.226  23.451  1.00  0.00    -0.167 F 
ATOM     26  F   UNL A   1      29.240  26.417  24.351  1.00  0.00    -0.167 F 
ATOM     27  F   UNL A   1      30.428  27.789  25.553  1.00  0.00    -0.167 F 
ENDBRANCH  16  24
ENDBRANCH   4   7
ENDBRANCH   2   3
ENDBRANCH   1   2
BRANCH   1  28
ATOM     28  C   UNL A   1      31.709  31.725  26.705  1.00  0.00     0.023 C 
BRANCH  28  29
ATOM     29  C   UNL A   1      32.869  32.529  27.276  1.00  0.00     0.116 C 
BRANCH  29  30
ATOM     30  N   UNL A   1      32.512  33.903  27.593  1.00  0.00    -0.352 N 
ATOM     31  C   UNL A   1      33.067  34.736  28.537  1.00  0.00     0.251 C 
ATOM     32  H   UNL A   1      31.778  34.287  27.062  1.00  0.00     0.163 HD
ATOM     33  O   UNL A   1      32.586  35.839  28.752  1.00  0.00    -0.269 OA
BRANCH  31  34
ATOM     34  C   UNL A   1      34.225  34.262  29.320  1.00  0.00     0.039 A 
ATOM     35  C   UNL A   1      33.990  33.592  30.523  1.00  0.00     0.014 A 
ATOM     36  C   UNL A   1      35.530  34.447  28.855  1.00  0.00     0.014 A 
ATOM     37  C   UNL A   1      35.062  33.047  31.228  1.00  0.00     0.010 A 
ATOM     38  C   UNL A   1      36.590  33.847  29.523  1.00  0.00     0.010 A 
ATOM     39  C   UNL A   1      36.366  33.139  30.715  1.00  0.00    -0.014 A 
BRANCH  39  40
ATOM     40  C   UNL A   1      37.511  32.500  31.407  1.00  0.00     0.031 A 
ATOM     41  C   UNL A   1      38.223  31.342  30.770  1.00  0.00     0.074 A 
ATOM     42  C   UNL A   1      37.861  32.919  32.638  1.00  0.00     0.049 A 
ATOM     43  N   UNL A   1      39.195  30.605  31.245  1.00  0.00    -0.248 NA
ATOM     44  C   UNL A   1      37.761  30.938  29.433  1.00  0.00     0.031 C 
ATOM     45  C   UNL A   1      37.210  34.000  33.380  1.00  0.00     0.029 A 
ATOM     46  N   UNL A   1      38.842  32.476  33.488  1.00  0.00    -0.354 N 
ATOM     47  C   UNL A   1      39.449  29.645  30.275  1.00  0.00     0.074 A 
ATOM     48  C   UNL A   1      38.496  29.860  29.207  1.00  0.00     0.031 C 
ATOM     49  C   UNL A   1      37.821  34.149  34.566  1.00  0.00     0.029 A 
ATOM     50  C   UNL A   1      38.883  33.154  34.682  1.00  0.00     0.049 A 
ATOM     51  H   UNL A   1      39.458  31.742  33.265  1.00  0.00     0.167 HD
ATOM     52  C   UNL A   1      40.405  28.686  30.267  1.00  0.00     0.037 A 
ATOM     53  C   UNL A   1      39.687  32.988  35.750  1.00  0.00     0.037 A 
ATOM     54  C   UNL A   1      41.369  28.497  31.318  1.00  0.00     0.049 A 
ATOM     55  C   UNL A   1      40.746  31.921  35.711  1.00  0.00     0.074 A 
ATOM     56  C   UNL A   1      42.418  27.597  31.375  1.00  0.00     0.029 A 
ATOM     57  N   UNL A   1      41.398  29.221  32.501  1.00  0.00    -0.354 N 
ATOM     58  N   UNL A   1      41.024  31.066  34.757  1.00  0.00    -0.248 NA
ATOM     59  C   UNL A   1      41.609  31.803  36.894  1.00  0.00     0.031 C 
ATOM     60  C   UNL A   1      43.059  27.750  32.609  1.00  0.00     0.029 A 
ATOM     61  C   UNL A   1      42.435  28.776  33.302  1.00  0.00     0.049 A 
ATOM     62  H   UNL A   1      40.772  29.945  32.736  1.00  0.00     0.167 HD
ATOM     63  C   UNL A   1      42.107  30.327  35.212  1.00  0.00     0.074 A 
ATOM     64  C   UNL A   1      42.446  30.844  36.522  1.00  0.00     0.031 C 
ATOM     65  C   UNL A   1      42.763  29.310  34.600  1.00  0.00     0.037 A 
BRANCH  52  66
ATOM     66  C   UNL A   1      40.459  27.774  29.076  1.00  0.00     0.064 A 
ATOM     67  C   UNL A   1      39.686  26.606  29.011  1.00  0.00     0.173 A 
ATOM     68  C   UNL A   1      41.271  28.087  27.975  1.00  0.00     0.173 A 
ATOM     69  F   UNL A   1      38.903  26.255  30.043  1.00  0.00    -0.203 F 
ATOM     70  C   UNL A   1      39.747  25.767  27.901  1.00  0.00     0.198 A 
ATOM     71  C   UNL A   1      41.305  27.262  26.854  1.00  0.00     0.198 A 
ATOM     72  F   UNL A   1      42.026  29.195  27.984  1.00  0.00    -0.203 F 
ATOM     73  F   UNL A   1      39.038  24.630  27.882  1.00  0.00    -0.200 F 
ATOM     74  C   UNL A   1      40.551  26.100  26.821  1.00  0.00     0.200 A 
ATOM     75  F   UNL A   1      42.075  27.590  25.806  1.00  0.00    -0.200 F 
ATOM     76  F   UNL A   1      40.604  25.294  25.751  1.00  0.00    -0.200 F 
ENDBRANCH  52  66
BRANCH  53  77
ATOM     77  C   UNL A   1      39.539  33.874  36.932  1.00  0.00     0.064 A 
ATOM     78  C   UNL A   1      40.208  35.105  36.993  1.00  0.00     0.173 A 
ATOM     79  C   UNL A   1      38.732  33.514  38.021  1.00  0.00     0.173 A 
ATOM     80  F   UNL A   1      41.006  35.484  35.985  1.00  0.00    -0.203 F 
ATOM     81  C   UNL A   1      40.090  35.934  38.107  1.00  0.00     0.198 A 
ATOM     82  C   UNL A   1      38.594  34.356  39.123  1.00  0.00     0.198 A 
ATOM     83  F   UNL A   1      38.068  32.350  38.008  1.00  0.00    -0.203 F 
ATOM     84  F   UNL A   1      40.773  37.085  38.159  1.00  0.00    -0.200 F 
ATOM     85  C   UNL A   1      39.279  35.561  39.169  1.00  0.00     0.200 A 
ATOM     86  F   UNL A   1      37.800  33.998  40.141  1.00  0.00    -0.200 F 
ATOM     87  F   UNL A   1      39.163  36.360  40.239  1.00  0.00    -0.200 F 
ENDBRANCH  53  77
BRANCH  65  88
ATOM     88  C   UNL A   1      43.933  28.713  35.324  1.00  0.00     0.064 A 
ATOM     89  C   UNL A   1      43.784  27.610  36.178  1.00  0.00     0.173 A 
ATOM     90  C   UNL A   1      45.224  29.225  35.130  1.00  0.00     0.173 A 
ATOM     91  F   UNL A   1      42.567  27.096  36.410  1.00  0.00    -0.203 F 
ATOM     92  C   UNL A   1      44.882  27.057  36.829  1.00  0.00     0.198 A 
ATOM     93  C   UNL A   1      46.325  28.651  35.758  1.00  0.00     0.198 A 
ATOM     94  F   UNL A   1      45.420  30.274  34.318  1.00  0.00    -0.203 F 
ATOM     95  F   UNL A   1      44.712  26.032  37.674  1.00  0.00    -0.200 F 
ATOM     96  C   UNL A   1      46.152  27.572  36.612  1.00  0.00     0.200 A 
ATOM     97  F   UNL A   1      47.552  29.143  35.539  1.00  0.00    -0.200 F 
ATOM     98  F   UNL A   1      47.211  27.032  37.234  1.00  0.00    -0.200 F 
ENDBRANCH  65  88
ENDBRANCH  39  40
ENDBRANCH  31  34
ENDBRANCH  29  30
ENDBRANCH  28  29
ENDBRANCH   1  28
TORSDOF 15
ENDMDL
