MODEL 1
REMARK VINA RESULT:     -12.6      0.000      0.000
REMARK SMILES Cn1cc(C[C@H](C(=O)NCCCCNC(=O)c2ccc(-c3c4nc(c(-c5c(F)c(F)c(F)c(F)c5F)c5ccc([nH]5)c(-c5c(F)c(F)c(F)c(F)c5F)c5nc(c(-c6c(F)c(F)c(F)c(F)c6F)c6ccc3[nH]6)C=C5)C=C4)cc2)c2ccc(F)cc2)cn1
REMARK SMILES IDX 11 1 10 2 9 3 7 4 8 5 6 7 5 8 4 9 1 10 2 11 3 12 88 13 87 14
REMARK SMILES IDX 80 15 81 16 86 17 82 18 85 19 83 20 84 21 12 22 13 23 14 24
REMARK SMILES IDX 15 25 16 27 17 28 18 29 79 30 19 31 78 32 20 33 21 34 22 35
REMARK SMILES IDX 72 36 23 37 77 38 71 39 73 40 24 41 76 42 70 43 69 44 25 46
REMARK SMILES IDX 57 47 37 48 56 49 38 50 41 51 55 52 74 53 39 54 40 55 54 57
REMARK SMILES IDX 75 58 42 59 26 60 27 61 35 62 28 63 29 64 33 65 36 66 30 67
REMARK SMILES IDX 31 68 34 69 32 70 58 71 59 72 67 73 60 74 61 75 65 76 68 77
REMARK SMILES IDX 62 78 63 79 66 80 64 81 43 82 44 83 52 84 45 85 46 86 50 87
REMARK SMILES IDX 53 88 47 89 48 90 51 91 49 92
REMARK H PARENT 9 6 14 26 73 45 41 56
REMARK Flexibility Score: inf
ROOT
ATOM      1  C   UNL A   1      31.762  30.462  26.730  1.00  0.00     0.023 C 
ENDROOT
BRANCH   1   2
ATOM      2  C   UNL A   1      33.050  29.789  26.252  1.00  0.00     0.116 C 
BRANCH   2   3
ATOM      3  N   UNL A   1      33.130  29.813  24.809  1.00  0.00    -0.356 N 
ATOM      4  C   UNL A   1      32.519  29.003  23.896  1.00  0.00     0.227 C 
ATOM      5  O   UNL A   1      32.926  29.085  22.733  1.00  0.00    -0.274 OA
ATOM      6  H   UNL A   1      33.708  30.514  24.431  1.00  0.00     0.163 HD
BRANCH   4   7
ATOM      7  C   UNL A   1      31.348  28.078  24.297  1.00  0.00     0.113 C 
BRANCH   7   8
ATOM      8  C   UNL A   1      30.499  27.865  23.023  1.00  0.00     0.057 C 
BRANCH   8   9
ATOM      9  C   UNL A   1      29.404  28.835  22.725  1.00  0.00    -0.009 A 
ATOM     10  C   UNL A   1      28.048  31.921  21.439  1.00  0.00     0.173 C 
ATOM     11  N   UNL A   1      28.355  30.635  22.013  1.00  0.00    -0.276 N 
ATOM     12  C   UNL A   1      29.571  30.024  22.039  1.00  0.00     0.112 A 
ATOM     13  N   UNL A   1      27.393  29.925  22.627  1.00  0.00    -0.182 NA
ATOM     14  C   UNL A   1      28.030  28.829  23.052  1.00  0.00     0.138 A 
ENDBRANCH   8   9
ENDBRANCH   7   8
BRANCH   7  15
ATOM     15  C   UNL A   1      31.835  26.777  24.934  1.00  0.00    -0.035 A 
ATOM     16  C   UNL A   1      30.937  25.967  25.659  1.00  0.00     0.007 A 
ATOM     17  C   UNL A   1      33.183  26.387  24.872  1.00  0.00     0.007 A 
ATOM     18  C   UNL A   1      31.386  24.842  26.354  1.00  0.00     0.039 A 
ATOM     19  C   UNL A   1      33.624  25.243  25.544  1.00  0.00     0.039 A 
ATOM     20  C   UNL A   1      32.727  24.493  26.292  1.00  0.00     0.123 A 
ATOM     21  F   UNL A   1      33.163  23.425  26.974  1.00  0.00    -0.207 F 
ENDBRANCH   7  15
ENDBRANCH   4   7
ENDBRANCH   2   3
ENDBRANCH   1   2
BRANCH   1  22
ATOM     22  C   UNL A   1      31.739  31.981  26.553  1.00  0.00     0.023 C 
BRANCH  22  23
ATOM     23  C   UNL A   1      32.788  32.728  27.366  1.00  0.00     0.116 C 
BRANCH  23  24
ATOM     24  N   UNL A   1      32.420  34.105  27.659  1.00  0.00    -0.352 N 
ATOM     25  C   UNL A   1      32.989  34.967  28.563  1.00  0.00     0.251 C 
ATOM     26  H   UNL A   1      31.665  34.467  27.140  1.00  0.00     0.163 HD
ATOM     27  O   UNL A   1      32.511  36.076  28.760  1.00  0.00    -0.269 OA
BRANCH  25  28
ATOM     28  C   UNL A   1      34.162  34.515  29.340  1.00  0.00     0.039 A 
ATOM     29  C   UNL A   1      33.951  33.908  30.580  1.00  0.00     0.014 A 
ATOM     30  C   UNL A   1      35.452  34.643  28.821  1.00  0.00     0.014 A 
ATOM     31  C   UNL A   1      35.033  33.357  31.267  1.00  0.00     0.010 A 
ATOM     32  C   UNL A   1      36.517  34.033  29.473  1.00  0.00     0.010 A 
ATOM     33  C   UNL A   1      36.317  33.381  30.699  1.00  0.00    -0.014 A 
BRANCH  33  34
ATOM     34  C   UNL A   1      37.465  32.724  31.368  1.00  0.00     0.031 A 
ATOM     35  C   UNL A   1      38.171  31.582  30.696  1.00  0.00     0.074 A 
ATOM     36  C   UNL A   1      37.820  33.108  32.609  1.00  0.00     0.049 A 
ATOM     37  N   UNL A   1      39.139  30.827  31.148  1.00  0.00    -0.248 NA
ATOM     38  C   UNL A   1      37.706  31.221  29.347  1.00  0.00     0.031 C 
ATOM     39  C   UNL A   1      37.172  34.167  33.386  1.00  0.00     0.029 A 
ATOM     40  N   UNL A   1      38.805  32.640  33.442  1.00  0.00    -0.354 N 
ATOM     41  C   UNL A   1      39.384  29.894  30.151  1.00  0.00     0.074 A 
ATOM     42  C   UNL A   1      38.432  30.142  29.091  1.00  0.00     0.031 C 
ATOM     43  C   UNL A   1      37.790  34.281  34.573  1.00  0.00     0.029 A 
ATOM     44  C   UNL A   1      38.854  33.286  34.653  1.00  0.00     0.049 A 
ATOM     45  H   UNL A   1      39.419  31.912  33.195  1.00  0.00     0.167 HD
ATOM     46  C   UNL A   1      40.336  28.930  30.113  1.00  0.00     0.037 A 
ATOM     47  C   UNL A   1      39.665  33.091  35.711  1.00  0.00     0.037 A 
ATOM     48  C   UNL A   1      41.304  28.709  31.153  1.00  0.00     0.049 A 
ATOM     49  C   UNL A   1      40.724  32.024  35.635  1.00  0.00     0.074 A 
ATOM     50  C   UNL A   1      42.353  27.807  31.179  1.00  0.00     0.029 A 
ATOM     51  N   UNL A   1      41.342  29.403  32.354  1.00  0.00    -0.354 N 
ATOM     52  N   UNL A   1      40.993  31.193  34.657  1.00  0.00    -0.248 NA
ATOM     53  C   UNL A   1      41.596  31.873  36.808  1.00  0.00     0.031 C 
ATOM     54  C   UNL A   1      43.005  27.930  32.411  1.00  0.00     0.029 A 
ATOM     55  C   UNL A   1      42.387  28.937  33.135  1.00  0.00     0.049 A 
ATOM     56  H   UNL A   1      40.720  30.121  32.612  1.00  0.00     0.167 HD
ATOM     57  C   UNL A   1      42.075  30.439  35.085  1.00  0.00     0.074 A 
ATOM     58  C   UNL A   1      42.425  30.920  36.406  1.00  0.00     0.031 C 
ATOM     59  C   UNL A   1      42.722  29.434  34.444  1.00  0.00     0.037 A 
BRANCH  46  60
ATOM     60  C   UNL A   1      40.380  28.049  28.900  1.00  0.00     0.064 A 
ATOM     61  C   UNL A   1      41.140  28.394  27.772  1.00  0.00     0.173 A 
ATOM     62  C   UNL A   1      39.681  26.834  28.875  1.00  0.00     0.173 A 
ATOM     63  F   UNL A   1      41.815  29.552  27.740  1.00  0.00    -0.203 F 
ATOM     64  C   UNL A   1      41.175  27.566  26.653  1.00  0.00     0.198 A 
ATOM     65  C   UNL A   1      39.742  25.996  27.765  1.00  0.00     0.198 A 
ATOM     66  F   UNL A   1      38.942  26.456  29.929  1.00  0.00    -0.203 F 
ATOM     67  F   UNL A   1      41.870  27.939  25.568  1.00  0.00    -0.200 F 
ATOM     68  C   UNL A   1      40.482  26.365  26.652  1.00  0.00     0.200 A 
ATOM     69  F   UNL A   1      39.080  24.830  27.770  1.00  0.00    -0.200 F 
ATOM     70  F   UNL A   1      40.522  25.568  25.577  1.00  0.00    -0.200 F 
ENDBRANCH  46  60
BRANCH  47  71
ATOM     71  C   UNL A   1      39.528  33.942  36.919  1.00  0.00     0.064 A 
ATOM     72  C   UNL A   1      38.763  33.515  38.013  1.00  0.00     0.173 A 
ATOM     73  C   UNL A   1      40.149  35.196  37.005  1.00  0.00     0.173 A 
ATOM     74  F   UNL A   1      38.133  32.331  37.968  1.00  0.00    -0.203 F 
ATOM     75  C   UNL A   1      38.608  34.319  39.141  1.00  0.00     0.198 A 
ATOM     76  C   UNL A   1      40.013  35.988  38.144  1.00  0.00     0.198 A 
ATOM     77  F   UNL A   1      40.895  35.648  35.987  1.00  0.00    -0.203 F 
ATOM     78  F   UNL A   1      37.835  33.904  40.155  1.00  0.00    -0.200 F 
ATOM     79  C   UNL A   1      39.237  35.553  39.207  1.00  0.00     0.200 A 
ATOM     80  F   UNL A   1      40.632  37.175  38.209  1.00  0.00    -0.200 F 
ATOM     81  F   UNL A   1      39.088  36.325  40.291  1.00  0.00    -0.200 F 
ENDBRANCH  47  71
BRANCH  59  82
ATOM     82  C   UNL A   1      43.887  28.809  35.150  1.00  0.00     0.064 A 
ATOM     83  C   UNL A   1      45.190  29.303  34.991  1.00  0.00     0.173 A 
ATOM     84  C   UNL A   1      43.692  27.733  36.028  1.00  0.00     0.173 A 
ATOM     85  F   UNL A   1      45.429  30.321  34.150  1.00  0.00    -0.203 F 
ATOM     86  C   UNL A   1      46.260  28.727  35.671  1.00  0.00     0.198 A 
ATOM     87  C   UNL A   1      44.759  27.177  36.727  1.00  0.00     0.198 A 
ATOM     88  F   UNL A   1      42.463  27.229  36.217  1.00  0.00    -0.203 F 
ATOM     89  F   UNL A   1      47.502  29.188  35.474  1.00  0.00    -0.200 F 
ATOM     90  C   UNL A   1      46.043  27.670  36.543  1.00  0.00     0.200 A 
ATOM     91  F   UNL A   1      44.547  26.164  37.577  1.00  0.00    -0.200 F 
ATOM     92  F   UNL A   1      47.073  27.123  37.202  1.00  0.00    -0.200 F 
ENDBRANCH  59  82
ENDBRANCH  33  34
ENDBRANCH  25  28
ENDBRANCH  23  24
ENDBRANCH  22  23
ENDBRANCH   1  22
TORSDOF 14
ENDMDL
MODEL 2
REMARK VINA RESULT:     -12.6      0.686      1.803
REMARK SMILES Cn1cc(C[C@H](C(=O)NCCCCNC(=O)c2ccc(-c3c4nc(c(-c5c(F)c(F)c(F)c(F)c5F)c5ccc([nH]5)c(-c5c(F)c(F)c(F)c(F)c5F)c5nc(c(-c6c(F)c(F)c(F)c(F)c6F)c6ccc3[nH]6)C=C5)C=C4)cc2)c2ccc(F)cc2)cn1
REMARK SMILES IDX 11 1 10 2 9 3 7 4 8 5 6 7 5 8 4 9 1 10 2 11 3 12 88 13 87 14
REMARK SMILES IDX 80 15 81 16 86 17 82 18 85 19 83 20 84 21 12 22 13 23 14 24
REMARK SMILES IDX 15 25 16 27 17 28 18 29 79 30 19 31 78 32 20 33 21 34 22 35
REMARK SMILES IDX 72 36 23 37 77 38 71 39 73 40 24 41 76 42 70 43 69 44 25 46
REMARK SMILES IDX 57 47 37 48 56 49 38 50 41 51 55 52 74 53 39 54 40 55 54 57
REMARK SMILES IDX 75 58 42 59 26 60 27 61 35 62 28 63 29 64 33 65 36 66 30 67
REMARK SMILES IDX 31 68 34 69 32 70 58 71 59 72 67 73 60 74 61 75 65 76 68 77
REMARK SMILES IDX 62 78 63 79 66 80 64 81 43 82 44 83 52 84 45 85 46 86 50 87
REMARK SMILES IDX 53 88 47 89 48 90 51 91 49 92
REMARK H PARENT 9 6 14 26 73 45 41 56
REMARK Flexibility Score: inf
ROOT
ATOM      1  C   UNL A   1      32.012  30.646  26.442  1.00  0.00     0.023 C 
ENDROOT
BRANCH   1   2
ATOM      2  C   UNL A   1      31.363  30.259  25.112  1.00  0.00     0.116 C 
BRANCH   2   3
ATOM      3  N   UNL A   1      32.239  29.395  24.352  1.00  0.00    -0.356 N 
ATOM      4  C   UNL A   1      32.077  28.082  24.014  1.00  0.00     0.227 C 
ATOM      5  O   UNL A   1      33.069  27.509  23.555  1.00  0.00    -0.274 OA
ATOM      6  H   UNL A   1      33.070  29.813  24.032  1.00  0.00     0.163 HD
BRANCH   4   7
ATOM      7  C   UNL A   1      30.708  27.378  24.155  1.00  0.00     0.113 C 
BRANCH   7   8
ATOM      8  C   UNL A   1      29.978  27.563  22.805  1.00  0.00     0.057 C 
BRANCH   8   9
ATOM      9  C   UNL A   1      29.055  28.726  22.646  1.00  0.00    -0.009 A 
ATOM     10  C   UNL A   1      28.188  32.082  21.647  1.00  0.00     0.173 C 
ATOM     11  N   UNL A   1      28.298  30.725  22.121  1.00  0.00    -0.276 N 
ATOM     12  C   UNL A   1      29.386  29.914  22.021  1.00  0.00     0.112 A 
ATOM     13  N   UNL A   1      27.266  30.150  22.762  1.00  0.00    -0.182 NA
ATOM     14  C   UNL A   1      27.725  28.934  23.074  1.00  0.00     0.138 A 
ENDBRANCH   8   9
ENDBRANCH   7   8
BRANCH   7  15
ATOM     15  C   UNL A   1      30.853  25.918  24.579  1.00  0.00    -0.035 A 
ATOM     16  C   UNL A   1      30.825  24.895  23.610  1.00  0.00     0.007 A 
ATOM     17  C   UNL A   1      30.954  25.551  25.931  1.00  0.00     0.007 A 
ATOM     18  C   UNL A   1      30.828  23.550  23.986  1.00  0.00     0.039 A 
ATOM     19  C   UNL A   1      30.988  24.204  26.303  1.00  0.00     0.039 A 
ATOM     20  C   UNL A   1      30.906  23.218  25.330  1.00  0.00     0.123 A 
ATOM     21  F   UNL A   1      30.891  21.928  25.693  1.00  0.00    -0.207 F 
ENDBRANCH   7  15
ENDBRANCH   4   7
ENDBRANCH   2   3
ENDBRANCH   1   2
BRANCH   1  22
ATOM     22  C   UNL A   1      31.631  32.038  26.950  1.00  0.00     0.023 C 
BRANCH  22  23
ATOM     23  C   UNL A   1      32.801  32.866  27.463  1.00  0.00     0.116 C 
BRANCH  23  24
ATOM     24  N   UNL A   1      32.448  34.248  27.753  1.00  0.00    -0.352 N 
ATOM     25  C   UNL A   1      33.024  35.104  28.659  1.00  0.00     0.251 C 
ATOM     26  H   UNL A   1      31.699  34.617  27.232  1.00  0.00     0.163 HD
ATOM     27  O   UNL A   1      32.559  36.218  28.854  1.00  0.00    -0.269 OA
BRANCH  25  28
ATOM     28  C   UNL A   1      34.190  34.639  29.439  1.00  0.00     0.039 A 
ATOM     29  C   UNL A   1      33.976  34.122  30.719  1.00  0.00     0.014 A 
ATOM     30  C   UNL A   1      35.473  34.667  28.888  1.00  0.00     0.014 A 
ATOM     31  C   UNL A   1      35.044  33.558  31.418  1.00  0.00     0.010 A 
ATOM     32  C   UNL A   1      36.520  34.043  29.556  1.00  0.00     0.010 A 
ATOM     33  C   UNL A   1      36.314  33.479  30.824  1.00  0.00    -0.014 A 
BRANCH  33  34
ATOM     34  C   UNL A   1      37.442  32.805  31.510  1.00  0.00     0.031 A 
ATOM     35  C   UNL A   1      38.131  31.642  30.856  1.00  0.00     0.074 A 
ATOM     36  C   UNL A   1      37.793  33.193  32.751  1.00  0.00     0.049 A 
ATOM     37  N   UNL A   1      39.079  30.871  31.325  1.00  0.00    -0.248 NA
ATOM     38  C   UNL A   1      37.671  31.278  29.506  1.00  0.00     0.031 C 
ATOM     39  C   UNL A   1      37.160  34.273  33.512  1.00  0.00     0.029 A 
ATOM     40  N   UNL A   1      38.761  32.713  33.597  1.00  0.00    -0.354 N 
ATOM     41  C   UNL A   1      39.314  29.924  30.338  1.00  0.00     0.074 A 
ATOM     42  C   UNL A   1      38.377  30.182  29.267  1.00  0.00     0.031 C 
ATOM     43  C   UNL A   1      37.769  34.385  34.703  1.00  0.00     0.029 A 
ATOM     44  C   UNL A   1      38.811  33.369  34.803  1.00  0.00     0.049 A 
ATOM     45  H   UNL A   1      39.362  31.970  33.363  1.00  0.00     0.167 HD
ATOM     46  C   UNL A   1      40.245  28.940  30.319  1.00  0.00     0.037 A 
ATOM     47  C   UNL A   1      39.608  33.168  35.870  1.00  0.00     0.037 A 
ATOM     48  C   UNL A   1      41.199  28.709  31.370  1.00  0.00     0.049 A 
ATOM     49  C   UNL A   1      40.645  32.079  35.815  1.00  0.00     0.074 A 
ATOM     50  C   UNL A   1      42.229  27.786  31.415  1.00  0.00     0.029 A 
ATOM     51  N   UNL A   1      41.240  29.413  32.565  1.00  0.00    -0.354 N 
ATOM     52  N   UNL A   1      40.906  31.233  34.848  1.00  0.00    -0.248 NA
ATOM     53  C   UNL A   1      41.503  31.920  36.998  1.00  0.00     0.031 C 
ATOM     54  C   UNL A   1      42.871  27.907  32.652  1.00  0.00     0.029 A 
ATOM     55  C   UNL A   1      42.267  28.933  33.361  1.00  0.00     0.049 A 
ATOM     56  H   UNL A   1      40.631  30.147  32.810  1.00  0.00     0.167 HD
ATOM     57  C   UNL A   1      41.969  30.460  35.293  1.00  0.00     0.074 A 
ATOM     58  C   UNL A   1      42.315  30.947  36.613  1.00  0.00     0.031 C 
ATOM     59  C   UNL A   1      42.600  29.436  34.668  1.00  0.00     0.037 A 
BRANCH  46  60
ATOM     60  C   UNL A   1      40.283  28.047  29.114  1.00  0.00     0.064 A 
ATOM     61  C   UNL A   1      39.549  26.852  29.065  1.00  0.00     0.173 A 
ATOM     62  C   UNL A   1      41.034  28.405  27.985  1.00  0.00     0.173 A 
ATOM     63  F   UNL A   1      38.827  26.459  30.124  1.00  0.00    -0.203 F 
ATOM     64  C   UNL A   1      39.590  26.034  27.939  1.00  0.00     0.198 A 
ATOM     65  C   UNL A   1      41.050  27.598  26.851  1.00  0.00     0.198 A 
ATOM     66  F   UNL A   1      41.750  29.539  27.980  1.00  0.00    -0.203 F 
ATOM     67  F   UNL A   1      38.920  24.872  27.933  1.00  0.00    -0.200 F 
ATOM     68  C   UNL A   1      40.335  26.410  26.831  1.00  0.00     0.200 A 
ATOM     69  F   UNL A   1      41.761  27.967  25.777  1.00  0.00    -0.200 F 
ATOM     70  F   UNL A   1      40.368  25.623  25.747  1.00  0.00    -0.200 F 
ENDBRANCH  46  60
BRANCH  47  71
ATOM     71  C   UNL A   1      39.477  34.033  37.069  1.00  0.00     0.064 A 
ATOM     72  C   UNL A   1      40.118  35.279  37.127  1.00  0.00     0.173 A 
ATOM     73  C   UNL A   1      38.719  33.637  38.179  1.00  0.00     0.173 A 
ATOM     74  F   UNL A   1      40.872  35.692  36.096  1.00  0.00    -0.203 F 
ATOM     75  C   UNL A   1      40.021  36.087  38.258  1.00  0.00     0.198 A 
ATOM     76  C   UNL A   1      38.603  34.457  39.300  1.00  0.00     0.198 A 
ATOM     77  F   UNL A   1      38.083  32.456  38.171  1.00  0.00    -0.203 F 
ATOM     78  F   UNL A   1      40.680  37.253  38.303  1.00  0.00    -0.200 F 
ATOM     79  C   UNL A   1      39.260  35.677  39.342  1.00  0.00     0.200 A 
ATOM     80  F   UNL A   1      37.857  34.063  40.341  1.00  0.00    -0.200 F 
ATOM     81  F   UNL A   1      39.167  36.454  40.429  1.00  0.00    -0.200 F 
ENDBRANCH  47  71
BRANCH  59  82
ATOM     82  C   UNL A   1      43.745  28.794  35.391  1.00  0.00     0.064 A 
ATOM     83  C   UNL A   1      45.064  29.239  35.215  1.00  0.00     0.173 A 
ATOM     84  C   UNL A   1      43.517  27.753  36.302  1.00  0.00     0.173 A 
ATOM     85  F   UNL A   1      45.335  30.221  34.342  1.00  0.00    -0.203 F 
ATOM     86  C   UNL A   1      46.115  28.648  35.911  1.00  0.00     0.198 A 
ATOM     87  C   UNL A   1      44.566  27.182  37.016  1.00  0.00     0.198 A 
ATOM     88  F   UNL A   1      42.272  27.297  36.508  1.00  0.00    -0.203 F 
ATOM     89  F   UNL A   1      47.372  29.060  35.697  1.00  0.00    -0.200 F 
ATOM     90  C   UNL A   1      45.865  27.626  36.815  1.00  0.00     0.200 A 
ATOM     91  F   UNL A   1      44.321  26.204  37.897  1.00  0.00    -0.200 F 
ATOM     92  F   UNL A   1      46.877  27.064  37.489  1.00  0.00    -0.200 F 
ENDBRANCH  59  82
ENDBRANCH  33  34
ENDBRANCH  25  28
ENDBRANCH  23  24
ENDBRANCH  22  23
ENDBRANCH   1  22
TORSDOF 14
ENDMDL
MODEL 3
REMARK VINA RESULT:     -12.6      0.877      7.326
REMARK SMILES Cn1cc(C[C@H](C(=O)NCCCCNC(=O)c2ccc(-c3c4nc(c(-c5c(F)c(F)c(F)c(F)c5F)c5ccc([nH]5)c(-c5c(F)c(F)c(F)c(F)c5F)c5nc(c(-c6c(F)c(F)c(F)c(F)c6F)c6ccc3[nH]6)C=C5)C=C4)cc2)c2ccc(F)cc2)cn1
REMARK SMILES IDX 11 1 10 2 9 3 7 4 8 5 6 7 5 8 4 9 1 10 2 11 3 12 88 13 87 14
REMARK SMILES IDX 80 15 81 16 86 17 82 18 85 19 83 20 84 21 12 22 13 23 14 24
REMARK SMILES IDX 15 25 16 27 17 28 18 29 79 30 19 31 78 32 20 33 21 34 22 35
REMARK SMILES IDX 72 36 23 37 77 38 71 39 73 40 24 41 76 42 70 43 69 44 25 46
REMARK SMILES IDX 57 47 37 48 56 49 38 50 41 51 55 52 74 53 39 54 40 55 54 57
REMARK SMILES IDX 75 58 42 59 26 60 27 61 35 62 28 63 29 64 33 65 36 66 30 67
REMARK SMILES IDX 31 68 34 69 32 70 58 71 59 72 67 73 60 74 61 75 65 76 68 77
REMARK SMILES IDX 62 78 63 79 66 80 64 81 43 82 44 83 52 84 45 85 46 86 50 87
REMARK SMILES IDX 53 88 47 89 48 90 51 91 49 92
REMARK H PARENT 9 6 14 26 73 45 41 56
REMARK Flexibility Score: inf
ROOT
ATOM      1  C   UNL A   1      31.450  31.031  25.940  1.00  0.00     0.023 C 
ENDROOT
BRANCH   1   2
ATOM      2  C   UNL A   1      32.610  30.034  25.936  1.00  0.00     0.116 C 
BRANCH   2   3
ATOM      3  N   UNL A   1      32.986  29.697  24.581  1.00  0.00    -0.356 N 
ATOM      4  C   UNL A   1      32.346  28.896  23.681  1.00  0.00     0.227 C 
ATOM      5  O   UNL A   1      32.986  28.589  22.671  1.00  0.00    -0.274 OA
ATOM      6  H   UNL A   1      33.823  30.106  24.262  1.00  0.00     0.163 HD
BRANCH   4   7
ATOM      7  C   UNL A   1      30.884  28.445  23.901  1.00  0.00     0.113 C 
BRANCH   7   8
ATOM      8  C   UNL A   1      30.131  28.737  22.583  1.00  0.00     0.057 C 
BRANCH   8   9
ATOM      9  C   UNL A   1      29.335  29.996  22.479  1.00  0.00    -0.009 A 
ATOM     10  C   UNL A   1      27.766  32.721  20.712  1.00  0.00     0.173 C 
ATOM     11  N   UNL A   1      28.301  31.740  21.622  1.00  0.00    -0.276 N 
ATOM     12  C   UNL A   1      28.977  30.606  21.291  1.00  0.00     0.112 A 
ATOM     13  N   UNL A   1      28.179  31.916  22.949  1.00  0.00    -0.182 NA
ATOM     14  C   UNL A   1      28.802  30.852  23.468  1.00  0.00     0.138 A 
ENDBRANCH   8   9
ENDBRANCH   7   8
BRANCH   7  15
ATOM     15  C   UNL A   1      30.792  26.988  24.351  1.00  0.00    -0.035 A 
ATOM     16  C   UNL A   1      31.027  26.649  25.699  1.00  0.00     0.007 A 
ATOM     17  C   UNL A   1      30.535  25.951  23.438  1.00  0.00     0.007 A 
ATOM     18  C   UNL A   1      31.072  25.314  26.105  1.00  0.00     0.039 A 
ATOM     19  C   UNL A   1      30.550  24.617  23.854  1.00  0.00     0.039 A 
ATOM     20  C   UNL A   1      30.837  24.310  25.177  1.00  0.00     0.123 A 
ATOM     21  F   UNL A   1      30.898  23.028  25.562  1.00  0.00    -0.207 F 
ENDBRANCH   7  15
ENDBRANCH   4   7
ENDBRANCH   2   3
ENDBRANCH   1   2
BRANCH   1  22
ATOM     22  C   UNL A   1      31.440  31.986  27.135  1.00  0.00     0.023 C 
BRANCH  22  23
ATOM     23  C   UNL A   1      32.691  32.843  27.269  1.00  0.00     0.116 C 
BRANCH  23  24
ATOM     24  N   UNL A   1      32.410  34.220  27.648  1.00  0.00    -0.352 N 
ATOM     25  C   UNL A   1      33.042  34.991  28.592  1.00  0.00     0.251 C 
ATOM     26  H   UNL A   1      31.671  34.656  27.165  1.00  0.00     0.163 HD
ATOM     27  O   UNL A   1      32.634  36.113  28.862  1.00  0.00    -0.269 OA
BRANCH  25  28
ATOM     28  C   UNL A   1      34.196  34.425  29.321  1.00  0.00     0.039 A 
ATOM     29  C   UNL A   1      33.956  33.656  30.462  1.00  0.00     0.014 A 
ATOM     30  C   UNL A   1      35.497  34.610  28.848  1.00  0.00     0.014 A 
ATOM     31  C   UNL A   1      35.021  33.006  31.087  1.00  0.00     0.010 A 
ATOM     32  C   UNL A   1      36.545  33.906  29.429  1.00  0.00     0.010 A 
ATOM     33  C   UNL A   1      36.315  33.094  30.551  1.00  0.00    -0.014 A 
BRANCH  33  34
ATOM     34  C   UNL A   1      37.446  32.340  31.144  1.00  0.00     0.031 A 
ATOM     35  C   UNL A   1      37.950  32.697  32.512  1.00  0.00     0.074 A 
ATOM     36  C   UNL A   1      38.062  31.387  30.419  1.00  0.00     0.049 A 
ATOM     37  N   UNL A   1      38.974  32.214  33.169  1.00  0.00    -0.248 NA
ATOM     38  C   UNL A   1      37.226  33.762  33.225  1.00  0.00     0.031 C 
ATOM     39  C   UNL A   1      37.698  30.991  29.057  1.00  0.00     0.029 A 
ATOM     40  N   UNL A   1      39.135  30.587  30.723  1.00  0.00    -0.354 N 
ATOM     41  C   UNL A   1      39.025  32.927  34.359  1.00  0.00     0.074 A 
ATOM     42  C   UNL A   1      37.965  33.909  34.315  1.00  0.00     0.031 C 
ATOM     43  C   UNL A   1      38.521  30.010  28.651  1.00  0.00     0.029 A 
ATOM     44  C   UNL A   1      39.487  29.730  29.708  1.00  0.00     0.049 A 
ATOM     45  H   UNL A   1      39.608  30.623  31.585  1.00  0.00     0.167 HD
ATOM     46  C   UNL A   1      39.869  32.759  35.406  1.00  0.00     0.037 A 
ATOM     47  C   UNL A   1      40.481  28.824  29.640  1.00  0.00     0.037 A 
ATOM     48  C   UNL A   1      40.900  31.758  35.461  1.00  0.00     0.049 A 
ATOM     49  C   UNL A   1      41.393  28.648  30.824  1.00  0.00     0.074 A 
ATOM     50  C   UNL A   1      41.759  31.459  36.504  1.00  0.00     0.029 A 
ATOM     51  N   UNL A   1      41.207  30.886  34.426  1.00  0.00    -0.354 N 
ATOM     52  N   UNL A   1      41.389  29.279  31.973  1.00  0.00    -0.248 NA
ATOM     53  C   UNL A   1      42.445  27.628  30.703  1.00  0.00     0.031 C 
ATOM     54  C   UNL A   1      42.611  30.431  36.087  1.00  0.00     0.029 A 
ATOM     55  C   UNL A   1      42.256  30.061  34.800  1.00  0.00     0.049 A 
ATOM     56  H   UNL A   1      40.748  30.857  33.556  1.00  0.00     0.167 HD
ATOM     57  C   UNL A   1      42.417  28.720  32.719  1.00  0.00     0.074 A 
ATOM     58  C   UNL A   1      43.015  27.687  31.898  1.00  0.00     0.031 C 
ATOM     59  C   UNL A   1      42.831  29.035  33.971  1.00  0.00     0.037 A 
BRANCH  46  60
ATOM     60  C   UNL A   1      39.703  33.675  36.581  1.00  0.00     0.064 A 
ATOM     61  C   UNL A   1      40.347  34.921  36.637  1.00  0.00     0.173 A 
ATOM     62  C   UNL A   1      38.866  33.320  37.649  1.00  0.00     0.173 A 
ATOM     63  F   UNL A   1      41.169  35.301  35.648  1.00  0.00    -0.203 F 
ATOM     64  C   UNL A   1      40.181  35.764  37.733  1.00  0.00     0.198 A 
ATOM     65  C   UNL A   1      38.681  34.178  38.730  1.00  0.00     0.198 A 
ATOM     66  F   UNL A   1      38.224  32.142  37.643  1.00  0.00    -0.203 F 
ATOM     67  F   UNL A   1      40.845  36.928  37.787  1.00  0.00    -0.200 F 
ATOM     68  C   UNL A   1      39.344  35.395  38.775  1.00  0.00     0.200 A 
ATOM     69  F   UNL A   1      37.863  33.826  39.732  1.00  0.00    -0.200 F 
ATOM     70  F   UNL A   1      39.182  36.210  39.825  1.00  0.00    -0.200 F 
ENDBRANCH  46  60
BRANCH  47  71
ATOM     71  C   UNL A   1      40.648  27.995  28.421  1.00  0.00     0.064 A 
ATOM     72  C   UNL A   1      40.042  26.735  28.323  1.00  0.00     0.173 A 
ATOM     73  C   UNL A   1      41.417  28.436  27.335  1.00  0.00     0.173 A 
ATOM     74  F   UNL A   1      39.314  26.261  29.345  1.00  0.00    -0.203 F 
ATOM     75  C   UNL A   1      40.214  25.939  27.192  1.00  0.00     0.198 A 
ATOM     76  C   UNL A   1      41.568  27.649  26.195  1.00  0.00     0.198 A 
ATOM     77  F   UNL A   1      42.014  29.636  27.378  1.00  0.00    -0.203 F 
ATOM     78  F   UNL A   1      39.659  24.720  27.143  1.00  0.00    -0.200 F 
ATOM     79  C   UNL A   1      40.973  26.399  26.127  1.00  0.00     0.200 A 
ATOM     80  F   UNL A   1      42.293  28.102  25.162  1.00  0.00    -0.200 F 
ATOM     81  F   UNL A   1      41.138  25.634  25.040  1.00  0.00    -0.200 F 
ENDBRANCH  47  71
BRANCH  59  82
ATOM     82  C   UNL A   1      43.966  28.236  34.537  1.00  0.00     0.064 A 
ATOM     83  C   UNL A   1      45.294  28.676  34.435  1.00  0.00     0.173 A 
ATOM     84  C   UNL A   1      43.719  27.041  35.229  1.00  0.00     0.173 A 
ATOM     85  F   UNL A   1      45.582  29.805  33.769  1.00  0.00    -0.203 F 
ATOM     86  C   UNL A   1      46.336  27.936  34.986  1.00  0.00     0.198 A 
ATOM     87  C   UNL A   1      44.760  26.317  35.802  1.00  0.00     0.198 A 
ATOM     88  F   UNL A   1      42.465  26.582  35.358  1.00  0.00    -0.203 F 
ATOM     89  F   UNL A   1      47.601  28.353  34.842  1.00  0.00    -0.200 F 
ATOM     90  C   UNL A   1      46.068  26.761  35.675  1.00  0.00     0.200 A 
ATOM     91  F   UNL A   1      44.499  25.190  36.477  1.00  0.00    -0.200 F 
ATOM     92  F   UNL A   1      47.072  26.055  36.212  1.00  0.00    -0.200 F 
ENDBRANCH  59  82
ENDBRANCH  33  34
ENDBRANCH  25  28
ENDBRANCH  23  24
ENDBRANCH  22  23
ENDBRANCH   1  22
TORSDOF 14
ENDMDL
