MODEL 1
REMARK VINA RESULT:     -12.9      0.000      0.000
REMARK SMILES O=C(NCCCCNC(=O)c1ccc2nc(C3CCCCC3)[nH]c2c1)c1ccc(-c2c3nc(c(-c4c(F)c(F)c(F)c(F)c4F)c4ccc([nH]4)c(-c4c(F)c(F)c(F)c(F)c4F)c4nc(c(-c5c(F)c(F)c(F)c(F)c5F)c5ccc2[nH]5)C=C4)C=C3)cc1
REMARK SMILES IDX 5 1 4 2 3 3 1 4 2 5 26 7 27 8 88 9 28 10 87 11 29 12 30 13
REMARK SMILES IDX 31 14 81 15 32 16 86 17 80 18 82 19 33 20 85 21 79 22 78 23
REMARK SMILES IDX 34 25 66 26 46 27 65 28 47 29 50 30 64 31 83 32 48 33 49 34
REMARK SMILES IDX 63 36 84 37 51 38 35 39 36 40 44 41 37 42 38 43 42 44 45 45
REMARK SMILES IDX 39 46 40 47 43 48 41 49 67 50 68 51 76 52 69 53 70 54 74 55
REMARK SMILES IDX 77 56 71 57 72 58 75 59 73 60 52 61 53 62 61 63 54 64 55 65
REMARK SMILES IDX 59 66 62 67 56 68 57 69 60 70 58 71 6 72 7 73 8 74 9 75
REMARK SMILES IDX 10 77 11 78 12 79 25 80 13 81 24 82 14 83 23 84 15 85 16 86
REMARK SMILES IDX 17 88 18 89 22 90 19 91 21 92 20 93
REMARK H PARENT 3 6 82 24 50 35 8 76 23 87
REMARK Flexibility Score: inf
ROOT
ATOM      1  C   UNL A   1      31.472  32.086  26.875  1.00  0.00     0.023 C 
ENDROOT
BRANCH   1   2
ATOM      2  C   UNL A   1      32.750  32.852  27.179  1.00  0.00     0.116 C 
BRANCH   2   3
ATOM      3  N   UNL A   1      32.499  34.203  27.655  1.00  0.00    -0.352 N 
ATOM      4  O   UNL A   1      32.663  35.959  29.066  1.00  0.00    -0.269 OA
ATOM      5  C   UNL A   1      33.089  34.868  28.701  1.00  0.00     0.251 C 
ATOM      6  H   UNL A   1      31.815  34.708  27.160  1.00  0.00     0.163 HD
BRANCH   5   7
ATOM      7  C   UNL A   1      34.235  34.252  29.401  1.00  0.00     0.039 A 
ATOM      8  C   UNL A   1      34.027  33.427  30.510  1.00  0.00     0.014 A 
ATOM      9  C   UNL A   1      35.529  34.494  28.934  1.00  0.00     0.014 A 
ATOM     10  C   UNL A   1      35.116  32.937  31.220  1.00  0.00     0.010 A 
ATOM     11  C   UNL A   1      36.621  33.935  29.602  1.00  0.00     0.010 A 
ATOM     12  C   UNL A   1      36.422  33.162  30.756  1.00  0.00    -0.014 A 
BRANCH  12  13
ATOM     13  C   UNL A   1      37.553  32.470  31.417  1.00  0.00     0.031 A 
ATOM     14  C   UNL A   1      38.248  31.307  30.772  1.00  0.00     0.074 A 
ATOM     15  C   UNL A   1      37.937  32.910  32.631  1.00  0.00     0.049 A 
ATOM     16  N   UNL A   1      39.234  30.581  31.237  1.00  0.00    -0.248 NA
ATOM     17  C   UNL A   1      37.777  30.898  29.440  1.00  0.00     0.031 C 
ATOM     18  C   UNL A   1      37.311  34.018  33.358  1.00  0.00     0.029 A 
ATOM     19  N   UNL A   1      38.936  32.488  33.470  1.00  0.00    -0.354 N 
ATOM     20  C   UNL A   1      39.489  29.620  30.268  1.00  0.00     0.074 A 
ATOM     21  C   UNL A   1      38.547  29.845  29.192  1.00  0.00     0.031 C 
ATOM     22  C   UNL A   1      37.952  34.202  34.520  1.00  0.00     0.029 A 
ATOM     23  C   UNL A   1      38.989  33.187  34.651  1.00  0.00     0.049 A 
ATOM     24  H   UNL A   1      39.555  31.756  33.246  1.00  0.00     0.167 HD
ATOM     25  C   UNL A   1      40.428  28.645  30.286  1.00  0.00     0.037 A 
ATOM     26  C   UNL A   1      39.763  33.008  35.736  1.00  0.00     0.037 A 
ATOM     27  C   UNL A   1      41.378  28.451  31.352  1.00  0.00     0.049 A 
ATOM     28  C   UNL A   1      40.774  31.898  35.730  1.00  0.00     0.074 A 
ATOM     29  C   UNL A   1      42.429  27.552  31.416  1.00  0.00     0.029 A 
ATOM     30  N   UNL A   1      41.384  29.159  32.544  1.00  0.00    -0.354 N 
ATOM     31  N   UNL A   1      41.054  31.043  34.777  1.00  0.00    -0.248 NA
ATOM     32  C   UNL A   1      41.569  31.722  36.952  1.00  0.00     0.031 C 
ATOM     33  C   UNL A   1      43.035  27.677  32.671  1.00  0.00     0.029 A 
ATOM     34  C   UNL A   1      42.392  28.685  33.369  1.00  0.00     0.049 A 
ATOM     35  H   UNL A   1      40.765  29.891  32.770  1.00  0.00     0.167 HD
ATOM     36  C   UNL A   1      42.056  30.230  35.280  1.00  0.00     0.074 A 
ATOM     37  C   UNL A   1      42.359  30.714  36.612  1.00  0.00     0.031 C 
ATOM     38  C   UNL A   1      42.666  29.171  34.696  1.00  0.00     0.037 A 
BRANCH  25  39
ATOM     39  C   UNL A   1      40.485  27.689  29.129  1.00  0.00     0.064 A 
ATOM     40  C   UNL A   1      39.676  26.546  29.078  1.00  0.00     0.173 A 
ATOM     41  C   UNL A   1      41.279  27.985  28.010  1.00  0.00     0.173 A 
ATOM     42  F   UNL A   1      38.902  26.217  30.124  1.00  0.00    -0.203 F 
ATOM     43  C   UNL A   1      39.663  25.730  27.949  1.00  0.00     0.198 A 
ATOM     44  C   UNL A   1      41.248  27.179  26.876  1.00  0.00     0.198 A 
ATOM     45  F   UNL A   1      42.064  29.073  28.008  1.00  0.00    -0.203 F 
ATOM     46  F   UNL A   1      38.893  24.633  27.925  1.00  0.00    -0.200 F 
ATOM     47  C   UNL A   1      40.440  26.053  26.846  1.00  0.00     0.200 A 
ATOM     48  F   UNL A   1      41.989  27.500  25.806  1.00  0.00    -0.200 F 
ATOM     49  F   UNL A   1      40.408  25.279  25.751  1.00  0.00    -0.200 F 
ENDBRANCH  25  39
BRANCH  26  50
ATOM     50  C   UNL A   1      39.574  33.871  36.929  1.00  0.00     0.064 A 
ATOM     51  C   UNL A   1      38.779  33.457  38.006  1.00  0.00     0.173 A 
ATOM     52  C   UNL A   1      40.185  35.132  37.014  1.00  0.00     0.173 A 
ATOM     53  F   UNL A   1      38.159  32.269  37.961  1.00  0.00    -0.203 F 
ATOM     54  C   UNL A   1      38.584  34.281  39.112  1.00  0.00     0.198 A 
ATOM     55  C   UNL A   1      40.016  35.940  38.136  1.00  0.00     0.198 A 
ATOM     56  F   UNL A   1      40.960  35.573  36.012  1.00  0.00    -0.203 F 
ATOM     57  F   UNL A   1      37.779  33.881  40.107  1.00  0.00    -0.200 F 
ATOM     58  C   UNL A   1      39.208  35.517  39.180  1.00  0.00     0.200 A 
ATOM     59  F   UNL A   1      40.635  37.127  38.202  1.00  0.00    -0.200 F 
ATOM     60  F   UNL A   1      39.022  36.307  40.246  1.00  0.00    -0.200 F 
ENDBRANCH  26  50
BRANCH  38  61
ATOM     61  C   UNL A   1      43.714  28.463  35.501  1.00  0.00     0.064 A 
ATOM     62  C   UNL A   1      45.069  28.807  35.391  1.00  0.00     0.173 A 
ATOM     63  C   UNL A   1      43.360  27.454  36.409  1.00  0.00     0.173 A 
ATOM     64  F   UNL A   1      45.458  29.751  34.520  1.00  0.00    -0.203 F 
ATOM     65  C   UNL A   1      46.036  28.150  36.146  1.00  0.00     0.198 A 
ATOM     66  C   UNL A   1      44.327  26.819  37.183  1.00  0.00     0.198 A 
ATOM     67  F   UNL A   1      42.076  27.093  36.552  1.00  0.00    -0.203 F 
ATOM     68  F   UNL A   1      47.330  28.462  35.993  1.00  0.00    -0.200 F 
ATOM     69  C   UNL A   1      45.663  27.162  37.046  1.00  0.00     0.200 A 
ATOM     70  F   UNL A   1      43.963  25.873  38.060  1.00  0.00    -0.200 F 
ATOM     71  F   UNL A   1      46.595  26.536  37.778  1.00  0.00    -0.200 F 
ENDBRANCH  38  61
ENDBRANCH  12  13
ENDBRANCH   5   7
ENDBRANCH   2   3
ENDBRANCH   1   2
BRANCH   1  72
ATOM     72  C   UNL A   1      31.624  30.567  26.833  1.00  0.00     0.023 C 
BRANCH  72  73
ATOM     73  C   UNL A   1      32.311  30.022  25.586  1.00  0.00     0.116 C 
BRANCH  73  74
ATOM     74  N   UNL A   1      31.394  29.861  24.468  1.00  0.00    -0.352 N 
ATOM     75  C   UNL A   1      30.986  28.697  23.864  1.00  0.00     0.251 C 
ATOM     76  H   UNL A   1      31.019  30.693  24.099  1.00  0.00     0.163 HD
ATOM     77  O   UNL A   1      30.309  28.719  22.843  1.00  0.00    -0.269 OA
BRANCH  75  78
ATOM     78  C   UNL A   1      31.417  27.413  24.446  1.00  0.00     0.042 A 
ATOM     79  C   UNL A   1      30.653  26.815  25.458  1.00  0.00     0.016 A 
ATOM     80  C   UNL A   1      32.629  26.869  24.003  1.00  0.00     0.042 A 
ATOM     81  C   UNL A   1      31.133  25.684  26.127  1.00  0.00     0.031 A 
ATOM     82  C   UNL A   1      33.076  25.744  24.695  1.00  0.00     0.066 A 
ATOM     83  C   UNL A   1      32.375  25.159  25.744  1.00  0.00     0.089 A 
ATOM     84  N   UNL A   1      34.205  24.978  24.576  1.00  0.00    -0.342 N 
ATOM     85  N   UNL A   1      33.071  24.100  26.265  1.00  0.00    -0.233 NA
ATOM     86  C   UNL A   1      34.176  24.011  25.553  1.00  0.00     0.110 A 
ATOM     87  H   UNL A   1      34.917  25.099  23.906  1.00  0.00     0.168 HD
BRANCH  86  88
ATOM     88  C   UNL A   1      35.253  22.985  25.727  1.00  0.00     0.055 C 
ATOM     89  C   UNL A   1      34.981  21.762  24.843  1.00  0.00     0.011 C 
ATOM     90  C   UNL A   1      36.651  23.565  25.467  1.00  0.00     0.011 C 
ATOM     91  C   UNL A   1      36.069  20.705  25.001  1.00  0.00     0.001 C 
ATOM     92  C   UNL A   1      37.734  22.499  25.620  1.00  0.00     0.001 C 
ATOM     93  C   UNL A   1      37.455  21.284  24.739  1.00  0.00     0.000 C 
ENDBRANCH  86  88
ENDBRANCH  75  78
ENDBRANCH  73  74
ENDBRANCH  72  73
ENDBRANCH   1  72
TORSDOF 12
ENDMDL
MODEL 2
REMARK VINA RESULT:     -12.8      5.807     11.379
REMARK SMILES O=C(NCCCCNC(=O)c1ccc2nc(C3CCCCC3)[nH]c2c1)c1ccc(-c2c3nc(c(-c4c(F)c(F)c(F)c(F)c4F)c4ccc([nH]4)c(-c4c(F)c(F)c(F)c(F)c4F)c4nc(c(-c5c(F)c(F)c(F)c(F)c5F)c5ccc2[nH]5)C=C4)C=C3)cc1
REMARK SMILES IDX 5 1 4 2 3 3 1 4 2 5 26 7 27 8 88 9 28 10 87 11 29 12 30 13
REMARK SMILES IDX 31 14 81 15 32 16 86 17 80 18 82 19 33 20 85 21 79 22 78 23
REMARK SMILES IDX 34 25 66 26 46 27 65 28 47 29 50 30 64 31 83 32 48 33 49 34
REMARK SMILES IDX 63 36 84 37 51 38 35 39 36 40 44 41 37 42 38 43 42 44 45 45
REMARK SMILES IDX 39 46 40 47 43 48 41 49 67 50 68 51 76 52 69 53 70 54 74 55
REMARK SMILES IDX 77 56 71 57 72 58 75 59 73 60 52 61 53 62 61 63 54 64 55 65
REMARK SMILES IDX 59 66 62 67 56 68 57 69 60 70 58 71 6 72 7 73 8 74 9 75
REMARK SMILES IDX 10 77 11 78 12 79 25 80 13 81 24 82 14 83 23 84 15 85 16 86
REMARK SMILES IDX 17 88 18 89 22 90 19 91 21 92 20 93
REMARK H PARENT 3 6 82 24 50 35 8 76 23 87
REMARK Flexibility Score: inf
ROOT
ATOM      1  C   UNL A   1      38.237  19.715  24.989  1.00  0.00     0.023 C 
ENDROOT
BRANCH   1   2
ATOM      2  C   UNL A   1      39.320  20.009  26.017  1.00  0.00     0.116 C 
BRANCH   2   3
ATOM      3  N   UNL A   1      40.414  19.053  25.972  1.00  0.00    -0.352 N 
ATOM      4  O   UNL A   1      42.569  18.384  25.853  1.00  0.00    -0.269 OA
ATOM      5  C   UNL A   1      41.765  19.289  26.051  1.00  0.00     0.251 C 
ATOM      6  H   UNL A   1      40.152  18.110  25.873  1.00  0.00     0.163 HD
BRANCH   5   7
ATOM      7  C   UNL A   1      42.248  20.651  26.358  1.00  0.00     0.039 A 
ATOM      8  C   UNL A   1      42.539  21.549  25.328  1.00  0.00     0.014 A 
ATOM      9  C   UNL A   1      42.399  21.035  27.693  1.00  0.00     0.014 A 
ATOM     10  C   UNL A   1      43.088  22.789  25.627  1.00  0.00     0.010 A 
ATOM     11  C   UNL A   1      42.876  22.313  27.995  1.00  0.00     0.010 A 
ATOM     12  C   UNL A   1      43.234  23.194  26.963  1.00  0.00    -0.014 A 
BRANCH  12  13
ATOM     13  C   UNL A   1      43.639  24.590  27.256  1.00  0.00     0.031 A 
ATOM     14  C   UNL A   1      42.648  25.612  27.732  1.00  0.00     0.074 A 
ATOM     15  C   UNL A   1      44.931  24.922  27.071  1.00  0.00     0.049 A 
ATOM     16  N   UNL A   1      42.844  26.877  28.003  1.00  0.00    -0.248 NA
ATOM     17  C   UNL A   1      41.261  25.164  27.923  1.00  0.00     0.031 C 
ATOM     18  C   UNL A   1      45.971  24.009  26.587  1.00  0.00     0.029 A 
ATOM     19  N   UNL A   1      45.594  26.107  27.262  1.00  0.00    -0.354 N 
ATOM     20  C   UNL A   1      41.605  27.383  28.375  1.00  0.00     0.074 A 
ATOM     21  C   UNL A   1      40.659  26.291  28.286  1.00  0.00     0.031 C 
ATOM     22  C   UNL A   1      47.142  24.659  26.540  1.00  0.00     0.029 A 
ATOM     23  C   UNL A   1      46.925  26.047  26.926  1.00  0.00     0.049 A 
ATOM     24  H   UNL A   1      45.160  26.919  27.606  1.00  0.00     0.167 HD
ATOM     25  C   UNL A   1      41.299  28.645  28.758  1.00  0.00     0.037 A 
ATOM     26  C   UNL A   1      47.861  27.012  26.896  1.00  0.00     0.037 A 
ATOM     27  C   UNL A   1      42.258  29.715  28.871  1.00  0.00     0.049 A 
ATOM     28  C   UNL A   1      47.477  28.406  27.300  1.00  0.00     0.074 A 
ATOM     29  C   UNL A   1      42.060  31.001  29.342  1.00  0.00     0.029 A 
ATOM     30  N   UNL A   1      43.590  29.626  28.496  1.00  0.00    -0.354 N 
ATOM     31  N   UNL A   1      46.319  28.853  27.721  1.00  0.00    -0.248 NA
ATOM     32  C   UNL A   1      48.524  29.431  27.216  1.00  0.00     0.031 C 
ATOM     33  C   UNL A   1      43.259  31.708  29.199  1.00  0.00     0.029 A 
ATOM     34  C   UNL A   1      44.215  30.849  28.682  1.00  0.00     0.049 A 
ATOM     35  H   UNL A   1      44.027  28.814  28.150  1.00  0.00     0.167 HD
ATOM     36  C   UNL A   1      46.497  30.207  27.954  1.00  0.00     0.074 A 
ATOM     37  C   UNL A   1      47.884  30.503  27.660  1.00  0.00     0.031 C 
ATOM     38  C   UNL A   1      45.592  31.126  28.367  1.00  0.00     0.037 A 
BRANCH  25  39
ATOM     39  C   UNL A   1      39.868  28.965  29.078  1.00  0.00     0.064 A 
ATOM     40  C   UNL A   1      38.964  29.369  28.086  1.00  0.00     0.173 A 
ATOM     41  C   UNL A   1      39.372  28.755  30.374  1.00  0.00     0.173 A 
ATOM     42  F   UNL A   1      39.390  29.587  26.832  1.00  0.00    -0.203 F 
ATOM     43  C   UNL A   1      37.616  29.556  28.381  1.00  0.00     0.198 A 
ATOM     44  C   UNL A   1      38.020  28.923  30.660  1.00  0.00     0.198 A 
ATOM     45  F   UNL A   1      40.196  28.360  31.356  1.00  0.00    -0.203 F 
ATOM     46  F   UNL A   1      36.771  29.957  27.421  1.00  0.00    -0.200 F 
ATOM     47  C   UNL A   1      37.143  29.323  29.664  1.00  0.00     0.200 A 
ATOM     48  F   UNL A   1      37.563  28.684  31.898  1.00  0.00    -0.200 F 
ATOM     49  F   UNL A   1      35.841  29.482  29.940  1.00  0.00    -0.200 F 
ENDBRANCH  25  39
BRANCH  26  50
ATOM     50  C   UNL A   1      49.233  26.698  26.423  1.00  0.00     0.064 A 
ATOM     51  C   UNL A   1      49.606  26.908  25.089  1.00  0.00     0.173 A 
ATOM     52  C   UNL A   1      50.198  26.177  27.298  1.00  0.00     0.173 A 
ATOM     53  F   UNL A   1      48.711  27.386  24.211  1.00  0.00    -0.203 F 
ATOM     54  C   UNL A   1      50.886  26.589  24.643  1.00  0.00     0.198 A 
ATOM     55  C   UNL A   1      51.488  25.890  26.858  1.00  0.00     0.198 A 
ATOM     56  F   UNL A   1      49.892  25.962  28.586  1.00  0.00    -0.203 F 
ATOM     57  F   UNL A   1      51.203  26.754  23.351  1.00  0.00    -0.200 F 
ATOM     58  C   UNL A   1      51.828  26.086  25.529  1.00  0.00     0.200 A 
ATOM     59  F   UNL A   1      52.397  25.419  27.722  1.00  0.00    -0.200 F 
ATOM     60  F   UNL A   1      53.060  25.783  25.099  1.00  0.00    -0.200 F 
ENDBRANCH  26  50
BRANCH  38  61
ATOM     61  C   UNL A   1      46.077  32.537  28.515  1.00  0.00     0.064 A 
ATOM     62  C   UNL A   1      45.971  33.455  27.459  1.00  0.00     0.173 A 
ATOM     63  C   UNL A   1      46.624  32.984  29.726  1.00  0.00     0.173 A 
ATOM     64  F   UNL A   1      45.474  33.067  26.274  1.00  0.00    -0.203 F 
ATOM     65  C   UNL A   1      46.417  34.765  27.604  1.00  0.00     0.198 A 
ATOM     66  C   UNL A   1      47.043  34.302  29.876  1.00  0.00     0.198 A 
ATOM     67  F   UNL A   1      46.742  32.144  30.765  1.00  0.00    -0.203 F 
ATOM     68  F   UNL A   1      46.350  35.612  26.569  1.00  0.00    -0.200 F 
ATOM     69  C   UNL A   1      46.946  35.189  28.815  1.00  0.00     0.200 A 
ATOM     70  F   UNL A   1      47.543  34.714  31.050  1.00  0.00    -0.200 F 
ATOM     71  F   UNL A   1      47.368  36.452  28.955  1.00  0.00    -0.200 F 
ENDBRANCH  38  61
ENDBRANCH  12  13
ENDBRANCH   5   7
ENDBRANCH   2   3
ENDBRANCH   1   2
BRANCH   1  72
ATOM     72  C   UNL A   1      37.351  20.905  24.628  1.00  0.00     0.023 C 
BRANCH  72  73
ATOM     73  C   UNL A   1      36.269  21.237  25.650  1.00  0.00     0.116 C 
BRANCH  73  74
ATOM     74  N   UNL A   1      35.066  20.440  25.468  1.00  0.00    -0.352 N 
ATOM     75  C   UNL A   1      33.822  20.858  25.063  1.00  0.00     0.251 C 
ATOM     76  H   UNL A   1      35.155  19.478  25.660  1.00  0.00     0.163 HD
ATOM     77  O   UNL A   1      32.863  20.096  25.080  1.00  0.00    -0.269 OA
BRANCH  75  78
ATOM     78  C   UNL A   1      33.652  22.261  24.646  1.00  0.00     0.042 A 
ATOM     79  C   UNL A   1      33.822  22.614  23.299  1.00  0.00     0.016 A 
ATOM     80  C   UNL A   1      33.391  23.212  25.641  1.00  0.00     0.042 A 
ATOM     81  C   UNL A   1      33.821  23.960  22.919  1.00  0.00     0.031 A 
ATOM     82  C   UNL A   1      33.401  24.543  25.224  1.00  0.00     0.066 A 
ATOM     83  C   UNL A   1      33.626  24.934  23.908  1.00  0.00     0.089 A 
ATOM     84  N   UNL A   1      33.229  25.721  25.900  1.00  0.00    -0.342 N 
ATOM     85  N   UNL A   1      33.626  26.299  23.799  1.00  0.00    -0.233 NA
ATOM     86  C   UNL A   1      33.392  26.757  25.011  1.00  0.00     0.110 A 
ATOM     87  H   UNL A   1      33.022  25.811  26.859  1.00  0.00     0.168 HD
BRANCH  86  88
ATOM     88  C   UNL A   1      33.272  28.199  25.398  1.00  0.00     0.055 C 
ATOM     89  C   UNL A   1      31.834  28.694  25.196  1.00  0.00     0.011 C 
ATOM     90  C   UNL A   1      33.757  28.455  26.833  1.00  0.00     0.011 C 
ATOM     91  C   UNL A   1      31.688  30.161  25.588  1.00  0.00     0.001 C 
ATOM     92  C   UNL A   1      33.599  29.924  27.220  1.00  0.00     0.001 C 
ATOM     93  C   UNL A   1      32.167  30.409  27.014  1.00  0.00     0.000 C 
ENDBRANCH  86  88
ENDBRANCH  75  78
ENDBRANCH  73  74
ENDBRANCH  72  73
ENDBRANCH   1  72
TORSDOF 12
ENDMDL
MODEL 3
REMARK VINA RESULT:     -12.7      5.674     10.253
REMARK SMILES O=C(NCCCCNC(=O)c1ccc2nc(C3CCCCC3)[nH]c2c1)c1ccc(-c2c3nc(c(-c4c(F)c(F)c(F)c(F)c4F)c4ccc([nH]4)c(-c4c(F)c(F)c(F)c(F)c4F)c4nc(c(-c5c(F)c(F)c(F)c(F)c5F)c5ccc2[nH]5)C=C4)C=C3)cc1
REMARK SMILES IDX 5 1 4 2 3 3 1 4 2 5 26 7 27 8 88 9 28 10 87 11 29 12 30 13
REMARK SMILES IDX 31 14 81 15 32 16 86 17 80 18 82 19 33 20 85 21 79 22 78 23
REMARK SMILES IDX 34 25 66 26 46 27 65 28 47 29 50 30 64 31 83 32 48 33 49 34
REMARK SMILES IDX 63 36 84 37 51 38 35 39 36 40 44 41 37 42 38 43 42 44 45 45
REMARK SMILES IDX 39 46 40 47 43 48 41 49 67 50 68 51 76 52 69 53 70 54 74 55
REMARK SMILES IDX 77 56 71 57 72 58 75 59 73 60 52 61 53 62 61 63 54 64 55 65
REMARK SMILES IDX 59 66 62 67 56 68 57 69 60 70 58 71 6 72 7 73 8 74 9 75
REMARK SMILES IDX 10 77 11 78 12 79 25 80 13 81 24 82 14 83 23 84 15 85 16 86
REMARK SMILES IDX 17 88 18 89 22 90 19 91 21 92 20 93
REMARK H PARENT 3 6 82 24 50 35 8 76 23 87
REMARK Flexibility Score: inf
ROOT
ATOM      1  C   UNL A   1      38.266  19.581  25.002  1.00  0.00     0.023 C 
ENDROOT
BRANCH   1   2
ATOM      2  C   UNL A   1      39.344  19.858  26.040  1.00  0.00     0.116 C 
BRANCH   2   3
ATOM      3  N   UNL A   1      40.445  18.910  25.977  1.00  0.00    -0.352 N 
ATOM      4  O   UNL A   1      42.604  18.259  25.846  1.00  0.00    -0.269 OA
ATOM      5  C   UNL A   1      41.793  19.155  26.062  1.00  0.00     0.251 C 
ATOM      6  H   UNL A   1      40.189  17.968  25.858  1.00  0.00     0.163 HD
BRANCH   5   7
ATOM      7  C   UNL A   1      42.267  20.513  26.397  1.00  0.00     0.039 A 
ATOM      8  C   UNL A   1      42.706  21.379  25.392  1.00  0.00     0.014 A 
ATOM      9  C   UNL A   1      42.259  20.927  27.732  1.00  0.00     0.014 A 
ATOM     10  C   UNL A   1      43.243  22.614  25.730  1.00  0.00     0.010 A 
ATOM     11  C   UNL A   1      42.726  22.201  28.063  1.00  0.00     0.010 A 
ATOM     12  C   UNL A   1      43.231  23.049  27.065  1.00  0.00    -0.014 A 
BRANCH  12  13
ATOM     13  C   UNL A   1      43.630  24.443  27.376  1.00  0.00     0.031 A 
ATOM     14  C   UNL A   1      45.070  24.864  27.387  1.00  0.00     0.074 A 
ATOM     15  C   UNL A   1      42.654  25.327  27.662  1.00  0.00     0.049 A 
ATOM     16  N   UNL A   1      45.577  26.038  27.667  1.00  0.00    -0.248 NA
ATOM     17  C   UNL A   1      46.071  23.841  27.049  1.00  0.00     0.031 C 
ATOM     18  C   UNL A   1      41.223  25.013  27.703  1.00  0.00     0.029 A 
ATOM     19  N   UNL A   1      42.709  26.661  27.974  1.00  0.00    -0.354 N 
ATOM     20  C   UNL A   1      46.954  25.893  27.560  1.00  0.00     0.074 A 
ATOM     21  C   UNL A   1      47.207  24.514  27.199  1.00  0.00     0.031 C 
ATOM     22  C   UNL A   1      40.536  26.124  27.999  1.00  0.00     0.029 A 
ATOM     23  C   UNL A   1      41.478  27.212  28.233  1.00  0.00     0.049 A 
ATOM     24  H   UNL A   1      43.548  27.173  28.008  1.00  0.00     0.167 HD
ATOM     25  C   UNL A   1      47.910  26.834  27.744  1.00  0.00     0.037 A 
ATOM     26  C   UNL A   1      41.145  28.446  28.648  1.00  0.00     0.037 A 
ATOM     27  C   UNL A   1      47.642  28.211  28.074  1.00  0.00     0.049 A 
ATOM     28  C   UNL A   1      42.234  29.455  28.870  1.00  0.00     0.074 A 
ATOM     29  C   UNL A   1      48.538  29.259  28.187  1.00  0.00     0.029 A 
ATOM     30  N   UNL A   1      46.386  28.726  28.356  1.00  0.00    -0.354 N 
ATOM     31  N   UNL A   1      43.527  29.324  28.693  1.00  0.00    -0.248 NA
ATOM     32  C   UNL A   1      41.823  30.776  29.358  1.00  0.00     0.031 C 
ATOM     33  C   UNL A   1      47.832  30.396  28.594  1.00  0.00     0.029 A 
ATOM     34  C   UNL A   1      46.490  30.068  28.688  1.00  0.00     0.049 A 
ATOM     35  H   UNL A   1      45.545  28.215  28.324  1.00  0.00     0.167 HD
ATOM     36  C   UNL A   1      44.082  30.544  29.044  1.00  0.00     0.074 A 
ATOM     37  C   UNL A   1      42.984  31.413  29.413  1.00  0.00     0.031 C 
ATOM     38  C   UNL A   1      45.386  30.910  29.068  1.00  0.00     0.037 A 
BRANCH  25  39
ATOM     39  C   UNL A   1      49.348  26.424  27.611  1.00  0.00     0.064 A 
ATOM     40  C   UNL A   1      49.968  26.307  26.360  1.00  0.00     0.173 A 
ATOM     41  C   UNL A   1      50.141  26.257  28.757  1.00  0.00     0.173 A 
ATOM     42  F   UNL A   1      49.252  26.454  25.234  1.00  0.00    -0.203 F 
ATOM     43  C   UNL A   1      51.330  26.032  26.260  1.00  0.00     0.198 A 
ATOM     44  C   UNL A   1      51.506  26.003  28.653  1.00  0.00     0.198 A 
ATOM     45  F   UNL A   1      49.596  26.367  29.977  1.00  0.00    -0.203 F 
ATOM     46  F   UNL A   1      51.901  25.910  25.053  1.00  0.00    -0.200 F 
ATOM     47  C   UNL A   1      52.099  25.892  27.405  1.00  0.00     0.200 A 
ATOM     48  F   UNL A   1      52.250  25.881  29.762  1.00  0.00    -0.200 F 
ATOM     49  F   UNL A   1      53.415  25.650  27.307  1.00  0.00    -0.200 F 
ENDBRANCH  25  39
BRANCH  26  50
ATOM     50  C   UNL A   1      39.723  28.775  28.925  1.00  0.00     0.064 A 
ATOM     51  C   UNL A   1      39.163  28.564  30.191  1.00  0.00     0.173 A 
ATOM     52  C   UNL A   1      38.896  29.305  27.923  1.00  0.00     0.173 A 
ATOM     53  F   UNL A   1      39.910  28.041  31.174  1.00  0.00    -0.203 F 
ATOM     54  C   UNL A   1      37.823  28.851  30.439  1.00  0.00     0.198 A 
ATOM     55  C   UNL A   1      37.565  29.623  28.182  1.00  0.00     0.198 A 
ATOM     56  F   UNL A   1      39.385  29.530  26.695  1.00  0.00    -0.203 F 
ATOM     57  F   UNL A   1      37.298  28.594  31.646  1.00  0.00    -0.200 F 
ATOM     58  C   UNL A   1      37.027  29.386  29.437  1.00  0.00     0.200 A 
ATOM     59  F   UNL A   1      36.805  30.154  27.214  1.00  0.00    -0.200 F 
ATOM     60  F   UNL A   1      35.738  29.664  29.679  1.00  0.00    -0.200 F 
ENDBRANCH  26  50
BRANCH  38  61
ATOM     61  C   UNL A   1      45.690  32.308  29.516  1.00  0.00     0.064 A 
ATOM     62  C   UNL A   1      45.979  32.593  30.859  1.00  0.00     0.173 A 
ATOM     63  C   UNL A   1      45.721  33.365  28.595  1.00  0.00     0.173 A 
ATOM     64  F   UNL A   1      45.940  31.617  31.779  1.00  0.00    -0.203 F 
ATOM     65  C   UNL A   1      46.266  33.892  31.267  1.00  0.00     0.198 A 
ATOM     66  C   UNL A   1      46.037  34.657  29.003  1.00  0.00     0.198 A 
ATOM     67  F   UNL A   1      45.455  33.140  27.300  1.00  0.00    -0.203 F 
ATOM     68  F   UNL A   1      46.494  34.150  32.562  1.00  0.00    -0.200 F 
ATOM     69  C   UNL A   1      46.302  34.921  30.338  1.00  0.00     0.200 A 
ATOM     70  F   UNL A   1      46.082  35.649  28.102  1.00  0.00    -0.200 F 
ATOM     71  F   UNL A   1      46.586  36.169  30.732  1.00  0.00    -0.200 F 
ENDBRANCH  38  61
ENDBRANCH  12  13
ENDBRANCH   5   7
ENDBRANCH   2   3
ENDBRANCH   1   2
BRANCH   1  72
ATOM     72  C   UNL A   1      37.441  20.797  24.588  1.00  0.00     0.023 C 
BRANCH  72  73
ATOM     73  C   UNL A   1      36.352  21.204  25.575  1.00  0.00     0.116 C 
BRANCH  73  74
ATOM     74  N   UNL A   1      35.143  20.407  25.432  1.00  0.00    -0.352 N 
ATOM     75  C   UNL A   1      33.888  20.825  25.062  1.00  0.00     0.251 C 
ATOM     76  H   UNL A   1      35.238  19.446  25.625  1.00  0.00     0.163 HD
ATOM     77  O   UNL A   1      32.929  20.064  25.110  1.00  0.00    -0.269 OA
BRANCH  75  78
ATOM     78  C   UNL A   1      33.708  22.227  24.645  1.00  0.00     0.042 A 
ATOM     79  C   UNL A   1      33.870  22.579  23.297  1.00  0.00     0.016 A 
ATOM     80  C   UNL A   1      33.444  23.177  25.639  1.00  0.00     0.042 A 
ATOM     81  C   UNL A   1      33.860  23.925  22.916  1.00  0.00     0.031 A 
ATOM     82  C   UNL A   1      33.444  24.507  25.222  1.00  0.00     0.066 A 
ATOM     83  C   UNL A   1      33.662  24.899  23.905  1.00  0.00     0.089 A 
ATOM     84  N   UNL A   1      33.266  25.685  25.898  1.00  0.00    -0.342 N 
ATOM     85  N   UNL A   1      33.652  26.264  23.795  1.00  0.00    -0.233 NA
ATOM     86  C   UNL A   1      33.420  26.721  25.008  1.00  0.00     0.110 A 
ATOM     87  H   UNL A   1      33.063  25.774  26.858  1.00  0.00     0.168 HD
BRANCH  86  88
ATOM     88  C   UNL A   1      33.292  28.162  25.394  1.00  0.00     0.055 C 
ATOM     89  C   UNL A   1      31.853  28.652  25.183  1.00  0.00     0.011 C 
ATOM     90  C   UNL A   1      33.766  28.420  26.832  1.00  0.00     0.011 C 
ATOM     91  C   UNL A   1      31.698  30.118  25.575  1.00  0.00     0.001 C 
ATOM     92  C   UNL A   1      33.601  29.889  27.218  1.00  0.00     0.001 C 
ATOM     93  C   UNL A   1      32.168  30.368  27.004  1.00  0.00     0.000 C 
ENDBRANCH  86  88
ENDBRANCH  75  78
ENDBRANCH  73  74
ENDBRANCH  72  73
ENDBRANCH   1  72
TORSDOF 12
ENDMDL
