MODEL 1
REMARK VINA RESULT:     -11.4      0.000      0.000
REMARK SMILES CC(C)[C@@H](CC(=O)OC(C)(C)C)C(=O)NCCCCNC(=O)c1ccc(-c2c3nc(c(-c4c(F)c(F)c(F)c(F)c4F)c4ccc([nH]4)c(-c4c(F)c(F)c(F)c(F)c4F)c4nc(c(-c5c(F)c(F)c(F)c(F)c5F)c5ccc2[nH]5)C=C4)C=C3)cc1
REMARK SMILES IDX 16 1 15 2 13 3 14 4 4 6 2 7 1 8 3 9 5 10 6 11 7 12 8 13 9 14
REMARK SMILES IDX 10 15 11 16 12 17 17 18 18 19 19 20 20 21 21 22 22 24 23 25
REMARK SMILES IDX 24 26 85 27 25 28 84 29 26 30 27 31 28 32 78 33 29 34 83 35
REMARK SMILES IDX 77 36 79 37 30 38 82 39 76 40 75 41 31 43 63 44 43 45 62 46
REMARK SMILES IDX 44 47 47 48 61 49 80 50 45 51 46 52 60 54 81 55 48 56 32 57
REMARK SMILES IDX 33 58 41 59 34 60 35 61 39 62 42 63 36 64 37 65 40 66 38 67
REMARK SMILES IDX 64 68 65 69 73 70 66 71 67 72 71 73 74 74 68 75 69 76 72 77
REMARK SMILES IDX 70 78 49 79 50 80 58 81 51 82 52 83 56 84 59 85 53 86 54 87
REMARK SMILES IDX 57 88 55 89
REMARK H PARENT 15 5 20 23 79 42 47 53
REMARK Flexibility Score: inf
ROOT
ATOM      1  C   UNL A   1      32.875  29.869  26.404  1.00  0.00     0.116 C 
ENDROOT
BRANCH   1   2
ATOM      2  N   UNL A   1      33.753  29.493  25.326  1.00  0.00    -0.356 N 
ATOM      3  C   UNL A   1      33.550  28.625  24.299  1.00  0.00     0.223 C 
ATOM      4  O   UNL A   1      34.382  28.636  23.386  1.00  0.00    -0.275 OA
ATOM      5  H   UNL A   1      34.636  29.929  25.335  1.00  0.00     0.163 HD
BRANCH   3   6
ATOM      6  C   UNL A   1      32.363  27.653  24.235  1.00  0.00     0.092 C 
BRANCH   6   7
ATOM      7  C   UNL A   1      32.444  26.428  25.185  1.00  0.00    -0.004 C 
ATOM      8  C   UNL A   1      33.863  26.234  25.738  1.00  0.00     0.008 C 
ATOM      9  C   UNL A   1      31.482  26.583  26.374  1.00  0.00     0.008 C 
ENDBRANCH   6   7
BRANCH   6  10
ATOM     10  C   UNL A   1      31.011  28.379  24.100  1.00  0.00     0.136 C 
BRANCH  10  11
ATOM     11  C   UNL A   1      30.432  28.630  22.727  1.00  0.00     0.307 C 
ATOM     12  O   UNL A   1      30.294  27.745  21.894  1.00  0.00    -0.252 OA
BRANCH  11  13
ATOM     13  O   UNL A   1      30.051  29.921  22.568  1.00  0.00    -0.460 OA
BRANCH  13  14
ATOM     14  C   UNL A   1      28.652  30.332  22.638  1.00  0.00     0.104 C 
ATOM     15  C   UNL A   1      27.664  29.188  22.902  1.00  0.00     0.056 C 
ATOM     16  C   UNL A   1      28.486  31.430  23.686  1.00  0.00     0.056 C 
ATOM     17  C   UNL A   1      28.352  30.898  21.241  1.00  0.00     0.056 C 
ENDBRANCH  13  14
ENDBRANCH  11  13
ENDBRANCH  10  11
ENDBRANCH   6  10
ENDBRANCH   3   6
ENDBRANCH   1   2
BRANCH   1  18
ATOM     18  C   UNL A   1      31.743  30.812  26.011  1.00  0.00     0.023 C 
BRANCH  18  19
ATOM     19  C   UNL A   1      31.468  31.955  26.990  1.00  0.00     0.023 C 
BRANCH  19  20
ATOM     20  C   UNL A   1      32.654  32.858  27.324  1.00  0.00     0.116 C 
BRANCH  20  21
ATOM     21  N   UNL A   1      32.303  34.214  27.713  1.00  0.00    -0.352 N 
ATOM     22  C   UNL A   1      32.974  35.068  28.564  1.00  0.00     0.251 C 
ATOM     23  H   UNL A   1      31.477  34.571  27.317  1.00  0.00     0.163 HD
ATOM     24  O   UNL A   1      32.540  36.192  28.773  1.00  0.00    -0.269 OA
BRANCH  22  25
ATOM     25  C   UNL A   1      34.176  34.588  29.289  1.00  0.00     0.039 A 
ATOM     26  C   UNL A   1      33.992  33.954  30.522  1.00  0.00     0.014 A 
ATOM     27  C   UNL A   1      35.458  34.700  28.749  1.00  0.00     0.014 A 
ATOM     28  C   UNL A   1      35.075  33.345  31.158  1.00  0.00     0.010 A 
ATOM     29  C   UNL A   1      36.524  34.029  29.344  1.00  0.00     0.010 A 
ATOM     30  C   UNL A   1      36.340  33.333  30.548  1.00  0.00    -0.014 A 
BRANCH  30  31
ATOM     31  C   UNL A   1      37.467  32.573  31.146  1.00  0.00     0.031 A 
ATOM     32  C   UNL A   1      37.963  32.905  32.524  1.00  0.00     0.074 A 
ATOM     33  C   UNL A   1      38.080  31.618  30.419  1.00  0.00     0.049 A 
ATOM     34  N   UNL A   1      38.939  32.360  33.205  1.00  0.00    -0.248 NA
ATOM     35  C   UNL A   1      37.294  34.015  33.218  1.00  0.00     0.031 C 
ATOM     36  C   UNL A   1      37.740  31.252  29.043  1.00  0.00     0.029 A 
ATOM     37  N   UNL A   1      39.122  30.782  30.736  1.00  0.00    -0.354 N 
ATOM     38  C   UNL A   1      39.008  33.068  34.398  1.00  0.00     0.074 A 
ATOM     39  C   UNL A   1      38.012  34.115  34.326  1.00  0.00     0.031 C 
ATOM     40  C   UNL A   1      38.534  30.246  28.645  1.00  0.00     0.029 A 
ATOM     41  C   UNL A   1      39.454  29.909  29.729  1.00  0.00     0.049 A 
ATOM     42  H   UNL A   1      39.587  30.806  31.603  1.00  0.00     0.167 HD
ATOM     43  C   UNL A   1      39.811  32.847  35.466  1.00  0.00     0.037 A 
ATOM     44  C   UNL A   1      40.385  28.938  29.690  1.00  0.00     0.037 A 
ATOM     45  C   UNL A   1      40.784  31.789  35.546  1.00  0.00     0.049 A 
ATOM     46  C   UNL A   1      41.228  28.681  30.908  1.00  0.00     0.074 A 
ATOM     47  C   UNL A   1      41.616  31.456  36.600  1.00  0.00     0.029 A 
ATOM     48  N   UNL A   1      41.048  30.887  34.527  1.00  0.00    -0.354 N 
ATOM     49  N   UNL A   1      41.231  29.307  32.060  1.00  0.00    -0.248 NA
ATOM     50  C   UNL A   1      42.186  27.568  30.828  1.00  0.00     0.031 C 
ATOM     51  C   UNL A   1      42.403  30.367  36.209  1.00  0.00     0.029 A 
ATOM     52  C   UNL A   1      42.033  29.998  34.926  1.00  0.00     0.049 A 
ATOM     53  H   UNL A   1      40.602  30.879  33.648  1.00  0.00     0.167 HD
ATOM     54  C   UNL A   1      42.160  28.645  32.850  1.00  0.00     0.074 A 
ATOM     55  C   UNL A   1      42.694  27.563  32.051  1.00  0.00     0.031 C 
ATOM     56  C   UNL A   1      42.535  28.912  34.126  1.00  0.00     0.037 A 
BRANCH  43  57
ATOM     57  C   UNL A   1      39.658  33.767  36.641  1.00  0.00     0.064 A 
ATOM     58  C   UNL A   1      38.837  33.432  37.729  1.00  0.00     0.173 A 
ATOM     59  C   UNL A   1      40.348  34.987  36.690  1.00  0.00     0.173 A 
ATOM     60  F   UNL A   1      38.146  32.283  37.723  1.00  0.00    -0.203 F 
ATOM     61  C   UNL A   1      38.689  34.298  38.809  1.00  0.00     0.198 A 
ATOM     62  C   UNL A   1      40.219  35.839  37.784  1.00  0.00     0.198 A 
ATOM     63  F   UNL A   1      41.149  35.352  35.678  1.00  0.00    -0.203 F 
ATOM     64  F   UNL A   1      37.859  33.981  39.811  1.00  0.00    -0.200 F 
ATOM     65  C   UNL A   1      39.383  35.498  38.838  1.00  0.00     0.200 A 
ATOM     66  F   UNL A   1      40.899  36.994  37.816  1.00  0.00    -0.200 F 
ATOM     67  F   UNL A   1      39.241  36.332  39.877  1.00  0.00    -0.200 F 
ENDBRANCH  43  57
BRANCH  44  68
ATOM     68  C   UNL A   1      40.528  28.095  28.475  1.00  0.00     0.064 A 
ATOM     69  C   UNL A   1      39.884  26.851  28.387  1.00  0.00     0.173 A 
ATOM     70  C   UNL A   1      41.309  28.504  27.387  1.00  0.00     0.173 A 
ATOM     71  F   UNL A   1      39.141  26.409  29.413  1.00  0.00    -0.203 F 
ATOM     72  C   UNL A   1      40.035  26.040  27.265  1.00  0.00     0.198 A 
ATOM     73  C   UNL A   1      41.439  27.702  26.253  1.00  0.00     0.198 A 
ATOM     74  F   UNL A   1      41.938  29.687  27.419  1.00  0.00    -0.203 F 
ATOM     75  F   UNL A   1      39.444  24.838  27.226  1.00  0.00    -0.200 F 
ATOM     76  C   UNL A   1      40.810  26.468  26.197  1.00  0.00     0.200 A 
ATOM     77  F   UNL A   1      42.179  28.123  25.219  1.00  0.00    -0.200 F 
ATOM     78  F   UNL A   1      40.954  25.688  25.118  1.00  0.00    -0.200 F 
ENDBRANCH  44  68
BRANCH  56  79
ATOM     79  C   UNL A   1      43.535  27.986  34.752  1.00  0.00     0.064 A 
ATOM     80  C   UNL A   1      43.148  26.776  35.345  1.00  0.00     0.173 A 
ATOM     81  C   UNL A   1      44.902  28.303  34.728  1.00  0.00     0.173 A 
ATOM     82  F   UNL A   1      41.852  26.438  35.406  1.00  0.00    -0.203 F 
ATOM     83  C   UNL A   1      44.093  25.927  35.916  1.00  0.00     0.198 A 
ATOM     84  C   UNL A   1      45.845  27.440  35.276  1.00  0.00     0.198 A 
ATOM     85  F   UNL A   1      45.321  29.447  34.167  1.00  0.00    -0.203 F 
ATOM     86  F   UNL A   1      43.698  24.798  36.520  1.00  0.00    -0.200 F 
ATOM     87  C   UNL A   1      45.440  26.257  35.876  1.00  0.00     0.200 A 
ATOM     88  F   UNL A   1      47.147  27.755  35.229  1.00  0.00    -0.200 F 
ATOM     89  F   UNL A   1      46.348  25.438  36.423  1.00  0.00    -0.200 F 
ENDBRANCH  56  79
ENDBRANCH  30  31
ENDBRANCH  22  25
ENDBRANCH  20  21
ENDBRANCH  19  20
ENDBRANCH  18  19
ENDBRANCH   1  18
TORSDOF 16
ENDMDL
MODEL 2
REMARK VINA RESULT:     -11.3      6.367     10.604
REMARK SMILES CC(C)[C@@H](CC(=O)OC(C)(C)C)C(=O)NCCCCNC(=O)c1ccc(-c2c3nc(c(-c4c(F)c(F)c(F)c(F)c4F)c4ccc([nH]4)c(-c4c(F)c(F)c(F)c(F)c4F)c4nc(c(-c5c(F)c(F)c(F)c(F)c5F)c5ccc2[nH]5)C=C4)C=C3)cc1
REMARK SMILES IDX 16 1 15 2 13 3 14 4 4 6 2 7 1 8 3 9 5 10 6 11 7 12 8 13 9 14
REMARK SMILES IDX 10 15 11 16 12 17 17 18 18 19 19 20 20 21 21 22 22 24 23 25
REMARK SMILES IDX 24 26 85 27 25 28 84 29 26 30 27 31 28 32 78 33 29 34 83 35
REMARK SMILES IDX 77 36 79 37 30 38 82 39 76 40 75 41 31 43 63 44 43 45 62 46
REMARK SMILES IDX 44 47 47 48 61 49 80 50 45 51 46 52 60 54 81 55 48 56 32 57
REMARK SMILES IDX 33 58 41 59 34 60 35 61 39 62 42 63 36 64 37 65 40 66 38 67
REMARK SMILES IDX 64 68 65 69 73 70 66 71 67 72 71 73 74 74 68 75 69 76 72 77
REMARK SMILES IDX 70 78 49 79 50 80 58 81 51 82 52 83 56 84 59 85 53 86 54 87
REMARK SMILES IDX 57 88 55 89
REMARK H PARENT 15 5 20 23 79 42 47 53
REMARK Flexibility Score: inf
ROOT
ATOM      1  C   UNL A   1      37.097  22.509  24.924  1.00  0.00     0.116 C 
ENDROOT
BRANCH   1   2
ATOM      2  N   UNL A   1      36.420  22.880  23.708  1.00  0.00    -0.356 N 
ATOM      3  C   UNL A   1      35.090  23.000  23.452  1.00  0.00     0.223 C 
ATOM      4  O   UNL A   1      34.773  23.538  22.386  1.00  0.00    -0.275 OA
ATOM      5  H   UNL A   1      37.011  23.077  22.945  1.00  0.00     0.163 HD
BRANCH   3   6
ATOM      6  C   UNL A   1      33.997  22.497  24.406  1.00  0.00     0.092 C 
BRANCH   6   7
ATOM      7  C   UNL A   1      33.539  23.504  25.495  1.00  0.00    -0.004 C 
ATOM      8  C   UNL A   1      33.921  23.026  26.904  1.00  0.00     0.008 C 
ATOM      9  C   UNL A   1      34.168  24.888  25.271  1.00  0.00     0.008 C 
ENDBRANCH   6   7
BRANCH   6  10
ATOM     10  C   UNL A   1      32.918  21.668  23.685  1.00  0.00     0.136 C 
BRANCH  10  11
ATOM     11  C   UNL A   1      32.314  20.467  24.376  1.00  0.00     0.307 C 
ATOM     12  O   UNL A   1      31.768  20.536  25.468  1.00  0.00    -0.252 OA
BRANCH  11  13
ATOM     13  O   UNL A   1      32.410  19.347  23.617  1.00  0.00    -0.460 OA
BRANCH  13  14
ATOM     14  C   UNL A   1      33.176  18.182  24.048  1.00  0.00     0.104 C 
ATOM     15  C   UNL A   1      34.590  18.499  24.553  1.00  0.00     0.056 C 
ATOM     16  C   UNL A   1      32.393  17.411  25.109  1.00  0.00     0.056 C 
ATOM     17  C   UNL A   1      33.313  17.326  22.779  1.00  0.00     0.056 C 
ENDBRANCH  13  14
ENDBRANCH  11  13
ENDBRANCH  10  11
ENDBRANCH   6  10
ENDBRANCH   3   6
ENDBRANCH   1   2
BRANCH   1  18
ATOM     18  C   UNL A   1      36.918  21.053  25.339  1.00  0.00     0.023 C 
BRANCH  18  19
ATOM     19  C   UNL A   1      38.088  20.125  25.010  1.00  0.00     0.023 C 
BRANCH  19  20
ATOM     20  C   UNL A   1      39.371  20.347  25.809  1.00  0.00     0.116 C 
BRANCH  20  21
ATOM     21  N   UNL A   1      40.292  19.222  25.817  1.00  0.00    -0.352 N 
ATOM     22  C   UNL A   1      41.630  19.205  26.151  1.00  0.00     0.251 C 
ATOM     23  H   UNL A   1      39.908  18.356  25.551  1.00  0.00     0.163 HD
ATOM     24  O   UNL A   1      42.258  18.156  26.115  1.00  0.00    -0.269 OA
BRANCH  22  25
ATOM     25  C   UNL A   1      42.324  20.476  26.470  1.00  0.00     0.039 A 
ATOM     26  C   UNL A   1      42.888  21.201  25.415  1.00  0.00     0.014 A 
ATOM     27  C   UNL A   1      42.372  20.985  27.768  1.00  0.00     0.014 A 
ATOM     28  C   UNL A   1      43.406  22.477  25.648  1.00  0.00     0.010 A 
ATOM     29  C   UNL A   1      42.819  22.287  27.987  1.00  0.00     0.010 A 
ATOM     30  C   UNL A   1      43.327  23.051  26.927  1.00  0.00    -0.014 A 
BRANCH  30  31
ATOM     31  C   UNL A   1      43.748  24.456  27.158  1.00  0.00     0.031 A 
ATOM     32  C   UNL A   1      42.767  25.469  27.672  1.00  0.00     0.074 A 
ATOM     33  C   UNL A   1      45.005  24.829  26.847  1.00  0.00     0.049 A 
ATOM     34  N   UNL A   1      42.947  26.742  27.923  1.00  0.00    -0.248 NA
ATOM     35  C   UNL A   1      41.393  25.001  27.907  1.00  0.00     0.031 C 
ATOM     36  C   UNL A   1      46.030  23.956  26.272  1.00  0.00     0.029 A 
ATOM     37  N   UNL A   1      45.635  26.044  26.969  1.00  0.00    -0.354 N 
ATOM     38  C   UNL A   1      41.712  27.225  28.333  1.00  0.00     0.074 A 
ATOM     39  C   UNL A   1      40.778  26.124  28.245  1.00  0.00     0.031 C 
ATOM     40  C   UNL A   1      47.168  24.653  26.121  1.00  0.00     0.029 A 
ATOM     41  C   UNL A   1      46.949  26.026  26.568  1.00  0.00     0.049 A 
ATOM     42  H   UNL A   1      45.187  26.850  27.311  1.00  0.00     0.167 HD
ATOM     43  C   UNL A   1      41.391  28.467  28.768  1.00  0.00     0.037 A 
ATOM     44  C   UNL A   1      47.874  27.003  26.573  1.00  0.00     0.037 A 
ATOM     45  C   UNL A   1      42.328  29.554  28.879  1.00  0.00     0.049 A 
ATOM     46  C   UNL A   1      47.505  28.359  27.109  1.00  0.00     0.074 A 
ATOM     47  C   UNL A   1      42.112  30.838  29.348  1.00  0.00     0.029 A 
ATOM     48  N   UNL A   1      43.665  29.480  28.519  1.00  0.00    -0.354 N 
ATOM     49  N   UNL A   1      46.353  28.783  27.567  1.00  0.00    -0.248 NA
ATOM     50  C   UNL A   1      48.573  29.369  27.147  1.00  0.00     0.031 C 
ATOM     51  C   UNL A   1      43.313  31.548  29.249  1.00  0.00     0.029 A 
ATOM     52  C   UNL A   1      44.286  30.695  28.754  1.00  0.00     0.049 A 
ATOM     53  H   UNL A   1      44.108  28.680  28.151  1.00  0.00     0.167 HD
ATOM     54  C   UNL A   1      46.564  30.091  27.979  1.00  0.00     0.074 A 
ATOM     55  C   UNL A   1      47.958  30.389  27.726  1.00  0.00     0.031 C 
ATOM     56  C   UNL A   1      45.680  30.966  28.519  1.00  0.00     0.037 A 
BRANCH  43  57
ATOM     57  C   UNL A   1      39.966  28.708  29.168  1.00  0.00     0.064 A 
ATOM     58  C   UNL A   1      39.523  28.463  30.477  1.00  0.00     0.173 A 
ATOM     59  C   UNL A   1      39.036  29.201  28.241  1.00  0.00     0.173 A 
ATOM     60  F   UNL A   1      40.371  27.977  31.396  1.00  0.00    -0.203 F 
ATOM     61  C   UNL A   1      38.195  28.675  30.836  1.00  0.00     0.198 A 
ATOM     62  C   UNL A   1      37.714  29.438  28.610  1.00  0.00     0.198 A 
ATOM     63  F   UNL A   1      39.409  29.456  26.978  1.00  0.00    -0.203 F 
ATOM     64  F   UNL A   1      37.783  28.385  32.077  1.00  0.00    -0.200 F 
ATOM     65  C   UNL A   1      37.293  29.166  29.904  1.00  0.00     0.200 A 
ATOM     66  F   UNL A   1      36.846  29.923  27.712  1.00  0.00    -0.200 F 
ATOM     67  F   UNL A   1      36.014  29.371  30.250  1.00  0.00    -0.200 F 
ENDBRANCH  43  57
BRANCH  44  68
ATOM     68  C   UNL A   1      49.257  26.719  26.112  1.00  0.00     0.064 A 
ATOM     69  C   UNL A   1      49.641  26.987  24.789  1.00  0.00     0.173 A 
ATOM     70  C   UNL A   1      50.217  26.170  26.972  1.00  0.00     0.173 A 
ATOM     71  F   UNL A   1      48.750  27.495  23.925  1.00  0.00    -0.203 F 
ATOM     72  C   UNL A   1      50.926  26.697  24.340  1.00  0.00     0.198 A 
ATOM     73  C   UNL A   1      51.511  25.902  26.527  1.00  0.00     0.198 A 
ATOM     74  F   UNL A   1      49.901  25.902  28.247  1.00  0.00    -0.203 F 
ATOM     75  F   UNL A   1      51.253  26.923  23.060  1.00  0.00    -0.200 F 
ATOM     76  C   UNL A   1      51.862  26.157  25.210  1.00  0.00     0.200 A 
ATOM     77  F   UNL A   1      52.416  25.393  27.374  1.00  0.00    -0.200 F 
ATOM     78  F   UNL A   1      53.099  25.879  24.778  1.00  0.00    -0.200 F 
ENDBRANCH  44  68
BRANCH  56  79
ATOM     79  C   UNL A   1      46.208  32.311  28.920  1.00  0.00     0.064 A 
ATOM     80  C   UNL A   1      46.710  32.552  30.207  1.00  0.00     0.173 A 
ATOM     81  C   UNL A   1      46.241  33.362  27.991  1.00  0.00     0.173 A 
ATOM     82  F   UNL A   1      46.687  31.583  31.133  1.00  0.00    -0.203 F 
ATOM     83  C   UNL A   1      47.202  33.807  30.558  1.00  0.00     0.198 A 
ATOM     84  C   UNL A   1      46.757  34.607  28.338  1.00  0.00     0.198 A 
ATOM     85  F   UNL A   1      45.777  33.179  26.746  1.00  0.00    -0.203 F 
ATOM     86  F   UNL A   1      47.634  34.029  31.807  1.00  0.00    -0.200 F 
ATOM     87  C   UNL A   1      47.230  34.830  29.623  1.00  0.00     0.200 A 
ATOM     88  F   UNL A   1      46.792  35.593  27.431  1.00  0.00    -0.200 F 
ATOM     89  F   UNL A   1      47.706  36.036  29.961  1.00  0.00    -0.200 F 
ENDBRANCH  56  79
ENDBRANCH  30  31
ENDBRANCH  22  25
ENDBRANCH  20  21
ENDBRANCH  19  20
ENDBRANCH  18  19
ENDBRANCH   1  18
TORSDOF 16
ENDMDL
MODEL 3
REMARK VINA RESULT:     -11.2      0.999      3.037
REMARK SMILES CC(C)[C@@H](CC(=O)OC(C)(C)C)C(=O)NCCCCNC(=O)c1ccc(-c2c3nc(c(-c4c(F)c(F)c(F)c(F)c4F)c4ccc([nH]4)c(-c4c(F)c(F)c(F)c(F)c4F)c4nc(c(-c5c(F)c(F)c(F)c(F)c5F)c5ccc2[nH]5)C=C4)C=C3)cc1
REMARK SMILES IDX 16 1 15 2 13 3 14 4 4 6 2 7 1 8 3 9 5 10 6 11 7 12 8 13 9 14
REMARK SMILES IDX 10 15 11 16 12 17 17 18 18 19 19 20 20 21 21 22 22 24 23 25
REMARK SMILES IDX 24 26 85 27 25 28 84 29 26 30 27 31 28 32 78 33 29 34 83 35
REMARK SMILES IDX 77 36 79 37 30 38 82 39 76 40 75 41 31 43 63 44 43 45 62 46
REMARK SMILES IDX 44 47 47 48 61 49 80 50 45 51 46 52 60 54 81 55 48 56 32 57
REMARK SMILES IDX 33 58 41 59 34 60 35 61 39 62 42 63 36 64 37 65 40 66 38 67
REMARK SMILES IDX 64 68 65 69 73 70 66 71 67 72 71 73 74 74 68 75 69 76 72 77
REMARK SMILES IDX 70 78 49 79 50 80 58 81 51 82 52 83 56 84 59 85 53 86 54 87
REMARK SMILES IDX 57 88 55 89
REMARK H PARENT 15 5 20 23 79 42 47 53
REMARK Flexibility Score: inf
ROOT
ATOM      1  C   UNL A   1      33.159  29.862  26.793  1.00  0.00     0.116 C 
ENDROOT
BRANCH   1   2
ATOM      2  N   UNL A   1      33.653  29.657  25.455  1.00  0.00    -0.356 N 
ATOM      3  C   UNL A   1      33.192  28.841  24.471  1.00  0.00     0.223 C 
ATOM      4  O   UNL A   1      33.666  29.005  23.341  1.00  0.00    -0.275 OA
ATOM      5  H   UNL A   1      34.447  30.189  25.218  1.00  0.00     0.163 HD
BRANCH   3   6
ATOM      6  C   UNL A   1      32.139  27.747  24.703  1.00  0.00     0.092 C 
BRANCH   6   7
ATOM      7  C   UNL A   1      30.954  27.730  23.701  1.00  0.00    -0.004 C 
ATOM      8  C   UNL A   1      29.887  26.702  24.105  1.00  0.00     0.008 C 
ATOM      9  C   UNL A   1      30.282  29.110  23.612  1.00  0.00     0.008 C 
ENDBRANCH   6   7
BRANCH   6  10
ATOM     10  C   UNL A   1      32.766  26.401  25.109  1.00  0.00     0.136 C 
BRANCH  10  11
ATOM     11  C   UNL A   1      33.694  25.690  24.151  1.00  0.00     0.307 C 
ATOM     12  O   UNL A   1      33.478  25.618  22.950  1.00  0.00    -0.252 OA
BRANCH  11  13
ATOM     13  O   UNL A   1      34.791  25.201  24.781  1.00  0.00    -0.460 OA
BRANCH  13  14
ATOM     14  C   UNL A   1      35.086  23.773  24.831  1.00  0.00     0.104 C 
ATOM     15  C   UNL A   1      35.612  23.183  23.516  1.00  0.00     0.056 C 
ATOM     16  C   UNL A   1      36.062  23.486  25.971  1.00  0.00     0.056 C 
ATOM     17  C   UNL A   1      33.730  23.115  25.131  1.00  0.00     0.056 C 
ENDBRANCH  13  14
ENDBRANCH  11  13
ENDBRANCH  10  11
ENDBRANCH   6  10
ENDBRANCH   3   6
ENDBRANCH   1   2
BRANCH   1  18
ATOM     18  C   UNL A   1      31.735  30.400  26.876  1.00  0.00     0.023 C 
BRANCH  18  19
ATOM     19  C   UNL A   1      31.590  31.911  26.691  1.00  0.00     0.023 C 
BRANCH  19  20
ATOM     20  C   UNL A   1      32.733  32.770  27.228  1.00  0.00     0.116 C 
BRANCH  20  21
ATOM     21  N   UNL A   1      32.351  34.107  27.651  1.00  0.00    -0.352 N 
ATOM     22  C   UNL A   1      32.991  34.947  28.538  1.00  0.00     0.251 C 
ATOM     23  H   UNL A   1      31.524  34.461  27.250  1.00  0.00     0.163 HD
ATOM     24  O   UNL A   1      32.533  36.057  28.772  1.00  0.00    -0.269 OA
BRANCH  22  25
ATOM     25  C   UNL A   1      34.189  34.469  29.269  1.00  0.00     0.039 A 
ATOM     26  C   UNL A   1      33.998  33.829  30.498  1.00  0.00     0.014 A 
ATOM     27  C   UNL A   1      35.474  34.586  28.738  1.00  0.00     0.014 A 
ATOM     28  C   UNL A   1      35.079  33.221  31.140  1.00  0.00     0.010 A 
ATOM     29  C   UNL A   1      36.538  33.916  29.339  1.00  0.00     0.010 A 
ATOM     30  C   UNL A   1      36.348  33.215  30.538  1.00  0.00    -0.014 A 
BRANCH  30  31
ATOM     31  C   UNL A   1      37.472  32.456  31.142  1.00  0.00     0.031 A 
ATOM     32  C   UNL A   1      37.953  32.779  32.527  1.00  0.00     0.074 A 
ATOM     33  C   UNL A   1      38.098  31.510  30.413  1.00  0.00     0.049 A 
ATOM     34  N   UNL A   1      38.925  32.233  33.213  1.00  0.00    -0.248 NA
ATOM     35  C   UNL A   1      37.271  33.879  33.224  1.00  0.00     0.031 C 
ATOM     36  C   UNL A   1      37.773  31.154  29.030  1.00  0.00     0.029 A 
ATOM     37  N   UNL A   1      39.141  30.676  30.734  1.00  0.00    -0.354 N 
ATOM     38  C   UNL A   1      38.978  32.931  34.413  1.00  0.00     0.074 A 
ATOM     39  C   UNL A   1      37.978  33.973  34.340  1.00  0.00     0.031 C 
ATOM     40  C   UNL A   1      38.578  30.155  28.632  1.00  0.00     0.029 A 
ATOM     41  C   UNL A   1      39.488  29.814  29.722  1.00  0.00     0.049 A 
ATOM     42  H   UNL A   1      39.597  30.695  31.605  1.00  0.00     0.167 HD
ATOM     43  C   UNL A   1      39.772  32.706  35.487  1.00  0.00     0.037 A 
ATOM     44  C   UNL A   1      40.425  28.848  29.684  1.00  0.00     0.037 A 
ATOM     45  C   UNL A   1      40.749  31.652  35.568  1.00  0.00     0.049 A 
ATOM     46  C   UNL A   1      41.257  28.585  30.909  1.00  0.00     0.074 A 
ATOM     47  C   UNL A   1      41.572  31.314  36.628  1.00  0.00     0.029 A 
ATOM     48  N   UNL A   1      41.028  30.760  34.544  1.00  0.00    -0.354 N 
ATOM     49  N   UNL A   1      41.245  29.202  32.066  1.00  0.00    -0.248 NA
ATOM     50  C   UNL A   1      42.221  27.478  30.829  1.00  0.00     0.031 C 
ATOM     51  C   UNL A   1      42.368  30.232  36.236  1.00  0.00     0.029 A 
ATOM     52  C   UNL A   1      42.014  29.873  34.946  1.00  0.00     0.049 A 
ATOM     53  H   UNL A   1      40.592  30.757  33.661  1.00  0.00     0.167 HD
ATOM     54  C   UNL A   1      42.168  28.538  32.860  1.00  0.00     0.074 A 
ATOM     55  C   UNL A   1      42.717  27.465  32.058  1.00  0.00     0.031 C 
ATOM     56  C   UNL A   1      42.529  28.796  34.142  1.00  0.00     0.037 A 
BRANCH  43  57
ATOM     57  C   UNL A   1      39.602  33.615  36.668  1.00  0.00     0.064 A 
ATOM     58  C   UNL A   1      40.268  34.848  36.742  1.00  0.00     0.173 A 
ATOM     59  C   UNL A   1      38.756  33.260  37.728  1.00  0.00     0.173 A 
ATOM     60  F   UNL A   1      41.100  35.226  35.760  1.00  0.00    -0.203 F 
ATOM     61  C   UNL A   1      40.117  35.679  37.850  1.00  0.00     0.198 A 
ATOM     62  C   UNL A   1      38.585  34.106  38.822  1.00  0.00     0.198 A 
ATOM     63  F   UNL A   1      38.092  32.095  37.704  1.00  0.00    -0.203 F 
ATOM     64  F   UNL A   1      40.804  36.827  37.923  1.00  0.00    -0.200 F 
ATOM     65  C   UNL A   1      39.272  35.310  38.885  1.00  0.00     0.200 A 
ATOM     66  F   UNL A   1      37.760  33.754  39.818  1.00  0.00    -0.200 F 
ATOM     67  F   UNL A   1      39.126  36.110  39.951  1.00  0.00    -0.200 F 
ENDBRANCH  43  57
BRANCH  44  68
ATOM     68  C   UNL A   1      40.584  28.016  28.465  1.00  0.00     0.064 A 
ATOM     69  C   UNL A   1      39.931  26.779  28.351  1.00  0.00     0.173 A 
ATOM     70  C   UNL A   1      41.391  28.429  27.396  1.00  0.00     0.173 A 
ATOM     71  F   UNL A   1      39.164  26.334  29.357  1.00  0.00    -0.203 F 
ATOM     72  C   UNL A   1      40.097  25.978  27.224  1.00  0.00     0.198 A 
ATOM     73  C   UNL A   1      41.536  27.637  26.258  1.00  0.00     0.198 A 
ATOM     74  F   UNL A   1      42.030  29.606  27.454  1.00  0.00    -0.203 F 
ATOM     75  F   UNL A   1      39.496  24.782  27.160  1.00  0.00    -0.200 F 
ATOM     76  C   UNL A   1      40.897  26.410  26.176  1.00  0.00     0.200 A 
ATOM     77  F   UNL A   1      42.300  28.062  25.242  1.00  0.00    -0.200 F 
ATOM     78  F   UNL A   1      41.056  25.639  25.092  1.00  0.00    -0.200 F 
ENDBRANCH  44  68
BRANCH  56  79
ATOM     79  C   UNL A   1      43.528  27.870  34.770  1.00  0.00     0.064 A 
ATOM     80  C   UNL A   1      44.901  28.150  34.761  1.00  0.00     0.173 A 
ATOM     81  C   UNL A   1      43.096  26.703  35.419  1.00  0.00     0.173 A 
ATOM     82  F   UNL A   1      45.362  29.246  34.140  1.00  0.00    -0.203 F 
ATOM     83  C   UNL A   1      45.812  27.281  35.356  1.00  0.00     0.198 A 
ATOM     84  C   UNL A   1      44.007  25.849  36.035  1.00  0.00     0.198 A 
ATOM     85  F   UNL A   1      41.791  26.394  35.459  1.00  0.00    -0.203 F 
ATOM     86  F   UNL A   1      47.124  27.543  35.295  1.00  0.00    -0.200 F 
ATOM     87  C   UNL A   1      45.363  26.135  35.997  1.00  0.00     0.200 A 
ATOM     88  F   UNL A   1      43.571  24.747  36.662  1.00  0.00    -0.200 F 
ATOM     89  F   UNL A   1      46.240  25.301  36.572  1.00  0.00    -0.200 F 
ENDBRANCH  56  79
ENDBRANCH  30  31
ENDBRANCH  22  25
ENDBRANCH  20  21
ENDBRANCH  19  20
ENDBRANCH  18  19
ENDBRANCH   1  18
TORSDOF 16
ENDMDL
