MODEL 1
REMARK VINA RESULT:     -13.2      0.000      0.000
REMARK SMILES O=C(CCC(=O)N1CCC(c2nnc3ccccn23)CC1)NCCCCNC(=O)c1ccc(-c2c3nc(c(-c4c(F)c(F)c(F)c(F)c4F)c4ccc([nH]4)c(-c4c(F)c(F)c(F)c(F)c4F)c4nc(c(-c5c(F)c(F)c(F)c(F)c5F)c5ccc2[nH]5)C=C4)C=C3)cc1
REMARK SMILES IDX 24 1 23 2 22 3 1 4 2 5 3 7 4 8 5 9 6 10 7 11 8 12 21 13 9 14
REMARK SMILES IDX 20 15 10 16 11 17 12 18 19 19 13 20 14 21 18 22 15 23 17 24
REMARK SMILES IDX 16 25 25 26 26 27 27 28 28 29 29 31 30 32 31 33 92 34 32 35
REMARK SMILES IDX 91 36 33 37 34 38 35 39 85 40 36 41 90 42 84 43 86 44 37 45
REMARK SMILES IDX 89 46 83 47 82 48 38 50 70 51 50 52 69 53 51 54 54 55 68 56
REMARK SMILES IDX 87 57 52 58 53 59 67 61 88 62 55 63 39 64 40 65 48 66 41 67
REMARK SMILES IDX 42 68 46 69 49 70 43 71 44 72 47 73 45 74 71 75 72 76 80 77
REMARK SMILES IDX 73 78 74 79 78 80 81 81 75 82 76 83 79 84 77 85 56 86 57 87
REMARK SMILES IDX 65 88 58 89 59 90 63 91 66 92 60 93 61 94 64 95 62 96
REMARK H PARENT 22 6 27 30 86 49 54 60
REMARK Flexibility Score: inf
ROOT
ATOM      1  C   UNL A   1      43.429  18.662  25.611  1.00  0.00     0.023 C 
ENDROOT
BRANCH   1   2
ATOM      2  C   UNL A   1      42.304  18.833  26.656  1.00  0.00     0.116 C 
BRANCH   2   3
ATOM      3  N   UNL A   1      40.930  18.828  26.134  1.00  0.00    -0.356 N 
ATOM      4  O   UNL A   1      40.421  20.929  26.900  1.00  0.00    -0.275 OA
ATOM      5  C   UNL A   1      40.124  19.959  26.208  1.00  0.00     0.220 C 
ATOM      6  H   UNL A   1      40.574  18.007  25.725  1.00  0.00     0.163 HD
BRANCH   5   7
ATOM      7  C   UNL A   1      38.892  19.973  25.285  1.00  0.00     0.110 C 
BRANCH   7   8
ATOM      8  C   UNL A   1      38.044  21.265  25.375  1.00  0.00     0.110 C 
BRANCH   8   9
ATOM      9  C   UNL A   1      36.510  21.112  25.378  1.00  0.00     0.223 C 
ATOM     10  O   UNL A   1      35.980  20.121  24.874  1.00  0.00    -0.275 OA
ATOM     11  N   UNL A   1      35.755  22.108  25.992  1.00  0.00    -0.343 N 
ATOM     12  C   UNL A   1      34.287  22.043  26.031  1.00  0.00     0.120 C 
ATOM     13  C   UNL A   1      36.267  23.448  26.089  1.00  0.00     0.120 C 
ATOM     14  C   UNL A   1      33.658  22.900  24.910  1.00  0.00     0.033 C 
ATOM     15  C   UNL A   1      35.874  24.073  24.774  1.00  0.00     0.033 C 
ATOM     16  C   UNL A   1      34.383  24.246  24.808  1.00  0.00     0.062 C 
BRANCH  16  17
ATOM     17  C   UNL A   1      34.024  25.087  23.655  1.00  0.00     0.140 A 
ATOM     18  N   UNL A   1      34.026  24.750  22.374  1.00  0.00    -0.134 NA
ATOM     19  N   UNL A   1      33.572  26.380  23.865  1.00  0.00    -0.286 N 
ATOM     20  N   UNL A   1      33.281  25.621  21.582  1.00  0.00    -0.130 NA
ATOM     21  C   UNL A   1      32.798  26.566  22.355  1.00  0.00     0.160 A 
ATOM     22  C   UNL A   1      33.065  27.123  25.398  1.00  0.00     0.095 A 
ATOM     23  C   UNL A   1      31.236  27.491  22.387  1.00  0.00     0.050 A 
ATOM     24  C   UNL A   1      31.768  27.946  25.536  1.00  0.00     0.019 A 
ATOM     25  C   UNL A   1      30.644  28.198  24.016  1.00  0.00     0.005 A 
ENDBRANCH  16  17
ENDBRANCH   8   9
ENDBRANCH   7   8
ENDBRANCH   5   7
ENDBRANCH   2   3
ENDBRANCH   1   2
BRANCH   1  26
ATOM     26  C   UNL A   1      44.194  19.882  25.015  1.00  0.00     0.023 C 
BRANCH  26  27
ATOM     27  C   UNL A   1      43.602  21.283  25.275  1.00  0.00     0.116 C 
BRANCH  27  28
ATOM     28  N   UNL A   1      44.346  22.418  24.666  1.00  0.00    -0.352 N 
ATOM     29  C   UNL A   1      44.751  23.735  24.774  1.00  0.00     0.251 C 
ATOM     30  H   UNL A   1      44.709  22.087  23.813  1.00  0.00     0.163 HD
ATOM     31  O   UNL A   1      45.575  24.013  23.885  1.00  0.00    -0.269 OA
BRANCH  29  32
ATOM     32  C   UNL A   1      44.394  24.959  25.736  1.00  0.00     0.039 A 
ATOM     33  C   UNL A   1      42.989  24.287  26.738  1.00  0.00     0.014 A 
ATOM     34  C   UNL A   1      44.879  26.910  26.133  1.00  0.00     0.014 A 
ATOM     35  C   UNL A   1      42.202  25.349  27.966  1.00  0.00     0.010 A 
ATOM     36  C   UNL A   1      44.037  27.824  27.398  1.00  0.00     0.010 A 
ATOM     37  C   UNL A   1      42.732  27.035  28.271  1.00  0.00    -0.014 A 
BRANCH  37  38
ATOM     38  C   UNL A   1      42.318  27.947  29.357  1.00  0.00     0.031 A 
ATOM     39  C   UNL A   1      42.866  27.673  30.739  1.00  0.00     0.074 A 
ATOM     40  C   UNL A   1      41.126  28.561  29.209  1.00  0.00     0.049 A 
ATOM     41  N   UNL A   1      42.494  28.148  31.898  1.00  0.00    -0.248 NA
ATOM     42  C   UNL A   1      43.907  26.627  30.841  1.00  0.00     0.031 C 
ATOM     43  C   UNL A   1      40.320  28.577  27.984  1.00  0.00     0.029 A 
ATOM     44  N   UNL A   1      40.325  29.206  30.116  1.00  0.00    -0.354 N 
ATOM     45  C   UNL A   1      43.250  27.467  32.847  1.00  0.00     0.074 A 
ATOM     46  C   UNL A   1      44.006  26.458  32.150  1.00  0.00     0.031 C 
ATOM     47  C   UNL A   1      39.147  29.180  28.213  1.00  0.00     0.029 A 
ATOM     48  C   UNL A   1      39.136  29.654  29.582  1.00  0.00     0.049 A 
ATOM     49  H   UNL A   1      40.576  29.337  31.058  1.00  0.00     0.167 HD
ATOM     50  C   UNL A   1      43.333  27.709  34.178  1.00  0.00     0.037 A 
ATOM     51  C   UNL A   1      38.175  30.420  30.126  1.00  0.00     0.037 A 
ATOM     52  C   UNL A   1      42.528  28.718  34.812  1.00  0.00     0.049 A 
ATOM     53  C   UNL A   1      38.398  30.864  31.539  1.00  0.00     0.074 A 
ATOM     54  C   UNL A   1      42.604  29.225  36.094  1.00  0.00     0.029 A 
ATOM     55  N   UNL A   1      41.470  29.366  34.183  1.00  0.00    -0.354 N 
ATOM     56  N   UNL A   1      39.304  30.449  32.394  1.00  0.00    -0.248 NA
ATOM     57  C   UNL A   1      37.513  31.912  32.052  1.00  0.00     0.031 C 
ATOM     58  C   UNL A   1      41.565  30.151  36.251  1.00  0.00     0.029 A 
ATOM     59  C   UNL A   1      40.879  30.264  35.049  1.00  0.00     0.049 A 
ATOM     60  H   UNL A   1      41.184  29.205  33.255  1.00  0.00     0.167 HD
ATOM     61  C   UNL A   1      39.121  31.202  33.539  1.00  0.00     0.074 A 
ATOM     62  C   UNL A   1      38.031  32.119  33.254  1.00  0.00     0.031 C 
ATOM     63  C   UNL A   1      39.785  31.143  34.720  1.00  0.00     0.037 A 
BRANCH  50  64
ATOM     64  C   UNL A   1      44.354  26.945  34.987  1.00  0.00     0.064 A 
ATOM     65  C   UNL A   1      44.043  25.702  35.570  1.00  0.00     0.173 A 
ATOM     66  C   UNL A   1      45.667  27.414  35.149  1.00  0.00     0.173 A 
ATOM     67  F   UNL A   1      42.809  25.188  35.451  1.00  0.00    -0.203 F 
ATOM     68  C   UNL A   1      44.982  24.988  36.311  1.00  0.00     0.198 A 
ATOM     69  C   UNL A   1      46.618  26.677  35.859  1.00  0.00     0.198 A 
ATOM     70  F   UNL A   1      46.039  28.587  34.615  1.00  0.00    -0.203 F 
ATOM     71  F   UNL A   1      44.632  23.838  36.904  1.00  0.00    -0.200 F 
ATOM     72  C   UNL A   1      46.272  25.471  36.448  1.00  0.00     0.200 A 
ATOM     73  F   UNL A   1      47.871  27.138  35.975  1.00  0.00    -0.200 F 
ATOM     74  F   UNL A   1      47.179  24.778  37.150  1.00  0.00    -0.200 F 
ENDBRANCH  50  64
BRANCH  51  75
ATOM     75  C   UNL A   1      37.096  30.972  29.262  1.00  0.00     0.064 A 
ATOM     76  C   UNL A   1      35.969  30.189  28.965  1.00  0.00     0.173 A 
ATOM     77  C   UNL A   1      37.099  32.296  28.800  1.00  0.00     0.173 A 
ATOM     78  F   UNL A   1      35.905  28.920  29.396  1.00  0.00    -0.203 F 
ATOM     79  C   UNL A   1      34.907  30.694  28.217  1.00  0.00     0.198 A 
ATOM     80  C   UNL A   1      36.023  32.811  28.075  1.00  0.00     0.198 A 
ATOM     81  F   UNL A   1      38.130  33.104  29.088  1.00  0.00    -0.203 F 
ATOM     82  F   UNL A   1      33.861  29.908  27.926  1.00  0.00    -0.200 F 
ATOM     83  C   UNL A   1      34.931  32.007  27.777  1.00  0.00     0.200 A 
ATOM     84  F   UNL A   1      36.034  34.091  27.676  1.00  0.00    -0.200 F 
ATOM     85  F   UNL A   1      33.903  32.499  27.072  1.00  0.00    -0.200 F 
ENDBRANCH  51  75
BRANCH  63  86
ATOM     86  C   UNL A   1      39.344  32.108  35.773  1.00  0.00     0.064 A 
ATOM     87  C   UNL A   1      38.369  31.762  36.717  1.00  0.00     0.173 A 
ATOM     88  C   UNL A   1      39.927  33.380  35.850  1.00  0.00     0.173 A 
ATOM     89  F   UNL A   1      37.776  30.559  36.667  1.00  0.00    -0.203 F 
ATOM     90  C   UNL A   1      37.965  32.673  37.684  1.00  0.00     0.198 A 
ATOM     91  C   UNL A   1      39.549  34.274  36.843  1.00  0.00     0.198 A 
ATOM     92  F   UNL A   1      40.870  33.749  34.970  1.00  0.00    -0.203 F 
ATOM     93  F   UNL A   1      36.985  32.348  38.538  1.00  0.00    -0.200 F 
ATOM     94  C   UNL A   1      38.560  33.924  37.752  1.00  0.00     0.200 A 
ATOM     95  F   UNL A   1      40.138  35.475  36.920  1.00  0.00    -0.200 F 
ATOM     96  F   UNL A   1      38.175  34.799  38.691  1.00  0.00    -0.200 F 
ENDBRANCH  63  86
ENDBRANCH  37  38
ENDBRANCH  29  32
ENDBRANCH  27  28
ENDBRANCH  26  27
ENDBRANCH   1  26
TORSDOF 14
ENDMDL
MODEL 2
REMARK VINA RESULT:     -12.9      1.480      2.202
REMARK SMILES O=C(CCC(=O)N1CCC(c2nnc3ccccn23)CC1)NCCCCNC(=O)c1ccc(-c2c3nc(c(-c4c(F)c(F)c(F)c(F)c4F)c4ccc([nH]4)c(-c4c(F)c(F)c(F)c(F)c4F)c4nc(c(-c5c(F)c(F)c(F)c(F)c5F)c5ccc2[nH]5)C=C4)C=C3)cc1
REMARK SMILES IDX 24 1 23 2 22 3 1 4 2 5 3 7 4 8 5 9 6 10 7 11 8 12 21 13 9 14
REMARK SMILES IDX 20 15 10 16 11 17 12 18 19 19 13 20 14 21 18 22 15 23 17 24
REMARK SMILES IDX 16 25 25 26 26 27 27 28 28 29 29 31 30 32 31 33 92 34 32 35
REMARK SMILES IDX 91 36 33 37 34 38 35 39 85 40 36 41 90 42 84 43 86 44 37 45
REMARK SMILES IDX 89 46 83 47 82 48 38 50 70 51 50 52 69 53 51 54 54 55 68 56
REMARK SMILES IDX 87 57 52 58 53 59 67 61 88 62 55 63 39 64 40 65 48 66 41 67
REMARK SMILES IDX 42 68 46 69 49 70 43 71 44 72 47 73 45 74 71 75 72 76 80 77
REMARK SMILES IDX 73 78 74 79 78 80 81 81 75 82 76 83 79 84 77 85 56 86 57 87
REMARK SMILES IDX 65 88 58 89 59 90 63 91 66 92 60 93 61 94 64 95 62 96
REMARK H PARENT 22 6 27 30 86 49 54 60
REMARK Flexibility Score: inf
ROOT
ATOM      1  C   UNL A   1      40.061  20.567  26.346  1.00  0.00     0.023 C 
ENDROOT
BRANCH   1   2
ATOM      2  C   UNL A   1      39.425  21.881  25.841  1.00  0.00     0.116 C 
BRANCH   2   3
ATOM      3  N   UNL A   1      37.991  22.052  26.112  1.00  0.00    -0.356 N 
ATOM      4  O   UNL A   1      38.062  24.345  26.112  1.00  0.00    -0.275 OA
ATOM      5  C   UNL A   1      37.398  23.310  26.111  1.00  0.00     0.220 C 
ATOM      6  H   UNL A   1      37.439  21.259  26.299  1.00  0.00     0.163 HD
BRANCH   5   7
ATOM      7  C   UNL A   1      35.864  23.337  25.995  1.00  0.00     0.110 C 
BRANCH   7   8
ATOM      8  C   UNL A   1      35.282  22.291  25.013  1.00  0.00     0.110 C 
BRANCH   8   9
ATOM      9  C   UNL A   1      34.955  22.762  23.582  1.00  0.00     0.223 C 
ATOM     10  O   UNL A   1      35.856  22.956  22.765  1.00  0.00    -0.275 OA
ATOM     11  N   UNL A   1      33.615  22.930  23.240  1.00  0.00    -0.343 N 
ATOM     12  C   UNL A   1      33.217  23.385  21.900  1.00  0.00     0.120 C 
ATOM     13  C   UNL A   1      32.641  23.230  24.255  1.00  0.00     0.120 C 
ATOM     14  C   UNL A   1      32.933  24.904  21.885  1.00  0.00     0.033 C 
ATOM     15  C   UNL A   1      32.713  24.731  24.381  1.00  0.00     0.033 C 
ATOM     16  C   UNL A   1      32.120  25.298  23.123  1.00  0.00     0.062 C 
BRANCH  16  17
ATOM     17  C   UNL A   1      31.945  26.742  23.347  1.00  0.00     0.140 A 
ATOM     18  N   UNL A   1      32.774  27.720  23.016  1.00  0.00    -0.134 NA
ATOM     19  N   UNL A   1      30.773  27.209  23.922  1.00  0.00    -0.286 N 
ATOM     20  N   UNL A   1      32.162  28.972  23.010  1.00  0.00    -0.130 NA
ATOM     21  C   UNL A   1      30.908  28.817  23.368  1.00  0.00     0.160 A 
ATOM     22  C   UNL A   1      29.258  26.318  24.185  1.00  0.00     0.095 A 
ATOM     23  C   UNL A   1      29.350  29.606  22.872  1.00  0.00     0.050 A 
ATOM     24  C   UNL A   1      27.876  26.898  23.820  1.00  0.00     0.019 A 
ATOM     25  C   UNL A   1      27.757  28.642  23.057  1.00  0.00     0.005 A 
ENDBRANCH  16  17
ENDBRANCH   8   9
ENDBRANCH   7   8
ENDBRANCH   5   7
ENDBRANCH   2   3
ENDBRANCH   1   2
BRANCH   1  26
ATOM     26  C   UNL A   1      41.364  20.557  27.204  1.00  0.00     0.023 C 
BRANCH  26  27
ATOM     27  C   UNL A   1      42.705  20.452  26.449  1.00  0.00     0.116 C 
BRANCH  27  28
ATOM     28  N   UNL A   1      42.920  21.464  25.379  1.00  0.00    -0.352 N 
ATOM     29  C   UNL A   1      43.126  22.792  25.059  1.00  0.00     0.251 C 
ATOM     30  H   UNL A   1      42.911  20.972  24.526  1.00  0.00     0.163 HD
ATOM     31  O   UNL A   1      43.417  22.911  23.855  1.00  0.00    -0.269 OA
BRANCH  29  32
ATOM     32  C   UNL A   1      43.054  24.178  25.850  1.00  0.00     0.039 A 
ATOM     33  C   UNL A   1      41.610  23.919  26.980  1.00  0.00     0.014 A 
ATOM     34  C   UNL A   1      43.908  26.037  25.953  1.00  0.00     0.014 A 
ATOM     35  C   UNL A   1      41.102  25.263  28.072  1.00  0.00     0.010 A 
ATOM     36  C   UNL A   1      43.320  27.252  27.103  1.00  0.00     0.010 A 
ATOM     37  C   UNL A   1      41.946  26.845  28.120  1.00  0.00    -0.014 A 
BRANCH  37  38
ATOM     38  C   UNL A   1      41.767  27.954  29.079  1.00  0.00     0.031 A 
ATOM     39  C   UNL A   1      42.488  27.847  30.404  1.00  0.00     0.074 A 
ATOM     40  C   UNL A   1      40.619  28.655  28.986  1.00  0.00     0.049 A 
ATOM     41  N   UNL A   1      42.328  28.534  31.504  1.00  0.00    -0.248 NA
ATOM     42  C   UNL A   1      43.448  26.730  30.545  1.00  0.00     0.031 C 
ATOM     43  C   UNL A   1      39.646  28.559  27.893  1.00  0.00     0.029 A 
ATOM     44  N   UNL A   1      40.011  29.513  29.867  1.00  0.00    -0.354 N 
ATOM     45  C   UNL A   1      43.159  27.938  32.448  1.00  0.00     0.074 A 
ATOM     46  C   UNL A   1      43.723  26.760  31.839  1.00  0.00     0.031 C 
ATOM     47  C   UNL A   1      38.570  29.307  28.168  1.00  0.00     0.029 A 
ATOM     48  C   UNL A   1      38.797  29.989  29.426  1.00  0.00     0.049 A 
ATOM     49  H   UNL A   1      40.407  29.764  30.733  1.00  0.00     0.167 HD
ATOM     50  C   UNL A   1      43.454  28.377  33.695  1.00  0.00     0.037 A 
ATOM     51  C   UNL A   1      37.988  30.925  29.952  1.00  0.00     0.037 A 
ATOM     52  C   UNL A   1      42.832  29.550  34.248  1.00  0.00     0.049 A 
ATOM     53  C   UNL A   1      38.449  31.561  31.228  1.00  0.00     0.074 A 
ATOM     54  C   UNL A   1      43.134  30.242  35.404  1.00  0.00     0.029 A 
ATOM     55  N   UNL A   1      41.748  30.194  33.662  1.00  0.00    -0.354 N 
ATOM     56  N   UNL A   1      39.435  31.196  32.015  1.00  0.00    -0.248 NA
ATOM     57  C   UNL A   1      37.733  32.760  31.666  1.00  0.00     0.031 C 
ATOM     58  C   UNL A   1      42.204  31.281  35.536  1.00  0.00     0.029 A 
ATOM     59  C   UNL A   1      41.362  31.273  34.433  1.00  0.00     0.049 A 
ATOM     60  H   UNL A   1      41.317  29.919  32.821  1.00  0.00     0.167 HD
ATOM     61  C   UNL A   1      39.480  32.134  33.029  1.00  0.00     0.074 A 
ATOM     62  C   UNL A   1      38.436  33.101  32.737  1.00  0.00     0.031 C 
ATOM     63  C   UNL A   1      40.304  32.196  34.105  1.00  0.00     0.037 A 
BRANCH  50  64
ATOM     64  C   UNL A   1      44.519  27.650  34.482  1.00  0.00     0.064 A 
ATOM     65  C   UNL A   1      44.190  26.598  35.357  1.00  0.00     0.173 A 
ATOM     66  C   UNL A   1      45.881  27.957  34.335  1.00  0.00     0.173 A 
ATOM     67  F   UNL A   1      42.909  26.245  35.543  1.00  0.00    -0.203 F 
ATOM     68  C   UNL A   1      45.169  25.918  36.080  1.00  0.00     0.198 A 
ATOM     69  C   UNL A   1      46.862  27.247  35.031  1.00  0.00     0.198 A 
ATOM     70  F   UNL A   1      46.270  28.942  33.513  1.00  0.00    -0.203 F 
ATOM     71  F   UNL A   1      44.814  24.963  36.952  1.00  0.00    -0.200 F 
ATOM     72  C   UNL A   1      46.505  26.237  35.910  1.00  0.00     0.200 A 
ATOM     73  F   UNL A   1      48.157  27.544  34.852  1.00  0.00    -0.200 F 
ATOM     74  F   UNL A   1      47.447  25.574  36.596  1.00  0.00    -0.200 F 
ENDBRANCH  50  64
BRANCH  51  75
ATOM     75  C   UNL A   1      36.841  31.440  29.157  1.00  0.00     0.064 A 
ATOM     76  C   UNL A   1      35.705  30.638  28.967  1.00  0.00     0.173 A 
ATOM     77  C   UNL A   1      36.794  32.750  28.658  1.00  0.00     0.173 A 
ATOM     78  F   UNL A   1      35.688  29.382  29.437  1.00  0.00    -0.203 F 
ATOM     79  C   UNL A   1      34.584  31.110  28.286  1.00  0.00     0.198 A 
ATOM     80  C   UNL A   1      35.661  33.233  28.001  1.00  0.00     0.198 A 
ATOM     81  F   UNL A   1      37.833  33.576  28.845  1.00  0.00    -0.203 F 
ATOM     82  F   UNL A   1      33.529  30.306  28.097  1.00  0.00    -0.200 F 
ATOM     83  C   UNL A   1      34.560  32.410  27.809  1.00  0.00     0.200 A 
ATOM     84  F   UNL A   1      35.626  34.500  27.566  1.00  0.00    -0.200 F 
ATOM     85  F   UNL A   1      33.476  32.870  27.169  1.00  0.00    -0.200 F 
ENDBRANCH  51  75
BRANCH  63  86
ATOM     86  C   UNL A   1      40.098  33.353  35.027  1.00  0.00     0.064 A 
ATOM     87  C   UNL A   1      39.313  33.237  36.182  1.00  0.00     0.173 A 
ATOM     88  C   UNL A   1      40.719  34.582  34.763  1.00  0.00     0.173 A 
ATOM     89  F   UNL A   1      38.689  32.082  36.461  1.00  0.00    -0.203 F 
ATOM     90  C   UNL A   1      39.126  34.326  37.023  1.00  0.00     0.198 A 
ATOM     91  C   UNL A   1      40.562  35.657  35.628  1.00  0.00     0.198 A 
ATOM     92  F   UNL A   1      41.485  34.734  33.672  1.00  0.00    -0.203 F 
ATOM     93  F   UNL A   1      38.319  34.214  38.087  1.00  0.00    -0.200 F 
ATOM     94  C   UNL A   1      39.756  35.531  36.751  1.00  0.00     0.200 A 
ATOM     95  F   UNL A   1      41.187  36.814  35.375  1.00  0.00    -0.200 F 
ATOM     96  F   UNL A   1      39.581  36.577  37.570  1.00  0.00    -0.200 F 
ENDBRANCH  63  86
ENDBRANCH  37  38
ENDBRANCH  29  32
ENDBRANCH  27  28
ENDBRANCH  26  27
ENDBRANCH   1  26
TORSDOF 14
ENDMDL
MODEL 3
REMARK VINA RESULT:     -12.8      1.230      2.241
REMARK SMILES O=C(CCC(=O)N1CCC(c2nnc3ccccn23)CC1)NCCCCNC(=O)c1ccc(-c2c3nc(c(-c4c(F)c(F)c(F)c(F)c4F)c4ccc([nH]4)c(-c4c(F)c(F)c(F)c(F)c4F)c4nc(c(-c5c(F)c(F)c(F)c(F)c5F)c5ccc2[nH]5)C=C4)C=C3)cc1
REMARK SMILES IDX 24 1 23 2 22 3 1 4 2 5 3 7 4 8 5 9 6 10 7 11 8 12 21 13 9 14
REMARK SMILES IDX 20 15 10 16 11 17 12 18 19 19 13 20 14 21 18 22 15 23 17 24
REMARK SMILES IDX 16 25 25 26 26 27 27 28 28 29 29 31 30 32 31 33 92 34 32 35
REMARK SMILES IDX 91 36 33 37 34 38 35 39 85 40 36 41 90 42 84 43 86 44 37 45
REMARK SMILES IDX 89 46 83 47 82 48 38 50 70 51 50 52 69 53 51 54 54 55 68 56
REMARK SMILES IDX 87 57 52 58 53 59 67 61 88 62 55 63 39 64 40 65 48 66 41 67
REMARK SMILES IDX 42 68 46 69 49 70 43 71 44 72 47 73 45 74 71 75 72 76 80 77
REMARK SMILES IDX 73 78 74 79 78 80 81 81 75 82 76 83 79 84 77 85 56 86 57 87
REMARK SMILES IDX 65 88 58 89 59 90 63 91 66 92 60 93 61 94 64 95 62 96
REMARK H PARENT 22 6 27 30 86 49 54 60
REMARK Flexibility Score: inf
ROOT
ATOM      1  C   UNL A   1      41.500  20.740  27.180  1.00  0.00     0.023 C 
ENDROOT
BRANCH   1   2
ATOM      2  C   UNL A   1      40.549  21.874  27.622  1.00  0.00     0.116 C 
BRANCH   2   3
ATOM      3  N   UNL A   1      39.415  22.153  26.729  1.00  0.00    -0.356 N 
ATOM      4  O   UNL A   1      38.911  24.179  27.679  1.00  0.00    -0.275 OA
ATOM      5  C   UNL A   1      38.748  23.373  26.766  1.00  0.00     0.220 C 
ATOM      6  H   UNL A   1      39.123  21.463  26.092  1.00  0.00     0.163 HD
BRANCH   5   7
ATOM      7  C   UNL A   1      37.876  23.705  25.542  1.00  0.00     0.110 C 
BRANCH   7   8
ATOM      8  C   UNL A   1      37.006  22.526  25.041  1.00  0.00     0.110 C 
BRANCH   8   9
ATOM      9  C   UNL A   1      36.061  22.793  23.854  1.00  0.00     0.223 C 
ATOM     10  O   UNL A   1      36.511  22.953  22.719  1.00  0.00    -0.275 OA
ATOM     11  N   UNL A   1      34.690  22.817  24.102  1.00  0.00    -0.343 N 
ATOM     12  C   UNL A   1      33.720  23.074  23.027  1.00  0.00     0.120 C 
ATOM     13  C   UNL A   1      34.197  23.164  25.407  1.00  0.00     0.120 C 
ATOM     14  C   UNL A   1      33.276  24.553  23.015  1.00  0.00     0.033 C 
ATOM     15  C   UNL A   1      34.134  24.670  25.372  1.00  0.00     0.033 C 
ATOM     16  C   UNL A   1      33.009  25.033  24.446  1.00  0.00     0.062 C 
BRANCH  16  17
ATOM     17  C   UNL A   1      32.771  26.476  24.608  1.00  0.00     0.140 A 
ATOM     18  N   UNL A   1      33.657  27.457  24.530  1.00  0.00    -0.134 NA
ATOM     19  N   UNL A   1      31.481  26.937  24.818  1.00  0.00    -0.286 N 
ATOM     20  N   UNL A   1      33.067  28.707  24.346  1.00  0.00    -0.130 NA
ATOM     21  C   UNL A   1      31.764  28.547  24.326  1.00  0.00     0.160 A 
ATOM     22  C   UNL A   1      29.958  26.040  24.632  1.00  0.00     0.095 A 
ATOM     23  C   UNL A   1      30.413  29.329  23.400  1.00  0.00     0.050 A 
ATOM     24  C   UNL A   1      28.739  26.615  23.882  1.00  0.00     0.019 A 
ATOM     25  C   UNL A   1      28.838  28.358  23.116  1.00  0.00     0.005 A 
ENDBRANCH  16  17
ENDBRANCH   8   9
ENDBRANCH   7   8
ENDBRANCH   5   7
ENDBRANCH   2   3
ENDBRANCH   1   2
BRANCH   1  26
ATOM     26  C   UNL A   1      42.803  21.024  26.371  1.00  0.00     0.023 C 
BRANCH  26  27
ATOM     27  C   UNL A   1      42.647  21.716  25.001  1.00  0.00     0.116 C 
BRANCH  27  28
ATOM     28  N   UNL A   1      43.720  22.681  24.643  1.00  0.00    -0.352 N 
ATOM     29  C   UNL A   1      44.348  23.880  24.925  1.00  0.00     0.251 C 
ATOM     30  H   UNL A   1      44.188  22.300  23.865  1.00  0.00     0.163 HD
ATOM     31  O   UNL A   1      45.388  23.997  24.251  1.00  0.00    -0.269 OA
BRANCH  29  32
ATOM     32  C   UNL A   1      44.043  25.130  25.871  1.00  0.00     0.039 A 
ATOM     33  C   UNL A   1      42.672  24.496  26.943  1.00  0.00     0.014 A 
ATOM     34  C   UNL A   1      44.564  27.083  26.204  1.00  0.00     0.014 A 
ATOM     35  C   UNL A   1      41.946  25.594  28.176  1.00  0.00     0.010 A 
ATOM     36  C   UNL A   1      43.782  28.035  27.479  1.00  0.00     0.010 A 
ATOM     37  C   UNL A   1      42.505  27.281  28.421  1.00  0.00    -0.014 A 
BRANCH  37  38
ATOM     38  C   UNL A   1      42.143  28.222  29.501  1.00  0.00     0.031 A 
ATOM     39  C   UNL A   1      42.711  27.950  30.876  1.00  0.00     0.074 A 
ATOM     40  C   UNL A   1      40.969  28.873  29.368  1.00  0.00     0.049 A 
ATOM     41  N   UNL A   1      42.379  28.454  32.035  1.00  0.00    -0.248 NA
ATOM     42  C   UNL A   1      43.719  26.872  30.972  1.00  0.00     0.031 C 
ATOM     43  C   UNL A   1      40.138  28.896  28.160  1.00  0.00     0.029 A 
ATOM     44  N   UNL A   1      40.209  29.557  30.281  1.00  0.00    -0.354 N 
ATOM     45  C   UNL A   1      43.133  27.763  32.979  1.00  0.00     0.074 A 
ATOM     46  C   UNL A   1      43.840  26.719  32.281  1.00  0.00     0.031 C 
ATOM     47  C   UNL A   1      38.991  29.541  28.404  1.00  0.00     0.029 A 
ATOM     48  C   UNL A   1      39.025  30.035  29.766  1.00  0.00     0.049 A 
ATOM     49  H   UNL A   1      40.483  29.693  31.217  1.00  0.00     0.167 HD
ATOM     50  C   UNL A   1      43.252  28.021  34.303  1.00  0.00     0.037 A 
ATOM     51  C   UNL A   1      38.101  30.841  30.317  1.00  0.00     0.037 A 
ATOM     52  C   UNL A   1      42.493  29.065  34.938  1.00  0.00     0.049 A 
ATOM     53  C   UNL A   1      38.367  31.298  31.718  1.00  0.00     0.074 A 
ATOM     54  C   UNL A   1      42.612  29.588  36.211  1.00  0.00     0.029 A 
ATOM     55  N   UNL A   1      41.444  29.738  34.321  1.00  0.00    -0.354 N 
ATOM     56  N   UNL A   1      39.277  30.865  32.561  1.00  0.00    -0.248 NA
ATOM     57  C   UNL A   1      37.528  32.381  32.233  1.00  0.00     0.031 C 
ATOM     58  C   UNL A   1      41.608  30.550  36.375  1.00  0.00     0.029 A 
ATOM     59  C   UNL A   1      40.901  30.668  35.186  1.00  0.00     0.049 A 
ATOM     60  H   UNL A   1      41.133  29.574  33.402  1.00  0.00     0.167 HD
ATOM     61  C   UNL A   1      39.143  31.640  33.698  1.00  0.00     0.074 A 
ATOM     62  C   UNL A   1      38.077  32.589  33.421  1.00  0.00     0.031 C 
ATOM     63  C   UNL A   1      39.830  31.578  34.865  1.00  0.00     0.037 A 
BRANCH  50  64
ATOM     64  C   UNL A   1      44.264  27.235  35.103  1.00  0.00     0.064 A 
ATOM     65  C   UNL A   1      45.589  27.687  35.249  1.00  0.00     0.173 A 
ATOM     66  C   UNL A   1      43.914  26.053  35.774  1.00  0.00     0.173 A 
ATOM     67  F   UNL A   1      45.993  28.812  34.640  1.00  0.00    -0.203 F 
ATOM     68  C   UNL A   1      46.526  26.970  35.992  1.00  0.00     0.198 A 
ATOM     69  C   UNL A   1      44.845  25.359  36.550  1.00  0.00     0.198 A 
ATOM     70  F   UNL A   1      42.668  25.566  35.687  1.00  0.00    -0.203 F 
ATOM     71  F   UNL A   1      47.795  27.397  36.057  1.00  0.00    -0.200 F 
ATOM     72  C   UNL A   1      46.152  25.811  36.649  1.00  0.00     0.200 A 
ATOM     73  F   UNL A   1      44.477  24.246  37.202  1.00  0.00    -0.200 F 
ATOM     74  F   UNL A   1      47.049  25.129  37.375  1.00  0.00    -0.200 F 
ENDBRANCH  50  64
BRANCH  51  75
ATOM     75  C   UNL A   1      37.022  31.415  29.468  1.00  0.00     0.064 A 
ATOM     76  C   UNL A   1      35.923  30.622  29.101  1.00  0.00     0.173 A 
ATOM     77  C   UNL A   1      36.997  32.764  29.087  1.00  0.00     0.173 A 
ATOM     78  F   UNL A   1      35.887  29.328  29.453  1.00  0.00    -0.203 F 
ATOM     79  C   UNL A   1      34.861  31.143  28.364  1.00  0.00     0.198 A 
ATOM     80  C   UNL A   1      35.920  33.294  28.373  1.00  0.00     0.198 A 
ATOM     81  F   UNL A   1      37.999  33.581  29.444  1.00  0.00    -0.203 F 
ATOM     82  F   UNL A   1      33.843  30.349  28.006  1.00  0.00    -0.200 F 
ATOM     83  C   UNL A   1      34.856  32.481  28.006  1.00  0.00     0.200 A 
ATOM     84  F   UNL A   1      35.902  34.595  28.052  1.00  0.00    -0.200 F 
ATOM     85  F   UNL A   1      33.827  32.987  27.311  1.00  0.00    -0.200 F 
ENDBRANCH  51  75
BRANCH  63  86
ATOM     86  C   UNL A   1      39.443  32.571  35.912  1.00  0.00     0.064 A 
ATOM     87  C   UNL A   1      40.072  33.820  36.002  1.00  0.00     0.173 A 
ATOM     88  C   UNL A   1      38.411  32.277  36.815  1.00  0.00     0.173 A 
ATOM     89  F   UNL A   1      41.074  34.133  35.167  1.00  0.00    -0.203 F 
ATOM     90  C   UNL A   1      39.706  34.728  36.988  1.00  0.00     0.198 A 
ATOM     91  C   UNL A   1      38.021  33.203  37.772  1.00  0.00     0.198 A 
ATOM     92  F   UNL A   1      37.777  31.096  36.758  1.00  0.00    -0.203 F 
ATOM     93  F   UNL A   1      40.364  35.890  37.099  1.00  0.00    -0.200 F 
ATOM     94  C   UNL A   1      38.677  34.423  37.865  1.00  0.00     0.200 A 
ATOM     95  F   UNL A   1      37.013  32.916  38.607  1.00  0.00    -0.200 F 
ATOM     96  F   UNL A   1      38.319  35.304  38.809  1.00  0.00    -0.200 F 
ENDBRANCH  63  86
ENDBRANCH  37  38
ENDBRANCH  29  32
ENDBRANCH  27  28
ENDBRANCH  26  27
ENDBRANCH   1  26
TORSDOF 14
ENDMDL
