MODEL 1
REMARK VINA RESULT:     -12.1      0.000      0.000
REMARK SMILES O=C(/C=C/c1ccccc1Oc1cccc(Cl)c1)NCCCCNC(=O)c1ccc(-c2c3nc(c(-c4c(F)c(F)c(F)c(F)c4F)c4ccc([nH]4)c(-c4c(F)c(F)c(F)c(F)c4F)c4nc(c(-c5c(F)c(F)c(F)c(F)c5F)c5ccc2[nH]5)C=C4)C=C3)cc1
REMARK SMILES IDX 21 1 20 2 19 3 1 4 2 5 3 7 4 8 5 9 6 10 10 11 7 12 9 13 8 14
REMARK SMILES IDX 11 15 12 16 13 17 18 18 14 19 16 20 15 21 17 22 22 23 23 24
REMARK SMILES IDX 24 25 25 26 26 28 27 29 28 30 89 31 29 32 88 33 30 34 31 35
REMARK SMILES IDX 32 36 82 37 33 38 87 39 81 40 83 41 34 42 86 43 80 44 79 45
REMARK SMILES IDX 35 47 67 48 47 49 66 50 48 51 51 52 65 53 84 54 49 55 50 56
REMARK SMILES IDX 64 58 85 59 52 60 36 61 37 62 45 63 38 64 39 65 43 66 46 67
REMARK SMILES IDX 40 68 41 69 44 70 42 71 68 72 69 73 77 74 70 75 71 76 75 77
REMARK SMILES IDX 78 78 72 79 73 80 76 81 74 82 53 83 54 84 62 85 55 86 56 87
REMARK SMILES IDX 60 88 63 89 57 90 58 91 61 92 59 93
REMARK H PARENT 19 6 24 27 83 46 51 57
REMARK Flexibility Score: inf
ROOT
ATOM      1  C   UNL A   1      36.613  21.016  24.911  1.00  0.00     0.023 C 
ENDROOT
BRANCH   1   2
ATOM      2  C   UNL A   1      36.884  22.165  23.946  1.00  0.00     0.116 C 
BRANCH   2   3
ATOM      3  N   UNL A   1      36.187  23.380  24.311  1.00  0.00    -0.353 N 
ATOM      4  O   UNL A   1      34.710  23.340  22.555  1.00  0.00    -0.270 OA
ATOM      5  C   UNL A   1      35.121  23.856  23.587  1.00  0.00     0.244 C 
ATOM      6  H   UNL A   1      36.486  23.881  25.103  1.00  0.00     0.163 HD
BRANCH   5   7
ATOM      7  C   UNL A   1      34.384  25.001  24.185  1.00  0.00     0.072 C 
ATOM      8  C   UNL A   1      34.349  25.304  25.492  1.00  0.00     0.017 C 
BRANCH   8   9
ATOM      9  C   UNL A   1      33.472  26.343  26.051  1.00  0.00     0.017 A 
ATOM     10  C   UNL A   1      34.025  27.637  26.093  1.00  0.00     0.012 A 
ATOM     11  C   UNL A   1      32.174  26.145  26.569  1.00  0.00     0.134 A 
ATOM     12  C   UNL A   1      33.304  28.719  26.603  1.00  0.00     0.001 A 
ATOM     13  C   UNL A   1      31.459  27.248  27.067  1.00  0.00     0.048 A 
ATOM     14  C   UNL A   1      32.017  28.525  27.088  1.00  0.00     0.004 A 
BRANCH  11  15
ATOM     15  O   UNL A   1      31.419  24.989  26.599  1.00  0.00    -0.457 OA
BRANCH  15  16
ATOM     16  C   UNL A   1      31.384  24.123  25.539  1.00  0.00     0.128 A 
ATOM     17  C   UNL A   1      30.731  24.582  24.390  1.00  0.00     0.047 A 
ATOM     18  C   UNL A   1      31.917  22.835  25.580  1.00  0.00     0.067 A 
ATOM     19  C   UNL A   1      30.687  23.790  23.245  1.00  0.00     0.005 A 
ATOM     20  C   UNL A   1      31.883  22.055  24.424  1.00  0.00     0.044 A 
ATOM     21  C   UNL A   1      31.276  22.526  23.258  1.00  0.00     0.021 A 
ATOM     22  Cl  UNL A   1      32.672  20.524  24.408  1.00  0.00    -0.084 Cl
ENDBRANCH  15  16
ENDBRANCH  11  15
ENDBRANCH   8   9
ENDBRANCH   5   7
ENDBRANCH   2   3
ENDBRANCH   1   2
BRANCH   1  23
ATOM     23  C   UNL A   1      37.727  19.968  24.983  1.00  0.00     0.023 C 
BRANCH  23  24
ATOM     24  C   UNL A   1      38.931  20.355  25.835  1.00  0.00     0.116 C 
BRANCH  24  25
ATOM     25  N   UNL A   1      39.939  19.307  25.892  1.00  0.00    -0.352 N 
ATOM     26  C   UNL A   1      41.298  19.403  26.062  1.00  0.00     0.251 C 
ATOM     27  H   UNL A   1      39.595  18.390  25.797  1.00  0.00     0.163 HD
ATOM     28  O   UNL A   1      42.008  18.411  25.915  1.00  0.00    -0.269 OA
BRANCH  26  29
ATOM     29  C   UNL A   1      41.923  20.703  26.395  1.00  0.00     0.039 A 
ATOM     30  C   UNL A   1      42.259  21.575  25.355  1.00  0.00     0.014 A 
ATOM     31  C   UNL A   1      42.191  21.060  27.719  1.00  0.00     0.014 A 
ATOM     32  C   UNL A   1      42.795  22.832  25.648  1.00  0.00     0.010 A 
ATOM     33  C   UNL A   1      42.651  22.343  28.013  1.00  0.00     0.010 A 
ATOM     34  C   UNL A   1      42.957  23.244  26.981  1.00  0.00    -0.014 A 
BRANCH  34  35
ATOM     35  C   UNL A   1      43.434  24.614  27.311  1.00  0.00     0.031 A 
ATOM     36  C   UNL A   1      42.485  25.636  27.872  1.00  0.00     0.074 A 
ATOM     37  C   UNL A   1      44.710  24.958  27.046  1.00  0.00     0.049 A 
ATOM     38  N   UNL A   1      42.699  26.896  28.159  1.00  0.00    -0.248 NA
ATOM     39  C   UNL A   1      41.106  25.191  28.122  1.00  0.00     0.031 C 
ATOM     40  C   UNL A   1      45.718  24.073  26.460  1.00  0.00     0.029 A 
ATOM     41  N   UNL A   1      45.375  26.146  27.224  1.00  0.00    -0.354 N 
ATOM     42  C   UNL A   1      41.484  27.393  28.614  1.00  0.00     0.074 A 
ATOM     43  C   UNL A   1      40.523  26.317  28.507  1.00  0.00     0.031 C 
ATOM     44  C   UNL A   1      46.877  24.741  26.348  1.00  0.00     0.029 A 
ATOM     45  C   UNL A   1      46.684  26.113  26.810  1.00  0.00     0.049 A 
ATOM     46  H   UNL A   1      44.953  26.946  27.612  1.00  0.00     0.167 HD
ATOM     47  C   UNL A   1      41.201  28.626  29.099  1.00  0.00     0.037 A 
ATOM     48  C   UNL A   1      47.622  27.079  26.791  1.00  0.00     0.037 A 
ATOM     49  C   UNL A   1      42.162  29.693  29.215  1.00  0.00     0.049 A 
ATOM     50  C   UNL A   1      47.275  28.449  27.312  1.00  0.00     0.074 A 
ATOM     51  C   UNL A   1      41.984  30.962  29.737  1.00  0.00     0.029 A 
ATOM     52  N   UNL A   1      43.482  29.617  28.792  1.00  0.00    -0.354 N 
ATOM     53  N   UNL A   1      46.141  28.887  27.801  1.00  0.00    -0.248 NA
ATOM     54  C   UNL A   1      48.344  29.458  27.285  1.00  0.00     0.031 C 
ATOM     55  C   UNL A   1      43.178  31.673  29.578  1.00  0.00     0.029 A 
ATOM     56  C   UNL A   1      44.120  30.827  29.017  1.00  0.00     0.049 A 
ATOM     57  H   UNL A   1      43.902  28.823  28.391  1.00  0.00     0.167 HD
ATOM     58  C   UNL A   1      46.366  30.208  28.167  1.00  0.00     0.074 A 
ATOM     59  C   UNL A   1      47.751  30.495  27.858  1.00  0.00     0.031 C 
ATOM     60  C   UNL A   1      45.502  31.100  28.710  1.00  0.00     0.037 A 
BRANCH  47  61
ATOM     61  C   UNL A   1      39.789  28.890  29.542  1.00  0.00     0.064 A 
ATOM     62  C   UNL A   1      38.817  29.379  28.654  1.00  0.00     0.173 A 
ATOM     63  C   UNL A   1      39.391  28.617  30.860  1.00  0.00     0.173 A 
ATOM     64  F   UNL A   1      39.144  29.664  27.385  1.00  0.00    -0.203 F 
ATOM     65  C   UNL A   1      37.512  29.619  29.079  1.00  0.00     0.198 A 
ATOM     66  C   UNL A   1      38.076  28.825  31.271  1.00  0.00     0.198 A 
ATOM     67  F   UNL A   1      40.274  28.140  31.749  1.00  0.00    -0.203 F 
ATOM     68  F   UNL A   1      36.618  30.140  28.227  1.00  0.00    -0.200 F 
ATOM     69  C   UNL A   1      37.142  29.335  30.384  1.00  0.00     0.200 A 
ATOM     70  F   UNL A   1      37.716  28.534  32.528  1.00  0.00    -0.200 F 
ATOM     71  F   UNL A   1      35.884  29.559  30.788  1.00  0.00    -0.200 F 
ENDBRANCH  47  61
BRANCH  48  72
ATOM     72  C   UNL A   1      48.984  26.784  26.274  1.00  0.00     0.064 A 
ATOM     73  C   UNL A   1      49.329  27.063  24.945  1.00  0.00     0.173 A 
ATOM     74  C   UNL A   1      49.967  26.210  27.094  1.00  0.00     0.173 A 
ATOM     75  F   UNL A   1      48.419  27.593  24.113  1.00  0.00    -0.203 F 
ATOM     76  C   UNL A   1      50.596  26.760  24.450  1.00  0.00     0.198 A 
ATOM     77  C   UNL A   1      51.243  25.936  26.608  1.00  0.00     0.198 A 
ATOM     78  F   UNL A   1      49.690  25.925  28.376  1.00  0.00    -0.203 F 
ATOM     79  F   UNL A   1      50.883  26.992  23.161  1.00  0.00    -0.200 F 
ATOM     80  C   UNL A   1      51.554  26.203  25.283  1.00  0.00     0.200 A 
ATOM     81  F   UNL A   1      52.171  25.414  27.421  1.00  0.00    -0.200 F 
ATOM     82  F   UNL A   1      52.774  25.916  24.808  1.00  0.00    -0.200 F 
ENDBRANCH  48  72
BRANCH  60  83
ATOM     83  C   UNL A   1      46.038  32.465  29.043  1.00  0.00     0.064 A 
ATOM     84  C   UNL A   1      46.641  32.742  30.279  1.00  0.00     0.173 A 
ATOM     85  C   UNL A   1      45.980  33.500  28.096  1.00  0.00     0.173 A 
ATOM     86  F   UNL A   1      46.710  31.794  31.225  1.00  0.00    -0.203 F 
ATOM     87  C   UNL A   1      47.141  34.011  30.564  1.00  0.00     0.198 A 
ATOM     88  C   UNL A   1      46.512  34.757  28.371  1.00  0.00     0.198 A 
ATOM     89  F   UNL A   1      45.420  33.287  26.896  1.00  0.00    -0.203 F 
ATOM     90  F   UNL A   1      47.665  34.267  31.770  1.00  0.00    -0.200 F 
ATOM     91  C   UNL A   1      47.083  35.014  29.608  1.00  0.00     0.200 A 
ATOM     92  F   UNL A   1      46.470  35.718  27.440  1.00  0.00    -0.200 F 
ATOM     93  F   UNL A   1      47.572  36.231  29.880  1.00  0.00    -0.200 F 
ENDBRANCH  60  83
ENDBRANCH  34  35
ENDBRANCH  26  29
ENDBRANCH  24  25
ENDBRANCH  23  24
ENDBRANCH   1  23
TORSDOF 14
ENDMDL
MODEL 2
REMARK VINA RESULT:     -12.1      4.380     10.245
REMARK SMILES O=C(/C=C/c1ccccc1Oc1cccc(Cl)c1)NCCCCNC(=O)c1ccc(-c2c3nc(c(-c4c(F)c(F)c(F)c(F)c4F)c4ccc([nH]4)c(-c4c(F)c(F)c(F)c(F)c4F)c4nc(c(-c5c(F)c(F)c(F)c(F)c5F)c5ccc2[nH]5)C=C4)C=C3)cc1
REMARK SMILES IDX 21 1 20 2 19 3 1 4 2 5 3 7 4 8 5 9 6 10 10 11 7 12 9 13 8 14
REMARK SMILES IDX 11 15 12 16 13 17 18 18 14 19 16 20 15 21 17 22 22 23 23 24
REMARK SMILES IDX 24 25 25 26 26 28 27 29 28 30 89 31 29 32 88 33 30 34 31 35
REMARK SMILES IDX 32 36 82 37 33 38 87 39 81 40 83 41 34 42 86 43 80 44 79 45
REMARK SMILES IDX 35 47 67 48 47 49 66 50 48 51 51 52 65 53 84 54 49 55 50 56
REMARK SMILES IDX 64 58 85 59 52 60 36 61 37 62 45 63 38 64 39 65 43 66 46 67
REMARK SMILES IDX 40 68 41 69 44 70 42 71 68 72 69 73 77 74 70 75 71 76 75 77
REMARK SMILES IDX 78 78 72 79 73 80 76 81 74 82 53 83 54 84 62 85 55 86 56 87
REMARK SMILES IDX 60 88 63 89 57 90 58 91 61 92 59 93
REMARK H PARENT 19 6 24 27 83 46 51 57
REMARK Flexibility Score: inf
ROOT
ATOM      1  C   UNL A   1      45.715  19.103  25.152  1.00  0.00     0.023 C 
ENDROOT
BRANCH   1   2
ATOM      2  C   UNL A   1      46.291  20.077  24.129  1.00  0.00     0.116 C 
BRANCH   2   3
ATOM      3  N   UNL A   1      46.374  21.432  24.630  1.00  0.00    -0.353 N 
ATOM      4  O   UNL A   1      44.569  22.228  23.457  1.00  0.00    -0.270 OA
ATOM      5  C   UNL A   1      45.472  22.402  24.267  1.00  0.00     0.244 C 
ATOM      6  H   UNL A   1      47.101  21.666  25.251  1.00  0.00     0.163 HD
BRANCH   5   7
ATOM      7  C   UNL A   1      45.565  23.689  25.005  1.00  0.00     0.072 C 
ATOM      8  C   UNL A   1      44.847  24.791  24.740  1.00  0.00     0.017 C 
BRANCH   8   9
ATOM      9  C   UNL A   1      45.095  26.087  25.388  1.00  0.00     0.017 A 
ATOM     10  C   UNL A   1      43.955  26.891  25.578  1.00  0.00     0.012 A 
ATOM     11  C   UNL A   1      46.351  26.589  25.788  1.00  0.00     0.134 A 
ATOM     12  C   UNL A   1      44.045  28.149  26.178  1.00  0.00     0.001 A 
ATOM     13  C   UNL A   1      46.422  27.853  26.400  1.00  0.00     0.048 A 
ATOM     14  C   UNL A   1      45.281  28.629  26.594  1.00  0.00     0.004 A 
BRANCH  11  15
ATOM     15  O   UNL A   1      47.588  25.974  25.738  1.00  0.00    -0.457 OA
BRANCH  15  16
ATOM     16  C   UNL A   1      48.561  26.382  24.865  1.00  0.00     0.128 A 
ATOM     17  C   UNL A   1      49.875  26.335  25.344  1.00  0.00     0.047 A 
ATOM     18  C   UNL A   1      48.293  26.864  23.585  1.00  0.00     0.067 A 
ATOM     19  C   UNL A   1      50.936  26.685  24.511  1.00  0.00     0.005 A 
ATOM     20  C   UNL A   1      49.362  27.196  22.752  1.00  0.00     0.044 A 
ATOM     21  C   UNL A   1      50.679  27.105  23.207  1.00  0.00     0.021 A 
ATOM     22  Cl  UNL A   1      49.059  27.645  21.118  1.00  0.00    -0.084 Cl
ENDBRANCH  15  16
ENDBRANCH  11  15
ENDBRANCH   8   9
ENDBRANCH   5   7
ENDBRANCH   2   3
ENDBRANCH   1   2
BRANCH   1  23
ATOM     23  C   UNL A   1      44.232  18.775  24.955  1.00  0.00     0.023 C 
BRANCH  23  24
ATOM     24  C   UNL A   1      43.401  18.723  26.233  1.00  0.00     0.116 C 
BRANCH  24  25
ATOM     25  N   UNL A   1      41.971  18.809  25.978  1.00  0.00    -0.352 N 
ATOM     26  C   UNL A   1      41.083  19.812  26.282  1.00  0.00     0.251 C 
ATOM     27  H   UNL A   1      41.581  18.032  25.516  1.00  0.00     0.163 HD
ATOM     28  O   UNL A   1      39.877  19.629  26.136  1.00  0.00    -0.269 OA
BRANCH  26  29
ATOM     29  C   UNL A   1      41.565  21.106  26.814  1.00  0.00     0.039 A 
ATOM     30  C   UNL A   1      41.856  22.138  25.917  1.00  0.00     0.014 A 
ATOM     31  C   UNL A   1      41.744  21.304  28.186  1.00  0.00     0.014 A 
ATOM     32  C   UNL A   1      42.255  23.387  26.400  1.00  0.00     0.010 A 
ATOM     33  C   UNL A   1      42.065  22.571  28.669  1.00  0.00     0.010 A 
ATOM     34  C   UNL A   1      42.323  23.627  27.782  1.00  0.00    -0.014 A 
BRANCH  34  35
ATOM     35  C   UNL A   1      42.651  24.978  28.313  1.00  0.00     0.031 A 
ATOM     36  C   UNL A   1      44.053  25.305  28.748  1.00  0.00     0.074 A 
ATOM     37  C   UNL A   1      41.673  25.892  28.460  1.00  0.00     0.049 A 
ATOM     38  N   UNL A   1      44.516  26.401  29.296  1.00  0.00    -0.248 NA
ATOM     39  C   UNL A   1      45.064  24.252  28.569  1.00  0.00     0.031 C 
ATOM     40  C   UNL A   1      40.265  25.685  28.118  1.00  0.00     0.029 A 
ATOM     41  N   UNL A   1      41.710  27.176  28.947  1.00  0.00    -0.354 N 
ATOM     42  C   UNL A   1      45.865  26.166  29.531  1.00  0.00     0.074 A 
ATOM     43  C   UNL A   1      46.132  24.803  29.126  1.00  0.00     0.031 C 
ATOM     44  C   UNL A   1      39.578  26.807  28.384  1.00  0.00     0.029 A 
ATOM     45  C   UNL A   1      40.485  27.797  28.958  1.00  0.00     0.049 A 
ATOM     46  H   UNL A   1      42.536  27.610  29.259  1.00  0.00     0.167 HD
ATOM     47  C   UNL A   1      46.801  27.017  30.019  1.00  0.00     0.037 A 
ATOM     48  C   UNL A   1      40.127  29.021  29.392  1.00  0.00     0.037 A 
ATOM     49  C   UNL A   1      46.535  28.377  30.413  1.00  0.00     0.049 A 
ATOM     50  C   UNL A   1      41.181  29.939  29.954  1.00  0.00     0.074 A 
ATOM     51  C   UNL A   1      47.424  29.331  30.873  1.00  0.00     0.029 A 
ATOM     52  N   UNL A   1      45.281  28.972  30.400  1.00  0.00    -0.354 N 
ATOM     53  N   UNL A   1      42.465  29.728  30.109  1.00  0.00    -0.248 NA
ATOM     54  C   UNL A   1      40.735  31.268  30.393  1.00  0.00     0.031 C 
ATOM     55  C   UNL A   1      46.701  30.485  31.194  1.00  0.00     0.029 A 
ATOM     56  C   UNL A   1      45.371  30.273  30.872  1.00  0.00     0.049 A 
ATOM     57  H   UNL A   1      44.451  28.536  30.101  1.00  0.00     0.167 HD
ATOM     58  C   UNL A   1      42.985  30.904  30.634  1.00  0.00     0.074 A 
ATOM     59  C   UNL A   1      41.878  31.830  30.755  1.00  0.00     0.031 C 
ATOM     60  C   UNL A   1      44.264  31.189  30.984  1.00  0.00     0.037 A 
BRANCH  47  61
ATOM     61  C   UNL A   1      48.205  26.498  30.156  1.00  0.00     0.064 A 
ATOM     62  C   UNL A   1      49.195  26.793  29.205  1.00  0.00     0.173 A 
ATOM     63  C   UNL A   1      48.576  25.728  31.268  1.00  0.00     0.173 A 
ATOM     64  F   UNL A   1      48.894  27.518  28.117  1.00  0.00    -0.203 F 
ATOM     65  C   UNL A   1      50.492  26.305  29.344  1.00  0.00     0.198 A 
ATOM     66  C   UNL A   1      49.884  25.272  31.422  1.00  0.00     0.198 A 
ATOM     67  F   UNL A   1      47.674  25.424  32.213  1.00  0.00    -0.203 F 
ATOM     68  F   UNL A   1      51.405  26.551  28.394  1.00  0.00    -0.200 F 
ATOM     69  C   UNL A   1      50.837  25.551  30.456  1.00  0.00     0.200 A 
ATOM     70  F   UNL A   1      50.218  24.559  32.506  1.00  0.00    -0.200 F 
ATOM     71  F   UNL A   1      52.087  25.090  30.592  1.00  0.00    -0.200 F 
ENDBRANCH  47  61
BRANCH  48  72
ATOM     72  C   UNL A   1      38.708  29.457  29.300  1.00  0.00     0.064 A 
ATOM     73  C   UNL A   1      38.124  29.766  28.064  1.00  0.00     0.173 A 
ATOM     74  C   UNL A   1      37.908  29.579  30.447  1.00  0.00     0.173 A 
ATOM     75  F   UNL A   1      38.854  29.685  26.941  1.00  0.00    -0.203 F 
ATOM     76  C   UNL A   1      36.804  30.202  27.980  1.00  0.00     0.198 A 
ATOM     77  C   UNL A   1      36.579  29.985  30.358  1.00  0.00     0.198 A 
ATOM     78  F   UNL A   1      38.417  29.292  31.655  1.00  0.00    -0.203 F 
ATOM     79  F   UNL A   1      36.287  30.539  26.790  1.00  0.00    -0.200 F 
ATOM     80  C   UNL A   1      36.030  30.305  29.125  1.00  0.00     0.200 A 
ATOM     81  F   UNL A   1      35.829  30.066  31.466  1.00  0.00    -0.200 F 
ATOM     82  F   UNL A   1      34.759  30.720  29.043  1.00  0.00    -0.200 F 
ENDBRANCH  48  72
BRANCH  60  83
ATOM     83  C   UNL A   1      44.548  32.574  31.496  1.00  0.00     0.064 A 
ATOM     84  C   UNL A   1      44.877  33.629  30.632  1.00  0.00     0.173 A 
ATOM     85  C   UNL A   1      44.450  32.855  32.868  1.00  0.00     0.173 A 
ATOM     86  F   UNL A   1      44.997  33.411  29.314  1.00  0.00    -0.203 F 
ATOM     87  C   UNL A   1      45.126  34.908  31.126  1.00  0.00     0.198 A 
ATOM     88  C   UNL A   1      44.665  34.142  33.354  1.00  0.00     0.198 A 
ATOM     89  F   UNL A   1      44.131  31.884  33.736  1.00  0.00    -0.203 F 
ATOM     90  F   UNL A   1      45.491  35.888  30.288  1.00  0.00    -0.200 F 
ATOM     91  C   UNL A   1      45.012  35.164  32.484  1.00  0.00     0.200 A 
ATOM     92  F   UNL A   1      44.539  34.391  34.664  1.00  0.00    -0.200 F 
ATOM     93  F   UNL A   1      45.243  36.397  32.957  1.00  0.00    -0.200 F 
ENDBRANCH  60  83
ENDBRANCH  34  35
ENDBRANCH  26  29
ENDBRANCH  24  25
ENDBRANCH  23  24
ENDBRANCH   1  23
TORSDOF 14
ENDMDL
MODEL 3
REMARK VINA RESULT:     -12.1      4.300      7.418
REMARK SMILES O=C(/C=C/c1ccccc1Oc1cccc(Cl)c1)NCCCCNC(=O)c1ccc(-c2c3nc(c(-c4c(F)c(F)c(F)c(F)c4F)c4ccc([nH]4)c(-c4c(F)c(F)c(F)c(F)c4F)c4nc(c(-c5c(F)c(F)c(F)c(F)c5F)c5ccc2[nH]5)C=C4)C=C3)cc1
REMARK SMILES IDX 21 1 20 2 19 3 1 4 2 5 3 7 4 8 5 9 6 10 10 11 7 12 9 13 8 14
REMARK SMILES IDX 11 15 12 16 13 17 18 18 14 19 16 20 15 21 17 22 22 23 23 24
REMARK SMILES IDX 24 25 25 26 26 28 27 29 28 30 89 31 29 32 88 33 30 34 31 35
REMARK SMILES IDX 32 36 82 37 33 38 87 39 81 40 83 41 34 42 86 43 80 44 79 45
REMARK SMILES IDX 35 47 67 48 47 49 66 50 48 51 51 52 65 53 84 54 49 55 50 56
REMARK SMILES IDX 64 58 85 59 52 60 36 61 37 62 45 63 38 64 39 65 43 66 46 67
REMARK SMILES IDX 40 68 41 69 44 70 42 71 68 72 69 73 77 74 70 75 71 76 75 77
REMARK SMILES IDX 78 78 72 79 73 80 76 81 74 82 53 83 54 84 62 85 55 86 56 87
REMARK SMILES IDX 60 88 63 89 57 90 58 91 61 92 59 93
REMARK H PARENT 19 6 24 27 83 46 51 57
REMARK Flexibility Score: inf
ROOT
ATOM      1  C   UNL A   1      45.596  18.998  25.315  1.00  0.00     0.023 C 
ENDROOT
BRANCH   1   2
ATOM      2  C   UNL A   1      46.200  19.876  24.223  1.00  0.00     0.116 C 
BRANCH   2   3
ATOM      3  N   UNL A   1      46.345  21.257  24.630  1.00  0.00    -0.353 N 
ATOM      4  O   UNL A   1      44.486  22.025  23.525  1.00  0.00    -0.270 OA
ATOM      5  C   UNL A   1      45.443  22.226  24.263  1.00  0.00     0.244 C 
ATOM      6  H   UNL A   1      47.115  21.511  25.187  1.00  0.00     0.163 HD
BRANCH   5   7
ATOM      7  C   UNL A   1      45.611  23.554  24.910  1.00  0.00     0.072 C 
ATOM      8  C   UNL A   1      44.805  24.612  24.734  1.00  0.00     0.017 C 
BRANCH   8   9
ATOM      9  C   UNL A   1      45.109  25.950  25.263  1.00  0.00     0.017 A 
ATOM     10  C   UNL A   1      43.987  26.757  25.533  1.00  0.00     0.012 A 
ATOM     11  C   UNL A   1      46.396  26.485  25.480  1.00  0.00     0.134 A 
ATOM     12  C   UNL A   1      44.130  28.052  26.035  1.00  0.00     0.001 A 
ATOM     13  C   UNL A   1      46.520  27.787  25.997  1.00  0.00     0.048 A 
ATOM     14  C   UNL A   1      45.398  28.567  26.272  1.00  0.00     0.004 A 
BRANCH  11  15
ATOM     15  O   UNL A   1      47.627  25.876  25.327  1.00  0.00    -0.457 OA
BRANCH  15  16
ATOM     16  C   UNL A   1      48.556  26.342  24.435  1.00  0.00     0.128 A 
ATOM     17  C   UNL A   1      49.825  26.617  24.957  1.00  0.00     0.047 A 
ATOM     18  C   UNL A   1      48.278  26.585  23.091  1.00  0.00     0.067 A 
ATOM     19  C   UNL A   1      50.849  27.050  24.116  1.00  0.00     0.005 A 
ATOM     20  C   UNL A   1      49.313  27.002  22.253  1.00  0.00     0.044 A 
ATOM     21  C   UNL A   1      50.594  27.232  22.757  1.00  0.00     0.021 A 
ATOM     22  Cl  UNL A   1      49.027  27.158  20.563  1.00  0.00    -0.084 Cl
ENDBRANCH  15  16
ENDBRANCH  11  15
ENDBRANCH   8   9
ENDBRANCH   5   7
ENDBRANCH   2   3
ENDBRANCH   1   2
BRANCH   1  23
ATOM     23  C   UNL A   1      44.135  18.606  25.082  1.00  0.00     0.023 C 
BRANCH  23  24
ATOM     24  C   UNL A   1      43.243  18.649  26.319  1.00  0.00     0.116 C 
BRANCH  24  25
ATOM     25  N   UNL A   1      41.837  18.834  25.992  1.00  0.00    -0.352 N 
ATOM     26  C   UNL A   1      41.010  19.900  26.245  1.00  0.00     0.251 C 
ATOM     27  H   UNL A   1      41.416  18.082  25.516  1.00  0.00     0.163 HD
ATOM     28  O   UNL A   1      39.802  19.803  26.040  1.00  0.00    -0.269 OA
BRANCH  26  29
ATOM     29  C   UNL A   1      41.556  21.162  26.792  1.00  0.00     0.039 A 
ATOM     30  C   UNL A   1      41.762  22.240  25.925  1.00  0.00     0.014 A 
ATOM     31  C   UNL A   1      41.878  21.285  28.146  1.00  0.00     0.014 A 
ATOM     32  C   UNL A   1      42.221  23.459  26.429  1.00  0.00     0.010 A 
ATOM     33  C   UNL A   1      42.259  22.524  28.660  1.00  0.00     0.010 A 
ATOM     34  C   UNL A   1      42.434  23.625  27.808  1.00  0.00    -0.014 A 
BRANCH  34  35
ATOM     35  C   UNL A   1      42.828  24.944  28.372  1.00  0.00     0.031 A 
ATOM     36  C   UNL A   1      41.801  26.024  28.571  1.00  0.00     0.074 A 
ATOM     37  C   UNL A   1      44.123  25.191  28.648  1.00  0.00     0.049 A 
ATOM     38  N   UNL A   1      41.964  27.256  28.987  1.00  0.00    -0.248 NA
ATOM     39  C   UNL A   1      40.410  25.685  28.235  1.00  0.00     0.031 C 
ATOM     40  C   UNL A   1      45.223  24.244  28.457  1.00  0.00     0.029 A 
ATOM     41  N   UNL A   1      44.738  26.318  29.138  1.00  0.00    -0.354 N 
ATOM     42  C   UNL A   1      40.703  27.837  28.955  1.00  0.00     0.074 A 
ATOM     43  C   UNL A   1      39.796  26.844  28.421  1.00  0.00     0.031 C 
ATOM     44  C   UNL A   1      46.372  24.820  28.845  1.00  0.00     0.029 A 
ATOM     45  C   UNL A   1      46.099  26.190  29.269  1.00  0.00     0.049 A 
ATOM     46  H   UNL A   1      44.249  27.139  29.372  1.00  0.00     0.167 HD
ATOM     47  C   UNL A   1      40.330  29.076  29.357  1.00  0.00     0.037 A 
ATOM     48  C   UNL A   1      47.027  27.079  29.672  1.00  0.00     0.037 A 
ATOM     49  C   UNL A   1      41.233  30.060  29.898  1.00  0.00     0.049 A 
ATOM     50  C   UNL A   1      46.591  28.459  30.090  1.00  0.00     0.074 A 
ATOM     51  C   UNL A   1      40.944  31.325  30.378  1.00  0.00     0.029 A 
ATOM     52  N   UNL A   1      42.604  29.889  30.023  1.00  0.00    -0.354 N 
ATOM     53  N   UNL A   1      45.386  28.973  30.117  1.00  0.00    -0.248 NA
ATOM     54  C   UNL A   1      47.645  29.379  30.539  1.00  0.00     0.031 C 
ATOM     55  C   UNL A   1      42.146  31.942  30.739  1.00  0.00     0.029 A 
ATOM     56  C   UNL A   1      43.178  31.038  30.547  1.00  0.00     0.049 A 
ATOM     57  H   UNL A   1      43.097  29.074  29.777  1.00  0.00     0.167 HD
ATOM     58  C   UNL A   1      45.532  30.262  30.614  1.00  0.00     0.074 A 
ATOM     59  C   UNL A   1      46.942  30.445  30.889  1.00  0.00     0.031 C 
ATOM     60  C   UNL A   1      44.583  31.207  30.822  1.00  0.00     0.037 A 
BRANCH  47  61
ATOM     61  C   UNL A   1      38.877  29.441  29.224  1.00  0.00     0.064 A 
ATOM     62  C   UNL A   1      38.288  29.673  27.971  1.00  0.00     0.173 A 
ATOM     63  C   UNL A   1      38.056  29.524  30.358  1.00  0.00     0.173 A 
ATOM     64  F   UNL A   1      39.029  29.614  26.854  1.00  0.00    -0.203 F 
ATOM     65  C   UNL A   1      36.941  30.011  27.863  1.00  0.00     0.198 A 
ATOM     66  C   UNL A   1      36.701  29.827  30.243  1.00  0.00     0.198 A 
ATOM     67  F   UNL A   1      38.563  29.303  31.580  1.00  0.00    -0.203 F 
ATOM     68  F   UNL A   1      36.415  30.284  26.661  1.00  0.00    -0.200 F 
ATOM     69  C   UNL A   1      36.148  30.080  28.997  1.00  0.00     0.200 A 
ATOM     70  F   UNL A   1      35.932  29.877  31.339  1.00  0.00    -0.200 F 
ATOM     71  F   UNL A   1      34.850  30.397  28.891  1.00  0.00    -0.200 F 
ENDBRANCH  47  61
BRANCH  48  72
ATOM     72  C   UNL A   1      48.461  26.688  29.715  1.00  0.00     0.064 A 
ATOM     73  C   UNL A   1      49.362  27.131  28.737  1.00  0.00     0.173 A 
ATOM     74  C   UNL A   1      48.961  25.859  30.731  1.00  0.00     0.173 A 
ATOM     75  F   UNL A   1      48.929  27.908  27.732  1.00  0.00    -0.203 F 
ATOM     76  C   UNL A   1      50.700  26.742  28.760  1.00  0.00     0.198 A 
ATOM     77  C   UNL A   1      50.305  25.497  30.771  1.00  0.00     0.198 A 
ATOM     78  F   UNL A   1      48.142  25.410  31.696  1.00  0.00    -0.203 F 
ATOM     79  F   UNL A   1      51.526  27.139  27.782  1.00  0.00    -0.200 F 
ATOM     80  C   UNL A   1      51.172  25.931  29.780  1.00  0.00     0.200 A 
ATOM     81  F   UNL A   1      50.761  24.727  31.768  1.00  0.00    -0.200 F 
ATOM     82  F   UNL A   1      52.460  25.561  29.803  1.00  0.00    -0.200 F 
ENDBRANCH  48  72
BRANCH  60  83
ATOM     83  C   UNL A   1      45.029  32.516  31.413  1.00  0.00     0.064 A 
ATOM     84  C   UNL A   1      45.078  32.724  32.799  1.00  0.00     0.173 A 
ATOM     85  C   UNL A   1      45.449  33.564  30.577  1.00  0.00     0.173 A 
ATOM     86  F   UNL A   1      44.674  31.761  33.641  1.00  0.00    -0.203 F 
ATOM     87  C   UNL A   1      45.504  33.941  33.326  1.00  0.00     0.198 A 
ATOM     88  C   UNL A   1      45.908  34.766  31.108  1.00  0.00     0.198 A 
ATOM     89  F   UNL A   1      45.429  33.415  29.244  1.00  0.00    -0.203 F 
ATOM     90  F   UNL A   1      45.493  34.135  34.652  1.00  0.00    -0.200 F 
ATOM     91  C   UNL A   1      45.926  34.957  32.482  1.00  0.00     0.200 A 
ATOM     92  F   UNL A   1      46.330  35.739  30.291  1.00  0.00    -0.200 F 
ATOM     93  F   UNL A   1      46.345  36.124  32.991  1.00  0.00    -0.200 F 
ENDBRANCH  60  83
ENDBRANCH  34  35
ENDBRANCH  26  29
ENDBRANCH  24  25
ENDBRANCH  23  24
ENDBRANCH   1  23
TORSDOF 14
ENDMDL
