MODEL 1
REMARK VINA RESULT:     -11.4      0.000      0.000
REMARK SMILES CC(C)(C)c1cc(NC(=O)CSC[C@H]([NH3+])C(=O)NCCCCNC(=O)c2ccc(-c3c4nc(c(-c5c(F)c(F)c(F)c(F)c5F)c5ccc([nH]5)c(-c5c(F)c(F)c(F)c(F)c5F)c5nc(c(-c6c(F)c(F)c(F)c(F)c6F)c6ccc3[nH]6)C=C5)C=C4)cc2)on1
REMARK SMILES IDX 16 1 17 2 18 3 14 5 13 6 12 7 11 8 9 9 8 10 10 12 7 13 5 14
REMARK SMILES IDX 6 15 90 16 89 17 2 18 1 19 3 20 4 21 15 22 19 26 20 27 21 28
REMARK SMILES IDX 22 29 23 30 24 31 25 33 26 34 27 35 88 36 28 37 87 38 29 39
REMARK SMILES IDX 30 40 31 41 81 42 32 43 86 44 80 45 82 46 33 47 85 48 79 49
REMARK SMILES IDX 78 50 34 52 66 53 46 54 65 55 47 56 50 57 64 58 83 59 48 60
REMARK SMILES IDX 49 61 63 63 84 64 51 65 35 66 36 67 44 68 37 69 38 70 42 71
REMARK SMILES IDX 45 72 39 73 40 74 43 75 41 76 67 77 68 78 76 79 69 80 70 81
REMARK SMILES IDX 74 82 77 83 71 84 72 85 75 86 73 87 52 88 53 89 61 90 54 91
REMARK SMILES IDX 55 92 59 93 62 94 56 95 57 96 60 97 58 98
REMARK H PARENT 18 4 8 11 15 23 15 24 15 25 23 32 82 51 50 62
REMARK Flexibility Score: inf
ROOT
ATOM      1  C   UNL A   1      32.832  29.010  24.535  1.00  0.00     0.279 C 
ATOM      2  O   UNL A   1      33.338  28.763  23.439  1.00  0.00    -0.268 OA
ATOM      3  N   UNL A   1      33.553  29.748  25.434  1.00  0.00    -0.351 N 
ATOM      4  H   UNL A   1      34.442  30.042  25.127  1.00  0.00     0.163 HD
ENDROOT
BRANCH   1   5
ATOM      5  C   UNL A   1      31.407  28.542  24.883  1.00  0.00     0.280 C 
BRANCH   5   6
ATOM      6  C   UNL A   1      31.429  27.029  25.184  1.00  0.00     0.145 C 
BRANCH   6   7
ATOM      7  S   UNL A   1      29.985  26.110  24.528  1.00  0.00    -0.145 SA
BRANCH   7   8
ATOM      8  C   UNL A   1      30.774  25.161  23.180  1.00  0.00     0.170 C 
BRANCH   8   9
ATOM      9  C   UNL A   1      31.646  26.045  22.306  1.00  0.00     0.236 C 
ATOM     10  N   UNL A   1      32.982  25.824  22.141  1.00  0.00    -0.294 N 
ATOM     11  H   UNL A   1      33.449  26.429  21.521  1.00  0.00     0.173 HD
ATOM     12  O   UNL A   1      31.132  26.974  21.671  1.00  0.00    -0.274 OA
BRANCH  10  13
ATOM     13  C   UNL A   1      33.749  24.860  22.738  1.00  0.00     0.231 A 
ATOM     14  C   UNL A   1      35.008  23.592  24.038  1.00  0.00     0.091 A 
ATOM     15  C   UNL A   1      34.212  24.769  24.026  1.00  0.00     0.097 A 
ATOM     16  N   UNL A   1      34.960  22.981  22.848  1.00  0.00    -0.082 NA
ATOM     17  O   UNL A   1      34.168  23.771  22.048  1.00  0.00    -0.338 OA
BRANCH  14  18
ATOM     18  C   UNL A   1      35.829  23.028  25.178  1.00  0.00     0.008 C 
ATOM     19  C   UNL A   1      35.103  23.151  26.536  1.00  0.00     0.018 C 
ATOM     20  C   UNL A   1      37.165  23.788  25.278  1.00  0.00     0.018 C 
ATOM     21  C   UNL A   1      36.114  21.533  24.930  1.00  0.00     0.018 C 
ENDBRANCH  14  18
ENDBRANCH  10  13
ENDBRANCH   8   9
ENDBRANCH   7   8
ENDBRANCH   6   7
ENDBRANCH   5   6
BRANCH   5  22
ATOM     22  N   UNL A   1      30.476  28.983  23.818  1.00  0.00    -0.347 N 
ATOM     23  H   UNL A   1      30.116  28.168  23.322  1.00  0.00     0.345 HD
ATOM     24  H   UNL A   1      30.973  29.588  23.162  1.00  0.00     0.345 HD
ATOM     25  H   UNL A   1      29.701  29.498  24.234  1.00  0.00     0.345 HD
ENDBRANCH   5  22
ENDBRANCH   1   5
BRANCH   3  26
ATOM     26  C   UNL A   1      33.188  30.158  26.782  1.00  0.00     0.116 C 
BRANCH  26  27
ATOM     27  C   UNL A   1      31.750  30.656  26.881  1.00  0.00     0.023 C 
BRANCH  27  28
ATOM     28  C   UNL A   1      31.596  32.171  26.797  1.00  0.00     0.023 C 
BRANCH  28  29
ATOM     29  C   UNL A   1      32.811  32.970  27.249  1.00  0.00     0.116 C 
BRANCH  29  30
ATOM     30  N   UNL A   1      32.488  34.334  27.635  1.00  0.00    -0.352 N 
ATOM     31  C   UNL A   1      33.037  35.105  28.629  1.00  0.00     0.251 C 
ATOM     32  H   UNL A   1      31.776  34.766  27.109  1.00  0.00     0.163 HD
ATOM     33  O   UNL A   1      32.556  36.202  28.902  1.00  0.00    -0.269 OA
BRANCH  31  34
ATOM     34  C   UNL A   1      34.188  34.593  29.401  1.00  0.00     0.039 A 
ATOM     35  C   UNL A   1      33.946  33.930  30.605  1.00  0.00     0.014 A 
ATOM     36  C   UNL A   1      35.495  34.738  28.927  1.00  0.00     0.014 A 
ATOM     37  C   UNL A   1      35.009  33.352  31.299  1.00  0.00     0.010 A 
ATOM     38  C   UNL A   1      36.541  34.088  29.575  1.00  0.00     0.010 A 
ATOM     39  C   UNL A   1      36.309  33.390  30.770  1.00  0.00    -0.014 A 
BRANCH  39  40
ATOM     40  C   UNL A   1      37.428  32.689  31.450  1.00  0.00     0.031 A 
ATOM     41  C   UNL A   1      38.106  31.519  30.794  1.00  0.00     0.074 A 
ATOM     42  C   UNL A   1      37.797  33.075  32.686  1.00  0.00     0.049 A 
ATOM     43  N   UNL A   1      39.088  30.776  31.238  1.00  0.00    -0.248 NA
ATOM     44  C   UNL A   1      37.593  31.108  29.478  1.00  0.00     0.031 C 
ATOM     45  C   UNL A   1      37.170  34.150  33.457  1.00  0.00     0.029 A 
ATOM     46  N   UNL A   1      38.783  32.603  33.516  1.00  0.00    -0.354 N 
ATOM     47  C   UNL A   1      39.301  29.808  30.265  1.00  0.00     0.074 A 
ATOM     48  C   UNL A   1      38.307  30.019  29.235  1.00  0.00     0.031 C 
ATOM     49  C   UNL A   1      37.804  34.276  34.632  1.00  0.00     0.029 A 
ATOM     50  C   UNL A   1      38.857  33.268  34.716  1.00  0.00     0.049 A 
ATOM     51  H   UNL A   1      39.381  31.859  33.274  1.00  0.00     0.167 HD
ATOM     52  C   UNL A   1      40.253  28.846  30.224  1.00  0.00     0.037 A 
ATOM     53  C   UNL A   1      39.679  33.083  35.766  1.00  0.00     0.037 A 
ATOM     54  C   UNL A   1      41.251  28.652  31.244  1.00  0.00     0.049 A 
ATOM     55  C   UNL A   1      40.736  32.016  35.692  1.00  0.00     0.074 A 
ATOM     56  C   UNL A   1      42.309  27.759  31.259  1.00  0.00     0.029 A 
ATOM     57  N   UNL A   1      41.307  29.356  32.439  1.00  0.00    -0.354 N 
ATOM     58  N   UNL A   1      40.991  31.169  34.724  1.00  0.00    -0.248 NA
ATOM     59  C   UNL A   1      41.628  31.888  36.851  1.00  0.00     0.031 C 
ATOM     60  C   UNL A   1      42.965  27.879  32.488  1.00  0.00     0.029 A 
ATOM     61  C   UNL A   1      42.360  28.892  33.214  1.00  0.00     0.049 A 
ATOM     62  H   UNL A   1      40.691  30.077  32.699  1.00  0.00     0.167 HD
ATOM     63  C   UNL A   1      42.081  30.422  35.147  1.00  0.00     0.074 A 
ATOM     64  C   UNL A   1      42.455  30.933  36.450  1.00  0.00     0.031 C 
ATOM     65  C   UNL A   1      42.715  29.403  34.514  1.00  0.00     0.037 A 
BRANCH  52  66
ATOM     66  C   UNL A   1      40.256  27.923  29.037  1.00  0.00     0.064 A 
ATOM     67  C   UNL A   1      40.983  28.216  27.872  1.00  0.00     0.173 A 
ATOM     68  C   UNL A   1      39.543  26.716  29.074  1.00  0.00     0.173 A 
ATOM     69  F   UNL A   1      41.676  29.362  27.778  1.00  0.00    -0.203 F 
ATOM     70  C   UNL A   1      40.962  27.356  26.778  1.00  0.00     0.198 A 
ATOM     71  C   UNL A   1      39.553  25.841  27.991  1.00  0.00     0.198 A 
ATOM     72  F   UNL A   1      38.836  26.380  30.165  1.00  0.00    -0.203 F 
ATOM     73  F   UNL A   1      41.614  27.688  25.654  1.00  0.00    -0.200 F 
ATOM     74  C   UNL A   1      40.253  26.166  26.840  1.00  0.00     0.200 A 
ATOM     75  F   UNL A   1      38.880  24.684  28.059  1.00  0.00    -0.200 F 
ATOM     76  F   UNL A   1      40.238  25.337  25.787  1.00  0.00    -0.200 F 
ENDBRANCH  52  66
BRANCH  53  77
ATOM     77  C   UNL A   1      39.545  33.951  36.966  1.00  0.00     0.064 A 
ATOM     78  C   UNL A   1      40.159  35.209  37.021  1.00  0.00     0.173 A 
ATOM     79  C   UNL A   1      38.790  33.544  38.077  1.00  0.00     0.173 A 
ATOM     80  F   UNL A   1      40.909  35.634  35.993  1.00  0.00    -0.203 F 
ATOM     81  C   UNL A   1      40.037  36.021  38.147  1.00  0.00     0.198 A 
ATOM     82  C   UNL A   1      38.644  34.370  39.188  1.00  0.00     0.198 A 
ATOM     83  F   UNL A   1      38.177  32.351  38.072  1.00  0.00    -0.203 F 
ATOM     84  F   UNL A   1      40.671  37.201  38.189  1.00  0.00    -0.200 F 
ATOM     85  C   UNL A   1      39.274  35.605  39.226  1.00  0.00     0.200 A 
ATOM     86  F   UNL A   1      37.890  33.971  40.222  1.00  0.00    -0.200 F 
ATOM     87  F   UNL A   1      39.149  36.390  40.304  1.00  0.00    -0.200 F 
ENDBRANCH  53  77
BRANCH  65  88
ATOM     88  C   UNL A   1      43.893  28.787  35.217  1.00  0.00     0.064 A 
ATOM     89  C   UNL A   1      43.746  27.699  36.090  1.00  0.00     0.173 A 
ATOM     90  C   UNL A   1      45.189  29.278  34.995  1.00  0.00     0.173 A 
ATOM     91  F   UNL A   1      42.528  27.199  36.347  1.00  0.00    -0.203 F 
ATOM     92  C   UNL A   1      44.847  27.149  36.742  1.00  0.00     0.198 A 
ATOM     93  C   UNL A   1      46.291  28.703  35.620  1.00  0.00     0.198 A 
ATOM     94  F   UNL A   1      45.388  30.312  34.164  1.00  0.00    -0.203 F 
ATOM     95  F   UNL A   1      44.673  26.149  37.617  1.00  0.00    -0.200 F 
ATOM     96  C   UNL A   1      46.118  27.646  36.501  1.00  0.00     0.200 A 
ATOM     97  F   UNL A   1      47.521  29.175  35.373  1.00  0.00    -0.200 F 
ATOM     98  F   UNL A   1      47.177  27.113  37.126  1.00  0.00    -0.200 F 
ENDBRANCH  65  88
ENDBRANCH  39  40
ENDBRANCH  31  34
ENDBRANCH  29  30
ENDBRANCH  28  29
ENDBRANCH  27  28
ENDBRANCH  26  27
ENDBRANCH   3  26
TORSDOF 18
ENDMDL
MODEL 2
REMARK VINA RESULT:     -11.3      1.681      7.520
REMARK SMILES CC(C)(C)c1cc(NC(=O)CSC[C@H]([NH3+])C(=O)NCCCCNC(=O)c2ccc(-c3c4nc(c(-c5c(F)c(F)c(F)c(F)c5F)c5ccc([nH]5)c(-c5c(F)c(F)c(F)c(F)c5F)c5nc(c(-c6c(F)c(F)c(F)c(F)c6F)c6ccc3[nH]6)C=C5)C=C4)cc2)on1
REMARK SMILES IDX 16 1 17 2 18 3 14 5 13 6 12 7 11 8 9 9 8 10 10 12 7 13 5 14
REMARK SMILES IDX 6 15 90 16 89 17 2 18 1 19 3 20 4 21 15 22 19 26 20 27 21 28
REMARK SMILES IDX 22 29 23 30 24 31 25 33 26 34 27 35 88 36 28 37 87 38 29 39
REMARK SMILES IDX 30 40 31 41 81 42 32 43 86 44 80 45 82 46 33 47 85 48 79 49
REMARK SMILES IDX 78 50 34 52 66 53 46 54 65 55 47 56 50 57 64 58 83 59 48 60
REMARK SMILES IDX 49 61 63 63 84 64 51 65 35 66 36 67 44 68 37 69 38 70 42 71
REMARK SMILES IDX 45 72 39 73 40 74 43 75 41 76 67 77 68 78 76 79 69 80 70 81
REMARK SMILES IDX 74 82 77 83 71 84 72 85 75 86 73 87 52 88 53 89 61 90 54 91
REMARK SMILES IDX 55 92 59 93 62 94 56 95 57 96 60 97 58 98
REMARK H PARENT 18 4 8 11 15 23 15 24 15 25 23 32 82 51 50 62
REMARK Flexibility Score: inf
ROOT
ATOM      1  C   UNL A   1      32.931  28.813  23.626  1.00  0.00     0.279 C 
ATOM      2  O   UNL A   1      33.776  28.795  22.728  1.00  0.00    -0.268 OA
ATOM      3  N   UNL A   1      33.093  29.702  24.653  1.00  0.00    -0.351 N 
ATOM      4  H   UNL A   1      33.887  30.281  24.594  1.00  0.00     0.163 HD
ENDROOT
BRANCH   1   5
ATOM      5  C   UNL A   1      31.698  27.893  23.583  1.00  0.00     0.280 C 
BRANCH   5   6
ATOM      6  C   UNL A   1      32.104  26.477  24.041  1.00  0.00     0.145 C 
BRANCH   6   7
ATOM      7  S   UNL A   1      31.297  25.927  25.593  1.00  0.00    -0.145 SA
BRANCH   7   8
ATOM      8  C   UNL A   1      31.208  24.125  25.306  1.00  0.00     0.170 C 
BRANCH   8   9
ATOM      9  C   UNL A   1      31.155  23.350  26.610  1.00  0.00     0.236 C 
ATOM     10  N   UNL A   1      32.164  22.526  27.016  1.00  0.00    -0.294 N 
ATOM     11  H   UNL A   1      32.050  22.102  27.897  1.00  0.00     0.173 HD
ATOM     12  O   UNL A   1      30.191  23.499  27.370  1.00  0.00    -0.274 OA
BRANCH  10  13
ATOM     13  C   UNL A   1      33.315  22.221  26.341  1.00  0.00     0.231 A 
ATOM     14  C   UNL A   1      35.292  22.144  25.357  1.00  0.00     0.091 A 
ATOM     15  C   UNL A   1      34.494  22.916  26.244  1.00  0.00     0.097 A 
ATOM     16  N   UNL A   1      34.653  21.022  25.007  1.00  0.00    -0.082 NA
ATOM     17  O   UNL A   1      33.428  21.073  25.629  1.00  0.00    -0.338 OA
BRANCH  14  18
ATOM     18  C   UNL A   1      36.674  22.460  24.826  1.00  0.00     0.008 C 
ATOM     19  C   UNL A   1      36.661  22.760  23.310  1.00  0.00     0.018 C 
ATOM     20  C   UNL A   1      37.607  21.257  25.068  1.00  0.00     0.018 C 
ATOM     21  C   UNL A   1      37.245  23.697  25.547  1.00  0.00     0.018 C 
ENDBRANCH  14  18
ENDBRANCH  10  13
ENDBRANCH   8   9
ENDBRANCH   7   8
ENDBRANCH   6   7
ENDBRANCH   5   6
BRANCH   5  22
ATOM     22  N   UNL A   1      31.063  27.991  22.247  1.00  0.00    -0.347 N 
ATOM     23  H   UNL A   1      31.711  28.430  21.594  1.00  0.00     0.345 HD
ATOM     24  H   UNL A   1      30.215  28.555  22.315  1.00  0.00     0.345 HD
ATOM     25  H   UNL A   1      30.825  27.058  21.914  1.00  0.00     0.345 HD
ENDBRANCH   5  22
ENDBRANCH   1   5
BRANCH   3  26
ATOM     26  C   UNL A   1      32.254  29.907  25.824  1.00  0.00     0.116 C 
BRANCH  26  27
ATOM     27  C   UNL A   1      31.097  30.867  25.564  1.00  0.00     0.023 C 
BRANCH  27  28
ATOM     28  C   UNL A   1      31.101  32.118  26.437  1.00  0.00     0.023 C 
BRANCH  28  29
ATOM     29  C   UNL A   1      32.461  32.507  27.000  1.00  0.00     0.116 C 
BRANCH  29  30
ATOM     30  N   UNL A   1      32.500  33.867  27.513  1.00  0.00    -0.352 N 
ATOM     31  C   UNL A   1      33.378  34.430  28.406  1.00  0.00     0.251 C 
ATOM     32  H   UNL A   1      31.798  34.468  27.173  1.00  0.00     0.163 HD
ATOM     33  O   UNL A   1      33.190  35.568  28.829  1.00  0.00    -0.269 OA
BRANCH  31  34
ATOM     34  C   UNL A   1      34.534  33.647  28.889  1.00  0.00     0.039 A 
ATOM     35  C   UNL A   1      35.816  34.175  28.729  1.00  0.00     0.014 A 
ATOM     36  C   UNL A   1      34.354  32.414  29.522  1.00  0.00     0.014 A 
ATOM     37  C   UNL A   1      36.911  33.498  29.265  1.00  0.00     0.010 A 
ATOM     38  C   UNL A   1      35.435  31.785  30.131  1.00  0.00     0.010 A 
ATOM     39  C   UNL A   1      36.727  32.319  30.007  1.00  0.00    -0.014 A 
BRANCH  39  40
ATOM     40  C   UNL A   1      37.875  31.650  30.669  1.00  0.00     0.031 A 
ATOM     41  C   UNL A   1      38.279  32.032  32.065  1.00  0.00     0.074 A 
ATOM     42  C   UNL A   1      38.589  30.733  29.988  1.00  0.00     0.049 A 
ATOM     43  N   UNL A   1      39.259  31.568  32.799  1.00  0.00    -0.248 NA
ATOM     44  C   UNL A   1      37.499  33.097  32.713  1.00  0.00     0.031 C 
ATOM     45  C   UNL A   1      38.340  30.328  28.603  1.00  0.00     0.029 A 
ATOM     46  N   UNL A   1      39.673  29.981  30.364  1.00  0.00    -0.354 N 
ATOM     47  C   UNL A   1      39.220  32.291  33.984  1.00  0.00     0.074 A 
ATOM     48  C   UNL A   1      38.159  33.265  33.850  1.00  0.00     0.031 C 
ATOM     49  C   UNL A   1      39.225  29.382  28.256  1.00  0.00     0.029 A 
ATOM     50  C   UNL A   1      40.127  29.139  29.378  1.00  0.00     0.049 A 
ATOM     51  H   UNL A   1      40.087  30.039  31.256  1.00  0.00     0.167 HD
ATOM     52  C   UNL A   1      39.983  32.138  35.092  1.00  0.00     0.037 A 
ATOM     53  C   UNL A   1      41.157  28.271  29.377  1.00  0.00     0.037 A 
ATOM     54  C   UNL A   1      41.026  31.155  35.227  1.00  0.00     0.049 A 
ATOM     55  C   UNL A   1      41.982  28.112  30.624  1.00  0.00     0.074 A 
ATOM     56  C   UNL A   1      41.803  30.866  36.336  1.00  0.00     0.029 A 
ATOM     57  N   UNL A   1      41.448  30.306  34.213  1.00  0.00    -0.354 N 
ATOM     58  N   UNL A   1      41.875  28.733  31.774  1.00  0.00    -0.248 NA
ATOM     59  C   UNL A   1      43.066  27.123  30.576  1.00  0.00     0.031 C 
ATOM     60  C   UNL A   1      42.735  29.888  35.975  1.00  0.00     0.029 A 
ATOM     61  C   UNL A   1      42.497  29.518  34.661  1.00  0.00     0.049 A 
ATOM     62  H   UNL A   1      41.059  30.268  33.310  1.00  0.00     0.167 HD
ATOM     63  C   UNL A   1      42.860  28.198  32.591  1.00  0.00     0.074 A 
ATOM     64  C   UNL A   1      43.541  27.183  31.813  1.00  0.00     0.031 C 
ATOM     65  C   UNL A   1      43.174  28.519  33.872  1.00  0.00     0.037 A 
BRANCH  52  66
ATOM     66  C   UNL A   1      39.722  33.066  36.247  1.00  0.00     0.064 A 
ATOM     67  C   UNL A   1      38.798  32.751  37.256  1.00  0.00     0.173 A 
ATOM     68  C   UNL A   1      40.424  34.275  36.360  1.00  0.00     0.173 A 
ATOM     69  F   UNL A   1      38.091  31.611  37.194  1.00  0.00    -0.203 F 
ATOM     70  C   UNL A   1      38.559  33.628  38.310  1.00  0.00     0.198 A 
ATOM     71  C   UNL A   1      40.208  35.133  37.434  1.00  0.00     0.198 A 
ATOM     72  F   UNL A   1      41.325  34.624  35.429  1.00  0.00    -0.203 F 
ATOM     73  F   UNL A   1      37.627  33.333  39.227  1.00  0.00    -0.200 F 
ATOM     74  C   UNL A   1      39.269  34.815  38.403  1.00  0.00     0.200 A 
ATOM     75  F   UNL A   1      40.907  36.274  37.530  1.00  0.00    -0.200 F 
ATOM     76  F   UNL A   1      39.041  35.657  39.420  1.00  0.00    -0.200 F 
ENDBRANCH  52  66
BRANCH  53  77
ATOM     77  C   UNL A   1      41.442  27.469  28.158  1.00  0.00     0.064 A 
ATOM     78  C   UNL A   1      42.341  27.927  27.186  1.00  0.00     0.173 A 
ATOM     79  C   UNL A   1      40.832  26.223  27.948  1.00  0.00     0.173 A 
ATOM     80  F   UNL A   1      42.935  29.121  27.331  1.00  0.00    -0.203 F 
ATOM     81  C   UNL A   1      42.606  27.177  26.041  1.00  0.00     0.198 A 
ATOM     82  C   UNL A   1      41.121  25.462  26.819  1.00  0.00     0.198 A 
ATOM     83  F   UNL A   1      39.968  25.737  28.852  1.00  0.00    -0.203 F 
ATOM     84  F   UNL A   1      43.437  27.659  25.107  1.00  0.00    -0.200 F 
ATOM     85  C   UNL A   1      42.003  25.943  25.862  1.00  0.00     0.200 A 
ATOM     86  F   UNL A   1      40.549  24.261  26.658  1.00  0.00    -0.200 F 
ATOM     87  F   UNL A   1      42.266  25.218  24.766  1.00  0.00    -0.200 F 
ENDBRANCH  53  77
BRANCH  65  88
ATOM     88  C   UNL A   1      44.292  27.748  34.517  1.00  0.00     0.064 A 
ATOM     89  C   UNL A   1      44.066  26.526  35.169  1.00  0.00     0.173 A 
ATOM     90  C   UNL A   1      45.610  28.227  34.460  1.00  0.00     0.173 A 
ATOM     91  F   UNL A   1      42.823  26.030  35.263  1.00  0.00    -0.203 F 
ATOM     92  C   UNL A   1      45.112  25.832  35.772  1.00  0.00     0.198 A 
ATOM     93  C   UNL A   1      46.658  27.511  35.033  1.00  0.00     0.198 A 
ATOM     94  F   UNL A   1      45.884  29.384  33.842  1.00  0.00    -0.203 F 
ATOM     95  F   UNL A   1      44.862  24.697  36.440  1.00  0.00    -0.200 F 
ATOM     96  C   UNL A   1      46.407  26.320  35.697  1.00  0.00     0.200 A 
ATOM     97  F   UNL A   1      47.912  27.978  34.945  1.00  0.00    -0.200 F 
ATOM     98  F   UNL A   1      47.413  25.649  36.274  1.00  0.00    -0.200 F 
ENDBRANCH  65  88
ENDBRANCH  39  40
ENDBRANCH  31  34
ENDBRANCH  29  30
ENDBRANCH  28  29
ENDBRANCH  27  28
ENDBRANCH  26  27
ENDBRANCH   3  26
TORSDOF 18
ENDMDL
MODEL 3
REMARK VINA RESULT:     -11.0      5.473     11.136
REMARK SMILES CC(C)(C)c1cc(NC(=O)CSC[C@H]([NH3+])C(=O)NCCCCNC(=O)c2ccc(-c3c4nc(c(-c5c(F)c(F)c(F)c(F)c5F)c5ccc([nH]5)c(-c5c(F)c(F)c(F)c(F)c5F)c5nc(c(-c6c(F)c(F)c(F)c(F)c6F)c6ccc3[nH]6)C=C5)C=C4)cc2)on1
REMARK SMILES IDX 16 1 17 2 18 3 14 5 13 6 12 7 11 8 9 9 8 10 10 12 7 13 5 14
REMARK SMILES IDX 6 15 90 16 89 17 2 18 1 19 3 20 4 21 15 22 19 26 20 27 21 28
REMARK SMILES IDX 22 29 23 30 24 31 25 33 26 34 27 35 88 36 28 37 87 38 29 39
REMARK SMILES IDX 30 40 31 41 81 42 32 43 86 44 80 45 82 46 33 47 85 48 79 49
REMARK SMILES IDX 78 50 34 52 66 53 46 54 65 55 47 56 50 57 64 58 83 59 48 60
REMARK SMILES IDX 49 61 63 63 84 64 51 65 35 66 36 67 44 68 37 69 38 70 42 71
REMARK SMILES IDX 45 72 39 73 40 74 43 75 41 76 67 77 68 78 76 79 69 80 70 81
REMARK SMILES IDX 74 82 77 83 71 84 72 85 75 86 73 87 52 88 53 89 61 90 54 91
REMARK SMILES IDX 55 92 59 93 62 94 56 95 57 96 60 97 58 98
REMARK H PARENT 18 4 8 11 15 23 15 24 15 25 23 32 82 51 50 62
REMARK Flexibility Score: inf
ROOT
ATOM      1  C   UNL A   1      33.726  21.777  26.655  1.00  0.00     0.279 C 
ATOM      2  O   UNL A   1      33.509  22.117  27.820  1.00  0.00    -0.268 OA
ATOM      3  N   UNL A   1      34.883  21.101  26.379  1.00  0.00    -0.351 N 
ATOM      4  H   UNL A   1      35.467  20.923  27.152  1.00  0.00     0.163 HD
ENDROOT
BRANCH   1   5
ATOM      5  C   UNL A   1      32.709  22.063  25.536  1.00  0.00     0.280 C 
BRANCH   5   6
ATOM      6  C   UNL A   1      32.984  23.461  24.944  1.00  0.00     0.145 C 
BRANCH   6   7
ATOM      7  S   UNL A   1      32.282  23.723  23.271  1.00  0.00    -0.145 SA
BRANCH   7   8
ATOM      8  C   UNL A   1      33.617  24.699  22.495  1.00  0.00     0.170 C 
BRANCH   8   9
ATOM      9  C   UNL A   1      33.065  25.804  21.612  1.00  0.00     0.236 C 
ATOM     10  N   UNL A   1      32.787  27.052  22.086  1.00  0.00    -0.294 N 
ATOM     11  H   UNL A   1      32.472  27.709  21.423  1.00  0.00     0.173 HD
ATOM     12  O   UNL A   1      32.906  25.597  20.403  1.00  0.00    -0.274 OA
BRANCH  10  13
ATOM     13  C   UNL A   1      32.893  27.499  23.376  1.00  0.00     0.231 A 
ATOM     14  C   UNL A   1      32.722  28.481  25.348  1.00  0.00     0.091 A 
ATOM     15  C   UNL A   1      32.061  28.312  24.101  1.00  0.00     0.097 A 
ATOM     16  N   UNL A   1      33.843  27.751  25.386  1.00  0.00    -0.082 NA
ATOM     17  O   UNL A   1      33.938  27.137  24.159  1.00  0.00    -0.338 OA
BRANCH  14  18
ATOM     18  C   UNL A   1      32.302  29.338  26.523  1.00  0.00     0.008 C 
ATOM     19  C   UNL A   1      31.437  30.542  26.087  1.00  0.00     0.018 C 
ATOM     20  C   UNL A   1      33.554  29.881  27.238  1.00  0.00     0.018 C 
ATOM     21  C   UNL A   1      31.475  28.498  27.517  1.00  0.00     0.018 C 
ENDBRANCH  14  18
ENDBRANCH  10  13
ENDBRANCH   8   9
ENDBRANCH   7   8
ENDBRANCH   6   7
ENDBRANCH   5   6
BRANCH   5  22
ATOM     22  N   UNL A   1      31.339  21.829  26.050  1.00  0.00    -0.347 N 
ATOM     23  H   UNL A   1      30.665  21.968  25.298  1.00  0.00     0.345 HD
ATOM     24  H   UNL A   1      31.144  22.486  26.807  1.00  0.00     0.345 HD
ATOM     25  H   UNL A   1      31.266  20.875  26.401  1.00  0.00     0.345 HD
ENDBRANCH   5  22
ENDBRANCH   1   5
BRANCH   3  26
ATOM     26  C   UNL A   1      35.370  20.608  25.100  1.00  0.00     0.116 C 
BRANCH  26  27
ATOM     27  C   UNL A   1      36.809  21.022  24.813  1.00  0.00     0.023 C 
BRANCH  27  28
ATOM     28  C   UNL A   1      37.836  19.905  24.978  1.00  0.00     0.023 C 
BRANCH  28  29
ATOM     29  C   UNL A   1      39.084  20.288  25.761  1.00  0.00     0.116 C 
BRANCH  29  30
ATOM     30  N   UNL A   1      40.040  19.198  25.883  1.00  0.00    -0.352 N 
ATOM     31  C   UNL A   1      41.390  19.253  26.124  1.00  0.00     0.251 C 
ATOM     32  H   UNL A   1      39.665  18.293  25.778  1.00  0.00     0.163 HD
ATOM     33  O   UNL A   1      42.073  18.234  26.072  1.00  0.00    -0.269 OA
BRANCH  31  34
ATOM     34  C   UNL A   1      42.029  20.554  26.408  1.00  0.00     0.039 A 
ATOM     35  C   UNL A   1      42.446  21.345  25.335  1.00  0.00     0.014 A 
ATOM     36  C   UNL A   1      42.190  21.007  27.720  1.00  0.00     0.014 A 
ATOM     37  C   UNL A   1      42.961  22.619  25.578  1.00  0.00     0.010 A 
ATOM     38  C   UNL A   1      42.622  22.308  27.955  1.00  0.00     0.010 A 
ATOM     39  C   UNL A   1      43.016  23.128  26.886  1.00  0.00    -0.014 A 
BRANCH  39  40
ATOM     40  C   UNL A   1      43.464  24.519  27.142  1.00  0.00     0.031 A 
ATOM     41  C   UNL A   1      42.497  25.553  27.646  1.00  0.00     0.074 A 
ATOM     42  C   UNL A   1      44.737  24.865  26.867  1.00  0.00     0.049 A 
ATOM     43  N   UNL A   1      42.702  26.818  27.914  1.00  0.00    -0.248 NA
ATOM     44  C   UNL A   1      41.106  25.117  27.847  1.00  0.00     0.031 C 
ATOM     45  C   UNL A   1      45.752  23.971  26.308  1.00  0.00     0.029 A 
ATOM     46  N   UNL A   1      45.392  26.062  27.013  1.00  0.00    -0.354 N 
ATOM     47  C   UNL A   1      41.470  27.328  28.302  1.00  0.00     0.074 A 
ATOM     48  C   UNL A   1      40.510  26.253  28.177  1.00  0.00     0.031 C 
ATOM     49  C   UNL A   1      46.908  24.641  26.186  1.00  0.00     0.029 A 
ATOM     50  C   UNL A   1      46.708  26.020  26.622  1.00  0.00     0.049 A 
ATOM     51  H   UNL A   1      44.960  26.874  27.365  1.00  0.00     0.167 HD
ATOM     52  C   UNL A   1      41.172  28.572  28.745  1.00  0.00     0.037 A 
ATOM     53  C   UNL A   1      47.647  26.985  26.613  1.00  0.00     0.037 A 
ATOM     54  C   UNL A   1      42.135  29.633  28.885  1.00  0.00     0.049 A 
ATOM     55  C   UNL A   1      47.294  28.356  27.120  1.00  0.00     0.074 A 
ATOM     56  C   UNL A   1      41.951  30.905  29.400  1.00  0.00     0.029 A 
ATOM     57  N   UNL A   1      43.465  29.550  28.495  1.00  0.00    -0.354 N 
ATOM     58  N   UNL A   1      46.149  28.801  27.577  1.00  0.00    -0.248 NA
ATOM     59  C   UNL A   1      48.370  29.356  27.123  1.00  0.00     0.031 C 
ATOM     60  C   UNL A   1      43.151  31.610  29.263  1.00  0.00     0.029 A 
ATOM     61  C   UNL A   1      44.103  30.759  28.726  1.00  0.00     0.049 A 
ATOM     62  H   UNL A   1      43.892  28.751  28.112  1.00  0.00     0.167 HD
ATOM     63  C   UNL A   1      46.368  30.123  27.938  1.00  0.00     0.074 A 
ATOM     64  C   UNL A   1      47.765  30.401  27.671  1.00  0.00     0.031 C 
ATOM     65  C   UNL A   1      45.491  31.026  28.445  1.00  0.00     0.037 A 
BRANCH  52  66
ATOM     66  C   UNL A   1      39.739  28.856  29.104  1.00  0.00     0.064 A 
ATOM     67  C   UNL A   1      39.236  28.613  30.392  1.00  0.00     0.173 A 
ATOM     68  C   UNL A   1      38.864  29.401  28.155  1.00  0.00     0.173 A 
ATOM     69  F   UNL A   1      40.028  28.083  31.339  1.00  0.00    -0.203 F 
ATOM     70  C   UNL A   1      37.904  28.869  30.703  1.00  0.00     0.198 A 
ATOM     71  C   UNL A   1      37.540  29.689  28.479  1.00  0.00     0.198 A 
ATOM     72  F   UNL A   1      39.291  29.661  26.909  1.00  0.00    -0.203 F 
ATOM     73  F   UNL A   1      37.432  28.571  31.922  1.00  0.00    -0.200 F 
ATOM     74  C   UNL A   1      37.058  29.413  29.749  1.00  0.00     0.200 A 
ATOM     75  F   UNL A   1      36.728  30.230  27.559  1.00  0.00    -0.200 F 
ATOM     76  F   UNL A   1      35.776  29.663  30.050  1.00  0.00    -0.200 F 
ENDBRANCH  52  66
BRANCH  53  77
ATOM     77  C   UNL A   1      49.018  26.674  26.128  1.00  0.00     0.064 A 
ATOM     78  C   UNL A   1      49.973  26.103  26.978  1.00  0.00     0.173 A 
ATOM     79  C   UNL A   1      49.394  26.930  24.800  1.00  0.00     0.173 A 
ATOM     80  F   UNL A   1      49.667  25.859  28.262  1.00  0.00    -0.203 F 
ATOM     81  C   UNL A   1      51.259  25.814  26.526  1.00  0.00     0.198 A 
ATOM     82  C   UNL A   1      50.670  26.612  24.342  1.00  0.00     0.198 A 
ATOM     83  F   UNL A   1      48.515  27.470  23.944  1.00  0.00    -0.203 F 
ATOM     84  F   UNL A   1      52.166  25.308  27.372  1.00  0.00    -0.200 F 
ATOM     85  C   UNL A   1      51.604  26.061  25.207  1.00  0.00     0.200 A 
ATOM     86  F   UNL A   1      50.994  26.836  23.061  1.00  0.00    -0.200 F 
ATOM     87  F   UNL A   1      52.838  25.774  24.769  1.00  0.00    -0.200 F 
ENDBRANCH  53  77
BRANCH  65  88
ATOM     88  C   UNL A   1      46.025  32.395  28.762  1.00  0.00     0.064 A 
ATOM     89  C   UNL A   1      46.587  32.697  30.012  1.00  0.00     0.173 A 
ATOM     90  C   UNL A   1      45.996  33.411  27.794  1.00  0.00     0.173 A 
ATOM     91  F   UNL A   1      46.628  31.766  30.977  1.00  0.00    -0.203 F 
ATOM     92  C   UNL A   1      47.066  33.975  30.293  1.00  0.00     0.198 A 
ATOM     93  C   UNL A   1      46.508  34.677  28.067  1.00  0.00     0.198 A 
ATOM     94  F   UNL A   1      45.478  33.176  26.581  1.00  0.00    -0.203 F 
ATOM     95  F   UNL A   1      47.542  34.255  31.514  1.00  0.00    -0.200 F 
ATOM     96  C   UNL A   1      47.033  34.960  29.319  1.00  0.00     0.200 A 
ATOM     97  F   UNL A   1      46.490  35.623  27.118  1.00  0.00    -0.200 F 
ATOM     98  F   UNL A   1      47.497  36.187  29.590  1.00  0.00    -0.200 F 
ENDBRANCH  65  88
ENDBRANCH  39  40
ENDBRANCH  31  34
ENDBRANCH  29  30
ENDBRANCH  28  29
ENDBRANCH  27  28
ENDBRANCH  26  27
ENDBRANCH   3  26
TORSDOF 18
ENDMDL
