MODEL 1
REMARK VINA RESULT:     -12.7      0.000      0.000
REMARK SMILES CC(=O)NCCc1c[nH]c2ccc(C(=O)NCCCCNC(=O)c3ccc(-c4c5nc(c(-c6c(F)c(F)c(F)c(F)c6F)c6ccc([nH]6)c(-c6c(F)c(F)c(F)c(F)c6F)c6nc(c(-c7c(F)c(F)c(F)c(F)c7F)c7ccc4[nH]7)C=C6)C=C5)cc3)cc12
REMARK SMILES IDX 18 1 17 2 16 3 14 4 15 5 13 7 7 8 8 9 88 10 9 11 10 12 87 13
REMARK SMILES IDX 11 15 12 16 6 17 5 18 4 19 1 20 2 21 3 22 19 24 20 25 21 26
REMARK SMILES IDX 22 27 23 29 24 30 25 31 86 32 26 33 85 34 27 35 28 36 29 37
REMARK SMILES IDX 79 38 30 39 84 40 78 41 80 42 31 43 83 44 77 45 76 46 32 48
REMARK SMILES IDX 64 49 44 50 63 51 45 52 48 53 62 54 81 55 46 56 47 57 61 59
REMARK SMILES IDX 82 60 49 61 33 62 34 63 42 64 35 65 36 66 40 67 43 68 37 69
REMARK SMILES IDX 38 70 41 71 39 72 65 73 66 74 74 75 67 76 68 77 72 78 75 79
REMARK SMILES IDX 69 80 70 81 73 82 71 83 50 84 51 85 59 86 52 87 53 88 57 89
REMARK SMILES IDX 60 90 54 91 55 92 58 93 56 94
REMARK H PARENT 16 6 9 14 4 23 21 28 80 47 48 58
REMARK Flexibility Score: inf
ROOT
ATOM      1  C   UNL A   1      31.683  30.588  26.078  1.00  0.00     0.023 C 
ENDROOT
BRANCH   1   2
ATOM      2  C   UNL A   1      33.012  29.963  26.508  1.00  0.00     0.116 C 
BRANCH   2   3
ATOM      3  N   UNL A   1      33.616  29.281  25.386  1.00  0.00    -0.352 N 
ATOM      4  C   UNL A   1      33.467  28.020  24.873  1.00  0.00     0.251 C 
ATOM      5  O   UNL A   1      34.242  27.704  23.968  1.00  0.00    -0.269 OA
ATOM      6  H   UNL A   1      34.264  29.834  24.891  1.00  0.00     0.163 HD
BRANCH   4   7
ATOM      7  C   UNL A   1      32.415  27.047  25.301  1.00  0.00     0.040 A 
ATOM      8  C   UNL A   1      32.172  23.523  26.815  1.00  0.00    -0.021 A 
ATOM      9  C   UNL A   1      30.907  22.982  26.948  1.00  0.00     0.087 A 
ATOM     10  C   UNL A   1      32.004  24.819  26.231  1.00  0.00     0.003 A 
ATOM     11  N   UNL A   1      29.996  23.897  26.493  1.00  0.00    -0.361 N 
ATOM     12  C   UNL A   1      30.639  25.038  26.075  1.00  0.00     0.046 A 
ATOM     13  C   UNL A   1      32.895  25.835  25.830  1.00  0.00     0.024 A 
ATOM     14  H   UNL A   1      29.021  23.757  26.468  1.00  0.00     0.166 HD
ATOM     15  C   UNL A   1      30.121  26.243  25.593  1.00  0.00     0.027 A 
ATOM     16  C   UNL A   1      31.035  27.249  25.239  1.00  0.00     0.016 A 
BRANCH   8  17
ATOM     17  C   UNL A   1      33.466  22.890  27.233  1.00  0.00     0.059 C 
BRANCH  17  18
ATOM     18  C   UNL A   1      34.022  21.897  26.207  1.00  0.00     0.120 C 
BRANCH  18  19
ATOM     19  N   UNL A   1      33.490  20.554  26.375  1.00  0.00    -0.356 N 
ATOM     20  C   UNL A   1      32.588  20.326  24.095  1.00  0.00     0.114 C 
ATOM     21  C   UNL A   1      32.823  19.778  25.474  1.00  0.00     0.216 C 
ATOM     22  O   UNL A   1      32.447  18.654  25.799  1.00  0.00    -0.275 OA
ATOM     23  H   UNL A   1      33.632  20.149  27.260  1.00  0.00     0.163 HD
ENDBRANCH  18  19
ENDBRANCH  17  18
ENDBRANCH   8  17
ENDBRANCH   4   7
ENDBRANCH   2   3
ENDBRANCH   1   2
BRANCH   1  24
ATOM     24  C   UNL A   1      31.393  31.941  26.739  1.00  0.00     0.023 C 
BRANCH  24  25
ATOM     25  C   UNL A   1      32.626  32.687  27.243  1.00  0.00     0.116 C 
BRANCH  25  26
ATOM     26  N   UNL A   1      32.345  34.060  27.631  1.00  0.00    -0.352 N 
ATOM     27  C   UNL A   1      32.986  34.847  28.557  1.00  0.00     0.251 C 
ATOM     28  H   UNL A   1      31.590  34.485  27.165  1.00  0.00     0.163 HD
ATOM     29  O   UNL A   1      32.543  35.953  28.836  1.00  0.00    -0.269 OA
BRANCH  27  30
ATOM     30  C   UNL A   1      34.186  34.331  29.246  1.00  0.00     0.039 A 
ATOM     31  C   UNL A   1      34.008  33.555  30.393  1.00  0.00     0.014 A 
ATOM     32  C   UNL A   1      35.470  34.594  28.762  1.00  0.00     0.014 A 
ATOM     33  C   UNL A   1      35.117  32.986  31.018  1.00  0.00     0.010 A 
ATOM     34  C   UNL A   1      36.569  33.970  29.345  1.00  0.00     0.010 A 
ATOM     35  C   UNL A   1      36.402  33.158  30.476  1.00  0.00    -0.014 A 
BRANCH  35  36
ATOM     36  C   UNL A   1      37.567  32.462  31.074  1.00  0.00     0.031 A 
ATOM     37  C   UNL A   1      38.063  32.829  32.443  1.00  0.00     0.074 A 
ATOM     38  C   UNL A   1      38.202  31.514  30.356  1.00  0.00     0.049 A 
ATOM     39  N   UNL A   1      39.046  32.308  33.133  1.00  0.00    -0.248 NA
ATOM     40  C   UNL A   1      37.385  33.946  33.116  1.00  0.00     0.031 C 
ATOM     41  C   UNL A   1      37.858  31.122  28.987  1.00  0.00     0.029 A 
ATOM     42  N   UNL A   1      39.265  30.708  30.675  1.00  0.00    -0.354 N 
ATOM     43  C   UNL A   1      39.105  33.033  34.316  1.00  0.00     0.074 A 
ATOM     44  C   UNL A   1      38.099  34.069  34.225  1.00  0.00     0.031 C 
ATOM     45  C   UNL A   1      38.668  30.126  28.599  1.00  0.00     0.029 A 
ATOM     46  C   UNL A   1      39.605  29.828  29.678  1.00  0.00     0.049 A 
ATOM     47  H   UNL A   1      39.737  30.756  31.537  1.00  0.00     0.167 HD
ATOM     48  C   UNL A   1      39.906  32.834  35.389  1.00  0.00     0.037 A 
ATOM     49  C   UNL A   1      40.559  28.880  29.642  1.00  0.00     0.037 A 
ATOM     50  C   UNL A   1      40.897  31.792  35.478  1.00  0.00     0.049 A 
ATOM     51  C   UNL A   1      41.421  28.666  30.857  1.00  0.00     0.074 A 
ATOM     52  C   UNL A   1      41.720  31.470  36.542  1.00  0.00     0.029 A 
ATOM     53  N   UNL A   1      41.202  30.904  34.456  1.00  0.00    -0.354 N 
ATOM     54  N   UNL A   1      41.407  29.299  32.004  1.00  0.00    -0.248 NA
ATOM     55  C   UNL A   1      42.420  27.592  30.775  1.00  0.00     0.031 C 
ATOM     56  C   UNL A   1      42.555  30.418  36.148  1.00  0.00     0.029 A 
ATOM     57  C   UNL A   1      42.214  30.047  34.859  1.00  0.00     0.049 A 
ATOM     58  H   UNL A   1      40.764  30.886  33.574  1.00  0.00     0.167 HD
ATOM     59  C   UNL A   1      42.375  28.687  32.789  1.00  0.00     0.074 A 
ATOM     60  C   UNL A   1      42.937  27.615  31.993  1.00  0.00     0.031 C 
ATOM     61  C   UNL A   1      42.766  28.987  34.053  1.00  0.00     0.037 A 
BRANCH  48  62
ATOM     62  C   UNL A   1      39.739  33.761  36.560  1.00  0.00     0.064 A 
ATOM     63  C   UNL A   1      40.372  35.013  36.601  1.00  0.00     0.173 A 
ATOM     64  C   UNL A   1      38.910  33.410  37.636  1.00  0.00     0.173 A 
ATOM     65  F   UNL A   1      41.184  35.392  35.605  1.00  0.00    -0.203 F 
ATOM     66  C   UNL A   1      40.204  35.866  37.690  1.00  0.00     0.198 A 
ATOM     67  C   UNL A   1      38.720  34.279  38.708  1.00  0.00     0.198 A 
ATOM     68  F   UNL A   1      38.276  32.228  37.646  1.00  0.00    -0.203 F 
ATOM     69  F   UNL A   1      40.860  37.035  37.730  1.00  0.00    -0.200 F 
ATOM     70  C   UNL A   1      39.374  35.502  38.738  1.00  0.00     0.200 A 
ATOM     71  F   UNL A   1      37.905  33.932  39.714  1.00  0.00    -0.200 F 
ATOM     72  F   UNL A   1      39.207  36.327  39.781  1.00  0.00    -0.200 F 
ENDBRANCH  48  62
BRANCH  49  73
ATOM     73  C   UNL A   1      40.720  28.032  28.433  1.00  0.00     0.064 A 
ATOM     74  C   UNL A   1      41.527  28.447  27.364  1.00  0.00     0.173 A 
ATOM     75  C   UNL A   1      40.072  26.793  28.318  1.00  0.00     0.173 A 
ATOM     76  F   UNL A   1      42.154  29.632  27.420  1.00  0.00    -0.203 F 
ATOM     77  C   UNL A   1      41.660  27.669  26.217  1.00  0.00     0.198 A 
ATOM     78  C   UNL A   1      40.229  26.002  27.182  1.00  0.00     0.198 A 
ATOM     79  F   UNL A   1      39.296  26.347  29.316  1.00  0.00    -0.203 F 
ATOM     80  F   UNL A   1      42.397  28.113  25.190  1.00  0.00    -0.200 F 
ATOM     81  C   UNL A   1      41.015  26.444  26.128  1.00  0.00     0.200 A 
ATOM     82  F   UNL A   1      39.618  24.812  27.108  1.00  0.00    -0.200 F 
ATOM     83  F   UNL A   1      41.145  25.694  25.026  1.00  0.00    -0.200 F 
ENDBRANCH  49  73
BRANCH  61  84
ATOM     84  C   UNL A   1      43.832  28.120  34.657  1.00  0.00     0.064 A 
ATOM     85  C   UNL A   1      45.194  28.440  34.546  1.00  0.00     0.173 A 
ATOM     86  C   UNL A   1      43.488  26.955  35.360  1.00  0.00     0.173 A 
ATOM     87  F   UNL A   1      45.578  29.534  33.872  1.00  0.00    -0.203 F 
ATOM     88  C   UNL A   1      46.172  27.602  35.077  1.00  0.00     0.198 A 
ATOM     89  C   UNL A   1      44.466  26.139  35.920  1.00  0.00     0.198 A 
ATOM     90  F   UNL A   1      42.200  26.607  35.504  1.00  0.00    -0.203 F 
ATOM     91  F   UNL A   1      47.469  27.893  34.898  1.00  0.00    -0.200 F 
ATOM     92  C   UNL A   1      45.808  26.457  35.767  1.00  0.00     0.200 A 
ATOM     93  F   UNL A   1      44.113  25.039  36.598  1.00  0.00    -0.200 F 
ATOM     94  F   UNL A   1      46.750  25.650  36.274  1.00  0.00    -0.200 F 
ENDBRANCH  61  84
ENDBRANCH  35  36
ENDBRANCH  27  30
ENDBRANCH  25  26
ENDBRANCH  24  25
ENDBRANCH   1  24
TORSDOF 14
ENDMDL
MODEL 2
REMARK VINA RESULT:     -12.6      0.631      7.467
REMARK SMILES CC(=O)NCCc1c[nH]c2ccc(C(=O)NCCCCNC(=O)c3ccc(-c4c5nc(c(-c6c(F)c(F)c(F)c(F)c6F)c6ccc([nH]6)c(-c6c(F)c(F)c(F)c(F)c6F)c6nc(c(-c7c(F)c(F)c(F)c(F)c7F)c7ccc4[nH]7)C=C6)C=C5)cc3)cc12
REMARK SMILES IDX 18 1 17 2 16 3 14 4 15 5 13 7 7 8 8 9 88 10 9 11 10 12 87 13
REMARK SMILES IDX 11 15 12 16 6 17 5 18 4 19 1 20 2 21 3 22 19 24 20 25 21 26
REMARK SMILES IDX 22 27 23 29 24 30 25 31 86 32 26 33 85 34 27 35 28 36 29 37
REMARK SMILES IDX 79 38 30 39 84 40 78 41 80 42 31 43 83 44 77 45 76 46 32 48
REMARK SMILES IDX 64 49 44 50 63 51 45 52 48 53 62 54 81 55 46 56 47 57 61 59
REMARK SMILES IDX 82 60 49 61 33 62 34 63 42 64 35 65 36 66 40 67 43 68 37 69
REMARK SMILES IDX 38 70 41 71 39 72 65 73 66 74 74 75 67 76 68 77 72 78 75 79
REMARK SMILES IDX 69 80 70 81 73 82 71 83 50 84 51 85 59 86 52 87 53 88 57 89
REMARK SMILES IDX 60 90 54 91 55 92 58 93 56 94
REMARK H PARENT 16 6 9 14 4 23 21 28 80 47 48 58
REMARK Flexibility Score: inf
ROOT
ATOM      1  C   UNL A   1      31.704  30.713  26.146  1.00  0.00     0.023 C 
ENDROOT
BRANCH   1   2
ATOM      2  C   UNL A   1      33.046  30.087  26.531  1.00  0.00     0.116 C 
BRANCH   2   3
ATOM      3  N   UNL A   1      33.633  29.443  25.379  1.00  0.00    -0.352 N 
ATOM      4  C   UNL A   1      33.510  28.185  24.851  1.00  0.00     0.251 C 
ATOM      5  O   UNL A   1      34.263  27.910  23.915  1.00  0.00    -0.269 OA
ATOM      6  H   UNL A   1      34.245  30.025  24.871  1.00  0.00     0.163 HD
BRANCH   4   7
ATOM      7  C   UNL A   1      32.506  27.172  25.297  1.00  0.00     0.040 A 
ATOM      8  C   UNL A   1      32.431  23.598  26.711  1.00  0.00    -0.021 A 
ATOM      9  C   UNL A   1      31.189  23.018  26.888  1.00  0.00     0.087 A 
ATOM     10  C   UNL A   1      32.200  24.906  26.176  1.00  0.00     0.003 A 
ATOM     11  N   UNL A   1      30.232  23.920  26.505  1.00  0.00    -0.361 N 
ATOM     12  C   UNL A   1      30.823  25.091  26.093  1.00  0.00     0.046 A 
ATOM     13  C   UNL A   1      33.043  25.958  25.765  1.00  0.00     0.024 A 
ATOM     14  H   UNL A   1      29.262  23.754  26.523  1.00  0.00     0.166 HD
ATOM     15  C   UNL A   1      30.251  26.295  25.674  1.00  0.00     0.027 A 
ATOM     16  C   UNL A   1      31.120  27.337  25.308  1.00  0.00     0.016 A 
BRANCH   8  17
ATOM     17  C   UNL A   1      33.761  22.990  27.046  1.00  0.00     0.059 C 
BRANCH  17  18
ATOM     18  C   UNL A   1      34.257  21.988  25.999  1.00  0.00     0.120 C 
BRANCH  18  19
ATOM     19  N   UNL A   1      33.709  20.655  26.186  1.00  0.00    -0.356 N 
ATOM     20  C   UNL A   1      32.428  20.583  24.084  1.00  0.00     0.114 C 
ATOM     21  C   UNL A   1      32.870  19.950  25.375  1.00  0.00     0.216 C 
ATOM     22  O   UNL A   1      32.510  18.822  25.701  1.00  0.00    -0.275 OA
ATOM     23  H   UNL A   1      33.981  20.196  27.013  1.00  0.00     0.163 HD
ENDBRANCH  18  19
ENDBRANCH  17  18
ENDBRANCH   8  17
ENDBRANCH   4   7
ENDBRANCH   2   3
ENDBRANCH   1   2
BRANCH   1  24
ATOM     24  C   UNL A   1      31.427  32.056  26.832  1.00  0.00     0.023 C 
BRANCH  24  25
ATOM     25  C   UNL A   1      32.673  32.820  27.273  1.00  0.00     0.116 C 
BRANCH  25  26
ATOM     26  N   UNL A   1      32.401  34.205  27.622  1.00  0.00    -0.352 N 
ATOM     27  C   UNL A   1      33.012  34.999  28.563  1.00  0.00     0.251 C 
ATOM     28  H   UNL A   1      31.677  34.636  27.112  1.00  0.00     0.163 HD
ATOM     29  O   UNL A   1      32.578  36.118  28.800  1.00  0.00    -0.269 OA
BRANCH  27  30
ATOM     30  C   UNL A   1      34.167  34.474  29.319  1.00  0.00     0.039 A 
ATOM     31  C   UNL A   1      33.929  33.866  30.553  1.00  0.00     0.014 A 
ATOM     32  C   UNL A   1      35.467  34.565  28.813  1.00  0.00     0.014 A 
ATOM     33  C   UNL A   1      34.990  33.290  31.251  1.00  0.00     0.010 A 
ATOM     34  C   UNL A   1      36.511  33.929  29.477  1.00  0.00     0.010 A 
ATOM     35  C   UNL A   1      36.282  33.283  30.700  1.00  0.00    -0.014 A 
BRANCH  35  36
ATOM     36  C   UNL A   1      37.387  32.571  31.388  1.00  0.00     0.031 A 
ATOM     37  C   UNL A   1      38.098  31.430  30.722  1.00  0.00     0.074 A 
ATOM     38  C   UNL A   1      37.722  32.940  32.640  1.00  0.00     0.049 A 
ATOM     39  N   UNL A   1      39.103  30.713  31.160  1.00  0.00    -0.248 NA
ATOM     40  C   UNL A   1      37.601  31.019  29.401  1.00  0.00     0.031 C 
ATOM     41  C   UNL A   1      37.054  33.987  33.418  1.00  0.00     0.029 A 
ATOM     42  N   UNL A   1      38.707  32.481  33.477  1.00  0.00    -0.354 N 
ATOM     43  C   UNL A   1      39.355  29.769  30.174  1.00  0.00     0.074 A 
ATOM     44  C   UNL A   1      38.360  29.964  29.141  1.00  0.00     0.031 C 
ATOM     45  C   UNL A   1      37.673  34.115  34.603  1.00  0.00     0.029 A 
ATOM     46  C   UNL A   1      38.759  33.144  34.678  1.00  0.00     0.049 A 
ATOM     47  H   UNL A   1      39.318  31.747  33.239  1.00  0.00     0.167 HD
ATOM     48  C   UNL A   1      40.342  28.844  30.123  1.00  0.00     0.037 A 
ATOM     49  C   UNL A   1      39.597  32.992  35.720  1.00  0.00     0.037 A 
ATOM     50  C   UNL A   1      41.337  28.663  31.149  1.00  0.00     0.049 A 
ATOM     51  C   UNL A   1      40.698  31.970  35.628  1.00  0.00     0.074 A 
ATOM     52  C   UNL A   1      42.413  27.794  31.167  1.00  0.00     0.029 A 
ATOM     53  N   UNL A   1      41.373  29.367  32.344  1.00  0.00    -0.354 N 
ATOM     54  N   UNL A   1      40.982  31.144  34.651  1.00  0.00    -0.248 NA
ATOM     55  C   UNL A   1      41.606  31.875  36.778  1.00  0.00     0.031 C 
ATOM     56  C   UNL A   1      43.072  27.938  32.393  1.00  0.00     0.029 A 
ATOM     57  C   UNL A   1      42.441  28.936  33.116  1.00  0.00     0.049 A 
ATOM     58  H   UNL A   1      40.733  30.069  32.607  1.00  0.00     0.167 HD
ATOM     59  C   UNL A   1      42.112  30.449  35.056  1.00  0.00     0.074 A 
ATOM     60  C   UNL A   1      42.477  30.970  36.358  1.00  0.00     0.031 C 
ATOM     61  C   UNL A   1      42.788  29.464  34.412  1.00  0.00     0.037 A 
BRANCH  48  62
ATOM     62  C   UNL A   1      40.398  27.957  28.911  1.00  0.00     0.064 A 
ATOM     63  C   UNL A   1      39.700  26.741  28.858  1.00  0.00     0.173 A 
ATOM     64  C   UNL A   1      41.130  28.342  27.777  1.00  0.00     0.173 A 
ATOM     65  F   UNL A   1      38.995  26.320  29.918  1.00  0.00    -0.203 F 
ATOM     66  C   UNL A   1      39.755  25.930  27.727  1.00  0.00     0.198 A 
ATOM     67  C   UNL A   1      41.157  27.543  26.637  1.00  0.00     0.198 A 
ATOM     68  F   UNL A   1      41.812  29.497  27.771  1.00  0.00    -0.203 F 
ATOM     69  F   UNL A   1      39.120  24.749  27.719  1.00  0.00    -0.200 F 
ATOM     70  C   UNL A   1      40.477  26.335  26.615  1.00  0.00     0.200 A 
ATOM     71  F   UNL A   1      41.844  27.942  25.557  1.00  0.00    -0.200 F 
ATOM     72  F   UNL A   1      40.523  25.558  25.525  1.00  0.00    -0.200 F 
ENDBRANCH  48  62
BRANCH  49  73
ATOM     73  C   UNL A   1      39.457  33.857  36.920  1.00  0.00     0.064 A 
ATOM     74  C   UNL A   1      38.739  33.419  38.043  1.00  0.00     0.173 A 
ATOM     75  C   UNL A   1      40.032  35.135  36.971  1.00  0.00     0.173 A 
ATOM     76  F   UNL A   1      38.157  32.210  38.036  1.00  0.00    -0.203 F 
ATOM     77  C   UNL A   1      38.582  34.236  39.160  1.00  0.00     0.198 A 
ATOM     78  C   UNL A   1      39.898  35.940  38.100  1.00  0.00     0.198 A 
ATOM     79  F   UNL A   1      40.734  35.596  35.926  1.00  0.00    -0.203 F 
ATOM     80  F   UNL A   1      37.849  33.812  40.199  1.00  0.00    -0.200 F 
ATOM     81  C   UNL A   1      39.165  35.494  39.190  1.00  0.00     0.200 A 
ATOM     82  F   UNL A   1      40.477  37.147  38.132  1.00  0.00    -0.200 F 
ATOM     83  F   UNL A   1      39.016  36.279  40.266  1.00  0.00    -0.200 F 
ENDBRANCH  49  73
BRANCH  61  84
ATOM     84  C   UNL A   1      44.005  28.914  35.098  1.00  0.00     0.064 A 
ATOM     85  C   UNL A   1      45.273  29.490  34.926  1.00  0.00     0.173 A 
ATOM     86  C   UNL A   1      43.901  27.796  35.941  1.00  0.00     0.173 A 
ATOM     87  F   UNL A   1      45.429  30.550  34.119  1.00  0.00    -0.203 F 
ATOM     88  C   UNL A   1      46.397  28.941  35.537  1.00  0.00     0.198 A 
ATOM     89  C   UNL A   1      45.022  27.272  36.577  1.00  0.00     0.198 A 
ATOM     90  F   UNL A   1      42.711  27.212  36.147  1.00  0.00    -0.203 F 
ATOM     91  F   UNL A   1      47.608  29.468  35.303  1.00  0.00    -0.200 F 
ATOM     92  C   UNL A   1      46.271  27.837  36.365  1.00  0.00     0.200 A 
ATOM     93  F   UNL A   1      44.896  26.213  37.389  1.00  0.00    -0.200 F 
ATOM     94  F   UNL A   1      47.355  27.308  36.949  1.00  0.00    -0.200 F 
ENDBRANCH  61  84
ENDBRANCH  35  36
ENDBRANCH  27  30
ENDBRANCH  25  26
ENDBRANCH  24  25
ENDBRANCH   1  24
TORSDOF 14
ENDMDL
MODEL 3
REMARK VINA RESULT:     -12.5      2.170      8.335
REMARK SMILES CC(=O)NCCc1c[nH]c2ccc(C(=O)NCCCCNC(=O)c3ccc(-c4c5nc(c(-c6c(F)c(F)c(F)c(F)c6F)c6ccc([nH]6)c(-c6c(F)c(F)c(F)c(F)c6F)c6nc(c(-c7c(F)c(F)c(F)c(F)c7F)c7ccc4[nH]7)C=C6)C=C5)cc3)cc12
REMARK SMILES IDX 18 1 17 2 16 3 14 4 15 5 13 7 7 8 8 9 88 10 9 11 10 12 87 13
REMARK SMILES IDX 11 15 12 16 6 17 5 18 4 19 1 20 2 21 3 22 19 24 20 25 21 26
REMARK SMILES IDX 22 27 23 29 24 30 25 31 86 32 26 33 85 34 27 35 28 36 29 37
REMARK SMILES IDX 79 38 30 39 84 40 78 41 80 42 31 43 83 44 77 45 76 46 32 48
REMARK SMILES IDX 64 49 44 50 63 51 45 52 48 53 62 54 81 55 46 56 47 57 61 59
REMARK SMILES IDX 82 60 49 61 33 62 34 63 42 64 35 65 36 66 40 67 43 68 37 69
REMARK SMILES IDX 38 70 41 71 39 72 65 73 66 74 74 75 67 76 68 77 72 78 75 79
REMARK SMILES IDX 69 80 70 81 73 82 71 83 50 84 51 85 59 86 52 87 53 88 57 89
REMARK SMILES IDX 60 90 54 91 55 92 58 93 56 94
REMARK H PARENT 16 6 9 14 4 23 21 28 80 47 48 58
REMARK Flexibility Score: inf
ROOT
ATOM      1  C   UNL A   1      31.596  30.831  25.998  1.00  0.00     0.023 C 
ENDROOT
BRANCH   1   2
ATOM      2  C   UNL A   1      32.933  30.102  26.148  1.00  0.00     0.116 C 
BRANCH   2   3
ATOM      3  N   UNL A   1      33.475  29.804  24.842  1.00  0.00    -0.352 N 
ATOM      4  C   UNL A   1      33.154  28.871  23.891  1.00  0.00     0.251 C 
ATOM      5  O   UNL A   1      33.913  28.797  22.922  1.00  0.00    -0.269 OA
ATOM      6  H   UNL A   1      34.225  30.388  24.584  1.00  0.00     0.163 HD
BRANCH   4   7
ATOM      7  C   UNL A   1      31.943  27.996  23.934  1.00  0.00     0.040 A 
ATOM      8  C   UNL A   1      28.156  28.263  23.334  1.00  0.00    -0.021 A 
ATOM      9  C   UNL A   1      27.396  27.141  23.607  1.00  0.00     0.087 A 
ATOM     10  C   UNL A   1      29.512  27.922  23.637  1.00  0.00     0.003 A 
ATOM     11  N   UNL A   1      28.232  26.146  24.037  1.00  0.00    -0.361 N 
ATOM     12  C   UNL A   1      29.534  26.589  24.038  1.00  0.00     0.046 A 
ATOM     13  C   UNL A   1      30.732  28.628  23.595  1.00  0.00     0.024 A 
ATOM     14  H   UNL A   1      27.944  25.244  24.306  1.00  0.00     0.166 HD
ATOM     15  C   UNL A   1      30.719  25.915  24.341  1.00  0.00     0.027 A 
ATOM     16  C   UNL A   1      31.921  26.637  24.252  1.00  0.00     0.016 A 
BRANCH   8  17
ATOM     17  C   UNL A   1      27.660  29.571  22.793  1.00  0.00     0.059 C 
BRANCH  17  18
ATOM     18  C   UNL A   1      28.571  30.172  21.717  1.00  0.00     0.120 C 
BRANCH  18  19
ATOM     19  N   UNL A   1      27.985  31.331  21.063  1.00  0.00    -0.356 N 
ATOM     20  C   UNL A   1      28.818  33.005  22.666  1.00  0.00     0.114 C 
ATOM     21  C   UNL A   1      28.042  32.643  21.430  1.00  0.00     0.216 C 
ATOM     22  O   UNL A   1      27.481  33.493  20.744  1.00  0.00    -0.275 OA
ATOM     23  H   UNL A   1      27.478  31.143  20.242  1.00  0.00     0.163 HD
ENDBRANCH  18  19
ENDBRANCH  17  18
ENDBRANCH   8  17
ENDBRANCH   4   7
ENDBRANCH   2   3
ENDBRANCH   1   2
BRANCH   1  24
ATOM     24  C   UNL A   1      31.412  31.994  26.981  1.00  0.00     0.023 C 
BRANCH  24  25
ATOM     25  C   UNL A   1      32.674  32.808  27.257  1.00  0.00     0.116 C 
BRANCH  25  26
ATOM     26  N   UNL A   1      32.397  34.190  27.612  1.00  0.00    -0.352 N 
ATOM     27  C   UNL A   1      33.005  34.981  28.555  1.00  0.00     0.251 C 
ATOM     28  H   UNL A   1      31.672  34.620  27.103  1.00  0.00     0.163 HD
ATOM     29  O   UNL A   1      32.568  36.098  28.797  1.00  0.00    -0.269 OA
BRANCH  27  30
ATOM     30  C   UNL A   1      34.162  34.458  29.310  1.00  0.00     0.039 A 
ATOM     31  C   UNL A   1      33.924  33.826  30.532  1.00  0.00     0.014 A 
ATOM     32  C   UNL A   1      35.463  34.572  28.814  1.00  0.00     0.014 A 
ATOM     33  C   UNL A   1      34.986  33.250  31.227  1.00  0.00     0.010 A 
ATOM     34  C   UNL A   1      36.511  33.936  29.473  1.00  0.00     0.010 A 
ATOM     35  C   UNL A   1      36.282  33.267  30.684  1.00  0.00    -0.014 A 
BRANCH  35  36
ATOM     36  C   UNL A   1      37.391  32.557  31.367  1.00  0.00     0.031 A 
ATOM     37  C   UNL A   1      38.095  31.411  30.700  1.00  0.00     0.074 A 
ATOM     38  C   UNL A   1      37.736  32.931  32.615  1.00  0.00     0.049 A 
ATOM     39  N   UNL A   1      39.102  30.695  31.134  1.00  0.00    -0.248 NA
ATOM     40  C   UNL A   1      37.588  30.995  29.385  1.00  0.00     0.031 C 
ATOM     41  C   UNL A   1      37.076  33.982  33.393  1.00  0.00     0.029 A 
ATOM     42  N   UNL A   1      38.727  32.474  33.446  1.00  0.00    -0.354 N 
ATOM     43  C   UNL A   1      39.345  29.746  30.150  1.00  0.00     0.074 A 
ATOM     44  C   UNL A   1      38.343  29.938  29.124  1.00  0.00     0.031 C 
ATOM     45  C   UNL A   1      37.704  34.114  34.572  1.00  0.00     0.029 A 
ATOM     46  C   UNL A   1      38.789  33.142  34.644  1.00  0.00     0.049 A 
ATOM     47  H   UNL A   1      39.334  31.737  33.206  1.00  0.00     0.167 HD
ATOM     48  C   UNL A   1      40.330  28.819  30.095  1.00  0.00     0.037 A 
ATOM     49  C   UNL A   1      39.635  32.992  35.680  1.00  0.00     0.037 A 
ATOM     50  C   UNL A   1      41.333  28.642  31.115  1.00  0.00     0.049 A 
ATOM     51  C   UNL A   1      40.733  31.969  35.584  1.00  0.00     0.074 A 
ATOM     52  C   UNL A   1      42.407  27.771  31.129  1.00  0.00     0.029 A 
ATOM     53  N   UNL A   1      41.379  29.350  32.307  1.00  0.00    -0.354 N 
ATOM     54  N   UNL A   1      41.009  31.138  34.608  1.00  0.00    -0.248 NA
ATOM     55  C   UNL A   1      41.650  31.877  36.728  1.00  0.00     0.031 C 
ATOM     56  C   UNL A   1      43.076  27.919  32.349  1.00  0.00     0.029 A 
ATOM     57  C   UNL A   1      42.452  28.921  33.072  1.00  0.00     0.049 A 
ATOM     58  H   UNL A   1      40.742  30.054  32.571  1.00  0.00     0.167 HD
ATOM     59  C   UNL A   1      42.141  30.442  35.008  1.00  0.00     0.074 A 
ATOM     60  C   UNL A   1      42.516  30.969  36.305  1.00  0.00     0.031 C 
ATOM     61  C   UNL A   1      42.809  29.454  34.363  1.00  0.00     0.037 A 
BRANCH  48  62
ATOM     62  C   UNL A   1      40.376  27.927  28.887  1.00  0.00     0.064 A 
ATOM     63  C   UNL A   1      41.108  28.278  27.742  1.00  0.00     0.173 A 
ATOM     64  C   UNL A   1      39.712  26.691  28.886  1.00  0.00     0.173 A 
ATOM     65  F   UNL A   1      41.752  29.453  27.686  1.00  0.00    -0.203 F 
ATOM     66  C   UNL A   1      41.148  27.440  26.631  1.00  0.00     0.198 A 
ATOM     67  C   UNL A   1      39.780  25.841  27.785  1.00  0.00     0.198 A 
ATOM     68  F   UNL A   1      39.003  26.303  29.956  1.00  0.00    -0.203 F 
ATOM     69  F   UNL A   1      41.811  27.820  25.530  1.00  0.00    -0.200 F 
ATOM     70  C   UNL A   1      40.491  26.219  26.655  1.00  0.00     0.200 A 
ATOM     71  F   UNL A   1      39.157  24.655  27.815  1.00  0.00    -0.200 F 
ATOM     72  F   UNL A   1      40.537  25.410  25.589  1.00  0.00    -0.200 F 
ENDBRANCH  48  62
BRANCH  49  73
ATOM     73  C   UNL A   1      39.505  33.863  36.877  1.00  0.00     0.064 A 
ATOM     74  C   UNL A   1      38.784  33.436  38.003  1.00  0.00     0.173 A 
ATOM     75  C   UNL A   1      40.092  35.135  36.923  1.00  0.00     0.173 A 
ATOM     76  F   UNL A   1      38.190  32.233  38.001  1.00  0.00    -0.203 F 
ATOM     77  C   UNL A   1      38.637  34.258  39.117  1.00  0.00     0.198 A 
ATOM     78  C   UNL A   1      39.969  35.945  38.050  1.00  0.00     0.198 A 
ATOM     79  F   UNL A   1      40.798  35.586  35.876  1.00  0.00    -0.203 F 
ATOM     80  F   UNL A   1      37.901  33.845  40.159  1.00  0.00    -0.200 F 
ATOM     81  C   UNL A   1      39.233  35.511  39.142  1.00  0.00     0.200 A 
ATOM     82  F   UNL A   1      40.559  37.147  38.077  1.00  0.00    -0.200 F 
ATOM     83  F   UNL A   1      39.093  36.300  40.216  1.00  0.00    -0.200 F 
ENDBRANCH  49  73
BRANCH  61  84
ATOM     84  C   UNL A   1      44.031  28.904  35.042  1.00  0.00     0.064 A 
ATOM     85  C   UNL A   1      43.961  27.801  35.906  1.00  0.00     0.173 A 
ATOM     86  C   UNL A   1      45.288  29.488  34.824  1.00  0.00     0.173 A 
ATOM     87  F   UNL A   1      42.781  27.215  36.160  1.00  0.00    -0.203 F 
ATOM     88  C   UNL A   1      45.097  27.330  36.559  1.00  0.00     0.198 A 
ATOM     89  C   UNL A   1      46.428  28.993  35.452  1.00  0.00     0.198 A 
ATOM     90  F   UNL A   1      45.413  30.540  34.000  1.00  0.00    -0.203 F 
ATOM     91  F   UNL A   1      44.994  26.318  37.433  1.00  0.00    -0.200 F 
ATOM     92  C   UNL A   1      46.329  27.923  36.328  1.00  0.00     0.200 A 
ATOM     93  F   UNL A   1      47.619  29.557  35.217  1.00  0.00    -0.200 F 
ATOM     94  F   UNL A   1      47.420  27.471  36.962  1.00  0.00    -0.200 F 
ENDBRANCH  61  84
ENDBRANCH  35  36
ENDBRANCH  27  30
ENDBRANCH  25  26
ENDBRANCH  24  25
ENDBRANCH   1  24
TORSDOF 14
ENDMDL
