MODEL 1
REMARK VINA RESULT:     -12.5      0.000      0.000
REMARK SMILES C[C@@H](Oc1ccccc1Cl)C(=O)N1CC[C@H](C(=O)NCCCCNC(=O)c2ccc(-c3c4nc(c(-c5c(F)c(F)c(F)c(F)c5F)c5ccc([nH]5)c(-c5c(F)c(F)c(F)c(F)c5F)c5nc(c(-c6c(F)c(F)c(F)c(F)c6F)c6ccc3[nH]6)C=C5)C=C4)cc2)[C@@H]1C
REMARK SMILES IDX 20 1 19 2 17 3 18 4 16 6 13 7 14 8 90 9 15 10 91 11 11 12
REMARK SMILES IDX 12 13 2 14 1 15 3 16 4 17 5 18 9 19 6 20 8 21 10 22 7 23
REMARK SMILES IDX 21 24 22 25 23 26 24 27 25 28 26 30 27 31 28 32 89 33 29 34
REMARK SMILES IDX 88 35 30 36 31 37 32 38 82 39 33 40 87 41 81 42 83 43 34 44
REMARK SMILES IDX 86 45 80 46 79 47 35 49 67 50 47 51 66 52 48 53 51 54 65 55
REMARK SMILES IDX 84 56 49 57 50 58 64 60 85 61 52 62 36 63 37 64 45 65 38 66
REMARK SMILES IDX 39 67 43 68 46 69 40 70 41 71 44 72 42 73 68 74 69 75 77 76
REMARK SMILES IDX 70 77 71 78 75 79 78 80 72 81 73 82 76 83 74 84 53 85 54 86
REMARK SMILES IDX 62 87 55 88 56 89 60 90 63 91 57 92 58 93 61 94 59 95
REMARK H PARENT 19 5 24 29 83 48 51 59
REMARK Flexibility Score: inf
ROOT
ATOM      1  C   UNL A   1      32.492  30.152  25.668  1.00  0.00     0.116 C 
ENDROOT
BRANCH   1   2
ATOM      2  N   UNL A   1      32.435  29.340  24.467  1.00  0.00    -0.356 N 
ATOM      3  C   UNL A   1      31.867  28.122  24.249  1.00  0.00     0.225 C 
ATOM      4  O   UNL A   1      31.926  27.667  23.106  1.00  0.00    -0.275 OA
ATOM      5  H   UNL A   1      32.878  29.736  23.681  1.00  0.00     0.163 HD
BRANCH   3   6
ATOM      6  C   UNL A   1      31.198  27.372  25.395  1.00  0.00     0.102 C 
ATOM      7  N   UNL A   1      31.696  25.099  25.973  1.00  0.00    -0.336 N 
ATOM      8  C   UNL A   1      30.905  25.071  24.761  1.00  0.00     0.121 C 
ATOM      9  C   UNL A   1      32.138  26.474  26.249  1.00  0.00     0.094 C 
ATOM     10  C   UNL A   1      30.151  26.386  24.844  1.00  0.00     0.037 C 
ATOM     11  C   UNL A   1      33.626  26.620  25.924  1.00  0.00     0.032 C 
BRANCH   7  12
ATOM     12  C   UNL A   1      31.825  23.955  26.735  1.00  0.00     0.263 C 
ATOM     13  O   UNL A   1      30.862  23.510  27.370  1.00  0.00    -0.271 OA
BRANCH  12  14
ATOM     14  C   UNL A   1      33.197  23.265  26.883  1.00  0.00     0.259 C 
ATOM     15  C   UNL A   1      33.261  22.249  28.012  1.00  0.00     0.064 C 
BRANCH  14  16
ATOM     16  O   UNL A   1      33.543  22.659  25.626  1.00  0.00    -0.479 OA
BRANCH  16  17
ATOM     17  C   UNL A   1      34.895  22.509  25.468  1.00  0.00     0.139 A 
ATOM     18  C   UNL A   1      35.737  23.614  25.627  1.00  0.00     0.048 A 
ATOM     19  C   UNL A   1      35.426  21.280  25.060  1.00  0.00     0.083 A 
ATOM     20  C   UNL A   1      37.113  23.474  25.433  1.00  0.00     0.004 A 
ATOM     21  C   UNL A   1      36.803  21.139  24.886  1.00  0.00     0.024 A 
ATOM     22  Cl  UNL A   1      34.411  19.917  24.752  1.00  0.00    -0.080 Cl
ATOM     23  C   UNL A   1      37.647  22.234  25.076  1.00  0.00     0.002 A 
ENDBRANCH  16  17
ENDBRANCH  14  16
ENDBRANCH  12  14
ENDBRANCH   7  12
ENDBRANCH   3   6
ENDBRANCH   1   2
BRANCH   1  24
ATOM     24  C   UNL A   1      31.305  31.110  25.781  1.00  0.00     0.023 C 
BRANCH  24  25
ATOM     25  C   UNL A   1      31.335  32.067  26.976  1.00  0.00     0.023 C 
BRANCH  25  26
ATOM     26  C   UNL A   1      32.622  32.865  27.137  1.00  0.00     0.116 C 
BRANCH  26  27
ATOM     27  N   UNL A   1      32.380  34.228  27.581  1.00  0.00    -0.352 N 
ATOM     28  C   UNL A   1      32.975  34.943  28.592  1.00  0.00     0.251 C 
ATOM     29  H   UNL A   1      31.684  34.712  27.081  1.00  0.00     0.163 HD
ATOM     30  O   UNL A   1      32.513  36.033  28.919  1.00  0.00    -0.269 OA
BRANCH  28  31
ATOM     31  C   UNL A   1      34.151  34.402  29.311  1.00  0.00     0.039 A 
ATOM     32  C   UNL A   1      33.942  33.669  30.484  1.00  0.00     0.014 A 
ATOM     33  C   UNL A   1      35.453  34.626  28.855  1.00  0.00     0.014 A 
ATOM     34  C   UNL A   1      35.029  33.111  31.161  1.00  0.00     0.010 A 
ATOM     35  C   UNL A   1      36.527  34.000  29.485  1.00  0.00     0.010 A 
ATOM     36  C   UNL A   1      36.329  33.241  30.648  1.00  0.00    -0.014 A 
BRANCH  36  37
ATOM     37  C   UNL A   1      37.486  32.583  31.309  1.00  0.00     0.031 A 
ATOM     38  C   UNL A   1      38.167  31.407  30.665  1.00  0.00     0.074 A 
ATOM     39  C   UNL A   1      37.881  32.999  32.528  1.00  0.00     0.049 A 
ATOM     40  N   UNL A   1      39.154  30.671  31.115  1.00  0.00    -0.248 NA
ATOM     41  C   UNL A   1      37.652  30.983  29.356  1.00  0.00     0.031 C 
ATOM     42  C   UNL A   1      37.264  34.085  33.289  1.00  0.00     0.029 A 
ATOM     43  N   UNL A   1      38.885  32.546  33.349  1.00  0.00    -0.354 N 
ATOM     44  C   UNL A   1      39.360  29.688  30.156  1.00  0.00     0.074 A 
ATOM     45  C   UNL A   1      38.362  29.888  29.127  1.00  0.00     0.031 C 
ATOM     46  C   UNL A   1      37.909  34.225  34.457  1.00  0.00     0.029 A 
ATOM     47  C   UNL A   1      38.959  33.214  34.546  1.00  0.00     0.049 A 
ATOM     48  H   UNL A   1      39.492  31.811  33.103  1.00  0.00     0.167 HD
ATOM     49  C   UNL A   1      40.307  28.718  30.127  1.00  0.00     0.037 A 
ATOM     50  C   UNL A   1      39.772  33.028  35.604  1.00  0.00     0.037 A 
ATOM     51  C   UNL A   1      41.311  28.536  31.143  1.00  0.00     0.049 A 
ATOM     52  C   UNL A   1      40.825  31.956  35.546  1.00  0.00     0.074 A 
ATOM     53  C   UNL A   1      42.367  27.643  31.162  1.00  0.00     0.029 A 
ATOM     54  N   UNL A   1      41.374  29.253  32.329  1.00  0.00    -0.354 N 
ATOM     55  N   UNL A   1      41.073  31.092  34.591  1.00  0.00    -0.248 NA
ATOM     56  C   UNL A   1      41.719  31.841  36.704  1.00  0.00     0.031 C 
ATOM     57  C   UNL A   1      43.030  27.774  32.388  1.00  0.00     0.029 A 
ATOM     58  C   UNL A   1      42.430  28.796  33.105  1.00  0.00     0.049 A 
ATOM     59  H   UNL A   1      40.761  29.981  32.584  1.00  0.00     0.167 HD
ATOM     60  C   UNL A   1      42.162  30.346  35.022  1.00  0.00     0.074 A 
ATOM     61  C   UNL A   1      42.538  30.873  36.318  1.00  0.00     0.031 C 
ATOM     62  C   UNL A   1      42.793  29.321  34.399  1.00  0.00     0.037 A 
BRANCH  49  63
ATOM     63  C   UNL A   1      40.288  27.767  28.962  1.00  0.00     0.064 A 
ATOM     64  C   UNL A   1      39.543  26.577  28.985  1.00  0.00     0.173 A 
ATOM     65  C   UNL A   1      41.018  28.058  27.798  1.00  0.00     0.173 A 
ATOM     66  F   UNL A   1      38.832  26.246  30.074  1.00  0.00    -0.203 F 
ATOM     67  C   UNL A   1      39.566  25.695  27.907  1.00  0.00     0.198 A 
ATOM     68  C   UNL A   1      41.008  27.191  26.708  1.00  0.00     0.198 A 
ATOM     69  F   UNL A   1      41.741  29.184  27.716  1.00  0.00    -0.203 F 
ATOM     70  F   UNL A   1      38.899  24.533  27.980  1.00  0.00    -0.200 F 
ATOM     71  C   UNL A   1      40.293  26.004  26.769  1.00  0.00     0.200 A 
ATOM     72  F   UNL A   1      41.699  27.499  25.602  1.00  0.00    -0.200 F 
ATOM     73  F   UNL A   1      40.314  25.154  25.733  1.00  0.00    -0.200 F 
ENDBRANCH  49  63
BRANCH  50  74
ATOM     74  C   UNL A   1      39.622  33.895  36.802  1.00  0.00     0.064 A 
ATOM     75  C   UNL A   1      40.229  35.157  36.862  1.00  0.00     0.173 A 
ATOM     76  C   UNL A   1      38.842  33.493  37.897  1.00  0.00     0.173 A 
ATOM     77  F   UNL A   1      41.000  35.578  35.850  1.00  0.00    -0.203 F 
ATOM     78  C   UNL A   1      40.071  35.978  37.977  1.00  0.00     0.198 A 
ATOM     79  C   UNL A   1      38.661  34.327  38.997  1.00  0.00     0.198 A 
ATOM     80  F   UNL A   1      38.234  32.298  37.884  1.00  0.00    -0.203 F 
ATOM     81  F   UNL A   1      40.692  37.165  38.025  1.00  0.00    -0.200 F 
ATOM     82  C   UNL A   1      39.281  35.566  39.040  1.00  0.00     0.200 A 
ATOM     83  F   UNL A   1      37.880  33.933  40.012  1.00  0.00    -0.200 F 
ATOM     84  F   UNL A   1      39.116  36.363  40.104  1.00  0.00    -0.200 F 
ENDBRANCH  50  74
BRANCH  62  85
ATOM     85  C   UNL A   1      43.975  28.710  35.098  1.00  0.00     0.064 A 
ATOM     86  C   UNL A   1      45.273  29.218  34.937  1.00  0.00     0.173 A 
ATOM     87  C   UNL A   1      43.799  27.626  35.972  1.00  0.00     0.173 A 
ATOM     88  F   UNL A   1      45.498  30.244  34.102  1.00  0.00    -0.203 F 
ATOM     89  C   UNL A   1      46.354  28.644  35.601  1.00  0.00     0.198 A 
ATOM     90  C   UNL A   1      44.878  27.076  36.661  1.00  0.00     0.198 A 
ATOM     91  F   UNL A   1      42.579  27.106  36.169  1.00  0.00    -0.203 F 
ATOM     92  F   UNL A   1      47.592  29.112  35.391  1.00  0.00    -0.200 F 
ATOM     93  C   UNL A   1      46.155  27.581  36.468  1.00  0.00     0.200 A 
ATOM     94  F   UNL A   1      44.681  26.059  37.511  1.00  0.00    -0.200 F 
ATOM     95  F   UNL A   1      47.196  27.035  37.113  1.00  0.00    -0.200 F 
ENDBRANCH  62  85
ENDBRANCH  36  37
ENDBRANCH  28  31
ENDBRANCH  26  27
ENDBRANCH  25  26
ENDBRANCH  24  25
ENDBRANCH   1  24
TORSDOF 15
ENDMDL
MODEL 2
REMARK VINA RESULT:     -12.4      0.340      1.964
REMARK SMILES C[C@@H](Oc1ccccc1Cl)C(=O)N1CC[C@H](C(=O)NCCCCNC(=O)c2ccc(-c3c4nc(c(-c5c(F)c(F)c(F)c(F)c5F)c5ccc([nH]5)c(-c5c(F)c(F)c(F)c(F)c5F)c5nc(c(-c6c(F)c(F)c(F)c(F)c6F)c6ccc3[nH]6)C=C5)C=C4)cc2)[C@@H]1C
REMARK SMILES IDX 20 1 19 2 17 3 18 4 16 6 13 7 14 8 90 9 15 10 91 11 11 12
REMARK SMILES IDX 12 13 2 14 1 15 3 16 4 17 5 18 9 19 6 20 8 21 10 22 7 23
REMARK SMILES IDX 21 24 22 25 23 26 24 27 25 28 26 30 27 31 28 32 89 33 29 34
REMARK SMILES IDX 88 35 30 36 31 37 32 38 82 39 33 40 87 41 81 42 83 43 34 44
REMARK SMILES IDX 86 45 80 46 79 47 35 49 67 50 47 51 66 52 48 53 51 54 65 55
REMARK SMILES IDX 84 56 49 57 50 58 64 60 85 61 52 62 36 63 37 64 45 65 38 66
REMARK SMILES IDX 39 67 43 68 46 69 40 70 41 71 44 72 42 73 68 74 69 75 77 76
REMARK SMILES IDX 70 77 71 78 75 79 78 80 72 81 73 82 76 83 74 84 53 85 54 86
REMARK SMILES IDX 62 87 55 88 56 89 60 90 63 91 57 92 58 93 61 94 59 95
REMARK H PARENT 19 5 24 29 83 48 51 59
REMARK Flexibility Score: inf
ROOT
ATOM      1  C   UNL A   1      30.691  30.408  24.767  1.00  0.00     0.116 C 
ENDROOT
BRANCH   1   2
ATOM      2  N   UNL A   1      31.401  29.542  23.845  1.00  0.00    -0.356 N 
ATOM      3  C   UNL A   1      31.422  28.184  23.746  1.00  0.00     0.225 C 
ATOM      4  O   UNL A   1      32.087  27.694  22.832  1.00  0.00    -0.275 OA
ATOM      5  H   UNL A   1      31.959  30.013  23.184  1.00  0.00     0.163 HD
BRANCH   3   6
ATOM      6  C   UNL A   1      30.648  27.330  24.743  1.00  0.00     0.102 C 
ATOM      7  N   UNL A   1      31.458  25.258  25.636  1.00  0.00    -0.336 N 
ATOM      8  C   UNL A   1      31.054  25.008  24.269  1.00  0.00     0.121 C 
ATOM      9  C   UNL A   1      31.494  26.705  25.889  1.00  0.00     0.094 C 
ATOM     10  C   UNL A   1      30.035  26.109  24.033  1.00  0.00     0.037 C 
ATOM     11  C   UNL A   1      32.943  27.191  25.949  1.00  0.00     0.032 C 
BRANCH   7  12
ATOM     12  C   UNL A   1      31.624  24.199  26.507  1.00  0.00     0.263 C 
ATOM     13  O   UNL A   1      30.679  23.799  27.197  1.00  0.00    -0.271 OA
BRANCH  12  14
ATOM     14  C   UNL A   1      33.013  23.559  26.703  1.00  0.00     0.259 C 
ATOM     15  C   UNL A   1      33.046  22.459  27.753  1.00  0.00     0.064 C 
BRANCH  14  16
ATOM     16  O   UNL A   1      33.475  23.070  25.432  1.00  0.00    -0.479 OA
BRANCH  16  17
ATOM     17  C   UNL A   1      34.827  22.848  25.414  1.00  0.00     0.139 A 
ATOM     18  C   UNL A   1      35.706  23.921  25.597  1.00  0.00     0.048 A 
ATOM     19  C   UNL A   1      35.330  21.576  25.122  1.00  0.00     0.083 A 
ATOM     20  C   UNL A   1      37.086  23.706  25.545  1.00  0.00     0.004 A 
ATOM     21  C   UNL A   1      36.708  21.361  25.089  1.00  0.00     0.024 A 
ATOM     22  Cl  UNL A   1      34.280  20.246  24.788  1.00  0.00    -0.080 Cl
ATOM     23  C   UNL A   1      37.586  22.424  25.304  1.00  0.00     0.002 A 
ENDBRANCH  16  17
ENDBRANCH  14  16
ENDBRANCH  12  14
ENDBRANCH   7  12
ENDBRANCH   3   6
ENDBRANCH   1   2
BRANCH   1  24
ATOM     24  C   UNL A   1      31.540  30.785  25.983  1.00  0.00     0.023 C 
BRANCH  24  25
ATOM     25  C   UNL A   1      31.347  32.209  26.512  1.00  0.00     0.023 C 
BRANCH  25  26
ATOM     26  C   UNL A   1      32.534  32.787  27.270  1.00  0.00     0.116 C 
BRANCH  26  27
ATOM     27  N   UNL A   1      32.340  34.182  27.630  1.00  0.00    -0.352 N 
ATOM     28  C   UNL A   1      32.977  34.944  28.579  1.00  0.00     0.251 C 
ATOM     29  H   UNL A   1      31.644  34.653  27.116  1.00  0.00     0.163 HD
ATOM     30  O   UNL A   1      32.552  36.065  28.844  1.00  0.00    -0.269 OA
BRANCH  28  31
ATOM     31  C   UNL A   1      34.156  34.418  29.304  1.00  0.00     0.039 A 
ATOM     32  C   UNL A   1      33.960  33.804  30.546  1.00  0.00     0.014 A 
ATOM     33  C   UNL A   1      35.448  34.541  28.787  1.00  0.00     0.014 A 
ATOM     34  C   UNL A   1      35.047  33.261  31.235  1.00  0.00     0.010 A 
ATOM     35  C   UNL A   1      36.518  33.927  29.434  1.00  0.00     0.010 A 
ATOM     36  C   UNL A   1      36.332  33.285  30.668  1.00  0.00    -0.014 A 
BRANCH  36  37
ATOM     37  C   UNL A   1      37.485  32.638  31.348  1.00  0.00     0.031 A 
ATOM     38  C   UNL A   1      38.183  31.465  30.719  1.00  0.00     0.074 A 
ATOM     39  C   UNL A   1      37.860  33.062  32.571  1.00  0.00     0.049 A 
ATOM     40  N   UNL A   1      39.169  30.738  31.185  1.00  0.00    -0.248 NA
ATOM     41  C   UNL A   1      37.688  31.031  29.404  1.00  0.00     0.031 C 
ATOM     42  C   UNL A   1      37.225  34.147  33.318  1.00  0.00     0.029 A 
ATOM     43  N   UNL A   1      38.855  32.620  33.407  1.00  0.00    -0.354 N 
ATOM     44  C   UNL A   1      39.394  29.752  30.233  1.00  0.00     0.074 A 
ATOM     45  C   UNL A   1      38.409  29.941  29.190  1.00  0.00     0.031 C 
ATOM     46  C   UNL A   1      37.853  34.296  34.495  1.00  0.00     0.029 A 
ATOM     47  C   UNL A   1      38.909  33.294  34.602  1.00  0.00     0.049 A 
ATOM     48  H   UNL A   1      39.472  31.889  33.172  1.00  0.00     0.167 HD
ATOM     49  C   UNL A   1      40.348  28.789  30.221  1.00  0.00     0.037 A 
ATOM     50  C   UNL A   1      39.709  33.118  35.672  1.00  0.00     0.037 A 
ATOM     51  C   UNL A   1      41.340  28.619  31.251  1.00  0.00     0.049 A 
ATOM     52  C   UNL A   1      40.770  32.053  35.632  1.00  0.00     0.074 A 
ATOM     53  C   UNL A   1      42.402  27.732  31.289  1.00  0.00     0.029 A 
ATOM     54  N   UNL A   1      41.382  29.341  32.435  1.00  0.00    -0.354 N 
ATOM     55  N   UNL A   1      41.037  31.187  34.685  1.00  0.00    -0.248 NA
ATOM     56  C   UNL A   1      41.649  31.950  36.803  1.00  0.00     0.031 C 
ATOM     57  C   UNL A   1      43.047  27.874  32.522  1.00  0.00     0.029 A 
ATOM     58  C   UNL A   1      42.430  28.895  33.227  1.00  0.00     0.049 A 
ATOM     59  H   UNL A   1      40.760  30.065  32.678  1.00  0.00     0.167 HD
ATOM     60  C   UNL A   1      42.125  30.451  35.134  1.00  0.00     0.074 A 
ATOM     61  C   UNL A   1      42.480  30.986  36.433  1.00  0.00     0.031 C 
ATOM     62  C   UNL A   1      42.772  29.427  34.523  1.00  0.00     0.037 A 
BRANCH  49  63
ATOM     63  C   UNL A   1      40.352  27.832  29.060  1.00  0.00     0.064 A 
ATOM     64  C   UNL A   1      41.110  28.070  27.902  1.00  0.00     0.173 A 
ATOM     65  C   UNL A   1      39.594  26.651  29.113  1.00  0.00     0.173 A 
ATOM     66  F   UNL A   1      41.846  29.186  27.795  1.00  0.00    -0.203 F 
ATOM     67  C   UNL A   1      41.073  27.186  26.826  1.00  0.00     0.198 A 
ATOM     68  C   UNL A   1      39.590  25.751  28.050  1.00  0.00     0.198 A 
ATOM     69  F   UNL A   1      38.858  26.366  30.198  1.00  0.00    -0.203 F 
ATOM     70  F   UNL A   1      41.753  27.470  25.706  1.00  0.00    -0.200 F 
ATOM     71  C   UNL A   1      40.318  26.027  26.903  1.00  0.00     0.200 A 
ATOM     72  F   UNL A   1      38.872  24.623  28.132  1.00  0.00    -0.200 F 
ATOM     73  F   UNL A   1      40.285  25.178  25.866  1.00  0.00    -0.200 F 
ENDBRANCH  49  63
BRANCH  50  74
ATOM     74  C   UNL A   1      39.537  33.989  36.863  1.00  0.00     0.064 A 
ATOM     75  C   UNL A   1      38.764  33.575  37.957  1.00  0.00     0.173 A 
ATOM     76  C   UNL A   1      40.169  35.239  36.946  1.00  0.00     0.173 A 
ATOM     77  F   UNL A   1      38.125  32.397  37.918  1.00  0.00    -0.203 F 
ATOM     78  C   UNL A   1      38.621  34.384  39.083  1.00  0.00     0.198 A 
ATOM     79  C   UNL A   1      40.049  36.033  38.084  1.00  0.00     0.198 A 
ATOM     80  F   UNL A   1      40.925  35.676  35.929  1.00  0.00    -0.203 F 
ATOM     81  F   UNL A   1      37.848  33.981  40.101  1.00  0.00    -0.200 F 
ATOM     82  C   UNL A   1      39.270  35.608  39.149  1.00  0.00     0.200 A 
ATOM     83  F   UNL A   1      40.694  37.206  38.150  1.00  0.00    -0.200 F 
ATOM     84  F   UNL A   1      39.145  36.378  40.239  1.00  0.00    -0.200 F 
ENDBRANCH  50  74
BRANCH  62  85
ATOM     85  C   UNL A   1      43.949  28.828  35.241  1.00  0.00     0.064 A 
ATOM     86  C   UNL A   1      43.801  27.769  36.149  1.00  0.00     0.173 A 
ATOM     87  C   UNL A   1      45.248  29.295  34.985  1.00  0.00     0.173 A 
ATOM     88  F   UNL A   1      42.580  27.294  36.440  1.00  0.00    -0.203 F 
ATOM     89  C   UNL A   1      44.905  27.221  36.796  1.00  0.00     0.198 A 
ATOM     90  C   UNL A   1      46.353  28.722  35.609  1.00  0.00     0.198 A 
ATOM     91  F   UNL A   1      45.447  30.300  34.120  1.00  0.00    -0.203 F 
ATOM     92  F   UNL A   1      44.734  26.246  37.700  1.00  0.00    -0.200 F 
ATOM     93  C   UNL A   1      46.180  27.692  36.520  1.00  0.00     0.200 A 
ATOM     94  F   UNL A   1      47.585  29.167  35.328  1.00  0.00    -0.200 F 
ATOM     95  F   UNL A   1      47.242  27.157  37.138  1.00  0.00    -0.200 F 
ENDBRANCH  62  85
ENDBRANCH  36  37
ENDBRANCH  28  31
ENDBRANCH  26  27
ENDBRANCH  25  26
ENDBRANCH  24  25
ENDBRANCH   1  24
TORSDOF 15
ENDMDL
MODEL 3
REMARK VINA RESULT:     -12.1      5.611     11.098
REMARK SMILES C[C@@H](Oc1ccccc1Cl)C(=O)N1CC[C@H](C(=O)NCCCCNC(=O)c2ccc(-c3c4nc(c(-c5c(F)c(F)c(F)c(F)c5F)c5ccc([nH]5)c(-c5c(F)c(F)c(F)c(F)c5F)c5nc(c(-c6c(F)c(F)c(F)c(F)c6F)c6ccc3[nH]6)C=C5)C=C4)cc2)[C@@H]1C
REMARK SMILES IDX 20 1 19 2 17 3 18 4 16 6 13 7 14 8 90 9 15 10 91 11 11 12
REMARK SMILES IDX 12 13 2 14 1 15 3 16 4 17 5 18 9 19 6 20 8 21 10 22 7 23
REMARK SMILES IDX 21 24 22 25 23 26 24 27 25 28 26 30 27 31 28 32 89 33 29 34
REMARK SMILES IDX 88 35 30 36 31 37 32 38 82 39 33 40 87 41 81 42 83 43 34 44
REMARK SMILES IDX 86 45 80 46 79 47 35 49 67 50 47 51 66 52 48 53 51 54 65 55
REMARK SMILES IDX 84 56 49 57 50 58 64 60 85 61 52 62 36 63 37 64 45 65 38 66
REMARK SMILES IDX 39 67 43 68 46 69 40 70 41 71 44 72 42 73 68 74 69 75 77 76
REMARK SMILES IDX 70 77 71 78 75 79 78 80 72 81 73 82 76 83 74 84 53 85 54 86
REMARK SMILES IDX 62 87 55 88 56 89 60 90 63 91 57 92 58 93 61 94 59 95
REMARK H PARENT 19 5 24 29 83 48 51 59
REMARK Flexibility Score: inf
ROOT
ATOM      1  C   UNL A   1      36.976  21.793  25.570  1.00  0.00     0.116 C 
ENDROOT
BRANCH   1   2
ATOM      2  N   UNL A   1      35.822  21.665  26.440  1.00  0.00    -0.356 N 
ATOM      3  C   UNL A   1      34.494  21.793  26.171  1.00  0.00     0.225 C 
ATOM      4  O   UNL A   1      33.707  21.588  27.097  1.00  0.00    -0.275 OA
ATOM      5  H   UNL A   1      36.035  21.449  27.378  1.00  0.00     0.163 HD
BRANCH   3   6
ATOM      6  C   UNL A   1      34.028  22.182  24.773  1.00  0.00     0.102 C 
ATOM      7  N   UNL A   1      32.255  23.736  24.341  1.00  0.00    -0.336 N 
ATOM      8  C   UNL A   1      31.646  22.506  24.801  1.00  0.00     0.121 C 
ATOM      9  C   UNL A   1      33.707  23.690  24.568  1.00  0.00     0.094 C 
ATOM     10  C   UNL A   1      32.701  21.475  24.440  1.00  0.00     0.037 C 
ATOM     11  C   UNL A   1      34.080  24.587  25.749  1.00  0.00     0.032 C 
BRANCH   7  12
ATOM     12  C   UNL A   1      31.488  24.676  23.682  1.00  0.00     0.263 C 
ATOM     13  O   UNL A   1      30.278  24.491  23.506  1.00  0.00    -0.271 OA
BRANCH  12  14
ATOM     14  C   UNL A   1      32.145  25.930  23.069  1.00  0.00     0.259 C 
ATOM     15  C   UNL A   1      32.139  25.953  21.548  1.00  0.00     0.064 C 
BRANCH  14  16
ATOM     16  O   UNL A   1      31.495  27.095  23.604  1.00  0.00    -0.479 OA
BRANCH  16  17
ATOM     17  C   UNL A   1      32.073  27.535  24.765  1.00  0.00     0.139 A 
ATOM     18  C   UNL A   1      31.408  27.350  25.981  1.00  0.00     0.048 A 
ATOM     19  C   UNL A   1      33.277  28.247  24.729  1.00  0.00     0.083 A 
ATOM     20  C   UNL A   1      31.977  27.827  27.164  1.00  0.00     0.004 A 
ATOM     21  C   UNL A   1      33.852  28.705  25.914  1.00  0.00     0.024 A 
ATOM     22  Cl  UNL A   1      34.079  28.587  23.238  1.00  0.00    -0.080 Cl
ATOM     23  C   UNL A   1      33.205  28.493  27.132  1.00  0.00     0.002 A 
ENDBRANCH  16  17
ENDBRANCH  14  16
ENDBRANCH  12  14
ENDBRANCH   7  12
ENDBRANCH   3   6
ENDBRANCH   1   2
BRANCH   1  24
ATOM     24  C   UNL A   1      37.108  20.618  24.599  1.00  0.00     0.023 C 
BRANCH  24  25
ATOM     25  C   UNL A   1      38.117  19.538  24.998  1.00  0.00     0.023 C 
BRANCH  25  26
ATOM     26  C   UNL A   1      39.274  20.017  25.863  1.00  0.00     0.116 C 
BRANCH  26  27
ATOM     27  N   UNL A   1      40.345  19.038  25.953  1.00  0.00    -0.352 N 
ATOM     28  C   UNL A   1      41.695  19.222  26.129  1.00  0.00     0.251 C 
ATOM     29  H   UNL A   1      40.059  18.099  25.877  1.00  0.00     0.163 HD
ATOM     30  O   UNL A   1      42.460  18.269  26.013  1.00  0.00    -0.269 OA
BRANCH  28  31
ATOM     31  C   UNL A   1      42.242  20.565  26.429  1.00  0.00     0.039 A 
ATOM     32  C   UNL A   1      42.709  21.352  25.371  1.00  0.00     0.014 A 
ATOM     33  C   UNL A   1      42.318  21.048  27.738  1.00  0.00     0.014 A 
ATOM     34  C   UNL A   1      43.192  22.639  25.618  1.00  0.00     0.010 A 
ATOM     35  C   UNL A   1      42.722  22.361  27.974  1.00  0.00     0.010 A 
ATOM     36  C   UNL A   1      43.169  23.169  26.918  1.00  0.00    -0.014 A 
BRANCH  36  37
ATOM     37  C   UNL A   1      43.601  24.566  27.186  1.00  0.00     0.031 A 
ATOM     38  C   UNL A   1      42.613  25.591  27.671  1.00  0.00     0.074 A 
ATOM     39  C   UNL A   1      44.870  24.933  26.925  1.00  0.00     0.049 A 
ATOM     40  N   UNL A   1      42.790  26.868  27.906  1.00  0.00    -0.248 NA
ATOM     41  C   UNL A   1      41.235  25.127  27.891  1.00  0.00     0.031 C 
ATOM     42  C   UNL A   1      45.909  24.052  26.392  1.00  0.00     0.029 A 
ATOM     43  N   UNL A   1      45.498  26.148  27.055  1.00  0.00    -0.354 N 
ATOM     44  C   UNL A   1      41.546  27.360  28.279  1.00  0.00     0.074 A 
ATOM     45  C   UNL A   1      40.613  26.258  28.187  1.00  0.00     0.031 C 
ATOM     46  C   UNL A   1      47.048  24.749  26.254  1.00  0.00     0.029 A 
ATOM     47  C   UNL A   1      46.811  26.134  26.651  1.00  0.00     0.049 A 
ATOM     48  H   UNL A   1      45.050  26.951  27.405  1.00  0.00     0.167 HD
ATOM     49  C   UNL A   1      41.216  28.613  28.679  1.00  0.00     0.037 A 
ATOM     50  C   UNL A   1      47.719  27.127  26.593  1.00  0.00     0.037 A 
ATOM     51  C   UNL A   1      42.152  29.701  28.790  1.00  0.00     0.049 A 
ATOM     52  C   UNL A   1      47.337  28.505  27.057  1.00  0.00     0.074 A 
ATOM     53  C   UNL A   1      41.936  30.980  29.271  1.00  0.00     0.029 A 
ATOM     54  N   UNL A   1      43.483  29.642  28.400  1.00  0.00    -0.354 N 
ATOM     55  N   UNL A   1      46.180  28.938  27.498  1.00  0.00    -0.248 NA
ATOM     56  C   UNL A   1      48.387  29.530  27.025  1.00  0.00     0.031 C 
ATOM     57  C   UNL A   1      43.117  31.714  29.111  1.00  0.00     0.029 A 
ATOM     58  C   UNL A   1      44.090  30.874  28.595  1.00  0.00     0.049 A 
ATOM     59  H   UNL A   1      43.931  28.842  28.039  1.00  0.00     0.167 HD
ATOM     60  C   UNL A   1      46.368  30.276  27.817  1.00  0.00     0.074 A 
ATOM     61  C   UNL A   1      47.756  30.579  27.535  1.00  0.00     0.031 C 
ATOM     62  C   UNL A   1      45.471  31.170  28.302  1.00  0.00     0.037 A 
BRANCH  49  63
ATOM     63  C   UNL A   1      39.773  28.875  29.012  1.00  0.00     0.064 A 
ATOM     64  C   UNL A   1      39.263  28.697  30.309  1.00  0.00     0.173 A 
ATOM     65  C   UNL A   1      38.887  29.326  28.020  1.00  0.00     0.173 A 
ATOM     66  F   UNL A   1      40.063  28.261  31.294  1.00  0.00    -0.203 F 
ATOM     67  C   UNL A   1      37.916  28.915  30.587  1.00  0.00     0.198 A 
ATOM     68  C   UNL A   1      37.549  29.579  28.311  1.00  0.00     0.198 A 
ATOM     69  F   UNL A   1      39.320  29.523  26.765  1.00  0.00    -0.203 F 
ATOM     70  F   UNL A   1      37.440  28.672  31.817  1.00  0.00    -0.200 F 
ATOM     71  C   UNL A   1      37.062  29.360  29.591  1.00  0.00     0.200 A 
ATOM     72  F   UNL A   1      36.728  30.025  27.350  1.00  0.00    -0.200 F 
ATOM     73  F   UNL A   1      35.766  29.570  29.861  1.00  0.00    -0.200 F 
ENDBRANCH  49  63
BRANCH  50  74
ATOM     74  C   UNL A   1      49.086  26.837  26.087  1.00  0.00     0.064 A 
ATOM     75  C   UNL A   1      50.082  26.337  26.937  1.00  0.00     0.173 A 
ATOM     76  C   UNL A   1      49.414  27.022  24.735  1.00  0.00     0.173 A 
ATOM     77  F   UNL A   1      49.822  26.161  28.241  1.00  0.00    -0.203 F 
ATOM     78  C   UNL A   1      51.357  26.046  26.457  1.00  0.00     0.198 A 
ATOM     79  C   UNL A   1      50.681  26.702  24.252  1.00  0.00     0.198 A 
ATOM     80  F   UNL A   1      48.494  27.491  23.880  1.00  0.00    -0.203 F 
ATOM     81  F   UNL A   1      52.302  25.603  27.299  1.00  0.00    -0.200 F 
ATOM     82  C   UNL A   1      51.653  26.220  25.114  1.00  0.00     0.200 A 
ATOM     83  F   UNL A   1      50.955  26.855  22.949  1.00  0.00    -0.200 F 
ATOM     84  F   UNL A   1      52.875  25.925  24.650  1.00  0.00    -0.200 F 
ENDBRANCH  50  74
BRANCH  62  85
ATOM     85  C   UNL A   1      45.966  32.560  28.584  1.00  0.00     0.064 A 
ATOM     86  C   UNL A   1      46.534  32.908  29.819  1.00  0.00     0.173 A 
ATOM     87  C   UNL A   1      45.906  33.549  27.589  1.00  0.00     0.173 A 
ATOM     88  F   UNL A   1      46.602  32.005  30.809  1.00  0.00    -0.203 F 
ATOM     89  C   UNL A   1      46.996  34.200  30.056  1.00  0.00     0.198 A 
ATOM     90  C   UNL A   1      46.401  34.831  27.820  1.00  0.00     0.198 A 
ATOM     91  F   UNL A   1      45.380  33.269  26.388  1.00  0.00    -0.203 F 
ATOM     92  F   UNL A   1      47.486  34.523  31.262  1.00  0.00    -0.200 F 
ATOM     93  C   UNL A   1      46.937  35.157  29.056  1.00  0.00     0.200 A 
ATOM     94  F   UNL A   1      46.357  35.749  26.845  1.00  0.00    -0.200 F 
ATOM     95  F   UNL A   1      47.390  36.398  29.284  1.00  0.00    -0.200 F 
ENDBRANCH  62  85
ENDBRANCH  36  37
ENDBRANCH  28  31
ENDBRANCH  26  27
ENDBRANCH  25  26
ENDBRANCH  24  25
ENDBRANCH   1  24
TORSDOF 15
ENDMDL
