MODEL 1
REMARK VINA RESULT:     -14.0      0.000      0.000
REMARK SMILES Nc1oc2ccc(F)cc2c(=O)c1[C@@H]1[NH2+][C@H](C(=O)NCCCCNC(=O)c2ccc(-c3c4nc(c(-c5c(F)c(F)c(F)c(F)c5F)c5ccc([nH]5)c(-c5c(F)c(F)c(F)c(F)c5F)c5nc(c(-c6c(F)c(F)c(F)c(F)c6F)c6ccc3[nH]6)C=C5)C=C4)cc2)CS1
REMARK SMILES IDX 21 1 20 2 19 3 17 4 18 5 16 7 14 8 15 9 91 10 90 13 13 14
REMARK SMILES IDX 2 15 3 16 4 17 11 18 5 19 10 20 12 21 6 22 9 23 7 24 8 25
REMARK SMILES IDX 1 26 22 29 23 30 24 31 25 32 26 34 27 35 28 36 89 37 29 38
REMARK SMILES IDX 88 39 30 40 31 41 32 42 82 43 33 44 87 45 81 46 83 47 34 48
REMARK SMILES IDX 86 49 80 50 79 51 35 53 67 54 47 55 66 56 48 57 51 58 65 59
REMARK SMILES IDX 84 60 49 61 50 62 64 64 85 65 52 66 36 67 37 68 45 69 38 70
REMARK SMILES IDX 39 71 43 72 46 73 40 74 41 75 44 76 42 77 68 78 69 79 77 80
REMARK SMILES IDX 70 81 71 82 75 83 78 84 72 85 73 86 76 87 74 88 53 89 54 90
REMARK SMILES IDX 62 91 55 92 56 93 60 94 63 95 57 96 58 97 61 98 59 99
REMARK H PARENT 19 6 15 11 15 12 1 27 1 28 24 33 83 52 51 63
REMARK Flexibility Score: inf
ROOT
ATOM      1  C   UNL A   1      32.315  28.381  27.268  1.00  0.00     0.023 C 
ENDROOT
BRANCH   1   2
ATOM      2  C   UNL A   1      31.872  27.403  26.170  1.00  0.00     0.116 C 
BRANCH   2   3
ATOM      3  N   UNL A   1      31.363  26.153  26.706  1.00  0.00    -0.351 N 
ATOM      4  C   UNL A   1      31.823  24.875  26.582  1.00  0.00     0.279 C 
ATOM      5  O   UNL A   1      31.226  24.007  27.231  1.00  0.00    -0.268 OA
ATOM      6  H   UNL A   1      30.547  26.244  27.252  1.00  0.00     0.163 HD
BRANCH   4   7
ATOM      7  C   UNL A   1      33.079  24.486  25.778  1.00  0.00     0.283 C 
ATOM      8  C   UNL A   1      34.253  22.473  25.069  1.00  0.00     0.283 C 
ATOM      9  N   UNL A   1      33.675  23.207  26.204  1.00  0.00    -0.320 N 
ATOM     10  S   UNL A   1      34.019  23.453  23.562  1.00  0.00    -0.087 SA
ATOM     11  H   UNL A   1      34.412  23.396  26.884  1.00  0.00     0.348 HD
ATOM     12  H   UNL A   1      32.939  22.633  26.612  1.00  0.00     0.348 HD
ATOM     13  C   UNL A   1      32.726  24.469  24.300  1.00  0.00     0.151 C 
BRANCH   8  14
ATOM     14  C   UNL A   1      33.668  21.074  25.041  1.00  0.00     0.128 A 
ATOM     15  C   UNL A   1      32.389  20.659  25.197  1.00  0.00     0.205 A 
ATOM     16  O   UNL A   1      32.011  19.329  25.281  1.00  0.00    -0.440 OA
ATOM     17  C   UNL A   1      32.951  18.348  25.180  1.00  0.00     0.140 A 
ATOM     18  C   UNL A   1      34.714  20.021  24.875  1.00  0.00     0.205 A 
ATOM     19  C   UNL A   1      32.510  17.030  25.300  1.00  0.00     0.051 A 
ATOM     20  C   UNL A   1      34.292  18.620  24.955  1.00  0.00     0.068 A 
ATOM     21  O   UNL A   1      35.898  20.291  24.698  1.00  0.00    -0.288 OA
ATOM     22  C   UNL A   1      33.421  15.985  25.158  1.00  0.00     0.043 A 
ATOM     23  C   UNL A   1      35.213  17.579  24.823  1.00  0.00     0.055 A 
ATOM     24  C   UNL A   1      34.764  16.267  24.916  1.00  0.00     0.124 A 
ATOM     25  F   UNL A   1      35.635  15.261  24.779  1.00  0.00    -0.207 F 
BRANCH  15  26
ATOM     26  N   UNL A   1      31.307  21.477  25.339  1.00  0.00    -0.369 N 
ATOM     27  H   UNL A   1      30.402  21.093  25.384  1.00  0.00     0.159 HD
ATOM     28  H   UNL A   1      31.432  22.452  25.398  1.00  0.00     0.159 HD
ENDBRANCH  15  26
ENDBRANCH   8  14
ENDBRANCH   4   7
ENDBRANCH   2   3
ENDBRANCH   1   2
BRANCH   1  29
ATOM     29  C   UNL A   1      31.631  29.749  27.186  1.00  0.00     0.023 C 
BRANCH  29  30
ATOM     30  C   UNL A   1      32.444  30.823  26.463  1.00  0.00     0.116 C 
BRANCH  30  31
ATOM     31  N   UNL A   1      32.463  32.119  27.131  1.00  0.00    -0.352 N 
ATOM     32  C   UNL A   1      33.504  32.730  27.798  1.00  0.00     0.251 C 
ATOM     33  H   UNL A   1      31.620  32.626  27.100  1.00  0.00     0.163 HD
ATOM     34  O   UNL A   1      33.315  33.769  28.424  1.00  0.00    -0.269 OA
BRANCH  32  35
ATOM     35  C   UNL A   1      34.835  32.083  27.876  1.00  0.00     0.039 A 
ATOM     36  C   UNL A   1      34.979  30.698  27.933  1.00  0.00     0.014 A 
ATOM     37  C   UNL A   1      35.951  32.911  28.040  1.00  0.00     0.014 A 
ATOM     38  C   UNL A   1      36.150  30.161  28.455  1.00  0.00     0.010 A 
ATOM     39  C   UNL A   1      37.156  32.365  28.473  1.00  0.00     0.010 A 
ATOM     40  C   UNL A   1      37.214  31.003  28.805  1.00  0.00    -0.014 A 
BRANCH  40  41
ATOM     41  C   UNL A   1      38.286  30.506  29.699  1.00  0.00     0.031 A 
ATOM     42  C   UNL A   1      39.325  29.566  29.137  1.00  0.00     0.074 A 
ATOM     43  C   UNL A   1      38.380  30.945  30.965  1.00  0.00     0.049 A 
ATOM     44  N   UNL A   1      40.299  28.940  29.749  1.00  0.00    -0.248 NA
ATOM     45  C   UNL A   1      39.258  29.285  27.692  1.00  0.00     0.031 C 
ATOM     46  C   UNL A   1      37.474  31.904  31.593  1.00  0.00     0.029 A 
ATOM     47  N   UNL A   1      39.295  30.653  31.942  1.00  0.00    -0.354 N 
ATOM     48  C   UNL A   1      40.924  28.168  28.777  1.00  0.00     0.074 A 
ATOM     49  C   UNL A   1      40.216  28.384  27.536  1.00  0.00     0.031 C 
ATOM     50  C   UNL A   1      37.893  32.144  32.845  1.00  0.00     0.029 A 
ATOM     51  C   UNL A   1      39.062  31.311  33.122  1.00  0.00     0.049 A 
ATOM     52  H   UNL A   1      40.046  30.029  31.811  1.00  0.00     0.167 HD
ATOM     53  C   UNL A   1      42.001  27.358  28.907  1.00  0.00     0.037 A 
ATOM     54  C   UNL A   1      39.706  31.232  34.302  1.00  0.00     0.037 A 
ATOM     55  C   UNL A   1      42.734  27.189  30.132  1.00  0.00     0.049 A 
ATOM     56  C   UNL A   1      40.880  30.303  34.431  1.00  0.00     0.074 A 
ATOM     57  C   UNL A   1      43.843  26.399  30.375  1.00  0.00     0.029 A 
ATOM     58  N   UNL A   1      42.436  27.842  31.319  1.00  0.00    -0.354 N 
ATOM     59  N   UNL A   1      41.428  29.535  33.521  1.00  0.00    -0.248 NA
ATOM     60  C   UNL A   1      41.515  30.218  35.753  1.00  0.00     0.031 C 
ATOM     61  C   UNL A   1      44.202  26.555  31.717  1.00  0.00     0.029 A 
ATOM     62  C   UNL A   1      43.336  27.467  32.301  1.00  0.00     0.049 A 
ATOM     63  H   UNL A   1      41.694  28.477  31.445  1.00  0.00     0.167 HD
ATOM     64  C   UNL A   1      42.473  28.878  34.155  1.00  0.00     0.074 A 
ATOM     65  C   UNL A   1      42.495  29.355  35.524  1.00  0.00     0.031 C 
ATOM     66  C   UNL A   1      43.331  27.957  33.654  1.00  0.00     0.037 A 
BRANCH  53  67
ATOM     67  C   UNL A   1      42.450  26.585  27.702  1.00  0.00     0.064 A 
ATOM     68  C   UNL A   1      43.419  27.088  26.822  1.00  0.00     0.173 A 
ATOM     69  C   UNL A   1      41.943  25.300  27.456  1.00  0.00     0.173 A 
ATOM     70  F   UNL A   1      43.921  28.318  27.002  1.00  0.00    -0.203 F 
ATOM     71  C   UNL A   1      43.857  26.337  25.733  1.00  0.00     0.198 A 
ATOM     72  C   UNL A   1      42.400  24.542  26.381  1.00  0.00     0.198 A 
ATOM     73  F   UNL A   1      41.015  24.772  28.269  1.00  0.00    -0.203 F 
ATOM     74  F   UNL A   1      44.761  26.849  24.888  1.00  0.00    -0.200 F 
ATOM     75  C   UNL A   1      43.354  25.062  25.519  1.00  0.00     0.200 A 
ATOM     76  F   UNL A   1      41.920  23.306  26.181  1.00  0.00    -0.200 F 
ATOM     77  F   UNL A   1      43.787  24.335  24.479  1.00  0.00    -0.200 F 
ENDBRANCH  53  67
BRANCH  54  78
ATOM     78  C   UNL A   1      39.238  32.056  35.442  1.00  0.00     0.064 A 
ATOM     79  C   UNL A   1      38.398  31.514  36.423  1.00  0.00     0.173 A 
ATOM     80  C   UNL A   1      39.663  33.383  35.605  1.00  0.00     0.173 A 
ATOM     81  F   UNL A   1      37.950  30.255  36.300  1.00  0.00    -0.203 F 
ATOM     82  C   UNL A   1      38.003  32.267  37.526  1.00  0.00     0.198 A 
ATOM     83  C   UNL A   1      39.287  34.127  36.720  1.00  0.00     0.198 A 
ATOM     84  F   UNL A   1      40.472  33.944  34.693  1.00  0.00    -0.203 F 
ATOM     85  F   UNL A   1      37.184  31.732  38.443  1.00  0.00    -0.200 F 
ATOM     86  C   UNL A   1      38.457  33.570  37.680  1.00  0.00     0.200 A 
ATOM     87  F   UNL A   1      39.742  35.379  36.871  1.00  0.00    -0.200 F 
ATOM     88  F   UNL A   1      38.094  34.286  38.752  1.00  0.00    -0.200 F 
ENDBRANCH  54  78
BRANCH  66  89
ATOM     89  C   UNL A   1      44.367  27.409  34.585  1.00  0.00     0.064 A 
ATOM     90  C   UNL A   1      44.155  26.213  35.283  1.00  0.00     0.173 A 
ATOM     91  C   UNL A   1      45.607  28.049  34.726  1.00  0.00     0.173 A 
ATOM     92  F   UNL A   1      42.980  25.574  35.183  1.00  0.00    -0.203 F 
ATOM     93  C   UNL A   1      45.145  25.680  36.102  1.00  0.00     0.198 A 
ATOM     94  C   UNL A   1      46.603  27.503  35.530  1.00  0.00     0.198 A 
ATOM     95  F   UNL A   1      45.858  29.192  34.071  1.00  0.00    -0.203 F 
ATOM     96  F   UNL A   1      44.913  24.549  36.783  1.00  0.00    -0.200 F 
ATOM     97  C   UNL A   1      46.370  26.321  36.220  1.00  0.00     0.200 A 
ATOM     98  F   UNL A   1      47.790  28.117  35.636  1.00  0.00    -0.200 F 
ATOM     99  F   UNL A   1      47.326  25.802  37.002  1.00  0.00    -0.200 F 
ENDBRANCH  66  89
ENDBRANCH  40  41
ENDBRANCH  32  35
ENDBRANCH  30  31
ENDBRANCH  29  30
ENDBRANCH   1  29
TORSDOF 13
ENDMDL
MODEL 2
REMARK VINA RESULT:     -13.6      1.469      2.619
REMARK SMILES Nc1oc2ccc(F)cc2c(=O)c1[C@@H]1[NH2+][C@H](C(=O)NCCCCNC(=O)c2ccc(-c3c4nc(c(-c5c(F)c(F)c(F)c(F)c5F)c5ccc([nH]5)c(-c5c(F)c(F)c(F)c(F)c5F)c5nc(c(-c6c(F)c(F)c(F)c(F)c6F)c6ccc3[nH]6)C=C5)C=C4)cc2)CS1
REMARK SMILES IDX 21 1 20 2 19 3 17 4 18 5 16 7 14 8 15 9 91 10 90 13 13 14
REMARK SMILES IDX 2 15 3 16 4 17 11 18 5 19 10 20 12 21 6 22 9 23 7 24 8 25
REMARK SMILES IDX 1 26 22 29 23 30 24 31 25 32 26 34 27 35 28 36 89 37 29 38
REMARK SMILES IDX 88 39 30 40 31 41 32 42 82 43 33 44 87 45 81 46 83 47 34 48
REMARK SMILES IDX 86 49 80 50 79 51 35 53 67 54 47 55 66 56 48 57 51 58 65 59
REMARK SMILES IDX 84 60 49 61 50 62 64 64 85 65 52 66 36 67 37 68 45 69 38 70
REMARK SMILES IDX 39 71 43 72 46 73 40 74 41 75 44 76 42 77 68 78 69 79 77 80
REMARK SMILES IDX 70 81 71 82 75 83 78 84 72 85 73 86 76 87 74 88 53 89 54 90
REMARK SMILES IDX 62 91 55 92 56 93 60 94 63 95 57 96 58 97 61 98 59 99
REMARK H PARENT 19 6 15 11 15 12 1 27 1 28 24 33 83 52 51 63
REMARK Flexibility Score: inf
ROOT
ATOM      1  C   UNL A   1      32.652  28.750  27.203  1.00  0.00     0.023 C 
ENDROOT
BRANCH   1   2
ATOM      2  C   UNL A   1      31.862  27.953  26.156  1.00  0.00     0.116 C 
BRANCH   2   3
ATOM      3  N   UNL A   1      31.334  26.707  26.682  1.00  0.00    -0.351 N 
ATOM      4  C   UNL A   1      31.788  25.426  26.566  1.00  0.00     0.279 C 
ATOM      5  O   UNL A   1      31.174  24.561  27.203  1.00  0.00    -0.268 OA
ATOM      6  H   UNL A   1      30.510  26.802  27.213  1.00  0.00     0.163 HD
BRANCH   4   7
ATOM      7  C   UNL A   1      33.056  25.028  25.784  1.00  0.00     0.283 C 
ATOM      8  C   UNL A   1      34.198  23.008  25.045  1.00  0.00     0.283 C 
ATOM      9  N   UNL A   1      33.608  23.722  26.186  1.00  0.00    -0.320 N 
ATOM     10  S   UNL A   1      34.031  24.040  23.564  1.00  0.00    -0.087 SA
ATOM     11  H   UNL A   1      34.329  23.871  26.892  1.00  0.00     0.348 HD
ATOM     12  H   UNL A   1      32.845  23.155  26.555  1.00  0.00     0.348 HD
ATOM     13  C   UNL A   1      32.743  25.065  24.297  1.00  0.00     0.151 C 
BRANCH   8  14
ATOM     14  C   UNL A   1      33.579  21.626  24.958  1.00  0.00     0.128 A 
ATOM     15  C   UNL A   1      32.287  21.239  25.076  1.00  0.00     0.205 A 
ATOM     16  O   UNL A   1      31.874  19.917  25.107  1.00  0.00    -0.440 OA
ATOM     17  C   UNL A   1      32.791  18.916  24.988  1.00  0.00     0.140 A 
ATOM     18  C   UNL A   1      34.601  20.553  24.773  1.00  0.00     0.205 A 
ATOM     19  C   UNL A   1      32.315  17.606  25.054  1.00  0.00     0.051 A 
ATOM     20  C   UNL A   1      34.142  19.161  24.797  1.00  0.00     0.068 A 
ATOM     21  O   UNL A   1      35.794  20.798  24.626  1.00  0.00    -0.288 OA
ATOM     22  C   UNL A   1      33.202  16.544  24.891  1.00  0.00     0.043 A 
ATOM     23  C   UNL A   1      35.039  18.102  24.644  1.00  0.00     0.055 A 
ATOM     24  C   UNL A   1      34.555  16.800  24.682  1.00  0.00     0.124 A 
ATOM     25  F   UNL A   1      35.404  15.777  24.526  1.00  0.00    -0.207 F 
BRANCH  15  26
ATOM     26  N   UNL A   1      31.224  22.079  25.228  1.00  0.00    -0.369 N 
ATOM     27  H   UNL A   1      31.334  23.046  25.079  1.00  0.00     0.159 HD
ATOM     28  H   UNL A   1      30.344  21.718  25.486  1.00  0.00     0.159 HD
ENDBRANCH  15  26
ENDBRANCH   8  14
ENDBRANCH   4   7
ENDBRANCH   2   3
ENDBRANCH   1   2
BRANCH   1  29
ATOM     29  C   UNL A   1      33.416  29.943  26.622  1.00  0.00     0.023 C 
BRANCH  29  30
ATOM     30  C   UNL A   1      33.761  31.033  27.636  1.00  0.00     0.116 C 
BRANCH  30  31
ATOM     31  N   UNL A   1      33.043  32.287  27.446  1.00  0.00    -0.352 N 
ATOM     32  C   UNL A   1      33.226  33.492  28.092  1.00  0.00     0.251 C 
ATOM     33  H   UNL A   1      32.334  32.272  26.764  1.00  0.00     0.163 HD
ATOM     34  O   UNL A   1      32.442  34.419  27.907  1.00  0.00    -0.269 OA
BRANCH  32  35
ATOM     35  C   UNL A   1      34.291  33.650  29.110  1.00  0.00     0.039 A 
ATOM     36  C   UNL A   1      35.551  34.151  28.788  1.00  0.00     0.014 A 
ATOM     37  C   UNL A   1      34.045  33.141  30.390  1.00  0.00     0.014 A 
ATOM     38  C   UNL A   1      36.626  33.862  29.619  1.00  0.00     0.010 A 
ATOM     39  C   UNL A   1      35.108  32.935  31.265  1.00  0.00     0.010 A 
ATOM     40  C   UNL A   1      36.417  33.177  30.825  1.00  0.00    -0.014 A 
BRANCH  40  41
ATOM     41  C   UNL A   1      37.560  32.534  31.516  1.00  0.00     0.031 A 
ATOM     42  C   UNL A   1      38.332  31.455  30.795  1.00  0.00     0.074 A 
ATOM     43  C   UNL A   1      37.954  32.957  32.728  1.00  0.00     0.049 A 
ATOM     44  N   UNL A   1      39.308  30.698  31.231  1.00  0.00    -0.248 NA
ATOM     45  C   UNL A   1      37.952  31.183  29.397  1.00  0.00     0.031 C 
ATOM     46  C   UNL A   1      37.326  34.037  33.488  1.00  0.00     0.029 A 
ATOM     47  N   UNL A   1      38.988  32.539  33.524  1.00  0.00    -0.354 N 
ATOM     48  C   UNL A   1      39.622  29.843  30.181  1.00  0.00     0.074 A 
ATOM     49  C   UNL A   1      38.728  30.155  29.090  1.00  0.00     0.031 C 
ATOM     50  C   UNL A   1      38.006  34.216  34.631  1.00  0.00     0.029 A 
ATOM     51  C   UNL A   1      39.078  33.227  34.707  1.00  0.00     0.049 A 
ATOM     52  H   UNL A   1      39.606  31.815  33.271  1.00  0.00     0.167 HD
ATOM     53  C   UNL A   1      40.581  28.888  30.129  1.00  0.00     0.037 A 
ATOM     54  C   UNL A   1      39.918  33.058  35.746  1.00  0.00     0.037 A 
ATOM     55  C   UNL A   1      41.502  28.618  31.199  1.00  0.00     0.049 A 
ATOM     56  C   UNL A   1      40.953  31.971  35.679  1.00  0.00     0.074 A 
ATOM     57  C   UNL A   1      42.516  27.679  31.251  1.00  0.00     0.029 A 
ATOM     58  N   UNL A   1      41.529  29.309  32.402  1.00  0.00    -0.354 N 
ATOM     59  N   UNL A   1      41.205  31.131  34.705  1.00  0.00    -0.248 NA
ATOM     60  C   UNL A   1      41.810  31.800  36.859  1.00  0.00     0.031 C 
ATOM     61  C   UNL A   1      43.142  27.784  32.497  1.00  0.00     0.029 A 
ATOM     62  C   UNL A   1      42.539  28.811  33.207  1.00  0.00     0.049 A 
ATOM     63  H   UNL A   1      40.921  30.043  32.647  1.00  0.00     0.167 HD
ATOM     64  C   UNL A   1      42.250  30.334  35.149  1.00  0.00     0.074 A 
ATOM     65  C   UNL A   1      42.598  30.805  36.475  1.00  0.00     0.031 C 
ATOM     66  C   UNL A   1      42.860  29.299  34.522  1.00  0.00     0.037 A 
BRANCH  53  67
ATOM     67  C   UNL A   1      40.680  28.057  28.884  1.00  0.00     0.064 A 
ATOM     68  C   UNL A   1      39.952  26.869  28.730  1.00  0.00     0.173 A 
ATOM     69  C   UNL A   1      41.472  28.487  27.808  1.00  0.00     0.173 A 
ATOM     70  F   UNL A   1      39.194  26.406  29.735  1.00  0.00    -0.203 F 
ATOM     71  C   UNL A   1      40.021  26.135  27.548  1.00  0.00     0.198 A 
ATOM     72  C   UNL A   1      41.522  27.763  26.620  1.00  0.00     0.198 A 
ATOM     73  F   UNL A   1      42.188  29.617  27.904  1.00  0.00    -0.203 F 
ATOM     74  F   UNL A   1      39.341  24.986  27.433  1.00  0.00    -0.200 F 
ATOM     75  C   UNL A   1      40.799  26.587  26.491  1.00  0.00     0.200 A 
ATOM     76  F   UNL A   1      42.265  28.206  25.596  1.00  0.00    -0.200 F 
ATOM     77  F   UNL A   1      40.853  25.886  25.350  1.00  0.00    -0.200 F 
ENDBRANCH  53  67
BRANCH  54  78
ATOM     78  C   UNL A   1      39.794  33.942  36.930  1.00  0.00     0.064 A 
ATOM     79  C   UNL A   1      40.435  35.188  36.967  1.00  0.00     0.173 A 
ATOM     80  C   UNL A   1      38.992  33.586  38.024  1.00  0.00     0.173 A 
ATOM     81  F   UNL A   1      41.227  35.563  35.952  1.00  0.00    -0.203 F 
ATOM     82  C   UNL A   1      40.273  36.045  38.053  1.00  0.00     0.198 A 
ATOM     83  C   UNL A   1      38.812  34.454  39.098  1.00  0.00     0.198 A 
ATOM     84  F   UNL A   1      38.355  32.405  38.032  1.00  0.00    -0.203 F 
ATOM     85  F   UNL A   1      40.911  37.224  38.073  1.00  0.00    -0.200 F 
ATOM     86  C   UNL A   1      39.454  35.683  39.113  1.00  0.00     0.200 A 
ATOM     87  F   UNL A   1      38.007  34.106  40.110  1.00  0.00    -0.200 F 
ATOM     88  F   UNL A   1      39.283  36.517  40.146  1.00  0.00    -0.200 F 
ENDBRANCH  54  78
BRANCH  66  89
ATOM     89  C   UNL A   1      43.968  28.610  35.257  1.00  0.00     0.064 A 
ATOM     90  C   UNL A   1      43.709  27.531  36.112  1.00  0.00     0.173 A 
ATOM     91  C   UNL A   1      45.302  28.989  35.050  1.00  0.00     0.173 A 
ATOM     92  F   UNL A   1      42.447  27.143  36.345  1.00  0.00    -0.203 F 
ATOM     93  C   UNL A   1      44.749  26.861  36.748  1.00  0.00     0.198 A 
ATOM     94  C   UNL A   1      46.341  28.303  35.670  1.00  0.00     0.198 A 
ATOM     95  F   UNL A   1      45.597  30.011  34.233  1.00  0.00    -0.203 F 
ATOM     96  F   UNL A   1      44.480  25.848  37.583  1.00  0.00    -0.200 F 
ATOM     97  C   UNL A   1      46.064  27.242  36.521  1.00  0.00     0.200 A 
ATOM     98  F   UNL A   1      47.612  28.665  35.443  1.00  0.00    -0.200 F 
ATOM     99  F   UNL A   1      47.066  26.588  37.126  1.00  0.00    -0.200 F 
ENDBRANCH  66  89
ENDBRANCH  40  41
ENDBRANCH  32  35
ENDBRANCH  30  31
ENDBRANCH  29  30
ENDBRANCH   1  29
TORSDOF 13
ENDMDL
MODEL 3
REMARK VINA RESULT:     -13.6      3.423      7.873
REMARK SMILES Nc1oc2ccc(F)cc2c(=O)c1[C@@H]1[NH2+][C@H](C(=O)NCCCCNC(=O)c2ccc(-c3c4nc(c(-c5c(F)c(F)c(F)c(F)c5F)c5ccc([nH]5)c(-c5c(F)c(F)c(F)c(F)c5F)c5nc(c(-c6c(F)c(F)c(F)c(F)c6F)c6ccc3[nH]6)C=C5)C=C4)cc2)CS1
REMARK SMILES IDX 21 1 20 2 19 3 17 4 18 5 16 7 14 8 15 9 91 10 90 13 13 14
REMARK SMILES IDX 2 15 3 16 4 17 11 18 5 19 10 20 12 21 6 22 9 23 7 24 8 25
REMARK SMILES IDX 1 26 22 29 23 30 24 31 25 32 26 34 27 35 28 36 89 37 29 38
REMARK SMILES IDX 88 39 30 40 31 41 32 42 82 43 33 44 87 45 81 46 83 47 34 48
REMARK SMILES IDX 86 49 80 50 79 51 35 53 67 54 47 55 66 56 48 57 51 58 65 59
REMARK SMILES IDX 84 60 49 61 50 62 64 64 85 65 52 66 36 67 37 68 45 69 38 70
REMARK SMILES IDX 39 71 43 72 46 73 40 74 41 75 44 76 42 77 68 78 69 79 77 80
REMARK SMILES IDX 70 81 71 82 75 83 78 84 72 85 73 86 76 87 74 88 53 89 54 90
REMARK SMILES IDX 62 91 55 92 56 93 60 94 63 95 57 96 58 97 61 98 59 99
REMARK H PARENT 19 6 15 11 15 12 1 27 1 28 24 33 83 52 51 63
REMARK Flexibility Score: inf
ROOT
ATOM      1  C   UNL A   1      31.795  28.535  27.464  1.00  0.00     0.023 C 
ENDROOT
BRANCH   1   2
ATOM      2  C   UNL A   1      31.685  27.498  26.338  1.00  0.00     0.116 C 
BRANCH   2   3
ATOM      3  N   UNL A   1      31.162  26.224  26.800  1.00  0.00    -0.351 N 
ATOM      4  C   UNL A   1      31.636  24.954  26.640  1.00  0.00     0.279 C 
ATOM      5  O   UNL A   1      31.019  24.057  27.226  1.00  0.00    -0.268 OA
ATOM      6  H   UNL A   1      30.325  26.287  27.315  1.00  0.00     0.163 HD
BRANCH   4   7
ATOM      7  C   UNL A   1      32.926  24.606  25.872  1.00  0.00     0.283 C 
ATOM      8  C   UNL A   1      34.158  22.631  25.155  1.00  0.00     0.283 C 
ATOM      9  N   UNL A   1      33.528  23.326  26.286  1.00  0.00    -0.320 N 
ATOM     10  S   UNL A   1      33.961  23.646  23.666  1.00  0.00    -0.087 SA
ATOM     11  H   UNL A   1      34.236  23.510  26.997  1.00  0.00     0.348 HD
ATOM     12  H   UNL A   1      32.787  22.730  26.653  1.00  0.00     0.348 HD
ATOM     13  C   UNL A   1      32.625  24.621  24.382  1.00  0.00     0.151 C 
BRANCH   8  14
ATOM     14  C   UNL A   1      33.598  21.224  25.071  1.00  0.00     0.128 A 
ATOM     15  C   UNL A   1      32.323  20.783  25.189  1.00  0.00     0.205 A 
ATOM     16  O   UNL A   1      31.967  19.445  25.222  1.00  0.00    -0.440 OA
ATOM     17  C   UNL A   1      32.925  18.484  25.107  1.00  0.00     0.140 A 
ATOM     18  C   UNL A   1      34.665  20.194  24.890  1.00  0.00     0.205 A 
ATOM     19  C   UNL A   1      32.505  17.155  25.176  1.00  0.00     0.051 A 
ATOM     20  C   UNL A   1      34.265  18.785  24.916  1.00  0.00     0.068 A 
ATOM     21  O   UNL A   1      35.846  20.490  24.743  1.00  0.00    -0.288 OA
ATOM     22  C   UNL A   1      33.437  16.130  25.017  1.00  0.00     0.043 A 
ATOM     23  C   UNL A   1      35.206  17.764  24.767  1.00  0.00     0.055 A 
ATOM     24  C   UNL A   1      34.778  16.443  24.809  1.00  0.00     0.124 A 
ATOM     25  F   UNL A   1      35.670  15.457  24.656  1.00  0.00    -0.207 F 
BRANCH  15  26
ATOM     26  N   UNL A   1      31.225  21.577  25.337  1.00  0.00    -0.369 N 
ATOM     27  H   UNL A   1      31.318  22.557  25.310  1.00  0.00     0.159 HD
ATOM     28  H   UNL A   1      30.338  21.171  25.471  1.00  0.00     0.159 HD
ENDBRANCH  15  26
ENDBRANCH   8  14
ENDBRANCH   4   7
ENDBRANCH   2   3
ENDBRANCH   1   2
BRANCH   1  29
ATOM     29  C   UNL A   1      31.983  29.970  26.964  1.00  0.00     0.023 C 
BRANCH  29  30
ATOM     30  C   UNL A   1      33.425  30.475  27.009  1.00  0.00     0.116 C 
BRANCH  30  31
ATOM     31  N   UNL A   1      33.697  31.435  28.071  1.00  0.00    -0.352 N 
ATOM     32  C   UNL A   1      34.786  31.502  28.916  1.00  0.00     0.251 C 
ATOM     33  H   UNL A   1      33.012  32.130  28.203  1.00  0.00     0.163 HD
ATOM     34  O   UNL A   1      34.797  32.297  29.851  1.00  0.00    -0.269 OA
BRANCH  32  35
ATOM     35  C   UNL A   1      35.901  30.535  28.787  1.00  0.00     0.039 A 
ATOM     36  C   UNL A   1      36.314  29.739  29.854  1.00  0.00     0.014 A 
ATOM     37  C   UNL A   1      36.634  30.545  27.595  1.00  0.00     0.014 A 
ATOM     38  C   UNL A   1      37.599  29.210  29.845  1.00  0.00     0.010 A 
ATOM     39  C   UNL A   1      37.884  29.934  27.551  1.00  0.00     0.010 A 
ATOM     40  C   UNL A   1      38.420  29.378  28.721  1.00  0.00    -0.014 A 
BRANCH  40  41
ATOM     41  C   UNL A   1      39.883  29.169  28.838  1.00  0.00     0.031 A 
ATOM     42  C   UNL A   1      40.716  30.221  29.529  1.00  0.00     0.074 A 
ATOM     43  C   UNL A   1      40.447  28.029  28.408  1.00  0.00     0.049 A 
ATOM     44  N   UNL A   1      42.016  30.292  29.671  1.00  0.00    -0.248 NA
ATOM     45  C   UNL A   1      39.991  31.352  30.137  1.00  0.00     0.031 C 
ATOM     46  C   UNL A   1      39.731  26.916  27.788  1.00  0.00     0.029 A 
ATOM     47  N   UNL A   1      41.752  27.612  28.447  1.00  0.00    -0.354 N 
ATOM     48  C   UNL A   1      42.259  31.485  30.342  1.00  0.00     0.074 A 
ATOM     49  C   UNL A   1      40.981  32.119  30.567  1.00  0.00     0.031 C 
ATOM     50  C   UNL A   1      40.603  25.929  27.527  1.00  0.00     0.029 A 
ATOM     51  C   UNL A   1      41.943  26.365  27.909  1.00  0.00     0.049 A 
ATOM     52  H   UNL A   1      42.483  28.157  28.822  1.00  0.00     0.167 HD
ATOM     53  C   UNL A   1      43.445  32.000  30.745  1.00  0.00     0.037 A 
ATOM     54  C   UNL A   1      43.079  25.665  27.726  1.00  0.00     0.037 A 
ATOM     55  C   UNL A   1      44.708  31.337  30.565  1.00  0.00     0.049 A 
ATOM     56  C   UNL A   1      44.387  26.270  28.152  1.00  0.00     0.074 A 
ATOM     57  C   UNL A   1      45.969  31.765  30.939  1.00  0.00     0.029 A 
ATOM     58  N   UNL A   1      44.862  30.093  29.974  1.00  0.00    -0.354 N 
ATOM     59  N   UNL A   1      44.612  27.422  28.733  1.00  0.00    -0.248 NA
ATOM     60  C   UNL A   1      45.598  25.484  27.882  1.00  0.00     0.031 C 
ATOM     61  C   UNL A   1      46.891  30.788  30.551  1.00  0.00     0.029 A 
ATOM     62  C   UNL A   1      46.200  29.738  29.966  1.00  0.00     0.049 A 
ATOM     63  H   UNL A   1      44.130  29.543  29.613  1.00  0.00     0.167 HD
ATOM     64  C   UNL A   1      45.986  27.502  28.904  1.00  0.00     0.074 A 
ATOM     65  C   UNL A   1      46.543  26.269  28.383  1.00  0.00     0.031 C 
ATOM     66  C   UNL A   1      46.723  28.506  29.437  1.00  0.00     0.037 A 
BRANCH  53  67
ATOM     67  C   UNL A   1      43.439  33.345  31.409  1.00  0.00     0.064 A 
ATOM     68  C   UNL A   1      43.458  34.534  30.668  1.00  0.00     0.173 A 
ATOM     69  C   UNL A   1      43.357  33.443  32.807  1.00  0.00     0.173 A 
ATOM     70  F   UNL A   1      43.554  34.495  29.331  1.00  0.00    -0.203 F 
ATOM     71  C   UNL A   1      43.406  35.774  31.301  1.00  0.00     0.198 A 
ATOM     72  C   UNL A   1      43.282  34.683  33.436  1.00  0.00     0.198 A 
ATOM     73  F   UNL A   1      43.335  32.335  33.563  1.00  0.00    -0.203 F 
ATOM     74  F   UNL A   1      43.456  36.899  30.575  1.00  0.00    -0.200 F 
ATOM     75  C   UNL A   1      43.309  35.847  32.684  1.00  0.00     0.200 A 
ATOM     76  F   UNL A   1      43.178  34.752  34.771  1.00  0.00    -0.200 F 
ATOM     77  F   UNL A   1      43.245  37.041  33.290  1.00  0.00    -0.200 F 
ENDBRANCH  53  67
BRANCH  54  78
ATOM     78  C   UNL A   1      43.010  24.321  27.101  1.00  0.00     0.064 A 
ATOM     79  C   UNL A   1      43.326  24.140  25.749  1.00  0.00     0.173 A 
ATOM     80  C   UNL A   1      42.681  23.185  27.855  1.00  0.00     0.173 A 
ATOM     81  F   UNL A   1      43.627  25.200  24.984  1.00  0.00    -0.203 F 
ATOM     82  C   UNL A   1      43.319  22.871  25.174  1.00  0.00     0.198 A 
ATOM     83  C   UNL A   1      42.699  21.914  27.285  1.00  0.00     0.198 A 
ATOM     84  F   UNL A   1      42.376  23.308  29.155  1.00  0.00    -0.203 F 
ATOM     85  F   UNL A   1      43.607  22.726  23.873  1.00  0.00    -0.200 F 
ATOM     86  C   UNL A   1      43.016  21.758  25.945  1.00  0.00     0.200 A 
ATOM     87  F   UNL A   1      42.421  20.841  28.039  1.00  0.00    -0.200 F 
ATOM     88  F   UNL A   1      43.031  20.536  25.396  1.00  0.00    -0.200 F 
ENDBRANCH  54  78
BRANCH  66  89
ATOM     89  C   UNL A   1      48.207  28.315  29.487  1.00  0.00     0.064 A 
ATOM     90  C   UNL A   1      48.816  27.646  30.556  1.00  0.00     0.173 A 
ATOM     91  C   UNL A   1      49.016  28.743  28.424  1.00  0.00     0.173 A 
ATOM     92  F   UNL A   1      48.080  27.228  31.597  1.00  0.00    -0.203 F 
ATOM     93  C   UNL A   1      50.189  27.422  30.568  1.00  0.00     0.198 A 
ATOM     94  C   UNL A   1      50.386  28.500  28.429  1.00  0.00     0.198 A 
ATOM     95  F   UNL A   1      48.475  29.381  27.376  1.00  0.00    -0.203 F 
ATOM     96  F   UNL A   1      50.757  26.804  31.613  1.00  0.00    -0.200 F 
ATOM     97  C   UNL A   1      50.972  27.842  29.502  1.00  0.00     0.200 A 
ATOM     98  F   UNL A   1      51.140  28.897  27.394  1.00  0.00    -0.200 F 
ATOM     99  F   UNL A   1      52.293  27.618  29.510  1.00  0.00    -0.200 F 
ENDBRANCH  66  89
ENDBRANCH  40  41
ENDBRANCH  32  35
ENDBRANCH  30  31
ENDBRANCH  29  30
ENDBRANCH   1  29
TORSDOF 13
ENDMDL
