MODEL 1
REMARK VINA RESULT:     -12.6      0.000      0.000
REMARK SMILES C[C@@H](C(=O)NCCCCNC(=O)c1ccc(-c2c3nc(c(-c4c(F)c(F)c(F)c(F)c4F)c4ccc([nH]4)c(-c4c(F)c(F)c(F)c(F)c4F)c4nc(c(-c5c(F)c(F)c(F)c(F)c5F)c5ccc2[nH]5)C=C4)C=C3)cc1)c1cc(C(=O)c2ccccc2)ccc1O
REMARK SMILES IDX 7 1 6 2 5 3 3 4 4 5 2 7 1 8 76 9 77 10 89 11 78 12 88 13
REMARK SMILES IDX 87 14 90 15 79 17 80 18 81 19 82 20 86 21 83 22 85 23 84 24
REMARK SMILES IDX 8 25 9 26 10 27 11 28 12 30 13 31 14 32 75 33 15 34 74 35
REMARK SMILES IDX 16 36 17 37 18 38 68 39 19 40 73 41 67 42 69 43 20 44 72 45
REMARK SMILES IDX 66 46 65 47 21 49 53 50 33 51 52 52 34 53 37 54 51 55 70 56
REMARK SMILES IDX 35 57 36 58 50 60 71 61 38 62 22 63 23 64 31 65 24 66 25 67
REMARK SMILES IDX 29 68 32 69 26 70 27 71 30 72 28 73 54 74 55 75 63 76 56 77
REMARK SMILES IDX 57 78 61 79 64 80 58 81 59 82 62 83 60 84 39 85 40 86 48 87
REMARK SMILES IDX 41 88 42 89 46 90 49 91 43 92 44 93 47 94 45 95
REMARK H PARENT 5 6 90 16 10 29 69 48 37 59
REMARK Flexibility Score: inf
ROOT
ATOM      1  C   UNL A   1      31.979  29.719  27.131  1.00  0.00     0.023 C 
ENDROOT
BRANCH   1   2
ATOM      2  C   UNL A   1      31.966  28.711  25.975  1.00  0.00     0.116 C 
BRANCH   2   3
ATOM      3  N   UNL A   1      31.490  27.417  26.424  1.00  0.00    -0.356 N 
ATOM      4  C   UNL A   1      30.589  26.561  25.850  1.00  0.00     0.227 C 
ATOM      5  O   UNL A   1      30.191  25.627  26.550  1.00  0.00    -0.274 OA
ATOM      6  H   UNL A   1      31.875  27.104  27.275  1.00  0.00     0.163 HD
BRANCH   4   7
ATOM      7  C   UNL A   1      30.133  26.769  24.388  1.00  0.00     0.109 C 
ATOM      8  C   UNL A   1      28.672  26.330  24.249  1.00  0.00     0.023 C 
BRANCH   7   9
ATOM      9  C   UNL A   1      31.109  26.132  23.381  1.00  0.00     0.007 A 
ATOM     10  C   UNL A   1      31.781  24.943  23.755  1.00  0.00     0.020 A 
ATOM     11  C   UNL A   1      31.401  26.642  22.108  1.00  0.00     0.119 A 
ATOM     12  C   UNL A   1      32.677  24.294  22.886  1.00  0.00     0.023 A 
ATOM     13  C   UNL A   1      32.290  26.012  21.239  1.00  0.00     0.047 A 
ATOM     14  C   UNL A   1      32.912  24.829  21.617  1.00  0.00     0.016 A 
BRANCH  11  15
ATOM     15  O   UNL A   1      30.831  27.782  21.626  1.00  0.00    -0.508 OA
ATOM     16  H   UNL A   1      31.279  28.294  20.981  1.00  0.00     0.293 HD
ENDBRANCH  11  15
BRANCH  12  17
ATOM     17  C   UNL A   1      33.330  23.023  23.319  1.00  0.00     0.193 C 
ATOM     18  O   UNL A   1      32.828  21.936  23.047  1.00  0.00    -0.289 OA
BRANCH  17  19
ATOM     19  C   UNL A   1      34.613  23.051  24.062  1.00  0.00     0.022 A 
ATOM     20  C   UNL A   1      35.810  22.941  23.347  1.00  0.00     0.012 A 
ATOM     21  C   UNL A   1      34.633  23.211  25.452  1.00  0.00     0.012 A 
ATOM     22  C   UNL A   1      37.028  23.041  24.021  1.00  0.00     0.001 A 
ATOM     23  C   UNL A   1      35.853  23.314  26.120  1.00  0.00     0.001 A 
ATOM     24  C   UNL A   1      37.049  23.238  25.404  1.00  0.00     0.000 A 
ENDBRANCH  17  19
ENDBRANCH  12  17
ENDBRANCH   7   9
ENDBRANCH   4   7
ENDBRANCH   2   3
ENDBRANCH   1   2
BRANCH   1  25
ATOM     25  C   UNL A   1      31.900  31.185  26.706  1.00  0.00     0.023 C 
BRANCH  25  26
ATOM     26  C   UNL A   1      32.968  32.084  27.311  1.00  0.00     0.116 C 
BRANCH  26  27
ATOM     27  N   UNL A   1      32.529  33.461  27.487  1.00  0.00    -0.352 N 
ATOM     28  C   UNL A   1      33.035  34.412  28.344  1.00  0.00     0.251 C 
ATOM     29  H   UNL A   1      31.776  33.748  26.922  1.00  0.00     0.163 HD
ATOM     30  O   UNL A   1      32.503  35.504  28.461  1.00  0.00    -0.269 OA
BRANCH  28  31
ATOM     31  C   UNL A   1      34.218  34.066  29.158  1.00  0.00     0.039 A 
ATOM     32  C   UNL A   1      34.043  33.325  30.329  1.00  0.00     0.014 A 
ATOM     33  C   UNL A   1      35.498  34.405  28.713  1.00  0.00     0.014 A 
ATOM     34  C   UNL A   1      35.162  32.849  31.015  1.00  0.00     0.010 A 
ATOM     35  C   UNL A   1      36.606  33.870  29.354  1.00  0.00     0.010 A 
ATOM     36  C   UNL A   1      36.449  33.082  30.506  1.00  0.00    -0.014 A 
BRANCH  36  37
ATOM     37  C   UNL A   1      37.662  32.514  31.142  1.00  0.00     0.031 A 
ATOM     38  C   UNL A   1      38.362  31.359  30.490  1.00  0.00     0.074 A 
ATOM     39  C   UNL A   1      38.045  32.942  32.360  1.00  0.00     0.049 A 
ATOM     40  N   UNL A   1      39.304  30.584  30.963  1.00  0.00    -0.248 NA
ATOM     41  C   UNL A   1      37.909  31.002  29.138  1.00  0.00     0.031 C 
ATOM     42  C   UNL A   1      37.411  34.021  33.116  1.00  0.00     0.029 A 
ATOM     43  N   UNL A   1      39.040  32.490  33.191  1.00  0.00    -0.354 N 
ATOM     44  C   UNL A   1      39.525  29.624  29.986  1.00  0.00     0.074 A 
ATOM     45  C   UNL A   1      38.595  29.891  28.909  1.00  0.00     0.031 C 
ATOM     46  C   UNL A   1      38.027  34.145  34.302  1.00  0.00     0.029 A 
ATOM     47  C   UNL A   1      39.071  33.129  34.405  1.00  0.00     0.049 A 
ATOM     48  H   UNL A   1      39.670  31.777  32.940  1.00  0.00     0.167 HD
ATOM     49  C   UNL A   1      40.430  28.617  29.982  1.00  0.00     0.037 A 
ATOM     50  C   UNL A   1      39.838  32.904  35.489  1.00  0.00     0.037 A 
ATOM     51  C   UNL A   1      41.379  28.385  31.037  1.00  0.00     0.049 A 
ATOM     52  C   UNL A   1      40.862  31.806  35.452  1.00  0.00     0.074 A 
ATOM     53  C   UNL A   1      42.397  27.449  31.093  1.00  0.00     0.029 A 
ATOM     54  N   UNL A   1      41.426  29.100  32.227  1.00  0.00    -0.354 N 
ATOM     55  N   UNL A   1      41.110  30.942  34.497  1.00  0.00    -0.248 NA
ATOM     56  C   UNL A   1      41.718  31.652  36.636  1.00  0.00     0.031 C 
ATOM     57  C   UNL A   1      43.036  27.573  32.331  1.00  0.00     0.029 A 
ATOM     58  C   UNL A   1      42.445  28.614  33.029  1.00  0.00     0.049 A 
ATOM     59  H   UNL A   1      40.825  29.842  32.463  1.00  0.00     0.167 HD
ATOM     60  C   UNL A   1      42.162  30.160  34.952  1.00  0.00     0.074 A 
ATOM     61  C   UNL A   1      42.511  30.654  36.269  1.00  0.00     0.031 C 
ATOM     62  C   UNL A   1      42.784  29.126  34.333  1.00  0.00     0.037 A 
BRANCH  49  63
ATOM     63  C   UNL A   1      40.422  27.689  28.804  1.00  0.00     0.064 A 
ATOM     64  C   UNL A   1      39.656  26.514  28.795  1.00  0.00     0.173 A 
ATOM     65  C   UNL A   1      41.194  27.979  27.669  1.00  0.00     0.173 A 
ATOM     66  F   UNL A   1      38.912  26.184  29.861  1.00  0.00    -0.203 F 
ATOM     67  C   UNL A   1      39.697  25.640  27.711  1.00  0.00     0.198 A 
ATOM     68  C   UNL A   1      41.207  27.120  26.573  1.00  0.00     0.198 A 
ATOM     69  F   UNL A   1      41.939  29.093  27.623  1.00  0.00    -0.203 F 
ATOM     70  F   UNL A   1      39.008  24.491  27.753  1.00  0.00    -0.200 F 
ATOM     71  C   UNL A   1      40.469  25.946  26.599  1.00  0.00     0.200 A 
ATOM     72  F   UNL A   1      41.944  27.421  25.496  1.00  0.00    -0.200 F 
ATOM     73  F   UNL A   1      40.509  25.103  25.560  1.00  0.00    -0.200 F 
ENDBRANCH  49  63
BRANCH  50  74
ATOM     74  C   UNL A   1      39.665  33.756  36.693  1.00  0.00     0.064 A 
ATOM     75  C   UNL A   1      40.314  34.994  36.793  1.00  0.00     0.173 A 
ATOM     76  C   UNL A   1      38.821  33.372  37.744  1.00  0.00     0.173 A 
ATOM     77  F   UNL A   1      41.145  35.394  35.820  1.00  0.00    -0.203 F 
ATOM     78  C   UNL A   1      40.128  35.815  37.904  1.00  0.00     0.198 A 
ATOM     79  C   UNL A   1      38.619  34.204  38.844  1.00  0.00     0.198 A 
ATOM     80  F   UNL A   1      38.173  32.199  37.690  1.00  0.00    -0.203 F 
ATOM     81  F   UNL A   1      40.778  36.984  37.986  1.00  0.00    -0.200 F 
ATOM     82  C   UNL A   1      39.274  35.423  38.924  1.00  0.00     0.200 A 
ATOM     83  F   UNL A   1      37.782  33.828  39.820  1.00  0.00    -0.200 F 
ATOM     84  F   UNL A   1      39.084  36.219  39.984  1.00  0.00    -0.200 F 
ENDBRANCH  50  74
BRANCH  62  85
ATOM     85  C   UNL A   1      43.931  28.480  35.051  1.00  0.00     0.064 A 
ATOM     86  C   UNL A   1      43.744  27.371  35.888  1.00  0.00     0.173 A 
ATOM     87  C   UNL A   1      45.241  28.937  34.843  1.00  0.00     0.173 A 
ATOM     88  F   UNL A   1      42.508  26.909  36.129  1.00  0.00    -0.203 F 
ATOM     89  C   UNL A   1      44.829  26.748  36.499  1.00  0.00     0.198 A 
ATOM     90  C   UNL A   1      46.325  28.297  35.437  1.00  0.00     0.198 A 
ATOM     91  F   UNL A   1      45.471  29.992  34.047  1.00  0.00    -0.203 F 
ATOM     92  F   UNL A   1      44.626  25.708  37.319  1.00  0.00    -0.200 F 
ATOM     93  C   UNL A   1      46.117  27.205  36.267  1.00  0.00     0.200 A 
ATOM     94  F   UNL A   1      47.570  28.732  35.202  1.00  0.00    -0.200 F 
ATOM     95  F   UNL A   1      47.161  26.595  36.846  1.00  0.00    -0.200 F 
ENDBRANCH  62  85
ENDBRANCH  36  37
ENDBRANCH  28  31
ENDBRANCH  26  27
ENDBRANCH  25  26
ENDBRANCH   1  25
TORSDOF 15
ENDMDL
MODEL 2
REMARK VINA RESULT:     -12.5      0.301      1.610
REMARK SMILES C[C@@H](C(=O)NCCCCNC(=O)c1ccc(-c2c3nc(c(-c4c(F)c(F)c(F)c(F)c4F)c4ccc([nH]4)c(-c4c(F)c(F)c(F)c(F)c4F)c4nc(c(-c5c(F)c(F)c(F)c(F)c5F)c5ccc2[nH]5)C=C4)C=C3)cc1)c1cc(C(=O)c2ccccc2)ccc1O
REMARK SMILES IDX 7 1 6 2 5 3 3 4 4 5 2 7 1 8 76 9 77 10 89 11 78 12 88 13
REMARK SMILES IDX 87 14 90 15 79 17 80 18 81 19 82 20 86 21 83 22 85 23 84 24
REMARK SMILES IDX 8 25 9 26 10 27 11 28 12 30 13 31 14 32 75 33 15 34 74 35
REMARK SMILES IDX 16 36 17 37 18 38 68 39 19 40 73 41 67 42 69 43 20 44 72 45
REMARK SMILES IDX 66 46 65 47 21 49 53 50 33 51 52 52 34 53 37 54 51 55 70 56
REMARK SMILES IDX 35 57 36 58 50 60 71 61 38 62 22 63 23 64 31 65 24 66 25 67
REMARK SMILES IDX 29 68 32 69 26 70 27 71 30 72 28 73 54 74 55 75 63 76 56 77
REMARK SMILES IDX 57 78 61 79 64 80 58 81 59 82 62 83 60 84 39 85 40 86 48 87
REMARK SMILES IDX 41 88 42 89 46 90 49 91 43 92 44 93 47 94 45 95
REMARK H PARENT 5 6 90 16 10 29 69 48 37 59
REMARK Flexibility Score: inf
ROOT
ATOM      1  C   UNL A   1      32.221  29.931  27.001  1.00  0.00     0.023 C 
ENDROOT
BRANCH   1   2
ATOM      2  C   UNL A   1      31.740  29.029  25.856  1.00  0.00     0.116 C 
BRANCH   2   3
ATOM      3  N   UNL A   1      31.437  27.696  26.342  1.00  0.00    -0.356 N 
ATOM      4  C   UNL A   1      30.655  26.715  25.795  1.00  0.00     0.227 C 
ATOM      5  O   UNL A   1      30.383  25.757  26.522  1.00  0.00    -0.274 OA
ATOM      6  H   UNL A   1      31.859  27.460  27.200  1.00  0.00     0.163 HD
BRANCH   4   7
ATOM      7  C   UNL A   1      30.176  26.821  24.330  1.00  0.00     0.109 C 
ATOM      8  C   UNL A   1      28.729  26.328  24.236  1.00  0.00     0.023 C 
BRANCH   7   9
ATOM      9  C   UNL A   1      31.160  26.158  23.348  1.00  0.00     0.007 A 
ATOM     10  C   UNL A   1      31.842  24.989  23.767  1.00  0.00     0.020 A 
ATOM     11  C   UNL A   1      31.451  26.624  22.059  1.00  0.00     0.119 A 
ATOM     12  C   UNL A   1      32.746  24.317  22.925  1.00  0.00     0.023 A 
ATOM     13  C   UNL A   1      32.348  25.971  21.215  1.00  0.00     0.047 A 
ATOM     14  C   UNL A   1      32.980  24.808  21.637  1.00  0.00     0.016 A 
BRANCH  11  15
ATOM     15  O   UNL A   1      30.872  27.741  21.534  1.00  0.00    -0.508 OA
ATOM     16  H   UNL A   1      29.939  27.808  21.490  1.00  0.00     0.293 HD
ENDBRANCH  11  15
BRANCH  12  17
ATOM     17  C   UNL A   1      33.410  23.069  23.405  1.00  0.00     0.193 C 
ATOM     18  O   UNL A   1      32.905  21.970  23.193  1.00  0.00    -0.289 OA
BRANCH  17  19
ATOM     19  C   UNL A   1      34.706  23.134  24.122  1.00  0.00     0.022 A 
ATOM     20  C   UNL A   1      35.890  22.979  23.395  1.00  0.00     0.012 A 
ATOM     21  C   UNL A   1      34.751  23.371  25.501  1.00  0.00     0.012 A 
ATOM     22  C   UNL A   1      37.120  23.113  24.041  1.00  0.00     0.001 A 
ATOM     23  C   UNL A   1      35.982  23.507  26.141  1.00  0.00     0.001 A 
ATOM     24  C   UNL A   1      37.165  23.386  25.410  1.00  0.00     0.000 A 
ENDBRANCH  17  19
ENDBRANCH  12  17
ENDBRANCH   7   9
ENDBRANCH   4   7
ENDBRANCH   2   3
ENDBRANCH   1   2
BRANCH   1  25
ATOM     25  C   UNL A   1      31.936  31.420  26.808  1.00  0.00     0.023 C 
BRANCH  25  26
ATOM     26  C   UNL A   1      33.012  32.350  27.348  1.00  0.00     0.116 C 
BRANCH  26  27
ATOM     27  N   UNL A   1      32.539  33.709  27.571  1.00  0.00    -0.352 N 
ATOM     28  C   UNL A   1      33.024  34.644  28.458  1.00  0.00     0.251 C 
ATOM     29  H   UNL A   1      31.776  33.995  27.019  1.00  0.00     0.163 HD
ATOM     30  O   UNL A   1      32.464  35.717  28.613  1.00  0.00    -0.269 OA
BRANCH  28  31
ATOM     31  C   UNL A   1      34.219  34.302  29.255  1.00  0.00     0.039 A 
ATOM     32  C   UNL A   1      34.054  33.663  30.487  1.00  0.00     0.014 A 
ATOM     33  C   UNL A   1      35.495  34.540  28.740  1.00  0.00     0.014 A 
ATOM     34  C   UNL A   1      35.174  33.185  31.168  1.00  0.00     0.010 A 
ATOM     35  C   UNL A   1      36.601  34.000  29.383  1.00  0.00     0.010 A 
ATOM     36  C   UNL A   1      36.450  33.313  30.598  1.00  0.00    -0.014 A 
BRANCH  36  37
ATOM     37  C   UNL A   1      37.659  32.734  31.234  1.00  0.00     0.031 A 
ATOM     38  C   UNL A   1      38.322  31.544  30.608  1.00  0.00     0.074 A 
ATOM     39  C   UNL A   1      38.069  33.188  32.434  1.00  0.00     0.049 A 
ATOM     40  N   UNL A   1      39.251  30.761  31.092  1.00  0.00    -0.248 NA
ATOM     41  C   UNL A   1      37.841  31.158  29.273  1.00  0.00     0.031 C 
ATOM     42  C   UNL A   1      37.472  34.305  33.166  1.00  0.00     0.029 A 
ATOM     43  N   UNL A   1      39.064  32.738  33.265  1.00  0.00    -0.354 N 
ATOM     44  C   UNL A   1      39.435  29.767  30.141  1.00  0.00     0.074 A 
ATOM     45  C   UNL A   1      38.497  30.025  29.069  1.00  0.00     0.031 C 
ATOM     46  C   UNL A   1      38.107  34.449  34.340  1.00  0.00     0.029 A 
ATOM     47  C   UNL A   1      39.128  33.412  34.459  1.00  0.00     0.049 A 
ATOM     48  H   UNL A   1      39.674  32.002  33.027  1.00  0.00     0.167 HD
ATOM     49  C   UNL A   1      40.316  28.739  30.155  1.00  0.00     0.037 A 
ATOM     50  C   UNL A   1      39.904  33.200  35.539  1.00  0.00     0.037 A 
ATOM     51  C   UNL A   1      41.275  28.515  31.204  1.00  0.00     0.049 A 
ATOM     52  C   UNL A   1      40.902  32.077  35.520  1.00  0.00     0.074 A 
ATOM     53  C   UNL A   1      42.270  27.557  31.273  1.00  0.00     0.029 A 
ATOM     54  N   UNL A   1      41.355  29.263  32.370  1.00  0.00    -0.354 N 
ATOM     55  N   UNL A   1      41.116  31.179  34.589  1.00  0.00    -0.248 NA
ATOM     56  C   UNL A   1      41.770  31.937  36.697  1.00  0.00     0.031 C 
ATOM     57  C   UNL A   1      42.929  27.701  32.499  1.00  0.00     0.029 A 
ATOM     58  C   UNL A   1      42.373  28.777  33.173  1.00  0.00     0.049 A 
ATOM     59  H   UNL A   1      40.775  30.027  32.593  1.00  0.00     0.167 HD
ATOM     60  C   UNL A   1      42.155  30.385  35.053  1.00  0.00     0.074 A 
ATOM     61  C   UNL A   1      42.533  30.910  36.349  1.00  0.00     0.031 C 
ATOM     62  C   UNL A   1      42.743  29.319  34.456  1.00  0.00     0.037 A 
BRANCH  49  63
ATOM     63  C   UNL A   1      40.269  27.777  29.005  1.00  0.00     0.064 A 
ATOM     64  C   UNL A   1      39.492  26.609  29.050  1.00  0.00     0.173 A 
ATOM     65  C   UNL A   1      41.014  28.025  27.843  1.00  0.00     0.173 A 
ATOM     66  F   UNL A   1      38.774  26.318  30.145  1.00  0.00    -0.203 F 
ATOM     67  C   UNL A   1      39.497  25.704  27.992  1.00  0.00     0.198 A 
ATOM     68  C   UNL A   1      40.991  27.134  26.773  1.00  0.00     0.198 A 
ATOM     69  F   UNL A   1      41.768  29.130  27.745  1.00  0.00    -0.203 F 
ATOM     70  F   UNL A   1      38.800  24.563  28.085  1.00  0.00    -0.200 F 
ATOM     71  C   UNL A   1      40.243  25.969  26.853  1.00  0.00     0.200 A 
ATOM     72  F   UNL A   1      41.703  27.397  25.669  1.00  0.00    -0.200 F 
ATOM     73  F   UNL A   1      40.249  25.096  25.838  1.00  0.00    -0.200 F 
ENDBRANCH  49  63
BRANCH  50  74
ATOM     74  C   UNL A   1      39.769  34.091  36.718  1.00  0.00     0.064 A 
ATOM     75  C   UNL A   1      38.960  33.728  37.802  1.00  0.00     0.173 A 
ATOM     76  C   UNL A   1      40.476  35.299  36.804  1.00  0.00     0.173 A 
ATOM     77  F   UNL A   1      38.251  32.591  37.756  1.00  0.00    -0.203 F 
ATOM     78  C   UNL A   1      38.857  34.543  38.928  1.00  0.00     0.198 A 
ATOM     79  C   UNL A   1      40.389  36.103  37.940  1.00  0.00     0.198 A 
ATOM     80  F   UNL A   1      41.269  35.687  35.794  1.00  0.00    -0.203 F 
ATOM     81  F   UNL A   1      38.057  34.184  39.942  1.00  0.00    -0.200 F 
ATOM     82  C   UNL A   1      39.578  35.725  38.999  1.00  0.00     0.200 A 
ATOM     83  F   UNL A   1      41.100  37.237  38.011  1.00  0.00    -0.200 F 
ATOM     84  F   UNL A   1      39.492  36.501  40.088  1.00  0.00    -0.200 F 
ENDBRANCH  50  74
BRANCH  62  85
ATOM     85  C   UNL A   1      43.884  28.667  35.178  1.00  0.00     0.064 A 
ATOM     86  C   UNL A   1      45.210  29.078  34.981  1.00  0.00     0.173 A 
ATOM     87  C   UNL A   1      43.639  27.666  36.129  1.00  0.00     0.173 A 
ATOM     88  F   UNL A   1      45.495  30.022  34.070  1.00  0.00    -0.203 F 
ATOM     89  C   UNL A   1      46.251  28.502  35.704  1.00  0.00     0.198 A 
ATOM     90  C   UNL A   1      44.679  27.108  36.866  1.00  0.00     0.198 A 
ATOM     91  F   UNL A   1      42.386  27.242  36.356  1.00  0.00    -0.203 F 
ATOM     92  F   UNL A   1      47.514  28.888  35.479  1.00  0.00    -0.200 F 
ATOM     93  C   UNL A   1      45.984  27.525  36.651  1.00  0.00     0.200 A 
ATOM     94  F   UNL A   1      44.418  26.173  37.790  1.00  0.00    -0.200 F 
ATOM     95  F   UNL A   1      46.987  26.981  37.355  1.00  0.00    -0.200 F 
ENDBRANCH  62  85
ENDBRANCH  36  37
ENDBRANCH  28  31
ENDBRANCH  26  27
ENDBRANCH  25  26
ENDBRANCH   1  25
TORSDOF 15
ENDMDL
MODEL 3
REMARK VINA RESULT:     -12.5      2.181      3.344
REMARK SMILES C[C@@H](C(=O)NCCCCNC(=O)c1ccc(-c2c3nc(c(-c4c(F)c(F)c(F)c(F)c4F)c4ccc([nH]4)c(-c4c(F)c(F)c(F)c(F)c4F)c4nc(c(-c5c(F)c(F)c(F)c(F)c5F)c5ccc2[nH]5)C=C4)C=C3)cc1)c1cc(C(=O)c2ccccc2)ccc1O
REMARK SMILES IDX 7 1 6 2 5 3 3 4 4 5 2 7 1 8 76 9 77 10 89 11 78 12 88 13
REMARK SMILES IDX 87 14 90 15 79 17 80 18 81 19 82 20 86 21 83 22 85 23 84 24
REMARK SMILES IDX 8 25 9 26 10 27 11 28 12 30 13 31 14 32 75 33 15 34 74 35
REMARK SMILES IDX 16 36 17 37 18 38 68 39 19 40 73 41 67 42 69 43 20 44 72 45
REMARK SMILES IDX 66 46 65 47 21 49 53 50 33 51 52 52 34 53 37 54 51 55 70 56
REMARK SMILES IDX 35 57 36 58 50 60 71 61 38 62 22 63 23 64 31 65 24 66 25 67
REMARK SMILES IDX 29 68 32 69 26 70 27 71 30 72 28 73 54 74 55 75 63 76 56 77
REMARK SMILES IDX 57 78 61 79 64 80 58 81 59 82 62 83 60 84 39 85 40 86 48 87
REMARK SMILES IDX 41 88 42 89 46 90 49 91 43 92 44 93 47 94 45 95
REMARK H PARENT 5 6 90 16 10 29 69 48 37 59
REMARK Flexibility Score: inf
ROOT
ATOM      1  C   UNL A   1      32.597  27.335  26.333  1.00  0.00     0.023 C 
ENDROOT
BRANCH   1   2
ATOM      2  C   UNL A   1      31.205  26.709  26.174  1.00  0.00     0.116 C 
BRANCH   2   3
ATOM      3  N   UNL A   1      31.125  25.443  26.876  1.00  0.00    -0.356 N 
ATOM      4  C   UNL A   1      31.253  24.164  26.406  1.00  0.00     0.227 C 
ATOM      5  O   UNL A   1      30.918  23.258  27.171  1.00  0.00    -0.274 OA
ATOM      6  H   UNL A   1      30.952  25.513  27.843  1.00  0.00     0.163 HD
BRANCH   4   7
ATOM      7  C   UNL A   1      31.817  23.903  24.990  1.00  0.00     0.109 C 
ATOM      8  C   UNL A   1      30.653  23.711  24.013  1.00  0.00     0.023 C 
BRANCH   7   9
ATOM      9  C   UNL A   1      32.872  22.781  24.983  1.00  0.00     0.007 A 
ATOM     10  C   UNL A   1      34.189  23.100  24.573  1.00  0.00     0.020 A 
ATOM     11  C   UNL A   1      32.634  21.448  25.345  1.00  0.00     0.119 A 
ATOM     12  C   UNL A   1      35.212  22.134  24.552  1.00  0.00     0.023 A 
ATOM     13  C   UNL A   1      33.637  20.480  25.324  1.00  0.00     0.047 A 
ATOM     14  C   UNL A   1      34.929  20.825  24.949  1.00  0.00     0.016 A 
BRANCH  11  15
ATOM     15  O   UNL A   1      31.411  21.005  25.751  1.00  0.00    -0.508 OA
ATOM     16  H   UNL A   1      30.725  21.618  25.928  1.00  0.00     0.293 HD
ENDBRANCH  11  15
BRANCH  12  17
ATOM     17  C   UNL A   1      36.592  22.534  24.145  1.00  0.00     0.193 C 
ATOM     18  O   UNL A   1      36.862  22.744  22.966  1.00  0.00    -0.289 OA
BRANCH  17  19
ATOM     19  C   UNL A   1      37.655  22.712  25.164  1.00  0.00     0.022 A 
ATOM     20  C   UNL A   1      37.759  23.940  25.826  1.00  0.00     0.012 A 
ATOM     21  C   UNL A   1      38.528  21.664  25.480  1.00  0.00     0.012 A 
ATOM     22  C   UNL A   1      38.704  24.100  26.840  1.00  0.00     0.001 A 
ATOM     23  C   UNL A   1      39.468  21.829  26.497  1.00  0.00     0.001 A 
ATOM     24  C   UNL A   1      39.550  23.043  27.181  1.00  0.00     0.000 A 
ENDBRANCH  17  19
ENDBRANCH  12  17
ENDBRANCH   7   9
ENDBRANCH   4   7
ENDBRANCH   2   3
ENDBRANCH   1   2
BRANCH   1  25
ATOM     25  C   UNL A   1      33.244  27.803  25.030  1.00  0.00     0.023 C 
BRANCH  25  26
ATOM     26  C   UNL A   1      33.869  29.188  25.090  1.00  0.00     0.116 C 
BRANCH  26  27
ATOM     27  N   UNL A   1      33.078  30.144  25.850  1.00  0.00    -0.352 N 
ATOM     28  C   UNL A   1      33.430  30.819  26.998  1.00  0.00     0.251 C 
ATOM     29  H   UNL A   1      32.177  30.333  25.500  1.00  0.00     0.163 HD
ATOM     30  O   UNL A   1      32.626  31.520  27.590  1.00  0.00    -0.269 OA
BRANCH  28  31
ATOM     31  C   UNL A   1      34.798  30.642  27.524  1.00  0.00     0.039 A 
ATOM     32  C   UNL A   1      35.636  31.755  27.626  1.00  0.00     0.014 A 
ATOM     33  C   UNL A   1      35.213  29.392  27.989  1.00  0.00     0.014 A 
ATOM     34  C   UNL A   1      36.865  31.633  28.276  1.00  0.00     0.010 A 
ATOM     35  C   UNL A   1      36.402  29.289  28.698  1.00  0.00     0.010 A 
ATOM     36  C   UNL A   1      37.235  30.409  28.854  1.00  0.00    -0.014 A 
BRANCH  36  37
ATOM     37  C   UNL A   1      38.484  30.254  29.639  1.00  0.00     0.031 A 
ATOM     38  C   UNL A   1      39.587  29.391  29.104  1.00  0.00     0.074 A 
ATOM     39  C   UNL A   1      38.564  30.770  30.880  1.00  0.00     0.049 A 
ATOM     40  N   UNL A   1      40.665  28.955  29.703  1.00  0.00    -0.248 NA
ATOM     41  C   UNL A   1      39.433  28.921  27.720  1.00  0.00     0.031 C 
ATOM     42  C   UNL A   1      37.535  31.581  31.529  1.00  0.00     0.029 A 
ATOM     43  N   UNL A   1      39.547  30.653  31.832  1.00  0.00    -0.354 N 
ATOM     44  C   UNL A   1      41.294  28.126  28.785  1.00  0.00     0.074 A 
ATOM     45  C   UNL A   1      40.460  28.092  27.602  1.00  0.00     0.031 C 
ATOM     46  C   UNL A   1      37.936  31.884  32.774  1.00  0.00     0.029 A 
ATOM     47  C   UNL A   1      39.230  31.256  33.023  1.00  0.00     0.049 A 
ATOM     48  H   UNL A   1      40.397  30.182  31.675  1.00  0.00     0.167 HD
ATOM     49  C   UNL A   1      42.468  27.463  28.913  1.00  0.00     0.037 A 
ATOM     50  C   UNL A   1      39.896  31.278  34.194  1.00  0.00     0.037 A 
ATOM     51  C   UNL A   1      43.311  27.537  30.075  1.00  0.00     0.049 A 
ATOM     52  C   UNL A   1      41.215  30.567  34.304  1.00  0.00     0.074 A 
ATOM     53  C   UNL A   1      44.561  26.977  30.272  1.00  0.00     0.029 A 
ATOM     54  N   UNL A   1      42.988  28.217  31.241  1.00  0.00    -0.354 N 
ATOM     55  N   UNL A   1      41.836  29.838  33.409  1.00  0.00    -0.248 NA
ATOM     56  C   UNL A   1      41.931  30.685  35.582  1.00  0.00     0.031 C 
ATOM     57  C   UNL A   1      44.977  27.287  31.571  1.00  0.00     0.029 A 
ATOM     58  C   UNL A   1      44.007  28.076  32.168  1.00  0.00     0.049 A 
ATOM     59  H   UNL A   1      42.157  28.725  31.387  1.00  0.00     0.167 HD
ATOM     60  C   UNL A   1      43.022  29.430  34.002  1.00  0.00     0.074 A 
ATOM     61  C   UNL A   1      43.038  29.998  35.335  1.00  0.00     0.031 C 
ATOM     62  C   UNL A   1      44.010  28.657  33.487  1.00  0.00     0.037 A 
BRANCH  49  63
ATOM     63  C   UNL A   1      42.894  26.594  27.767  1.00  0.00     0.064 A 
ATOM     64  C   UNL A   1      42.578  25.227  27.720  1.00  0.00     0.173 A 
ATOM     65  C   UNL A   1      43.632  27.134  26.704  1.00  0.00     0.173 A 
ATOM     66  F   UNL A   1      41.887  24.658  28.719  1.00  0.00    -0.203 F 
ATOM     67  C   UNL A   1      43.023  24.425  26.672  1.00  0.00     0.198 A 
ATOM     68  C   UNL A   1      44.047  26.336  25.641  1.00  0.00     0.198 A 
ATOM     69  F   UNL A   1      43.956  28.436  26.697  1.00  0.00    -0.203 F 
ATOM     70  F   UNL A   1      42.765  23.110  26.682  1.00  0.00    -0.200 F 
ATOM     71  C   UNL A   1      43.753  24.981  25.632  1.00  0.00     0.200 A 
ATOM     72  F   UNL A   1      44.743  26.875  24.632  1.00  0.00    -0.200 F 
ATOM     73  F   UNL A   1      44.183  24.207  24.627  1.00  0.00    -0.200 F 
ENDBRANCH  49  63
BRANCH  50  74
ATOM     74  C   UNL A   1      39.321  32.018  35.345  1.00  0.00     0.064 A 
ATOM     75  C   UNL A   1      39.570  33.386  35.515  1.00  0.00     0.173 A 
ATOM     76  C   UNL A   1      38.481  31.385  36.272  1.00  0.00     0.173 A 
ATOM     77  F   UNL A   1      40.383  34.028  34.663  1.00  0.00    -0.203 F 
ATOM     78  C   UNL A   1      39.005  34.094  36.573  1.00  0.00     0.198 A 
ATOM     79  C   UNL A   1      37.898  32.100  37.318  1.00  0.00     0.198 A 
ATOM     80  F   UNL A   1      38.207  30.078  36.148  1.00  0.00    -0.203 F 
ATOM     81  F   UNL A   1      39.278  35.397  36.726  1.00  0.00    -0.200 F 
ATOM     82  C   UNL A   1      38.162  33.452  37.469  1.00  0.00     0.200 A 
ATOM     83  F   UNL A   1      37.073  31.479  38.172  1.00  0.00    -0.200 F 
ATOM     84  F   UNL A   1      37.606  34.137  38.477  1.00  0.00    -0.200 F 
ENDBRANCH  50  74
BRANCH  62  85
ATOM     85  C   UNL A   1      45.211  28.406  34.349  1.00  0.00     0.064 A 
ATOM     86  C   UNL A   1      46.294  29.297  34.379  1.00  0.00     0.173 A 
ATOM     87  C   UNL A   1      45.246  27.296  35.205  1.00  0.00     0.173 A 
ATOM     88  F   UNL A   1      46.311  30.365  33.566  1.00  0.00    -0.203 F 
ATOM     89  C   UNL A   1      47.373  29.079  35.229  1.00  0.00     0.198 A 
ATOM     90  C   UNL A   1      46.317  27.094  36.071  1.00  0.00     0.198 A 
ATOM     91  F   UNL A   1      44.232  26.418  35.215  1.00  0.00    -0.203 F 
ATOM     92  F   UNL A   1      48.412  29.926  35.222  1.00  0.00    -0.200 F 
ATOM     93  C   UNL A   1      47.381  27.983  36.080  1.00  0.00     0.200 A 
ATOM     94  F   UNL A   1      46.316  26.042  36.901  1.00  0.00    -0.200 F 
ATOM     95  F   UNL A   1      48.416  27.783  36.908  1.00  0.00    -0.200 F 
ENDBRANCH  62  85
ENDBRANCH  36  37
ENDBRANCH  28  31
ENDBRANCH  26  27
ENDBRANCH  25  26
ENDBRANCH   1  25
TORSDOF 15
ENDMDL
