MODEL 1
REMARK VINA RESULT:     -12.2      0.000      0.000
REMARK SMILES O=C(COc1ccc(S(=O)(=O)N2CCC(O)CC2)cc1)NCCCCNC(=O)c1ccc(-c2c3nc(c(-c4c(F)c(F)c(F)c(F)c4F)c4ccc([nH]4)c(-c4c(F)c(F)c(F)c(F)c4F)c4nc(c(-c5c(F)c(F)c(F)c(F)c5F)c5ccc2[nH]5)C=C4)C=C3)cc1
REMARK SMILES IDX 22 1 21 2 1 3 2 4 3 6 4 7 5 8 6 9 20 10 7 11 19 12 8 13 9 14
REMARK SMILES IDX 10 15 11 16 12 17 13 18 18 19 14 20 17 21 15 22 16 23 23 25
REMARK SMILES IDX 24 26 25 27 26 28 27 29 28 31 29 32 30 33 91 34 31 35 90 36
REMARK SMILES IDX 32 37 33 38 34 39 84 40 35 41 89 42 83 43 85 44 36 45 88 46
REMARK SMILES IDX 82 47 81 48 37 50 69 51 49 52 68 53 50 54 53 55 67 56 86 57
REMARK SMILES IDX 51 58 52 59 66 61 87 62 54 63 38 64 39 65 47 66 40 67 41 68
REMARK SMILES IDX 45 69 48 70 42 71 43 72 46 73 44 74 70 75 71 76 79 77 72 78
REMARK SMILES IDX 73 79 77 80 80 81 74 82 75 83 78 84 76 85 55 86 56 87 64 88
REMARK SMILES IDX 57 89 58 90 62 91 65 92 59 93 60 94 63 95 61 96
REMARK H PARENT 21 5 16 24 26 30 85 49 53 60
REMARK Flexibility Score: inf
ROOT
ATOM      1  C   UNL A   1      35.963  21.141  25.618  1.00  0.00     0.116 C 
ENDROOT
BRANCH   1   2
ATOM      2  N   UNL A   1      34.689  20.581  25.206  1.00  0.00    -0.353 N 
ATOM      3  O   UNL A   1      33.451  21.599  26.852  1.00  0.00    -0.271 OA
ATOM      4  C   UNL A   1      33.501  20.965  25.800  1.00  0.00     0.257 C 
ATOM      5  H   UNL A   1      34.669  19.909  24.486  1.00  0.00     0.163 HD
BRANCH   4   6
ATOM      6  C   UNL A   1      32.234  20.613  25.000  1.00  0.00     0.329 C 
BRANCH   6   7
ATOM      7  O   UNL A   1      32.191  20.876  23.598  1.00  0.00    -0.484 OA
BRANCH   7   8
ATOM      8  C   UNL A   1      32.135  22.190  23.216  1.00  0.00     0.120 A 
ATOM      9  C   UNL A   1      33.254  22.727  22.573  1.00  0.00     0.048 A 
ATOM     10  C   UNL A   1      31.090  23.040  23.552  1.00  0.00     0.048 A 
ATOM     11  C   UNL A   1      33.319  24.100  22.274  1.00  0.00     0.025 A 
ATOM     12  C   UNL A   1      31.166  24.402  23.298  1.00  0.00     0.025 A 
ATOM     13  C   UNL A   1      32.270  24.944  22.656  1.00  0.00     0.082 A 
BRANCH  13  14
ATOM     14  S   UNL A   1      32.395  26.697  22.326  1.00  0.00     0.243 S 
ATOM     15  O   UNL A   1      33.653  26.884  21.628  1.00  0.00    -0.207 OA
ATOM     16  O   UNL A   1      31.134  27.086  21.739  1.00  0.00    -0.207 OA
BRANCH  14  17
ATOM     17  N   UNL A   1      32.527  27.489  23.852  1.00  0.00    -0.198 NA
ATOM     18  C   UNL A   1      33.346  26.783  24.874  1.00  0.00     0.105 C 
ATOM     19  C   UNL A   1      31.324  28.242  24.288  1.00  0.00     0.105 C 
ATOM     20  C   UNL A   1      33.515  27.592  26.150  1.00  0.00     0.048 C 
ATOM     21  C   UNL A   1      31.497  28.944  25.628  1.00  0.00     0.048 C 
ATOM     22  C   UNL A   1      32.179  28.080  26.679  1.00  0.00     0.117 C 
BRANCH  22  23
ATOM     23  O   UNL A   1      31.399  26.951  27.072  1.00  0.00    -0.393 OA
ATOM     24  H   UNL A   1      30.624  27.252  27.573  1.00  0.00     0.210 HD
ENDBRANCH  22  23
ENDBRANCH  14  17
ENDBRANCH  13  14
ENDBRANCH   7   8
ENDBRANCH   6   7
ENDBRANCH   4   6
ENDBRANCH   1   2
BRANCH   1  25
ATOM     25  C   UNL A   1      37.087  20.888  24.623  1.00  0.00     0.023 C 
BRANCH  25  26
ATOM     26  C   UNL A   1      38.023  19.741  25.001  1.00  0.00     0.023 C 
BRANCH  26  27
ATOM     27  C   UNL A   1      39.225  20.131  25.856  1.00  0.00     0.116 C 
BRANCH  27  28
ATOM     28  N   UNL A   1      40.234  19.087  25.935  1.00  0.00    -0.352 N 
ATOM     29  C   UNL A   1      41.592  19.194  26.125  1.00  0.00     0.251 C 
ATOM     30  H   UNL A   1      39.895  18.167  25.838  1.00  0.00     0.163 HD
ATOM     31  O   UNL A   1      42.308  18.203  26.020  1.00  0.00    -0.269 OA
BRANCH  29  32
ATOM     32  C   UNL A   1      42.203  20.510  26.423  1.00  0.00     0.039 A 
ATOM     33  C   UNL A   1      42.708  21.272  25.368  1.00  0.00     0.014 A 
ATOM     34  C   UNL A   1      42.277  20.994  27.731  1.00  0.00     0.014 A 
ATOM     35  C   UNL A   1      43.217  22.550  25.614  1.00  0.00     0.010 A 
ATOM     36  C   UNL A   1      42.709  22.298  27.966  1.00  0.00     0.010 A 
ATOM     37  C   UNL A   1      43.181  23.092  26.910  1.00  0.00    -0.014 A 
BRANCH  37  38
ATOM     38  C   UNL A   1      43.620  24.489  27.174  1.00  0.00     0.031 A 
ATOM     39  C   UNL A   1      42.640  25.514  27.674  1.00  0.00     0.074 A 
ATOM     40  C   UNL A   1      44.889  24.852  26.902  1.00  0.00     0.049 A 
ATOM     41  N   UNL A   1      42.819  26.791  27.903  1.00  0.00    -0.248 NA
ATOM     42  C   UNL A   1      41.268  25.048  27.929  1.00  0.00     0.031 C 
ATOM     43  C   UNL A   1      45.927  23.965  26.374  1.00  0.00     0.029 A 
ATOM     44  N   UNL A   1      45.521  26.066  27.024  1.00  0.00    -0.354 N 
ATOM     45  C   UNL A   1      41.585  27.281  28.311  1.00  0.00     0.074 A 
ATOM     46  C   UNL A   1      40.652  26.177  28.248  1.00  0.00     0.031 C 
ATOM     47  C   UNL A   1      47.072  24.656  26.244  1.00  0.00     0.029 A 
ATOM     48  C   UNL A   1      46.839  26.043  26.633  1.00  0.00     0.049 A 
ATOM     49  H   UNL A   1      45.074  26.876  27.360  1.00  0.00     0.167 HD
ATOM     50  C   UNL A   1      41.265  28.531  28.724  1.00  0.00     0.037 A 
ATOM     51  C   UNL A   1      47.754  27.030  26.585  1.00  0.00     0.037 A 
ATOM     52  C   UNL A   1      42.201  29.624  28.804  1.00  0.00     0.049 A 
ATOM     53  C   UNL A   1      47.363  28.417  27.022  1.00  0.00     0.074 A 
ATOM     54  C   UNL A   1      41.987  30.910  29.268  1.00  0.00     0.029 A 
ATOM     55  N   UNL A   1      43.526  29.562  28.399  1.00  0.00    -0.354 N 
ATOM     56  N   UNL A   1      46.214  28.850  27.479  1.00  0.00    -0.248 NA
ATOM     57  C   UNL A   1      48.402  29.453  26.942  1.00  0.00     0.031 C 
ATOM     58  C   UNL A   1      43.163  31.644  29.084  1.00  0.00     0.029 A 
ATOM     59  C   UNL A   1      44.133  30.797  28.572  1.00  0.00     0.049 A 
ATOM     60  H   UNL A   1      43.971  28.758  28.043  1.00  0.00     0.167 HD
ATOM     61  C   UNL A   1      46.399  30.195  27.773  1.00  0.00     0.074 A 
ATOM     62  C   UNL A   1      47.778  30.503  27.455  1.00  0.00     0.031 C 
ATOM     63  C   UNL A   1      45.508  31.091  28.261  1.00  0.00     0.037 A 
BRANCH  50  64
ATOM     64  C   UNL A   1      39.838  28.792  29.117  1.00  0.00     0.064 A 
ATOM     65  C   UNL A   1      39.394  28.642  30.440  1.00  0.00     0.173 A 
ATOM     66  C   UNL A   1      38.909  29.240  28.164  1.00  0.00     0.173 A 
ATOM     67  F   UNL A   1      40.238  28.210  31.390  1.00  0.00    -0.203 F 
ATOM     68  C   UNL A   1      38.070  28.899  30.788  1.00  0.00     0.198 A 
ATOM     69  C   UNL A   1      37.595  29.530  28.523  1.00  0.00     0.198 A 
ATOM     70  F   UNL A   1      39.279  29.409  26.886  1.00  0.00    -0.203 F 
ATOM     71  F   UNL A   1      37.660  28.697  32.047  1.00  0.00    -0.200 F 
ATOM     72  C   UNL A   1      37.174  29.350  29.831  1.00  0.00     0.200 A 
ATOM     73  F   UNL A   1      36.735  29.982  27.600  1.00  0.00    -0.200 F 
ATOM     74  F   UNL A   1      35.903  29.606  30.169  1.00  0.00    -0.200 F 
ENDBRANCH  50  64
BRANCH  51  75
ATOM     75  C   UNL A   1      49.137  26.744  26.119  1.00  0.00     0.064 A 
ATOM     76  C   UNL A   1      50.109  26.258  27.006  1.00  0.00     0.173 A 
ATOM     77  C   UNL A   1      49.523  26.964  24.789  1.00  0.00     0.173 A 
ATOM     78  F   UNL A   1      49.797  26.051  28.294  1.00  0.00    -0.203 F 
ATOM     79  C   UNL A   1      51.418  26.029  26.586  1.00  0.00     0.198 A 
ATOM     80  C   UNL A   1      50.824  26.702  24.362  1.00  0.00     0.198 A 
ATOM     81  F   UNL A   1      48.633  27.425  23.898  1.00  0.00    -0.203 F 
ATOM     82  F   UNL A   1      52.339  25.617  27.468  1.00  0.00    -0.200 F 
ATOM     83  C   UNL A   1      51.773  26.246  25.263  1.00  0.00     0.200 A 
ATOM     84  F   UNL A   1      51.158  26.898  23.079  1.00  0.00    -0.200 F 
ATOM     85  F   UNL A   1      53.031  26.023  24.860  1.00  0.00    -0.200 F 
ENDBRANCH  51  75
BRANCH  63  86
ATOM     86  C   UNL A   1      46.005  32.485  28.530  1.00  0.00     0.064 A 
ATOM     87  C   UNL A   1      45.916  33.501  27.568  1.00  0.00     0.173 A 
ATOM     88  C   UNL A   1      46.543  32.815  29.784  1.00  0.00     0.173 A 
ATOM     89  F   UNL A   1      45.423  33.237  26.348  1.00  0.00    -0.203 F 
ATOM     90  C   UNL A   1      46.374  34.788  27.841  1.00  0.00     0.198 A 
ATOM     91  C   UNL A   1      46.966  34.111  30.066  1.00  0.00     0.198 A 
ATOM     92  F   UNL A   1      46.644  31.883  30.743  1.00  0.00    -0.203 F 
ATOM     93  F   UNL A   1      46.331  35.730  26.888  1.00  0.00    -0.200 F 
ATOM     94  C   UNL A   1      46.891  35.094  29.092  1.00  0.00     0.200 A 
ATOM     95  F   UNL A   1      47.448  34.407  31.280  1.00  0.00    -0.200 F 
ATOM     96  F   UNL A   1      47.322  36.335  29.355  1.00  0.00    -0.200 F 
ENDBRANCH  63  86
ENDBRANCH  37  38
ENDBRANCH  29  32
ENDBRANCH  27  28
ENDBRANCH  26  27
ENDBRANCH  25  26
ENDBRANCH   1  25
TORSDOF 16
ENDMDL
MODEL 2
REMARK VINA RESULT:     -12.2      6.427     11.003
REMARK SMILES O=C(COc1ccc(S(=O)(=O)N2CCC(O)CC2)cc1)NCCCCNC(=O)c1ccc(-c2c3nc(c(-c4c(F)c(F)c(F)c(F)c4F)c4ccc([nH]4)c(-c4c(F)c(F)c(F)c(F)c4F)c4nc(c(-c5c(F)c(F)c(F)c(F)c5F)c5ccc2[nH]5)C=C4)C=C3)cc1
REMARK SMILES IDX 22 1 21 2 1 3 2 4 3 6 4 7 5 8 6 9 20 10 7 11 19 12 8 13 9 14
REMARK SMILES IDX 10 15 11 16 12 17 13 18 18 19 14 20 17 21 15 22 16 23 23 25
REMARK SMILES IDX 24 26 25 27 26 28 27 29 28 31 29 32 30 33 91 34 31 35 90 36
REMARK SMILES IDX 32 37 33 38 34 39 84 40 35 41 89 42 83 43 85 44 36 45 88 46
REMARK SMILES IDX 82 47 81 48 37 50 69 51 49 52 68 53 50 54 53 55 67 56 86 57
REMARK SMILES IDX 51 58 52 59 66 61 87 62 54 63 38 64 39 65 47 66 40 67 41 68
REMARK SMILES IDX 45 69 48 70 42 71 43 72 46 73 44 74 70 75 71 76 79 77 72 78
REMARK SMILES IDX 73 79 77 80 80 81 74 82 75 83 78 84 76 85 55 86 56 87 64 88
REMARK SMILES IDX 57 89 58 90 62 91 65 92 59 93 60 94 63 95 61 96
REMARK H PARENT 21 5 16 24 26 30 85 49 53 60
REMARK Flexibility Score: inf
ROOT
ATOM      1  C   UNL A   1      34.635  32.801  29.365  1.00  0.00     0.116 C 
ENDROOT
BRANCH   1   2
ATOM      2  N   UNL A   1      34.184  31.566  28.748  1.00  0.00    -0.353 N 
ATOM      3  O   UNL A   1      36.170  31.102  27.690  1.00  0.00    -0.271 OA
ATOM      4  C   UNL A   1      35.050  30.746  28.049  1.00  0.00     0.257 C 
ATOM      5  H   UNL A   1      33.237  31.306  28.829  1.00  0.00     0.163 HD
BRANCH   4   6
ATOM      6  C   UNL A   1      34.539  29.312  27.819  1.00  0.00     0.329 C 
BRANCH   6   7
ATOM      7  O   UNL A   1      34.812  28.657  26.581  1.00  0.00    -0.484 OA
BRANCH   7   8
ATOM      8  C   UNL A   1      33.737  28.367  25.784  1.00  0.00     0.120 A 
ATOM      9  C   UNL A   1      33.863  28.605  24.411  1.00  0.00     0.048 A 
ATOM     10  C   UNL A   1      32.499  27.981  26.279  1.00  0.00     0.048 A 
ATOM     11  C   UNL A   1      32.759  28.458  23.554  1.00  0.00     0.025 A 
ATOM     12  C   UNL A   1      31.396  27.875  25.445  1.00  0.00     0.025 A 
ATOM     13  C   UNL A   1      31.512  28.105  24.081  1.00  0.00     0.082 A 
BRANCH  13  14
ATOM     14  S   UNL A   1      30.103  27.984  22.988  1.00  0.00     0.243 S 
ATOM     15  O   UNL A   1      30.617  27.490  21.725  1.00  0.00    -0.207 OA
ATOM     16  O   UNL A   1      29.083  27.272  23.723  1.00  0.00    -0.207 OA
BRANCH  14  17
ATOM     17  N   UNL A   1      29.530  29.588  22.723  1.00  0.00    -0.198 NA
ATOM     18  C   UNL A   1      29.648  30.512  23.883  1.00  0.00     0.105 C 
ATOM     19  C   UNL A   1      28.355  29.708  21.824  1.00  0.00     0.105 C 
ATOM     20  C   UNL A   1      29.235  31.935  23.543  1.00  0.00     0.048 C 
ATOM     21  C   UNL A   1      27.902  31.144  21.601  1.00  0.00     0.048 C 
ATOM     22  C   UNL A   1      27.871  31.973  22.878  1.00  0.00     0.117 C 
BRANCH  22  23
ATOM     23  O   UNL A   1      26.889  31.530  23.814  1.00  0.00    -0.393 OA
ATOM     24  H   UNL A   1      26.124  32.126  23.786  1.00  0.00     0.210 HD
ENDBRANCH  22  23
ENDBRANCH  14  17
ENDBRANCH  13  14
ENDBRANCH   7   8
ENDBRANCH   6   7
ENDBRANCH   4   6
ENDBRANCH   1   2
BRANCH   1  25
ATOM     25  C   UNL A   1      34.542  34.008  28.443  1.00  0.00     0.023 C 
BRANCH  25  26
ATOM     26  C   UNL A   1      33.308  34.881  28.663  1.00  0.00     0.023 C 
BRANCH  26  27
ATOM     27  C   UNL A   1      33.502  36.062  29.610  1.00  0.00     0.116 C 
BRANCH  27  28
ATOM     28  N   UNL A   1      32.501  36.121  30.663  1.00  0.00    -0.352 N 
ATOM     29  C   UNL A   1      32.528  35.580  31.928  1.00  0.00     0.251 C 
ATOM     30  H   UNL A   1      31.684  36.623  30.439  1.00  0.00     0.163 HD
ATOM     31  O   UNL A   1      31.523  35.612  32.632  1.00  0.00    -0.269 OA
BRANCH  29  32
ATOM     32  C   UNL A   1      33.756  34.924  32.434  1.00  0.00     0.039 A 
ATOM     33  C   UNL A   1      33.665  33.628  32.945  1.00  0.00     0.014 A 
ATOM     34  C   UNL A   1      34.990  35.577  32.405  1.00  0.00     0.014 A 
ATOM     35  C   UNL A   1      34.822  32.959  33.355  1.00  0.00     0.010 A 
ATOM     36  C   UNL A   1      36.152  34.882  32.736  1.00  0.00     0.010 A 
ATOM     37  C   UNL A   1      36.081  33.564  33.212  1.00  0.00    -0.014 A 
BRANCH  37  38
ATOM     38  C   UNL A   1      37.332  32.830  33.544  1.00  0.00     0.031 A 
ATOM     39  C   UNL A   1      38.075  33.127  34.817  1.00  0.00     0.074 A 
ATOM     40  C   UNL A   1      37.834  31.937  32.667  1.00  0.00     0.049 A 
ATOM     41  N   UNL A   1      39.211  32.636  35.249  1.00  0.00    -0.248 NA
ATOM     42  C   UNL A   1      37.477  34.127  35.715  1.00  0.00     0.031 C 
ATOM     43  C   UNL A   1      37.233  31.588  31.379  1.00  0.00     0.029 A 
ATOM     44  N   UNL A   1      38.970  31.167  32.722  1.00  0.00    -0.354 N 
ATOM     45  C   UNL A   1      39.467  33.277  36.454  1.00  0.00     0.074 A 
ATOM     46  C   UNL A   1      38.399  34.229  36.661  1.00  0.00     0.031 C 
ATOM     47  C   UNL A   1      37.988  30.654  30.779  1.00  0.00     0.029 A 
ATOM     48  C   UNL A   1      39.151  30.372  31.615  1.00  0.00     0.049 A 
ATOM     49  H   UNL A   1      39.595  31.181  33.482  1.00  0.00     0.167 HD
ATOM     50  C   UNL A   1      40.489  33.072  37.321  1.00  0.00     0.037 A 
ATOM     51  C   UNL A   1      40.147  29.520  31.304  1.00  0.00     0.037 A 
ATOM     52  C   UNL A   1      41.541  32.109  37.121  1.00  0.00     0.049 A 
ATOM     53  C   UNL A   1      41.284  29.333  32.272  1.00  0.00     0.074 A 
ATOM     54  C   UNL A   1      42.585  31.784  37.970  1.00  0.00     0.029 A 
ATOM     55  N   UNL A   1      41.691  31.324  35.988  1.00  0.00    -0.354 N 
ATOM     56  N   UNL A   1      41.475  29.888  33.444  1.00  0.00    -0.248 NA
ATOM     57  C   UNL A   1      42.343  28.394  31.876  1.00  0.00     0.031 C 
ATOM     58  C   UNL A   1      43.402  30.851  37.324  1.00  0.00     0.029 A 
ATOM     59  C   UNL A   1      42.829  30.539  36.101  1.00  0.00     0.049 A 
ATOM     60  H   UNL A   1      41.078  31.322  35.216  1.00  0.00     0.167 HD
ATOM     61  C   UNL A   1      42.653  29.343  33.939  1.00  0.00     0.074 A 
ATOM     62  C   UNL A   1      43.125  28.401  32.945  1.00  0.00     0.031 C 
ATOM     63  C   UNL A   1      43.285  29.598  35.110  1.00  0.00     0.037 A 
BRANCH  50  64
ATOM     64  C   UNL A   1      40.525  33.912  38.567  1.00  0.00     0.064 A 
ATOM     65  C   UNL A   1      39.840  33.536  39.733  1.00  0.00     0.173 A 
ATOM     66  C   UNL A   1      41.290  35.088  38.611  1.00  0.00     0.173 A 
ATOM     67  F   UNL A   1      39.087  32.425  39.746  1.00  0.00    -0.203 F 
ATOM     68  C   UNL A   1      39.893  34.320  40.883  1.00  0.00     0.198 A 
ATOM     69  C   UNL A   1      41.370  35.851  39.772  1.00  0.00     0.198 A 
ATOM     70  F   UNL A   1      41.973  35.491  37.528  1.00  0.00    -0.203 F 
ATOM     71  F   UNL A   1      39.187  33.968  41.965  1.00  0.00    -0.200 F 
ATOM     72  C   UNL A   1      40.664  35.473  40.903  1.00  0.00     0.200 A 
ATOM     73  F   UNL A   1      42.130  36.955  39.796  1.00  0.00    -0.200 F 
ATOM     74  F   UNL A   1      40.723  36.222  42.014  1.00  0.00    -0.200 F 
ENDBRANCH  50  64
BRANCH  51  75
ATOM     75  C   UNL A   1      40.109  28.763  30.024  1.00  0.00     0.064 A 
ATOM     76  C   UNL A   1      39.497  27.503  29.951  1.00  0.00     0.173 A 
ATOM     77  C   UNL A   1      40.694  29.270  28.855  1.00  0.00     0.173 A 
ATOM     78  F   UNL A   1      38.941  26.964  31.047  1.00  0.00    -0.203 F 
ATOM     79  C   UNL A   1      39.496  26.769  28.766  1.00  0.00     0.198 A 
ATOM     80  C   UNL A   1      40.663  28.551  27.661  1.00  0.00     0.198 A 
ATOM     81  F   UNL A   1      41.289  30.472  28.867  1.00  0.00    -0.203 F 
ATOM     82  F   UNL A   1      38.952  25.544  28.740  1.00  0.00    -0.200 F 
ATOM     83  C   UNL A   1      40.074  27.296  27.621  1.00  0.00     0.200 A 
ATOM     84  F   UNL A   1      41.208  29.070  26.553  1.00  0.00    -0.200 F 
ATOM     85  F   UNL A   1      40.070  26.591  26.482  1.00  0.00    -0.200 F 
ENDBRANCH  51  75
BRANCH  63  86
ATOM     86  C   UNL A   1      44.534  28.816  35.409  1.00  0.00     0.064 A 
ATOM     87  C   UNL A   1      45.806  29.288  35.055  1.00  0.00     0.173 A 
ATOM     88  C   UNL A   1      44.457  27.593  36.093  1.00  0.00     0.173 A 
ATOM     89  F   UNL A   1      45.937  30.445  34.388  1.00  0.00    -0.203 F 
ATOM     90  C   UNL A   1      46.951  28.552  35.349  1.00  0.00     0.198 A 
ATOM     91  C   UNL A   1      45.605  26.877  36.418  1.00  0.00     0.198 A 
ATOM     92  F   UNL A   1      43.265  27.098  36.461  1.00  0.00    -0.203 F 
ATOM     93  F   UNL A   1      48.152  28.995  34.953  1.00  0.00    -0.200 F 
ATOM     94  C   UNL A   1      46.850  27.351  36.038  1.00  0.00     0.200 A 
ATOM     95  F   UNL A   1      45.506  25.726  37.098  1.00  0.00    -0.200 F 
ATOM     96  F   UNL A   1      47.954  26.649  36.327  1.00  0.00    -0.200 F 
ENDBRANCH  63  86
ENDBRANCH  37  38
ENDBRANCH  29  32
ENDBRANCH  27  28
ENDBRANCH  26  27
ENDBRANCH  25  26
ENDBRANCH   1  25
TORSDOF 16
ENDMDL
MODEL 3
REMARK VINA RESULT:     -12.0      6.335     11.125
REMARK SMILES O=C(COc1ccc(S(=O)(=O)N2CCC(O)CC2)cc1)NCCCCNC(=O)c1ccc(-c2c3nc(c(-c4c(F)c(F)c(F)c(F)c4F)c4ccc([nH]4)c(-c4c(F)c(F)c(F)c(F)c4F)c4nc(c(-c5c(F)c(F)c(F)c(F)c5F)c5ccc2[nH]5)C=C4)C=C3)cc1
REMARK SMILES IDX 22 1 21 2 1 3 2 4 3 6 4 7 5 8 6 9 20 10 7 11 19 12 8 13 9 14
REMARK SMILES IDX 10 15 11 16 12 17 13 18 18 19 14 20 17 21 15 22 16 23 23 25
REMARK SMILES IDX 24 26 25 27 26 28 27 29 28 31 29 32 30 33 91 34 31 35 90 36
REMARK SMILES IDX 32 37 33 38 34 39 84 40 35 41 89 42 83 43 85 44 36 45 88 46
REMARK SMILES IDX 82 47 81 48 37 50 69 51 49 52 68 53 50 54 53 55 67 56 86 57
REMARK SMILES IDX 51 58 52 59 66 61 87 62 54 63 38 64 39 65 47 66 40 67 41 68
REMARK SMILES IDX 45 69 48 70 42 71 43 72 46 73 44 74 70 75 71 76 79 77 72 78
REMARK SMILES IDX 73 79 77 80 80 81 74 82 75 83 78 84 76 85 55 86 56 87 64 88
REMARK SMILES IDX 57 89 58 90 62 91 65 92 59 93 60 94 63 95 61 96
REMARK H PARENT 21 5 16 24 26 30 85 49 53 60
REMARK Flexibility Score: inf
ROOT
ATOM      1  C   UNL A   1      34.724  32.820  29.202  1.00  0.00     0.116 C 
ENDROOT
BRANCH   1   2
ATOM      2  N   UNL A   1      33.979  32.268  28.085  1.00  0.00    -0.353 N 
ATOM      3  O   UNL A   1      35.187  30.319  27.949  1.00  0.00    -0.271 OA
ATOM      4  C   UNL A   1      34.205  30.984  27.627  1.00  0.00     0.257 C 
ATOM      5  H   UNL A   1      33.297  32.823  27.641  1.00  0.00     0.163 HD
BRANCH   4   6
ATOM      6  C   UNL A   1      33.087  30.408  26.739  1.00  0.00     0.329 C 
BRANCH   6   7
ATOM      7  O   UNL A   1      33.405  29.422  25.757  1.00  0.00    -0.484 OA
BRANCH   7   8
ATOM      8  C   UNL A   1      32.868  28.175  25.936  1.00  0.00     0.120 A 
ATOM      9  C   UNL A   1      33.689  27.072  25.684  1.00  0.00     0.048 A 
ATOM     10  C   UNL A   1      31.527  27.953  26.220  1.00  0.00     0.048 A 
ATOM     11  C   UNL A   1      33.166  25.767  25.717  1.00  0.00     0.025 A 
ATOM     12  C   UNL A   1      30.996  26.671  26.212  1.00  0.00     0.025 A 
ATOM     13  C   UNL A   1      31.804  25.570  25.967  1.00  0.00     0.082 A 
BRANCH  13  14
ATOM     14  S   UNL A   1      31.142  23.910  25.943  1.00  0.00     0.243 S 
ATOM     15  O   UNL A   1      30.512  23.710  27.234  1.00  0.00    -0.207 OA
ATOM     16  O   UNL A   1      30.399  23.791  24.709  1.00  0.00    -0.207 OA
BRANCH  14  17
ATOM     17  N   UNL A   1      32.485  22.833  25.849  1.00  0.00    -0.198 NA
ATOM     18  C   UNL A   1      32.461  21.874  24.711  1.00  0.00     0.105 C 
ATOM     19  C   UNL A   1      33.043  22.390  27.152  1.00  0.00     0.105 C 
ATOM     20  C   UNL A   1      33.728  21.039  24.622  1.00  0.00     0.048 C 
ATOM     21  C   UNL A   1      34.242  21.461  27.017  1.00  0.00     0.048 C 
ATOM     22  C   UNL A   1      34.057  20.387  25.953  1.00  0.00     0.117 C 
BRANCH  22  23
ATOM     23  O   UNL A   1      33.031  19.448  26.274  1.00  0.00    -0.393 OA
ATOM     24  H   UNL A   1      32.300  19.907  26.716  1.00  0.00     0.210 HD
ENDBRANCH  22  23
ENDBRANCH  14  17
ENDBRANCH  13  14
ENDBRANCH   7   8
ENDBRANCH   6   7
ENDBRANCH   4   6
ENDBRANCH   1   2
BRANCH   1  25
ATOM     25  C   UNL A   1      34.960  34.320  29.092  1.00  0.00     0.023 C 
BRANCH  25  26
ATOM     26  C   UNL A   1      33.694  35.148  28.882  1.00  0.00     0.023 C 
BRANCH  26  27
ATOM     27  C   UNL A   1      33.581  36.402  29.745  1.00  0.00     0.116 C 
BRANCH  27  28
ATOM     28  N   UNL A   1      32.518  36.321  30.734  1.00  0.00    -0.352 N 
ATOM     29  C   UNL A   1      32.489  35.651  31.935  1.00  0.00     0.251 C 
ATOM     30  H   UNL A   1      31.698  36.818  30.512  1.00  0.00     0.163 HD
ATOM     31  O   UNL A   1      31.444  35.580  32.575  1.00  0.00    -0.269 OA
BRANCH  29  32
ATOM     32  C   UNL A   1      33.708  34.983  32.448  1.00  0.00     0.039 A 
ATOM     33  C   UNL A   1      33.618  33.658  32.878  1.00  0.00     0.014 A 
ATOM     34  C   UNL A   1      34.932  35.653  32.503  1.00  0.00     0.014 A 
ATOM     35  C   UNL A   1      34.770  32.982  33.292  1.00  0.00     0.010 A 
ATOM     36  C   UNL A   1      36.092  34.956  32.837  1.00  0.00     0.010 A 
ATOM     37  C   UNL A   1      36.024  33.611  33.232  1.00  0.00    -0.014 A 
BRANCH  37  38
ATOM     38  C   UNL A   1      37.273  32.874  33.566  1.00  0.00     0.031 A 
ATOM     39  C   UNL A   1      38.010  33.166  34.844  1.00  0.00     0.074 A 
ATOM     40  C   UNL A   1      37.779  31.986  32.688  1.00  0.00     0.049 A 
ATOM     41  N   UNL A   1      39.143  32.673  35.279  1.00  0.00    -0.248 NA
ATOM     42  C   UNL A   1      37.407  34.161  35.744  1.00  0.00     0.031 C 
ATOM     43  C   UNL A   1      37.184  31.643  31.395  1.00  0.00     0.029 A 
ATOM     44  N   UNL A   1      38.915  31.215  32.744  1.00  0.00    -0.354 N 
ATOM     45  C   UNL A   1      39.394  33.308  36.488  1.00  0.00     0.074 A 
ATOM     46  C   UNL A   1      38.324  34.259  36.695  1.00  0.00     0.031 C 
ATOM     47  C   UNL A   1      37.943  30.712  30.794  1.00  0.00     0.029 A 
ATOM     48  C   UNL A   1      39.102  30.426  31.634  1.00  0.00     0.049 A 
ATOM     49  H   UNL A   1      39.537  31.226  33.508  1.00  0.00     0.167 HD
ATOM     50  C   UNL A   1      40.411  33.099  37.360  1.00  0.00     0.037 A 
ATOM     51  C   UNL A   1      40.099  29.575  31.324  1.00  0.00     0.037 A 
ATOM     52  C   UNL A   1      41.465  32.137  37.161  1.00  0.00     0.049 A 
ATOM     53  C   UNL A   1      41.232  29.384  32.298  1.00  0.00     0.074 A 
ATOM     54  C   UNL A   1      42.504  31.808  38.013  1.00  0.00     0.029 A 
ATOM     55  N   UNL A   1      41.619  31.356  36.024  1.00  0.00    -0.354 N 
ATOM     56  N   UNL A   1      41.417  29.933  33.473  1.00  0.00    -0.248 NA
ATOM     57  C   UNL A   1      42.292  28.447  31.902  1.00  0.00     0.031 C 
ATOM     58  C   UNL A   1      43.324  30.878  37.367  1.00  0.00     0.029 A 
ATOM     59  C   UNL A   1      42.757  30.571  36.140  1.00  0.00     0.049 A 
ATOM     60  H   UNL A   1      41.011  31.359  35.249  1.00  0.00     0.167 HD
ATOM     61  C   UNL A   1      42.592  29.385  33.971  1.00  0.00     0.074 A 
ATOM     62  C   UNL A   1      43.069  28.448  32.975  1.00  0.00     0.031 C 
ATOM     63  C   UNL A   1      43.218  29.635  35.147  1.00  0.00     0.037 A 
BRANCH  50  64
ATOM     64  C   UNL A   1      40.441  33.932  38.610  1.00  0.00     0.064 A 
ATOM     65  C   UNL A   1      39.766  33.541  39.777  1.00  0.00     0.173 A 
ATOM     66  C   UNL A   1      41.190  35.118  38.656  1.00  0.00     0.173 A 
ATOM     67  F   UNL A   1      39.029  32.420  39.787  1.00  0.00    -0.203 F 
ATOM     68  C   UNL A   1      39.813  34.321  40.930  1.00  0.00     0.198 A 
ATOM     69  C   UNL A   1      41.265  35.877  39.821  1.00  0.00     0.198 A 
ATOM     70  F   UNL A   1      41.862  35.536  37.573  1.00  0.00    -0.203 F 
ATOM     71  F   UNL A   1      39.117  33.953  42.014  1.00  0.00    -0.200 F 
ATOM     72  C   UNL A   1      40.569  35.484  40.954  1.00  0.00     0.200 A 
ATOM     73  F   UNL A   1      42.009  36.991  39.847  1.00  0.00    -0.200 F 
ATOM     74  F   UNL A   1      40.622  36.228  42.067  1.00  0.00    -0.200 F 
ENDBRANCH  50  64
BRANCH  51  75
ATOM     75  C   UNL A   1      40.067  28.824  30.041  1.00  0.00     0.064 A 
ATOM     76  C   UNL A   1      39.465  27.560  29.961  1.00  0.00     0.173 A 
ATOM     77  C   UNL A   1      40.649  29.341  28.874  1.00  0.00     0.173 A 
ATOM     78  F   UNL A   1      38.913  27.011  31.054  1.00  0.00    -0.203 F 
ATOM     79  C   UNL A   1      39.470  26.832  28.773  1.00  0.00     0.198 A 
ATOM     80  C   UNL A   1      40.624  28.628  27.677  1.00  0.00     0.198 A 
ATOM     81  F   UNL A   1      41.235  30.548  28.893  1.00  0.00    -0.203 F 
ATOM     82  F   UNL A   1      38.936  25.603  28.741  1.00  0.00    -0.200 F 
ATOM     83  C   UNL A   1      40.044  27.369  27.630  1.00  0.00     0.200 A 
ATOM     84  F   UNL A   1      41.166  29.157  26.572  1.00  0.00    -0.200 F 
ATOM     85  F   UNL A   1      40.047  26.670  26.488  1.00  0.00    -0.200 F 
ENDBRANCH  51  75
BRANCH  63  86
ATOM     86  C   UNL A   1      44.466  28.851  35.448  1.00  0.00     0.064 A 
ATOM     87  C   UNL A   1      45.740  29.325  35.102  1.00  0.00     0.173 A 
ATOM     88  C   UNL A   1      44.385  27.625  36.127  1.00  0.00     0.173 A 
ATOM     89  F   UNL A   1      45.873  30.484  34.441  1.00  0.00    -0.203 F 
ATOM     90  C   UNL A   1      46.883  28.587  35.399  1.00  0.00     0.198 A 
ATOM     91  C   UNL A   1      45.532  26.907  36.453  1.00  0.00     0.198 A 
ATOM     92  F   UNL A   1      43.191  27.129  36.487  1.00  0.00    -0.203 F 
ATOM     93  F   UNL A   1      48.086  29.032  35.010  1.00  0.00    -0.200 F 
ATOM     94  C   UNL A   1      46.778  27.383  36.081  1.00  0.00     0.200 A 
ATOM     95  F   UNL A   1      45.429  25.754  37.128  1.00  0.00    -0.200 F 
ATOM     96  F   UNL A   1      47.881  26.680  36.373  1.00  0.00    -0.200 F 
ENDBRANCH  63  86
ENDBRANCH  37  38
ENDBRANCH  29  32
ENDBRANCH  27  28
ENDBRANCH  26  27
ENDBRANCH  25  26
ENDBRANCH   1  25
TORSDOF 16
ENDMDL
