MODEL 1
REMARK VINA RESULT:     -13.1      0.000      0.000
REMARK SMILES O=C(Cc1ccc(F)c(F)c1)NC1(C(=O)NCCCCNC(=O)c2ccc(-c3c4nc(c(-c5c(F)c(F)c(F)c(F)c5F)c5ccc([nH]5)c(-c5c(F)c(F)c(F)c(F)c5F)c5nc(c(-c6c(F)c(F)c(F)c(F)c6F)c6ccc3[nH]6)C=C5)C=C4)cc2)CCCC1
REMARK SMILES IDX 18 1 17 2 16 3 14 4 15 5 13 7 87 8 90 9 88 10 89 11 12 12
REMARK SMILES IDX 1 13 2 14 3 16 4 17 5 18 11 19 6 20 9 21 7 22 10 23 8 24
REMARK SMILES IDX 19 25 20 26 21 27 22 28 23 30 24 31 25 32 86 33 26 34 85 35
REMARK SMILES IDX 27 36 28 37 29 38 79 39 30 40 84 41 78 42 80 43 31 44 83 45
REMARK SMILES IDX 77 46 76 47 32 49 64 50 44 51 63 52 45 53 48 54 62 55 81 56
REMARK SMILES IDX 46 57 47 58 61 60 82 61 49 62 33 63 34 64 42 65 35 66 36 67
REMARK SMILES IDX 40 68 43 69 37 70 38 71 41 72 39 73 65 74 66 75 74 76 67 77
REMARK SMILES IDX 68 78 72 79 75 80 69 81 70 82 73 83 71 84 50 85 51 86 59 87
REMARK SMILES IDX 52 88 53 89 57 90 60 91 54 92 55 93 58 94 56 95
REMARK H PARENT 16 6 12 15 21 29 80 48 48 59
REMARK Flexibility Score: inf
ROOT
ATOM      1  C   UNL A   1      31.686  30.852  25.994  1.00  0.00     0.023 C 
ENDROOT
BRANCH   1   2
ATOM      2  C   UNL A   1      32.751  29.795  26.253  1.00  0.00     0.116 C 
BRANCH   2   3
ATOM      3  N   UNL A   1      33.669  29.590  25.157  1.00  0.00    -0.354 N 
ATOM      4  C   UNL A   1      33.735  28.603  24.218  1.00  0.00     0.245 C 
ATOM      5  O   UNL A   1      34.374  28.896  23.195  1.00  0.00    -0.272 OA
ATOM      6  H   UNL A   1      34.365  30.281  25.073  1.00  0.00     0.163 HD
BRANCH   4   7
ATOM      7  C   UNL A   1      32.976  27.230  24.326  1.00  0.00     0.119 C 
ATOM      8  C   UNL A   1      33.329  26.507  25.642  1.00  0.00     0.038 C 
ATOM      9  C   UNL A   1      33.241  26.203  23.210  1.00  0.00     0.038 C 
ATOM     10  C   UNL A   1      34.190  25.306  25.293  1.00  0.00     0.003 C 
ATOM     11  C   UNL A   1      33.873  24.965  23.847  1.00  0.00     0.003 C 
BRANCH   7  12
ATOM     12  N   UNL A   1      31.534  27.566  24.359  1.00  0.00    -0.341 N 
ATOM     13  O   UNL A   1      31.485  28.541  22.282  1.00  0.00    -0.275 OA
ATOM     14  C   UNL A   1      30.901  28.194  23.306  1.00  0.00     0.225 C 
ATOM     15  H   UNL A   1      31.010  27.333  25.159  1.00  0.00     0.164 HD
BRANCH  14  16
ATOM     16  C   UNL A   1      29.397  28.333  23.480  1.00  0.00     0.135 C 
BRANCH  16  17
ATOM     17  C   UNL A   1      28.926  29.672  22.960  1.00  0.00    -0.036 A 
ATOM     18  C   UNL A   1      29.120  30.840  23.714  1.00  0.00     0.007 A 
ATOM     19  C   UNL A   1      28.352  29.769  21.682  1.00  0.00     0.046 A 
ATOM     20  C   UNL A   1      28.770  32.086  23.186  1.00  0.00     0.043 A 
ATOM     21  C   UNL A   1      28.015  31.014  21.163  1.00  0.00     0.159 A 
ATOM     22  C   UNL A   1      28.226  32.166  21.909  1.00  0.00     0.158 A 
ATOM     23  F   UNL A   1      27.500  31.092  19.928  1.00  0.00    -0.204 F 
ATOM     24  F   UNL A   1      27.916  33.366  21.399  1.00  0.00    -0.204 F 
ENDBRANCH  16  17
ENDBRANCH  14  16
ENDBRANCH   7  12
ENDBRANCH   4   7
ENDBRANCH   2   3
ENDBRANCH   1   2
BRANCH   1  25
ATOM     25  C   UNL A   1      31.521  31.906  27.085  1.00  0.00     0.023 C 
BRANCH  25  26
ATOM     26  C   UNL A   1      32.712  32.834  27.295  1.00  0.00     0.116 C 
BRANCH  26  27
ATOM     27  N   UNL A   1      32.350  34.201  27.640  1.00  0.00    -0.352 N 
ATOM     28  C   UNL A   1      32.956  35.041  28.547  1.00  0.00     0.251 C 
ATOM     29  H   UNL A   1      31.573  34.573  27.164  1.00  0.00     0.163 HD
ATOM     30  O   UNL A   1      32.508  36.162  28.760  1.00  0.00    -0.269 OA
BRANCH  28  31
ATOM     31  C   UNL A   1      34.123  34.550  29.305  1.00  0.00     0.039 A 
ATOM     32  C   UNL A   1      33.908  33.927  30.536  1.00  0.00     0.014 A 
ATOM     33  C   UNL A   1      35.408  34.629  28.761  1.00  0.00     0.014 A 
ATOM     34  C   UNL A   1      34.974  33.302  31.184  1.00  0.00     0.010 A 
ATOM     35  C   UNL A   1      36.452  33.945  29.372  1.00  0.00     0.010 A 
ATOM     36  C   UNL A   1      36.242  33.265  30.582  1.00  0.00    -0.014 A 
BRANCH  36  37
ATOM     37  C   UNL A   1      37.360  32.504  31.191  1.00  0.00     0.031 A 
ATOM     38  C   UNL A   1      37.856  32.866  32.561  1.00  0.00     0.074 A 
ATOM     39  C   UNL A   1      37.973  31.537  30.481  1.00  0.00     0.049 A 
ATOM     40  N   UNL A   1      38.872  32.380  33.228  1.00  0.00    -0.248 NA
ATOM     41  C   UNL A   1      37.129  33.934  33.265  1.00  0.00     0.031 C 
ATOM     42  C   UNL A   1      37.613  31.128  29.122  1.00  0.00     0.029 A 
ATOM     43  N   UNL A   1      39.033  30.726  30.802  1.00  0.00    -0.354 N 
ATOM     44  C   UNL A   1      38.915  33.093  34.417  1.00  0.00     0.074 A 
ATOM     45  C   UNL A   1      37.857  34.078  34.363  1.00  0.00     0.031 C 
ATOM     46  C   UNL A   1      38.417  30.124  28.738  1.00  0.00     0.029 A 
ATOM     47  C   UNL A   1      39.372  29.842  29.806  1.00  0.00     0.049 A 
ATOM     48  H   UNL A   1      39.506  30.773  31.664  1.00  0.00     0.167 HD
ATOM     49  C   UNL A   1      39.747  32.921  35.471  1.00  0.00     0.037 A 
ATOM     50  C   UNL A   1      40.344  28.911  29.760  1.00  0.00     0.037 A 
ATOM     51  C   UNL A   1      40.774  31.917  35.536  1.00  0.00     0.049 A 
ATOM     52  C   UNL A   1      41.251  28.737  30.947  1.00  0.00     0.074 A 
ATOM     53  C   UNL A   1      41.633  31.630  36.582  1.00  0.00     0.029 A 
ATOM     54  N   UNL A   1      41.078  31.031  34.513  1.00  0.00    -0.354 N 
ATOM     55  N   UNL A   1      41.254  29.385  32.086  1.00  0.00    -0.248 NA
ATOM     56  C   UNL A   1      42.290  27.702  30.844  1.00  0.00     0.031 C 
ATOM     57  C   UNL A   1      42.477  30.591  36.181  1.00  0.00     0.029 A 
ATOM     58  C   UNL A   1      42.119  30.204  34.899  1.00  0.00     0.049 A 
ATOM     59  H   UNL A   1      40.620  30.995  33.642  1.00  0.00     0.167 HD
ATOM     60  C   UNL A   1      42.275  28.827  32.841  1.00  0.00     0.074 A 
ATOM     61  C   UNL A   1      42.865  27.777  32.036  1.00  0.00     0.031 C 
ATOM     62  C   UNL A   1      42.688  29.159  34.088  1.00  0.00     0.037 A 
BRANCH  49  63
ATOM     63  C   UNL A   1      39.568  33.827  36.652  1.00  0.00     0.064 A 
ATOM     64  C   UNL A   1      40.227  35.064  36.712  1.00  0.00     0.173 A 
ATOM     65  C   UNL A   1      38.784  33.445  37.752  1.00  0.00     0.173 A 
ATOM     66  F   UNL A   1      40.992  35.472  35.688  1.00  0.00    -0.203 F 
ATOM     67  C   UNL A   1      40.115  35.881  37.833  1.00  0.00     0.198 A 
ATOM     68  C   UNL A   1      38.652  34.277  38.859  1.00  0.00     0.198 A 
ATOM     69  F   UNL A   1      38.123  32.279  37.737  1.00  0.00    -0.203 F 
ATOM     70  F   UNL A   1      40.774  37.047  37.879  1.00  0.00    -0.200 F 
ATOM     71  C   UNL A   1      39.324  35.490  38.903  1.00  0.00     0.200 A 
ATOM     72  F   UNL A   1      37.867  33.910  39.882  1.00  0.00    -0.200 F 
ATOM     73  F   UNL A   1      39.207  36.284  39.976  1.00  0.00    -0.200 F 
ENDBRANCH  49  63
BRANCH  50  74
ATOM     74  C   UNL A   1      40.475  28.043  28.562  1.00  0.00     0.064 A 
ATOM     75  C   UNL A   1      39.855  26.788  28.494  1.00  0.00     0.173 A 
ATOM     76  C   UNL A   1      41.251  28.450  27.469  1.00  0.00     0.173 A 
ATOM     77  F   UNL A   1      39.105  26.353  29.516  1.00  0.00    -0.203 F 
ATOM     78  C   UNL A   1      40.020  25.964  27.381  1.00  0.00     0.198 A 
ATOM     79  C   UNL A   1      41.397  27.635  26.347  1.00  0.00     0.198 A 
ATOM     80  F   UNL A   1      41.846  29.651  27.480  1.00  0.00    -0.203 F 
ATOM     81  F   UNL A   1      39.441  24.757  27.352  1.00  0.00    -0.200 F 
ATOM     82  C   UNL A   1      40.788  26.390  26.308  1.00  0.00     0.200 A 
ATOM     83  F   UNL A   1      42.123  28.059  25.304  1.00  0.00    -0.200 F 
ATOM     84  F   UNL A   1      40.939  25.603  25.235  1.00  0.00    -0.200 F 
ENDBRANCH  50  74
BRANCH  62  85
ATOM     85  C   UNL A   1      43.819  28.372  34.678  1.00  0.00     0.064 A 
ATOM     86  C   UNL A   1      43.564  27.208  35.419  1.00  0.00     0.173 A 
ATOM     87  C   UNL A   1      45.145  28.818  34.584  1.00  0.00     0.173 A 
ATOM     88  F   UNL A   1      42.311  26.747  35.543  1.00  0.00    -0.203 F 
ATOM     89  C   UNL A   1      44.597  26.528  36.058  1.00  0.00     0.198 A 
ATOM     90  C   UNL A   1      46.177  28.121  35.205  1.00  0.00     0.198 A 
ATOM     91  F   UNL A   1      45.438  29.919  33.876  1.00  0.00    -0.203 F 
ATOM     92  F   UNL A   1      44.326  25.438  36.790  1.00  0.00    -0.200 F 
ATOM     93  C   UNL A   1      45.901  26.984  35.950  1.00  0.00     0.200 A 
ATOM     94  F   UNL A   1      47.441  28.552  35.084  1.00  0.00    -0.200 F 
ATOM     95  F   UNL A   1      46.895  26.327  36.563  1.00  0.00    -0.200 F 
ENDBRANCH  62  85
ENDBRANCH  36  37
ENDBRANCH  28  31
ENDBRANCH  26  27
ENDBRANCH  25  26
ENDBRANCH   1  25
TORSDOF 14
ENDMDL
MODEL 2
REMARK VINA RESULT:     -12.9      0.470      7.196
REMARK SMILES O=C(Cc1ccc(F)c(F)c1)NC1(C(=O)NCCCCNC(=O)c2ccc(-c3c4nc(c(-c5c(F)c(F)c(F)c(F)c5F)c5ccc([nH]5)c(-c5c(F)c(F)c(F)c(F)c5F)c5nc(c(-c6c(F)c(F)c(F)c(F)c6F)c6ccc3[nH]6)C=C5)C=C4)cc2)CCCC1
REMARK SMILES IDX 18 1 17 2 16 3 14 4 15 5 13 7 87 8 90 9 88 10 89 11 12 12
REMARK SMILES IDX 1 13 2 14 3 16 4 17 5 18 11 19 6 20 9 21 7 22 10 23 8 24
REMARK SMILES IDX 19 25 20 26 21 27 22 28 23 30 24 31 25 32 86 33 26 34 85 35
REMARK SMILES IDX 27 36 28 37 29 38 79 39 30 40 84 41 78 42 80 43 31 44 83 45
REMARK SMILES IDX 77 46 76 47 32 49 64 50 44 51 63 52 45 53 48 54 62 55 81 56
REMARK SMILES IDX 46 57 47 58 61 60 82 61 49 62 33 63 34 64 42 65 35 66 36 67
REMARK SMILES IDX 40 68 43 69 37 70 38 71 41 72 39 73 65 74 66 75 74 76 67 77
REMARK SMILES IDX 68 78 72 79 75 80 69 81 70 82 73 83 71 84 50 85 51 86 59 87
REMARK SMILES IDX 52 88 53 89 57 90 60 91 54 92 55 93 58 94 56 95
REMARK H PARENT 16 6 12 15 21 29 80 48 48 59
REMARK Flexibility Score: inf
ROOT
ATOM      1  C   UNL A   1      31.995  30.559  25.936  1.00  0.00     0.023 C 
ENDROOT
BRANCH   1   2
ATOM      2  C   UNL A   1      33.256  29.705  25.929  1.00  0.00     0.116 C 
BRANCH   2   3
ATOM      3  N   UNL A   1      33.788  29.434  24.614  1.00  0.00    -0.354 N 
ATOM      4  C   UNL A   1      33.475  28.470  23.703  1.00  0.00     0.245 C 
ATOM      5  O   UNL A   1      33.815  28.721  22.536  1.00  0.00    -0.272 OA
ATOM      6  H   UNL A   1      34.499  30.052  24.327  1.00  0.00     0.163 HD
BRANCH   4   7
ATOM      7  C   UNL A   1      32.639  27.179  24.035  1.00  0.00     0.119 C 
ATOM      8  C   UNL A   1      33.005  26.631  25.430  1.00  0.00     0.038 C 
ATOM      9  C   UNL A   1      32.793  25.988  23.073  1.00  0.00     0.038 C 
ATOM     10  C   UNL A   1      33.776  25.338  25.230  1.00  0.00     0.003 C 
ATOM     11  C   UNL A   1      33.375  24.815  23.861  1.00  0.00     0.003 C 
BRANCH   7  12
ATOM     12  N   UNL A   1      31.223  27.611  24.069  1.00  0.00    -0.341 N 
ATOM     13  O   UNL A   1      30.896  27.481  21.801  1.00  0.00    -0.275 OA
ATOM     14  C   UNL A   1      30.458  27.714  22.925  1.00  0.00     0.225 C 
ATOM     15  H   UNL A   1      30.814  27.832  24.937  1.00  0.00     0.164 HD
BRANCH  14  16
ATOM     16  C   UNL A   1      28.997  28.045  23.184  1.00  0.00     0.135 C 
BRANCH  16  17
ATOM     17  C   UNL A   1      28.720  29.498  22.868  1.00  0.00    -0.036 A 
ATOM     18  C   UNL A   1      29.060  30.506  23.783  1.00  0.00     0.007 A 
ATOM     19  C   UNL A   1      28.185  29.857  21.620  1.00  0.00     0.046 A 
ATOM     20  C   UNL A   1      28.891  31.851  23.445  1.00  0.00     0.043 A 
ATOM     21  C   UNL A   1      28.029  31.199  21.289  1.00  0.00     0.159 A 
ATOM     22  C   UNL A   1      28.382  32.190  22.195  1.00  0.00     0.158 A 
ATOM     23  F   UNL A   1      27.548  31.525  20.082  1.00  0.00    -0.204 F 
ATOM     24  F   UNL A   1      28.247  33.482  21.868  1.00  0.00    -0.204 F 
ENDBRANCH  16  17
ENDBRANCH  14  16
ENDBRANCH   7  12
ENDBRANCH   4   7
ENDBRANCH   2   3
ENDBRANCH   1   2
BRANCH   1  25
ATOM     25  C   UNL A   1      31.834  31.490  27.132  1.00  0.00     0.023 C 
BRANCH  25  26
ATOM     26  C   UNL A   1      32.958  32.497  27.345  1.00  0.00     0.116 C 
BRANCH  26  27
ATOM     27  N   UNL A   1      32.503  33.853  27.614  1.00  0.00    -0.352 N 
ATOM     28  C   UNL A   1      33.032  34.774  28.489  1.00  0.00     0.251 C 
ATOM     29  H   UNL A   1      31.716  34.151  27.103  1.00  0.00     0.163 HD
ATOM     30  O   UNL A   1      32.510  35.873  28.636  1.00  0.00    -0.269 OA
BRANCH  28  31
ATOM     31  C   UNL A   1      34.210  34.396  29.295  1.00  0.00     0.039 A 
ATOM     32  C   UNL A   1      34.006  33.855  30.567  1.00  0.00     0.014 A 
ATOM     33  C   UNL A   1      35.498  34.497  28.763  1.00  0.00     0.014 A 
ATOM     34  C   UNL A   1      35.089  33.331  31.271  1.00  0.00     0.010 A 
ATOM     35  C   UNL A   1      36.564  33.911  29.435  1.00  0.00     0.010 A 
ATOM     36  C   UNL A   1      36.368  33.311  30.689  1.00  0.00    -0.014 A 
BRANCH  36  37
ATOM     37  C   UNL A   1      37.510  32.652  31.366  1.00  0.00     0.031 A 
ATOM     38  C   UNL A   1      38.229  31.519  30.693  1.00  0.00     0.074 A 
ATOM     39  C   UNL A   1      37.853  33.027  32.613  1.00  0.00     0.049 A 
ATOM     40  N   UNL A   1      39.191  30.760  31.152  1.00  0.00    -0.248 NA
ATOM     41  C   UNL A   1      37.790  31.174  29.332  1.00  0.00     0.031 C 
ATOM     42  C   UNL A   1      37.199  34.082  33.389  1.00  0.00     0.029 A 
ATOM     43  N   UNL A   1      38.834  32.558  33.452  1.00  0.00    -0.354 N 
ATOM     44  C   UNL A   1      39.458  29.843  30.147  1.00  0.00     0.074 A 
ATOM     45  C   UNL A   1      38.526  30.104  29.072  1.00  0.00     0.031 C 
ATOM     46  C   UNL A   1      37.814  34.201  34.576  1.00  0.00     0.029 A 
ATOM     47  C   UNL A   1      38.882  33.208  34.662  1.00  0.00     0.049 A 
ATOM     48  H   UNL A   1      39.444  31.825  33.210  1.00  0.00     0.167 HD
ATOM     49  C   UNL A   1      40.415  28.886  30.113  1.00  0.00     0.037 A 
ATOM     50  C   UNL A   1      39.695  33.022  35.719  1.00  0.00     0.037 A 
ATOM     51  C   UNL A   1      41.364  28.653  31.169  1.00  0.00     0.049 A 
ATOM     52  C   UNL A   1      40.753  31.956  35.654  1.00  0.00     0.074 A 
ATOM     53  C   UNL A   1      42.405  27.743  31.206  1.00  0.00     0.029 A 
ATOM     54  N   UNL A   1      41.390  29.341  32.373  1.00  0.00    -0.354 N 
ATOM     55  N   UNL A   1      41.028  31.125  34.679  1.00  0.00    -0.248 NA
ATOM     56  C   UNL A   1      41.616  31.802  36.835  1.00  0.00     0.031 C 
ATOM     57  C   UNL A   1      43.042  27.858  32.444  1.00  0.00     0.029 A 
ATOM     58  C   UNL A   1      42.423  28.868  33.164  1.00  0.00     0.049 A 
ATOM     59  H   UNL A   1      40.767  30.062  32.626  1.00  0.00     0.167 HD
ATOM     60  C   UNL A   1      42.103  30.365  35.117  1.00  0.00     0.074 A 
ATOM     61  C   UNL A   1      42.440  30.841  36.443  1.00  0.00     0.031 C 
ATOM     62  C   UNL A   1      42.749  29.359  34.478  1.00  0.00     0.037 A 
BRANCH  49  63
ATOM     63  C   UNL A   1      40.499  28.030  28.886  1.00  0.00     0.064 A 
ATOM     64  C   UNL A   1      41.260  28.438  27.780  1.00  0.00     0.173 A 
ATOM     65  C   UNL A   1      39.780  26.830  28.783  1.00  0.00     0.173 A 
ATOM     66  F   UNL A   1      41.961  29.580  27.825  1.00  0.00    -0.203 F 
ATOM     67  C   UNL A   1      41.291  27.678  26.614  1.00  0.00     0.198 A 
ATOM     68  C   UNL A   1      39.836  26.059  27.626  1.00  0.00     0.198 A 
ATOM     69  F   UNL A   1      39.049  26.390  29.818  1.00  0.00    -0.203 F 
ATOM     70  F   UNL A   1      42.004  28.099  25.560  1.00  0.00    -0.200 F 
ATOM     71  C   UNL A   1      40.584  26.487  26.539  1.00  0.00     0.200 A 
ATOM     72  F   UNL A   1      39.173  24.895  27.565  1.00  0.00    -0.200 F 
ATOM     73  F   UNL A   1      40.626  25.751  25.421  1.00  0.00    -0.200 F 
ENDBRANCH  49  63
BRANCH  50  74
ATOM     74  C   UNL A   1      39.564  33.901  36.910  1.00  0.00     0.064 A 
ATOM     75  C   UNL A   1      38.789  33.526  38.016  1.00  0.00     0.173 A 
ATOM     76  C   UNL A   1      40.195  35.151  36.947  1.00  0.00     0.173 A 
ATOM     77  F   UNL A   1      38.163  32.341  38.027  1.00  0.00    -0.203 F 
ATOM     78  C   UNL A   1      38.639  34.378  39.109  1.00  0.00     0.198 A 
ATOM     79  C   UNL A   1      40.063  35.993  38.049  1.00  0.00     0.198 A 
ATOM     80  F   UNL A   1      40.963  35.543  35.919  1.00  0.00    -0.203 F 
ATOM     81  F   UNL A   1      37.870  34.009  40.143  1.00  0.00    -0.200 F 
ATOM     82  C   UNL A   1      39.278  35.608  39.126  1.00  0.00     0.200 A 
ATOM     83  F   UNL A   1      40.699  37.171  38.071  1.00  0.00    -0.200 F 
ATOM     84  F   UNL A   1      39.141  36.423  40.181  1.00  0.00    -0.200 F 
ENDBRANCH  50  74
BRANCH  62  85
ATOM     85  C   UNL A   1      43.900  28.712  35.186  1.00  0.00     0.064 A 
ATOM     86  C   UNL A   1      43.686  27.621  36.041  1.00  0.00     0.173 A 
ATOM     87  C   UNL A   1      45.201  29.225  35.085  1.00  0.00     0.173 A 
ATOM     88  F   UNL A   1      42.457  27.099  36.176  1.00  0.00    -0.203 F 
ATOM     89  C   UNL A   1      44.731  27.078  36.784  1.00  0.00     0.198 A 
ATOM     90  C   UNL A   1      46.247  28.665  35.811  1.00  0.00     0.198 A 
ATOM     91  F   UNL A   1      45.456  30.260  34.270  1.00  0.00    -0.203 F 
ATOM     92  F   UNL A   1      44.496  26.059  37.621  1.00  0.00    -0.200 F 
ATOM     93  C   UNL A   1      46.010  27.600  36.667  1.00  0.00     0.200 A 
ATOM     94  F   UNL A   1      47.488  29.157  35.683  1.00  0.00    -0.200 F 
ATOM     95  F   UNL A   1      47.016  27.075  37.379  1.00  0.00    -0.200 F 
ENDBRANCH  62  85
ENDBRANCH  36  37
ENDBRANCH  28  31
ENDBRANCH  26  27
ENDBRANCH  25  26
ENDBRANCH   1  25
TORSDOF 14
ENDMDL
MODEL 3
REMARK VINA RESULT:     -12.9      0.944      1.931
REMARK SMILES O=C(Cc1ccc(F)c(F)c1)NC1(C(=O)NCCCCNC(=O)c2ccc(-c3c4nc(c(-c5c(F)c(F)c(F)c(F)c5F)c5ccc([nH]5)c(-c5c(F)c(F)c(F)c(F)c5F)c5nc(c(-c6c(F)c(F)c(F)c(F)c6F)c6ccc3[nH]6)C=C5)C=C4)cc2)CCCC1
REMARK SMILES IDX 18 1 17 2 16 3 14 4 15 5 13 7 87 8 90 9 88 10 89 11 12 12
REMARK SMILES IDX 1 13 2 14 3 16 4 17 5 18 11 19 6 20 9 21 7 22 10 23 8 24
REMARK SMILES IDX 19 25 20 26 21 27 22 28 23 30 24 31 25 32 86 33 26 34 85 35
REMARK SMILES IDX 27 36 28 37 29 38 79 39 30 40 84 41 78 42 80 43 31 44 83 45
REMARK SMILES IDX 77 46 76 47 32 49 64 50 44 51 63 52 45 53 48 54 62 55 81 56
REMARK SMILES IDX 46 57 47 58 61 60 82 61 49 62 33 63 34 64 42 65 35 66 36 67
REMARK SMILES IDX 40 68 43 69 37 70 38 71 41 72 39 73 65 74 66 75 74 76 67 77
REMARK SMILES IDX 68 78 72 79 75 80 69 81 70 82 73 83 71 84 50 85 51 86 59 87
REMARK SMILES IDX 52 88 53 89 57 90 60 91 54 92 55 93 58 94 56 95
REMARK H PARENT 16 6 12 15 21 29 80 48 48 59
REMARK Flexibility Score: inf
ROOT
ATOM      1  C   UNL A   1      31.421  30.872  25.988  1.00  0.00     0.023 C 
ENDROOT
BRANCH   1   2
ATOM      2  C   UNL A   1      32.688  30.041  26.146  1.00  0.00     0.116 C 
BRANCH   2   3
ATOM      3  N   UNL A   1      33.383  29.770  24.910  1.00  0.00    -0.354 N 
ATOM      4  C   UNL A   1      33.214  28.782  23.985  1.00  0.00     0.245 C 
ATOM      5  O   UNL A   1      33.684  29.028  22.864  1.00  0.00    -0.272 OA
ATOM      6  H   UNL A   1      34.102  30.408  24.698  1.00  0.00     0.163 HD
BRANCH   4   7
ATOM      7  C   UNL A   1      32.388  27.468  24.239  1.00  0.00     0.119 C 
ATOM      8  C   UNL A   1      32.667  26.905  25.648  1.00  0.00     0.038 C 
ATOM      9  C   UNL A   1      32.636  26.295  23.273  1.00  0.00     0.038 C 
ATOM     10  C   UNL A   1      33.480  25.633  25.485  1.00  0.00     0.003 C 
ATOM     11  C   UNL A   1      33.190  25.124  24.084  1.00  0.00     0.003 C 
BRANCH   7  12
ATOM     12  N   UNL A   1      30.963  27.867  24.179  1.00  0.00    -0.341 N 
ATOM     13  O   UNL A   1      30.815  27.817  21.889  1.00  0.00    -0.275 OA
ATOM     14  C   UNL A   1      30.286  27.997  22.983  1.00  0.00     0.225 C 
ATOM     15  H   UNL A   1      30.483  28.046  25.019  1.00  0.00     0.164 HD
BRANCH  14  16
ATOM     16  C   UNL A   1      28.801  28.287  23.140  1.00  0.00     0.135 C 
BRANCH  16  17
ATOM     17  C   UNL A   1      28.496  29.713  22.741  1.00  0.00    -0.036 A 
ATOM     18  C   UNL A   1      28.700  30.767  23.644  1.00  0.00     0.007 A 
ATOM     19  C   UNL A   1      28.072  30.002  21.433  1.00  0.00     0.046 A 
ATOM     20  C   UNL A   1      28.508  32.090  23.238  1.00  0.00     0.043 A 
ATOM     21  C   UNL A   1      27.892  31.323  21.036  1.00  0.00     0.159 A 
ATOM     22  C   UNL A   1      28.112  32.361  21.932  1.00  0.00     0.158 A 
ATOM     23  F   UNL A   1      27.520  31.584  19.776  1.00  0.00    -0.204 F 
ATOM     24  F   UNL A   1      27.955  33.633  21.542  1.00  0.00    -0.204 F 
ENDBRANCH  16  17
ENDBRANCH  14  16
ENDBRANCH   7  12
ENDBRANCH   4   7
ENDBRANCH   2   3
ENDBRANCH   1   2
BRANCH   1  25
ATOM     25  C   UNL A   1      31.364  32.153  26.813  1.00  0.00     0.023 C 
BRANCH  25  26
ATOM     26  C   UNL A   1      32.658  32.954  26.884  1.00  0.00     0.116 C 
BRANCH  26  27
ATOM     27  N   UNL A   1      32.573  34.157  27.700  1.00  0.00    -0.352 N 
ATOM     28  C   UNL A   1      33.405  34.557  28.721  1.00  0.00     0.251 C 
ATOM     29  H   UNL A   1      31.825  34.762  27.495  1.00  0.00     0.163 HD
ATOM     30  O   UNL A   1      33.180  35.586  29.348  1.00  0.00    -0.269 OA
BRANCH  28  31
ATOM     31  C   UNL A   1      34.546  33.696  29.089  1.00  0.00     0.039 A 
ATOM     32  C   UNL A   1      35.841  34.170  28.867  1.00  0.00     0.014 A 
ATOM     33  C   UNL A   1      34.335  32.471  29.726  1.00  0.00     0.014 A 
ATOM     34  C   UNL A   1      36.929  33.453  29.367  1.00  0.00     0.010 A 
ATOM     35  C   UNL A   1      35.414  31.796  30.284  1.00  0.00     0.010 A 
ATOM     36  C   UNL A   1      36.720  32.287  30.121  1.00  0.00    -0.014 A 
BRANCH  36  37
ATOM     37  C   UNL A   1      37.850  31.574  30.764  1.00  0.00     0.031 A 
ATOM     38  C   UNL A   1      38.233  31.896  32.179  1.00  0.00     0.074 A 
ATOM     39  C   UNL A   1      38.573  30.690  30.049  1.00  0.00     0.049 A 
ATOM     40  N   UNL A   1      39.238  31.448  32.887  1.00  0.00    -0.248 NA
ATOM     41  C   UNL A   1      37.389  32.873  32.885  1.00  0.00     0.031 C 
ATOM     42  C   UNL A   1      38.329  30.329  28.652  1.00  0.00     0.029 A 
ATOM     43  N   UNL A   1      39.668  29.938  30.399  1.00  0.00    -0.354 N 
ATOM     44  C   UNL A   1      39.156  32.099  34.109  1.00  0.00     0.074 A 
ATOM     45  C   UNL A   1      38.035  33.010  34.033  1.00  0.00     0.031 C 
ATOM     46  C   UNL A   1      39.225  29.405  28.273  1.00  0.00     0.029 A 
ATOM     47  C   UNL A   1      40.131  29.134  29.386  1.00  0.00     0.049 A 
ATOM     48  H   UNL A   1      40.082  29.973  31.292  1.00  0.00     0.167 HD
ATOM     49  C   UNL A   1      39.931  31.930  35.205  1.00  0.00     0.037 A 
ATOM     50  C   UNL A   1      41.168  28.275  29.360  1.00  0.00     0.037 A 
ATOM     51  C   UNL A   1      41.023  30.997  35.289  1.00  0.00     0.049 A 
ATOM     52  C   UNL A   1      42.010  28.102  30.593  1.00  0.00     0.074 A 
ATOM     53  C   UNL A   1      41.834  30.714  36.374  1.00  0.00     0.029 A 
ATOM     54  N   UNL A   1      41.452  30.189  34.246  1.00  0.00    -0.354 N 
ATOM     55  N   UNL A   1      41.896  28.689  31.760  1.00  0.00    -0.248 NA
ATOM     56  C   UNL A   1      43.126  27.148  30.509  1.00  0.00     0.031 C 
ATOM     57  C   UNL A   1      42.774  29.759  35.980  1.00  0.00     0.029 A 
ATOM     58  C   UNL A   1      42.524  29.416  34.660  1.00  0.00     0.049 A 
ATOM     59  H   UNL A   1      41.053  30.167  33.346  1.00  0.00     0.167 HD
ATOM     60  C   UNL A   1      42.906  28.163  32.552  1.00  0.00     0.074 A 
ATOM     61  C   UNL A   1      43.619  27.200  31.738  1.00  0.00     0.031 C 
ATOM     62  C   UNL A   1      43.217  28.457  33.838  1.00  0.00     0.037 A 
BRANCH  49  63
ATOM     63  C   UNL A   1      39.615  32.757  36.414  1.00  0.00     0.064 A 
ATOM     64  C   UNL A   1      38.603  32.367  37.304  1.00  0.00     0.173 A 
ATOM     65  C   UNL A   1      40.278  33.968  36.663  1.00  0.00     0.173 A 
ATOM     66  F   UNL A   1      37.935  31.220  37.107  1.00  0.00    -0.203 F 
ATOM     67  C   UNL A   1      38.262  33.163  38.393  1.00  0.00     0.198 A 
ATOM     68  C   UNL A   1      39.953  34.748  37.769  1.00  0.00     0.198 A 
ATOM     69  F   UNL A   1      41.262  34.378  35.850  1.00  0.00    -0.203 F 
ATOM     70  F   UNL A   1      37.274  32.783  39.216  1.00  0.00    -0.200 F 
ATOM     71  C   UNL A   1      38.939  34.350  38.628  1.00  0.00     0.200 A 
ATOM     72  F   UNL A   1      40.627  35.882  38.008  1.00  0.00    -0.200 F 
ATOM     73  F   UNL A   1      38.619  35.108  39.685  1.00  0.00    -0.200 F 
ENDBRANCH  49  63
BRANCH  50  74
ATOM     74  C   UNL A   1      41.435  27.483  28.132  1.00  0.00     0.064 A 
ATOM     75  C   UNL A   1      40.865  26.217  27.938  1.00  0.00     0.173 A 
ATOM     76  C   UNL A   1      42.292  27.974  27.139  1.00  0.00     0.173 A 
ATOM     77  F   UNL A   1      40.042  25.702  28.862  1.00  0.00    -0.203 F 
ATOM     78  C   UNL A   1      41.158  25.465  26.801  1.00  0.00     0.198 A 
ATOM     79  C   UNL A   1      42.566  27.231  25.992  1.00  0.00     0.198 A 
ATOM     80  F   UNL A   1      42.844  29.189  27.272  1.00  0.00    -0.203 F 
ATOM     81  F   UNL A   1      40.624  24.245  26.652  1.00  0.00    -0.200 F 
ATOM     82  C   UNL A   1      42.005  25.974  25.828  1.00  0.00     0.200 A 
ATOM     83  F   UNL A   1      43.368  27.735  25.045  1.00  0.00    -0.200 F 
ATOM     84  F   UNL A   1      42.278  25.254  24.732  1.00  0.00    -0.200 F 
ENDBRANCH  50  74
BRANCH  62  85
ATOM     85  C   UNL A   1      44.363  27.720  34.462  1.00  0.00     0.064 A 
ATOM     86  C   UNL A   1      45.667  28.230  34.373  1.00  0.00     0.173 A 
ATOM     87  C   UNL A   1      44.183  26.471  35.071  1.00  0.00     0.173 A 
ATOM     88  F   UNL A   1      45.891  29.419  33.793  1.00  0.00    -0.203 F 
ATOM     89  C   UNL A   1      46.752  27.505  34.857  1.00  0.00     0.198 A 
ATOM     90  C   UNL A   1      45.268  25.759  35.575  1.00  0.00     0.198 A 
ATOM     91  F   UNL A   1      42.952  25.949  35.190  1.00  0.00    -0.203 F 
ATOM     92  F   UNL A   1      47.993  27.995  34.730  1.00  0.00    -0.200 F 
ATOM     93  C   UNL A   1      46.552  26.272  35.458  1.00  0.00     0.200 A 
ATOM     94  F   UNL A   1      45.071  24.576  36.174  1.00  0.00    -0.200 F 
ATOM     95  F   UNL A   1      47.596  25.576  35.927  1.00  0.00    -0.200 F 
ENDBRANCH  62  85
ENDBRANCH  36  37
ENDBRANCH  28  31
ENDBRANCH  26  27
ENDBRANCH  25  26
ENDBRANCH   1  25
TORSDOF 14
ENDMDL
