MODEL 1
REMARK VINA RESULT:     -13.3      0.000      0.000
REMARK SMILES Cc1cccc(NC(=O)C[C@@H]2CCCCO2)c1C(=O)NCCCCNC(=O)c1ccc(-c2c3nc(c(-c4c(F)c(F)c(F)c(F)c4F)c4ccc([nH]4)c(-c4c(F)c(F)c(F)c(F)c4F)c4nc(c(-c5c(F)c(F)c(F)c(F)c5F)c5ccc2[nH]5)C=C4)C=C3)cc1
REMARK SMILES IDX 22 1 21 2 20 3 18 4 19 5 17 7 1 8 2 9 3 10 4 11 6 12 5 13
REMARK SMILES IDX 7 14 8 15 9 17 10 18 11 19 12 20 16 21 13 22 15 23 14 24
REMARK SMILES IDX 23 25 24 26 25 27 26 28 27 30 28 31 29 32 90 33 30 34 89 35
REMARK SMILES IDX 31 36 32 37 33 38 83 39 34 40 88 41 82 42 84 43 35 44 87 45
REMARK SMILES IDX 81 46 80 47 36 49 68 50 48 51 67 52 49 53 52 54 66 55 85 56
REMARK SMILES IDX 50 57 51 58 65 60 86 61 53 62 37 63 38 64 46 65 39 66 40 67
REMARK SMILES IDX 44 68 47 69 41 70 42 71 45 72 43 73 69 74 70 75 78 76 71 77
REMARK SMILES IDX 72 78 76 79 79 80 73 81 74 82 77 83 75 84 54 85 55 86 63 87
REMARK SMILES IDX 56 88 57 89 61 90 64 91 58 92 59 93 62 94 60 95
REMARK H PARENT 20 6 7 16 25 29 84 48 52 59
REMARK Flexibility Score: inf
ROOT
ATOM      1  C   UNL A   1      31.835  29.446  26.499  1.00  0.00     0.023 C 
ENDROOT
BRANCH   1   2
ATOM      2  C   UNL A   1      32.388  28.032  26.763  1.00  0.00     0.116 C 
BRANCH   2   3
ATOM      3  N   UNL A   1      31.294  27.089  26.919  1.00  0.00    -0.352 N 
ATOM      4  C   UNL A   1      30.542  26.339  26.052  1.00  0.00     0.253 C 
ATOM      5  O   UNL A   1      29.660  25.655  26.576  1.00  0.00    -0.269 OA
ATOM      6  H   UNL A   1      31.035  26.960  27.861  1.00  0.00     0.163 HD
BRANCH   4   7
ATOM      7  C   UNL A   1      30.831  26.195  24.586  1.00  0.00     0.066 A 
ATOM      8  C   UNL A   1      29.946  28.481  23.835  1.00  0.00     0.045 C 
ATOM      9  C   UNL A   1      30.767  27.239  23.640  1.00  0.00    -0.036 A 
ATOM     10  C   UNL A   1      31.308  27.054  22.353  1.00  0.00     0.004 A 
ATOM     11  C   UNL A   1      31.792  25.813  21.960  1.00  0.00     0.002 A 
ATOM     12  C   UNL A   1      31.058  24.888  24.077  1.00  0.00     0.054 A 
ATOM     13  C   UNL A   1      31.633  24.724  22.810  1.00  0.00     0.027 A 
BRANCH  12  14
ATOM     14  N   UNL A   1      30.577  23.765  24.790  1.00  0.00    -0.325 N 
ATOM     15  C   UNL A   1      31.263  22.704  25.336  1.00  0.00     0.227 C 
ATOM     16  H   UNL A   1      29.600  23.737  24.916  1.00  0.00     0.169 HD
ATOM     17  O   UNL A   1      30.619  21.793  25.867  1.00  0.00    -0.275 OA
BRANCH  15  18
ATOM     18  C   UNL A   1      32.776  22.603  25.259  1.00  0.00     0.132 C 
BRANCH  18  19
ATOM     19  C   UNL A   1      33.527  23.364  26.369  1.00  0.00     0.127 C 
ATOM     20  C   UNL A   1      34.090  24.697  25.845  1.00  0.00     0.033 C 
ATOM     21  O   UNL A   1      34.586  22.637  26.999  1.00  0.00    -0.378 OA
ATOM     22  C   UNL A   1      35.271  24.482  24.897  1.00  0.00     0.005 C 
ATOM     23  C   UNL A   1      35.722  22.373  26.191  1.00  0.00     0.160 C 
ATOM     24  C   UNL A   1      36.331  23.612  25.558  1.00  0.00     0.029 C 
ENDBRANCH  18  19
ENDBRANCH  15  18
ENDBRANCH  12  14
ENDBRANCH   4   7
ENDBRANCH   2   3
ENDBRANCH   1   2
BRANCH   1  25
ATOM     25  C   UNL A   1      32.630  30.570  27.166  1.00  0.00     0.023 C 
BRANCH  25  26
ATOM     26  C   UNL A   1      34.012  30.119  27.605  1.00  0.00     0.116 C 
BRANCH  26  27
ATOM     27  N   UNL A   1      34.763  31.117  28.359  1.00  0.00    -0.352 N 
ATOM     28  C   UNL A   1      35.973  30.996  29.021  1.00  0.00     0.251 C 
ATOM     29  H   UNL A   1      34.347  32.009  28.405  1.00  0.00     0.163 HD
ATOM     30  O   UNL A   1      36.407  31.938  29.683  1.00  0.00    -0.269 OA
BRANCH  28  31
ATOM     31  C   UNL A   1      36.819  29.798  28.799  1.00  0.00     0.039 A 
ATOM     32  C   UNL A   1      37.017  28.933  29.884  1.00  0.00     0.014 A 
ATOM     33  C   UNL A   1      37.621  29.696  27.671  1.00  0.00     0.014 A 
ATOM     34  C   UNL A   1      38.197  28.199  29.956  1.00  0.00     0.010 A 
ATOM     35  C   UNL A   1      38.852  29.088  27.804  1.00  0.00     0.010 A 
ATOM     36  C   UNL A   1      39.171  28.407  28.983  1.00  0.00    -0.014 A 
BRANCH  36  37
ATOM     37  C   UNL A   1      40.584  28.102  29.186  1.00  0.00     0.031 A 
ATOM     38  C   UNL A   1      41.167  26.858  28.645  1.00  0.00     0.074 A 
ATOM     39  C   UNL A   1      41.381  29.042  29.742  1.00  0.00     0.049 A 
ATOM     40  N   UNL A   1      42.292  26.351  29.025  1.00  0.00    -0.248 NA
ATOM     41  C   UNL A   1      40.484  26.040  27.653  1.00  0.00     0.031 C 
ATOM     42  C   UNL A   1      42.841  29.090  29.726  1.00  0.00     0.029 A 
ATOM     43  N   UNL A   1      41.010  30.083  30.614  1.00  0.00    -0.354 N 
ATOM     44  C   UNL A   1      42.620  25.339  28.150  1.00  0.00     0.074 A 
ATOM     45  C   UNL A   1      41.418  25.126  27.383  1.00  0.00     0.031 C 
ATOM     46  C   UNL A   1      43.261  29.870  30.734  1.00  0.00     0.029 A 
ATOM     47  C   UNL A   1      42.090  30.222  31.517  1.00  0.00     0.049 A 
ATOM     48  H   UNL A   1      40.175  30.604  30.599  1.00  0.00     0.167 HD
ATOM     49  C   UNL A   1      43.917  24.912  28.100  1.00  0.00     0.037 A 
ATOM     50  C   UNL A   1      41.940  29.961  32.848  1.00  0.00     0.037 A 
ATOM     51  C   UNL A   1      44.697  25.503  29.193  1.00  0.00     0.049 A 
ATOM     52  C   UNL A   1      42.827  28.852  33.365  1.00  0.00     0.074 A 
ATOM     53  C   UNL A   1      45.603  26.549  29.252  1.00  0.00     0.029 A 
ATOM     54  N   UNL A   1      44.360  25.204  30.512  1.00  0.00    -0.354 N 
ATOM     55  N   UNL A   1      43.427  27.986  32.597  1.00  0.00    -0.248 NA
ATOM     56  C   UNL A   1      43.071  28.602  34.784  1.00  0.00     0.031 C 
ATOM     57  C   UNL A   1      45.759  26.922  30.611  1.00  0.00     0.029 A 
ATOM     58  C   UNL A   1      44.965  26.090  31.381  1.00  0.00     0.049 A 
ATOM     59  H   UNL A   1      43.773  24.463  30.786  1.00  0.00     0.167 HD
ATOM     60  C   UNL A   1      44.083  27.065  33.370  1.00  0.00     0.074 A 
ATOM     61  C   UNL A   1      43.853  27.509  34.731  1.00  0.00     0.031 C 
ATOM     62  C   UNL A   1      44.740  26.002  32.818  1.00  0.00     0.037 A 
BRANCH  49  63
ATOM     63  C   UNL A   1      44.563  24.212  26.907  1.00  0.00     0.064 A 
ATOM     64  C   UNL A   1      44.302  22.844  26.653  1.00  0.00     0.173 A 
ATOM     65  C   UNL A   1      45.514  24.777  26.036  1.00  0.00     0.173 A 
ATOM     66  F   UNL A   1      43.337  22.182  27.305  1.00  0.00    -0.203 F 
ATOM     67  C   UNL A   1      45.019  22.094  25.712  1.00  0.00     0.198 A 
ATOM     68  C   UNL A   1      46.257  24.024  25.120  1.00  0.00     0.198 A 
ATOM     69  F   UNL A   1      45.729  26.092  25.979  1.00  0.00    -0.203 F 
ATOM     70  F   UNL A   1      44.736  20.794  25.543  1.00  0.00    -0.200 F 
ATOM     71  C   UNL A   1      46.022  22.676  24.971  1.00  0.00     0.200 A 
ATOM     72  F   UNL A   1      47.202  24.625  24.382  1.00  0.00    -0.200 F 
ATOM     73  F   UNL A   1      46.736  21.955  24.096  1.00  0.00    -0.200 F 
ENDBRANCH  49  63
BRANCH  50  74
ATOM     74  C   UNL A   1      40.578  30.270  33.355  1.00  0.00     0.064 A 
ATOM     75  C   UNL A   1      40.228  31.621  33.544  1.00  0.00     0.173 A 
ATOM     76  C   UNL A   1      39.537  29.337  33.287  1.00  0.00     0.173 A 
ATOM     77  F   UNL A   1      41.188  32.558  33.612  1.00  0.00    -0.203 F 
ATOM     78  C   UNL A   1      38.897  32.033  33.545  1.00  0.00     0.198 A 
ATOM     79  C   UNL A   1      38.204  29.752  33.300  1.00  0.00     0.198 A 
ATOM     80  F   UNL A   1      39.804  28.039  33.081  1.00  0.00    -0.203 F 
ATOM     81  F   UNL A   1      38.602  33.340  33.614  1.00  0.00    -0.200 F 
ATOM     82  C   UNL A   1      37.886  31.100  33.395  1.00  0.00     0.200 A 
ATOM     83  F   UNL A   1      37.225  28.854  33.117  1.00  0.00    -0.200 F 
ATOM     84  F   UNL A   1      36.611  31.501  33.296  1.00  0.00    -0.200 F 
ENDBRANCH  50  74
BRANCH  62  85
ATOM     85  C   UNL A   1      45.297  24.821  33.572  1.00  0.00     0.064 A 
ATOM     86  C   UNL A   1      44.564  23.656  33.855  1.00  0.00     0.173 A 
ATOM     87  C   UNL A   1      46.672  24.773  33.904  1.00  0.00     0.173 A 
ATOM     88  F   UNL A   1      43.282  23.534  33.488  1.00  0.00    -0.203 F 
ATOM     89  C   UNL A   1      45.149  22.549  34.476  1.00  0.00     0.198 A 
ATOM     90  C   UNL A   1      47.265  23.645  34.470  1.00  0.00     0.198 A 
ATOM     91  F   UNL A   1      47.485  25.812  33.665  1.00  0.00    -0.203 F 
ATOM     92  F   UNL A   1      44.399  21.475  34.760  1.00  0.00    -0.200 F 
ATOM     93  C   UNL A   1      46.500  22.537  34.771  1.00  0.00     0.200 A 
ATOM     94  F   UNL A   1      48.585  23.632  34.702  1.00  0.00    -0.200 F 
ATOM     95  F   UNL A   1      47.065  21.455  35.321  1.00  0.00    -0.200 F 
ENDBRANCH  62  85
ENDBRANCH  36  37
ENDBRANCH  28  31
ENDBRANCH  26  27
ENDBRANCH  25  26
ENDBRANCH   1  25
TORSDOF 14
ENDMDL
MODEL 2
REMARK VINA RESULT:     -13.1      3.859     10.005
REMARK SMILES Cc1cccc(NC(=O)C[C@@H]2CCCCO2)c1C(=O)NCCCCNC(=O)c1ccc(-c2c3nc(c(-c4c(F)c(F)c(F)c(F)c4F)c4ccc([nH]4)c(-c4c(F)c(F)c(F)c(F)c4F)c4nc(c(-c5c(F)c(F)c(F)c(F)c5F)c5ccc2[nH]5)C=C4)C=C3)cc1
REMARK SMILES IDX 22 1 21 2 20 3 18 4 19 5 17 7 1 8 2 9 3 10 4 11 6 12 5 13
REMARK SMILES IDX 7 14 8 15 9 17 10 18 11 19 12 20 16 21 13 22 15 23 14 24
REMARK SMILES IDX 23 25 24 26 25 27 26 28 27 30 28 31 29 32 90 33 30 34 89 35
REMARK SMILES IDX 31 36 32 37 33 38 83 39 34 40 88 41 82 42 84 43 35 44 87 45
REMARK SMILES IDX 81 46 80 47 36 49 68 50 48 51 67 52 49 53 52 54 66 55 85 56
REMARK SMILES IDX 50 57 51 58 65 60 86 61 53 62 37 63 38 64 46 65 39 66 40 67
REMARK SMILES IDX 44 68 47 69 41 70 42 71 45 72 43 73 69 74 70 75 78 76 71 77
REMARK SMILES IDX 72 78 76 79 79 80 73 81 74 82 77 83 75 84 54 85 55 86 63 87
REMARK SMILES IDX 56 88 57 89 61 90 64 91 58 92 59 93 62 94 60 95
REMARK H PARENT 20 6 7 16 25 29 84 48 52 59
REMARK Flexibility Score: inf
ROOT
ATOM      1  C   UNL A   1      37.630  21.035  24.830  1.00  0.00     0.023 C 
ENDROOT
BRANCH   1   2
ATOM      2  C   UNL A   1      36.319  20.317  25.204  1.00  0.00     0.116 C 
BRANCH   2   3
ATOM      3  N   UNL A   1      35.565  21.115  26.153  1.00  0.00    -0.352 N 
ATOM      4  C   UNL A   1      34.579  22.062  26.042  1.00  0.00     0.253 C 
ATOM      5  O   UNL A   1      34.194  22.549  27.108  1.00  0.00    -0.269 OA
ATOM      6  H   UNL A   1      35.818  20.935  27.088  1.00  0.00     0.163 HD
BRANCH   4   7
ATOM      7  C   UNL A   1      33.871  22.402  24.763  1.00  0.00     0.066 A 
ATOM      8  C   UNL A   1      35.723  23.832  23.715  1.00  0.00     0.045 C 
ATOM      9  C   UNL A   1      34.473  23.005  23.639  1.00  0.00    -0.036 A 
ATOM     10  C   UNL A   1      33.786  23.038  22.409  1.00  0.00     0.004 A 
ATOM     11  C   UNL A   1      32.472  22.597  22.320  1.00  0.00     0.002 A 
ATOM     12  C   UNL A   1      32.462  22.232  24.716  1.00  0.00     0.054 A 
ATOM     13  C   UNL A   1      31.801  22.229  23.481  1.00  0.00     0.027 A 
BRANCH  12  14
ATOM     14  N   UNL A   1      31.719  22.204  25.920  1.00  0.00    -0.325 N 
ATOM     15  C   UNL A   1      30.990  23.198  26.532  1.00  0.00     0.227 C 
ATOM     16  H   UNL A   1      31.723  21.341  26.394  1.00  0.00     0.169 HD
ATOM     17  O   UNL A   1      30.468  22.961  27.627  1.00  0.00    -0.275 OA
BRANCH  15  18
ATOM     18  C   UNL A   1      30.852  24.582  25.923  1.00  0.00     0.132 C 
BRANCH  18  19
ATOM     19  C   UNL A   1      31.924  25.592  26.375  1.00  0.00     0.127 C 
ATOM     20  C   UNL A   1      31.335  27.008  26.500  1.00  0.00     0.033 C 
ATOM     21  O   UNL A   1      33.092  25.654  25.549  1.00  0.00    -0.378 OA
ATOM     22  C   UNL A   1      31.029  27.620  25.131  1.00  0.00     0.005 C 
ATOM     23  C   UNL A   1      32.904  26.193  24.250  1.00  0.00     0.160 C 
ATOM     24  C   UNL A   1      32.262  27.570  24.240  1.00  0.00     0.029 C 
ENDBRANCH  18  19
ENDBRANCH  15  18
ENDBRANCH  12  14
ENDBRANCH   4   7
ENDBRANCH   2   3
ENDBRANCH   1   2
BRANCH   1  25
ATOM     25  C   UNL A   1      38.574  21.281  26.009  1.00  0.00     0.023 C 
BRANCH  25  26
ATOM     26  C   UNL A   1      38.994  22.735  26.120  1.00  0.00     0.116 C 
BRANCH  26  27
ATOM     27  N   UNL A   1      40.379  22.936  26.535  1.00  0.00    -0.352 N 
ATOM     28  C   UNL A   1      41.040  24.105  26.869  1.00  0.00     0.251 C 
ATOM     29  H   UNL A   1      40.924  22.117  26.584  1.00  0.00     0.163 HD
ATOM     30  O   UNL A   1      42.246  24.081  27.110  1.00  0.00    -0.269 OA
BRANCH  28  31
ATOM     31  C   UNL A   1      40.267  25.351  27.095  1.00  0.00     0.039 A 
ATOM     32  C   UNL A   1      40.612  26.477  26.336  1.00  0.00     0.014 A 
ATOM     33  C   UNL A   1      39.450  25.486  28.210  1.00  0.00     0.014 A 
ATOM     34  C   UNL A   1      40.403  27.744  26.872  1.00  0.00     0.010 A 
ATOM     35  C   UNL A   1      39.372  26.725  28.809  1.00  0.00     0.010 A 
ATOM     36  C   UNL A   1      39.923  27.844  28.175  1.00  0.00    -0.014 A 
BRANCH  36  37
ATOM     37  C   UNL A   1      40.111  29.026  29.009  1.00  0.00     0.031 A 
ATOM     38  C   UNL A   1      39.071  30.074  29.072  1.00  0.00     0.074 A 
ATOM     39  C   UNL A   1      41.179  29.077  29.837  1.00  0.00     0.049 A 
ATOM     40  N   UNL A   1      39.264  31.271  29.513  1.00  0.00    -0.248 NA
ATOM     41  C   UNL A   1      37.718  29.862  28.577  1.00  0.00     0.031 C 
ATOM     42  C   UNL A   1      41.379  29.973  30.974  1.00  0.00     0.029 A 
ATOM     43  N   UNL A   1      42.415  28.420  29.693  1.00  0.00    -0.354 N 
ATOM     44  C   UNL A   1      38.034  31.880  29.639  1.00  0.00     0.074 A 
ATOM     45  C   UNL A   1      37.125  30.998  28.952  1.00  0.00     0.031 C 
ATOM     46  C   UNL A   1      42.692  30.047  31.243  1.00  0.00     0.029 A 
ATOM     47  C   UNL A   1      43.384  29.322  30.193  1.00  0.00     0.049 A 
ATOM     48  H   UNL A   1      42.573  27.522  29.322  1.00  0.00     0.167 HD
ATOM     49  C   UNL A   1      37.932  32.987  30.435  1.00  0.00     0.037 A 
ATOM     50  C   UNL A   1      44.339  29.859  29.380  1.00  0.00     0.037 A 
ATOM     51  C   UNL A   1      39.262  33.450  30.847  1.00  0.00     0.049 A 
ATOM     52  C   UNL A   1      44.295  31.367  29.286  1.00  0.00     0.074 A 
ATOM     53  C   UNL A   1      39.984  33.329  32.023  1.00  0.00     0.029 A 
ATOM     54  N   UNL A   1      40.163  33.891  29.880  1.00  0.00    -0.354 N 
ATOM     55  N   UNL A   1      43.269  32.086  29.645  1.00  0.00    -0.248 NA
ATOM     56  C   UNL A   1      45.381  32.178  28.740  1.00  0.00     0.031 C 
ATOM     57  C   UNL A   1      41.340  33.634  31.741  1.00  0.00     0.029 A 
ATOM     58  C   UNL A   1      41.440  33.963  30.401  1.00  0.00     0.049 A 
ATOM     59  H   UNL A   1      39.922  34.119  28.953  1.00  0.00     0.167 HD
ATOM     60  C   UNL A   1      43.509  33.404  29.358  1.00  0.00     0.074 A 
ATOM     61  C   UNL A   1      44.855  33.413  28.818  1.00  0.00     0.031 C 
ATOM     62  C   UNL A   1      42.566  34.368  29.571  1.00  0.00     0.037 A 
BRANCH  49  63
ATOM     63  C   UNL A   1      36.644  33.477  31.092  1.00  0.00     0.064 A 
ATOM     64  C   UNL A   1      35.614  34.049  30.308  1.00  0.00     0.173 A 
ATOM     65  C   UNL A   1      36.388  33.512  32.476  1.00  0.00     0.173 A 
ATOM     66  F   UNL A   1      35.636  33.990  28.970  1.00  0.00    -0.203 F 
ATOM     67  C   UNL A   1      34.509  34.705  30.865  1.00  0.00     0.198 A 
ATOM     68  C   UNL A   1      35.303  34.197  33.037  1.00  0.00     0.198 A 
ATOM     69  F   UNL A   1      37.131  32.835  33.352  1.00  0.00    -0.203 F 
ATOM     70  F   UNL A   1      33.584  35.248  30.061  1.00  0.00    -0.200 F 
ATOM     71  C   UNL A   1      34.372  34.810  32.231  1.00  0.00     0.200 A 
ATOM     72  F   UNL A   1      35.173  34.249  34.371  1.00  0.00    -0.200 F 
ATOM     73  F   UNL A   1      33.336  35.468  32.768  1.00  0.00    -0.200 F 
ENDBRANCH  49  63
BRANCH  50  74
ATOM     74  C   UNL A   1      44.753  28.948  28.281  1.00  0.00     0.064 A 
ATOM     75  C   UNL A   1      45.590  27.861  28.598  1.00  0.00     0.173 A 
ATOM     76  C   UNL A   1      44.062  28.898  27.066  1.00  0.00     0.173 A 
ATOM     77  F   UNL A   1      46.273  27.856  29.755  1.00  0.00    -0.203 F 
ATOM     78  C   UNL A   1      45.642  26.725  27.792  1.00  0.00     0.198 A 
ATOM     79  C   UNL A   1      44.124  27.763  26.255  1.00  0.00     0.198 A 
ATOM     80  F   UNL A   1      43.228  29.889  26.721  1.00  0.00    -0.203 F 
ATOM     81  F   UNL A   1      46.363  25.663  28.181  1.00  0.00    -0.200 F 
ATOM     82  C   UNL A   1      44.886  26.666  26.635  1.00  0.00     0.200 A 
ATOM     83  F   UNL A   1      43.364  27.689  25.153  1.00  0.00    -0.200 F 
ATOM     84  F   UNL A   1      44.855  25.540  25.909  1.00  0.00    -0.200 F 
ENDBRANCH  50  74
BRANCH  62  85
ATOM     85  C   UNL A   1      42.639  35.795  29.089  1.00  0.00     0.064 A 
ATOM     86  C   UNL A   1      41.960  36.276  27.957  1.00  0.00     0.173 A 
ATOM     87  C   UNL A   1      43.296  36.777  29.870  1.00  0.00     0.173 A 
ATOM     88  F   UNL A   1      41.210  35.466  27.199  1.00  0.00    -0.203 F 
ATOM     89  C   UNL A   1      41.984  37.628  27.601  1.00  0.00     0.198 A 
ATOM     90  C   UNL A   1      43.268  38.132  29.544  1.00  0.00     0.198 A 
ATOM     91  F   UNL A   1      43.961  36.450  30.988  1.00  0.00    -0.203 F 
ATOM     92  F   UNL A   1      41.352  38.032  26.490  1.00  0.00    -0.200 F 
ATOM     93  C   UNL A   1      42.625  38.557  28.400  1.00  0.00     0.200 A 
ATOM     94  F   UNL A   1      43.851  39.025  30.357  1.00  0.00    -0.200 F 
ATOM     95  F   UNL A   1      42.603  39.857  28.081  1.00  0.00    -0.200 F 
ENDBRANCH  62  85
ENDBRANCH  36  37
ENDBRANCH  28  31
ENDBRANCH  26  27
ENDBRANCH  25  26
ENDBRANCH   1  25
TORSDOF 14
ENDMDL
MODEL 3
REMARK VINA RESULT:     -13.0      3.873     10.093
REMARK SMILES Cc1cccc(NC(=O)C[C@@H]2CCCCO2)c1C(=O)NCCCCNC(=O)c1ccc(-c2c3nc(c(-c4c(F)c(F)c(F)c(F)c4F)c4ccc([nH]4)c(-c4c(F)c(F)c(F)c(F)c4F)c4nc(c(-c5c(F)c(F)c(F)c(F)c5F)c5ccc2[nH]5)C=C4)C=C3)cc1
REMARK SMILES IDX 22 1 21 2 20 3 18 4 19 5 17 7 1 8 2 9 3 10 4 11 6 12 5 13
REMARK SMILES IDX 7 14 8 15 9 17 10 18 11 19 12 20 16 21 13 22 15 23 14 24
REMARK SMILES IDX 23 25 24 26 25 27 26 28 27 30 28 31 29 32 90 33 30 34 89 35
REMARK SMILES IDX 31 36 32 37 33 38 83 39 34 40 88 41 82 42 84 43 35 44 87 45
REMARK SMILES IDX 81 46 80 47 36 49 68 50 48 51 67 52 49 53 52 54 66 55 85 56
REMARK SMILES IDX 50 57 51 58 65 60 86 61 53 62 37 63 38 64 46 65 39 66 40 67
REMARK SMILES IDX 44 68 47 69 41 70 42 71 45 72 43 73 69 74 70 75 78 76 71 77
REMARK SMILES IDX 72 78 76 79 79 80 73 81 74 82 77 83 75 84 54 85 55 86 63 87
REMARK SMILES IDX 56 88 57 89 61 90 64 91 58 92 59 93 62 94 60 95
REMARK H PARENT 20 6 7 16 25 29 84 48 52 59
REMARK Flexibility Score: inf
ROOT
ATOM      1  C   UNL A   1      37.568  21.003  24.652  1.00  0.00     0.023 C 
ENDROOT
BRANCH   1   2
ATOM      2  C   UNL A   1      36.191  21.601  25.001  1.00  0.00     0.116 C 
BRANCH   2   3
ATOM      3  N   UNL A   1      35.809  22.589  24.008  1.00  0.00    -0.352 N 
ATOM      4  C   UNL A   1      34.645  23.253  23.712  1.00  0.00     0.253 C 
ATOM      5  O   UNL A   1      34.708  24.021  22.750  1.00  0.00    -0.269 OA
ATOM      6  H   UNL A   1      36.554  22.839  23.413  1.00  0.00     0.163 HD
BRANCH   4   7
ATOM      7  C   UNL A   1      33.407  23.211  24.559  1.00  0.00     0.066 A 
ATOM      8  C   UNL A   1      32.155  21.397  23.249  1.00  0.00     0.045 C 
ATOM      9  C   UNL A   1      32.400  22.226  24.476  1.00  0.00    -0.036 A 
ATOM     10  C   UNL A   1      31.423  22.135  25.487  1.00  0.00     0.004 A 
ATOM     11  C   UNL A   1      31.362  23.083  26.501  1.00  0.00     0.002 A 
ATOM     12  C   UNL A   1      33.152  24.311  25.421  1.00  0.00     0.054 A 
ATOM     13  C   UNL A   1      32.204  24.188  26.445  1.00  0.00     0.027 A 
BRANCH  12  14
ATOM     14  N   UNL A   1      33.754  25.563  25.156  1.00  0.00    -0.325 N 
ATOM     15  C   UNL A   1      33.302  26.619  24.398  1.00  0.00     0.227 C 
ATOM     16  H   UNL A   1      34.633  25.702  25.578  1.00  0.00     0.169 HD
ATOM     17  O   UNL A   1      34.036  27.602  24.254  1.00  0.00    -0.275 OA
BRANCH  15  18
ATOM     18  C   UNL A   1      31.953  26.585  23.701  1.00  0.00     0.132 C 
BRANCH  18  19
ATOM     19  C   UNL A   1      30.773  27.073  24.562  1.00  0.00     0.127 C 
ATOM     20  C   UNL A   1      29.485  27.186  23.727  1.00  0.00     0.033 C 
ATOM     21  O   UNL A   1      30.986  28.314  25.243  1.00  0.00    -0.378 OA
ATOM     22  C   UNL A   1      29.541  28.365  22.753  1.00  0.00     0.005 C 
ATOM     23  C   UNL A   1      31.070  29.466  24.419  1.00  0.00     0.160 C 
ATOM     24  C   UNL A   1      29.879  29.651  23.493  1.00  0.00     0.029 C 
ENDBRANCH  18  19
ENDBRANCH  15  18
ENDBRANCH  12  14
ENDBRANCH   4   7
ENDBRANCH   2   3
ENDBRANCH   1   2
BRANCH   1  25
ATOM     25  C   UNL A   1      38.621  21.158  25.751  1.00  0.00     0.023 C 
BRANCH  25  26
ATOM     26  C   UNL A   1      39.013  22.607  25.976  1.00  0.00     0.116 C 
BRANCH  26  27
ATOM     27  N   UNL A   1      40.343  22.793  26.549  1.00  0.00    -0.352 N 
ATOM     28  C   UNL A   1      40.979  23.957  26.942  1.00  0.00     0.251 C 
ATOM     29  H   UNL A   1      40.865  21.967  26.672  1.00  0.00     0.163 HD
ATOM     30  O   UNL A   1      42.148  23.919  27.324  1.00  0.00    -0.269 OA
BRANCH  28  31
ATOM     31  C   UNL A   1      40.206  25.217  27.060  1.00  0.00     0.039 A 
ATOM     32  C   UNL A   1      40.648  26.323  26.321  1.00  0.00     0.014 A 
ATOM     33  C   UNL A   1      39.277  25.387  28.078  1.00  0.00     0.014 A 
ATOM     34  C   UNL A   1      40.402  27.603  26.807  1.00  0.00     0.010 A 
ATOM     35  C   UNL A   1      39.154  26.639  28.641  1.00  0.00     0.010 A 
ATOM     36  C   UNL A   1      39.787  27.737  28.048  1.00  0.00    -0.014 A 
BRANCH  36  37
ATOM     37  C   UNL A   1      39.903  28.934  28.875  1.00  0.00     0.031 A 
ATOM     38  C   UNL A   1      38.896  30.010  28.782  1.00  0.00     0.074 A 
ATOM     39  C   UNL A   1      40.858  28.976  29.831  1.00  0.00     0.049 A 
ATOM     40  N   UNL A   1      39.067  31.212  29.219  1.00  0.00    -0.248 NA
ATOM     41  C   UNL A   1      37.611  29.824  28.124  1.00  0.00     0.031 C 
ATOM     42  C   UNL A   1      40.938  29.894  30.966  1.00  0.00     0.029 A 
ATOM     43  N   UNL A   1      42.082  28.282  29.860  1.00  0.00    -0.354 N 
ATOM     44  C   UNL A   1      37.850  31.858  29.175  1.00  0.00     0.074 A 
ATOM     45  C   UNL A   1      37.009  30.984  28.396  1.00  0.00     0.031 C 
ATOM     46  C   UNL A   1      42.208  29.938  31.399  1.00  0.00     0.029 A 
ATOM     47  C   UNL A   1      43.006  29.169  30.461  1.00  0.00     0.049 A 
ATOM     48  H   UNL A   1      42.258  27.371  29.532  1.00  0.00     0.167 HD
ATOM     49  C   UNL A   1      37.681  32.987  29.928  1.00  0.00     0.037 A 
ATOM     50  C   UNL A   1      44.073  29.660  29.766  1.00  0.00     0.037 A 
ATOM     51  C   UNL A   1      38.961  33.423  30.497  1.00  0.00     0.049 A 
ATOM     52  C   UNL A   1      44.087  31.165  29.636  1.00  0.00     0.074 A 
ATOM     53  C   UNL A   1      39.524  33.311  31.758  1.00  0.00     0.029 A 
ATOM     54  N   UNL A   1      39.990  33.815  29.644  1.00  0.00    -0.354 N 
ATOM     55  N   UNL A   1      43.045  31.921  29.846  1.00  0.00    -0.248 NA
ATOM     56  C   UNL A   1      45.257  31.933  29.217  1.00  0.00     0.031 C 
ATOM     57  C   UNL A   1      40.913  33.572  31.645  1.00  0.00     0.029 A 
ATOM     58  C   UNL A   1      41.192  33.865  30.322  1.00  0.00     0.049 A 
ATOM     59  H   UNL A   1      39.877  34.027  28.689  1.00  0.00     0.167 HD
ATOM     60  C   UNL A   1      43.360  33.224  29.565  1.00  0.00     0.074 A 
ATOM     61  C   UNL A   1      44.763  33.184  29.201  1.00  0.00     0.031 C 
ATOM     62  C   UNL A   1      42.427  34.219  29.634  1.00  0.00     0.037 A 
BRANCH  49  63
ATOM     63  C   UNL A   1      36.335  33.527  30.404  1.00  0.00     0.064 A 
ATOM     64  C   UNL A   1      35.441  34.129  29.487  1.00  0.00     0.173 A 
ATOM     65  C   UNL A   1      35.897  33.582  31.741  1.00  0.00     0.173 A 
ATOM     66  F   UNL A   1      35.641  34.059  28.164  1.00  0.00    -0.203 F 
ATOM     67  C   UNL A   1      34.296  34.829  29.889  1.00  0.00     0.198 A 
ATOM     68  C   UNL A   1      34.773  34.310  32.149  1.00  0.00     0.198 A 
ATOM     69  F   UNL A   1      36.491  32.886  32.711  1.00  0.00    -0.203 F 
ATOM     70  F   UNL A   1      33.507  35.398  28.966  1.00  0.00    -0.200 F 
ATOM     71  C   UNL A   1      33.981  34.950  31.223  1.00  0.00     0.200 A 
ATOM     72  F   UNL A   1      34.467  34.378  33.453  1.00  0.00    -0.200 F 
ATOM     73  F   UNL A   1      32.907  35.648  31.615  1.00  0.00    -0.200 F 
ENDBRANCH  49  63
BRANCH  50  74
ATOM     74  C   UNL A   1      44.596  28.711  28.749  1.00  0.00     0.064 A 
ATOM     75  C   UNL A   1      45.353  27.610  29.192  1.00  0.00     0.173 A 
ATOM     76  C   UNL A   1      44.063  28.650  27.456  1.00  0.00     0.173 A 
ATOM     77  F   UNL A   1      45.883  27.615  30.427  1.00  0.00    -0.203 F 
ATOM     78  C   UNL A   1      45.472  26.454  28.424  1.00  0.00     0.198 A 
ATOM     79  C   UNL A   1      44.194  27.494  26.684  1.00  0.00     0.198 A 
ATOM     80  F   UNL A   1      43.310  29.655  26.987  1.00  0.00    -0.203 F 
ATOM     81  F   UNL A   1      46.106  25.382  28.923  1.00  0.00    -0.200 F 
ATOM     82  C   UNL A   1      44.868  26.387  27.181  1.00  0.00     0.200 A 
ATOM     83  F   UNL A   1      43.578  27.414  25.496  1.00  0.00    -0.200 F 
ATOM     84  F   UNL A   1      44.896  25.244  26.481  1.00  0.00    -0.200 F 
ENDBRANCH  50  74
BRANCH  62  85
ATOM     85  C   UNL A   1      42.604  35.631  29.137  1.00  0.00     0.064 A 
ATOM     86  C   UNL A   1      41.970  36.144  27.992  1.00  0.00     0.173 A 
ATOM     87  C   UNL A   1      43.320  36.575  29.912  1.00  0.00     0.173 A 
ATOM     88  F   UNL A   1      41.172  35.379  27.237  1.00  0.00    -0.203 F 
ATOM     89  C   UNL A   1      42.091  37.486  27.621  1.00  0.00     0.198 A 
ATOM     90  C   UNL A   1      43.390  37.924  29.569  1.00  0.00     0.198 A 
ATOM     91  F   UNL A   1      43.952  36.216  31.040  1.00  0.00    -0.203 F 
ATOM     92  F   UNL A   1      41.499  37.919  26.499  1.00  0.00    -0.200 F 
ATOM     93  C   UNL A   1      42.788  38.378  28.415  1.00  0.00     0.200 A 
ATOM     94  F   UNL A   1      44.027  38.784  30.377  1.00  0.00    -0.200 F 
ATOM     95  F   UNL A   1      42.860  39.673  28.079  1.00  0.00    -0.200 F 
ENDBRANCH  62  85
ENDBRANCH  36  37
ENDBRANCH  28  31
ENDBRANCH  26  27
ENDBRANCH  25  26
ENDBRANCH   1  25
TORSDOF 14
ENDMDL
