MODEL 1
REMARK VINA RESULT:     -12.6      0.000      0.000
REMARK SMILES O=C(NCCCCNC(=O)[C@@H](NC(=O)[C@H]1CC[C@@H]2CCCC[C@H]2[NH2+]1)C1CC1)c1ccc(-c2c3nc(c(-c4c(F)c(F)c(F)c(F)c4F)c4ccc([nH]4)c(-c4c(F)c(F)c(F)c(F)c4F)c4nc(c(-c5c(F)c(F)c(F)c(F)c5F)c5ccc2[nH]5)C=C4)C=C3)cc1
REMARK SMILES IDX 5 1 4 2 3 3 1 4 2 5 28 7 29 8 90 9 30 10 89 11 31 12 32 13
REMARK SMILES IDX 33 14 83 15 34 16 88 17 82 18 84 19 35 20 87 21 81 22 80 23
REMARK SMILES IDX 36 25 68 26 48 27 67 28 49 29 52 30 66 31 85 32 50 33 51 34
REMARK SMILES IDX 65 36 86 37 53 38 37 39 38 40 46 41 39 42 40 43 44 44 47 45
REMARK SMILES IDX 41 46 42 47 45 48 43 49 69 50 70 51 78 52 71 53 72 54 76 55
REMARK SMILES IDX 79 56 73 57 74 58 77 59 75 60 54 61 55 62 63 63 56 64 57 65
REMARK SMILES IDX 61 66 64 67 58 68 59 69 62 70 60 71 6 72 7 73 8 74 9 75
REMARK SMILES IDX 10 77 11 78 12 79 13 80 14 82 15 83 16 84 24 85 17 86 23 87
REMARK SMILES IDX 18 90 22 91 19 92 21 93 20 94 25 95 26 96 27 97
REMARK H PARENT 3 6 84 24 52 35 8 76 12 81 24 88 24 89
REMARK Flexibility Score: inf
ROOT
ATOM      1  C   UNL A   1      31.413  32.181  26.836  1.00  0.00     0.023 C 
ENDROOT
BRANCH   1   2
ATOM      2  C   UNL A   1      32.681  32.951  27.187  1.00  0.00     0.116 C 
BRANCH   2   3
ATOM      3  N   UNL A   1      32.405  34.315  27.616  1.00  0.00    -0.352 N 
ATOM      4  O   UNL A   1      32.549  36.129  28.954  1.00  0.00    -0.269 OA
ATOM      5  C   UNL A   1      33.002  35.041  28.615  1.00  0.00     0.251 C 
ATOM      6  H   UNL A   1      31.694  34.780  27.120  1.00  0.00     0.163 HD
BRANCH   5   7
ATOM      7  C   UNL A   1      34.185  34.488  29.300  1.00  0.00     0.039 A 
ATOM      8  C   UNL A   1      35.466  34.690  28.779  1.00  0.00     0.014 A 
ATOM      9  C   UNL A   1      34.001  33.746  30.468  1.00  0.00     0.014 A 
ATOM     10  C   UNL A   1      36.554  34.046  29.358  1.00  0.00     0.010 A 
ATOM     11  C   UNL A   1      35.103  33.157  31.087  1.00  0.00     0.010 A 
ATOM     12  C   UNL A   1      36.382  33.280  30.520  1.00  0.00    -0.014 A 
BRANCH  12  13
ATOM     13  C   UNL A   1      37.551  32.638  31.166  1.00  0.00     0.031 A 
ATOM     14  C   UNL A   1      38.278  31.513  30.488  1.00  0.00     0.074 A 
ATOM     15  C   UNL A   1      37.937  33.062  32.383  1.00  0.00     0.049 A 
ATOM     16  N   UNL A   1      39.260  30.774  30.937  1.00  0.00    -0.248 NA
ATOM     17  C   UNL A   1      37.836  31.166  29.130  1.00  0.00     0.031 C 
ATOM     18  C   UNL A   1      37.306  34.148  33.134  1.00  0.00     0.029 A 
ATOM     19  N   UNL A   1      38.942  32.625  33.207  1.00  0.00    -0.354 N 
ATOM     20  C   UNL A   1      39.537  29.859  29.931  1.00  0.00     0.074 A 
ATOM     21  C   UNL A   1      38.606  30.123  28.854  1.00  0.00     0.031 C 
ATOM     22  C   UNL A   1      37.943  34.300  34.304  1.00  0.00     0.029 A 
ATOM     23  C   UNL A   1      38.986  33.285  34.409  1.00  0.00     0.049 A 
ATOM     24  H   UNL A   1      39.570  31.909  32.960  1.00  0.00     0.167 HD
ATOM     25  C   UNL A   1      40.485  28.890  29.912  1.00  0.00     0.037 A 
ATOM     26  C   UNL A   1      39.755  33.074  35.491  1.00  0.00     0.037 A 
ATOM     27  C   UNL A   1      41.413  28.647  30.985  1.00  0.00     0.049 A 
ATOM     28  C   UNL A   1      40.778  31.974  35.459  1.00  0.00     0.074 A 
ATOM     29  C   UNL A   1      42.436  27.716  31.049  1.00  0.00     0.029 A 
ATOM     30  N   UNL A   1      41.426  29.336  32.190  1.00  0.00    -0.354 N 
ATOM     31  N   UNL A   1      41.050  31.132  34.494  1.00  0.00    -0.248 NA
ATOM     32  C   UNL A   1      41.597  31.797  36.664  1.00  0.00     0.031 C 
ATOM     33  C   UNL A   1      43.036  27.809  32.310  1.00  0.00     0.029 A 
ATOM     34  C   UNL A   1      42.424  28.835  33.013  1.00  0.00     0.049 A 
ATOM     35  H   UNL A   1      40.817  30.072  32.426  1.00  0.00     0.167 HD
ATOM     36  C   UNL A   1      42.088  30.339  34.961  1.00  0.00     0.074 A 
ATOM     37  C   UNL A   1      42.400  30.806  36.297  1.00  0.00     0.031 C 
ATOM     38  C   UNL A   1      42.726  29.320  34.336  1.00  0.00     0.037 A 
BRANCH  25  39
ATOM     39  C   UNL A   1      40.544  28.003  28.702  1.00  0.00     0.064 A 
ATOM     40  C   UNL A   1      41.304  28.339  27.571  1.00  0.00     0.173 A 
ATOM     41  C   UNL A   1      39.850  26.782  28.684  1.00  0.00     0.173 A 
ATOM     42  F   UNL A   1      41.978  29.499  27.533  1.00  0.00    -0.203 F 
ATOM     43  C   UNL A   1      41.339  27.505  26.456  1.00  0.00     0.198 A 
ATOM     44  C   UNL A   1      39.911  25.938  27.580  1.00  0.00     0.198 A 
ATOM     45  F   UNL A   1      39.116  26.407  29.741  1.00  0.00    -0.203 F 
ATOM     46  F   UNL A   1      42.029  27.874  25.368  1.00  0.00    -0.200 F 
ATOM     47  C   UNL A   1      40.647  26.303  26.463  1.00  0.00     0.200 A 
ATOM     48  F   UNL A   1      39.252  24.770  27.593  1.00  0.00    -0.200 F 
ATOM     49  F   UNL A   1      40.684  25.501  25.390  1.00  0.00    -0.200 F 
ENDBRANCH  25  39
BRANCH  26  50
ATOM     50  C   UNL A   1      39.571  33.929  36.689  1.00  0.00     0.064 A 
ATOM     51  C   UNL A   1      38.759  33.514  37.752  1.00  0.00     0.173 A 
ATOM     52  C   UNL A   1      40.245  35.153  36.818  1.00  0.00     0.173 A 
ATOM     53  F   UNL A   1      38.083  32.359  37.667  1.00  0.00    -0.203 F 
ATOM     54  C   UNL A   1      38.626  34.293  38.899  1.00  0.00     0.198 A 
ATOM     55  C   UNL A   1      40.132  35.918  37.976  1.00  0.00     0.198 A 
ATOM     56  F   UNL A   1      41.041  35.588  35.830  1.00  0.00    -0.203 F 
ATOM     57  F   UNL A   1      37.825  33.885  39.894  1.00  0.00    -0.200 F 
ATOM     58  C   UNL A   1      39.319  35.488  39.015  1.00  0.00     0.200 A 
ATOM     59  F   UNL A   1      40.819  37.062  38.091  1.00  0.00    -0.200 F 
ATOM     60  F   UNL A   1      39.205  36.227  40.127  1.00  0.00    -0.200 F 
ENDBRANCH  26  50
BRANCH  38  61
ATOM     61  C   UNL A   1      43.858  28.665  35.071  1.00  0.00     0.064 A 
ATOM     62  C   UNL A   1      45.171  29.150  34.985  1.00  0.00     0.173 A 
ATOM     63  C   UNL A   1      43.612  27.571  35.915  1.00  0.00     0.173 A 
ATOM     64  F   UNL A   1      45.459  30.182  34.179  1.00  0.00    -0.203 F 
ATOM     65  C   UNL A   1      46.200  28.552  35.708  1.00  0.00     0.198 A 
ATOM     66  C   UNL A   1      44.639  26.994  36.656  1.00  0.00     0.198 A 
ATOM     67  F   UNL A   1      42.372  27.074  36.033  1.00  0.00    -0.203 F 
ATOM     68  F   UNL A   1      47.455  29.007  35.585  1.00  0.00    -0.200 F 
ATOM     69  C   UNL A   1      45.932  27.481  36.549  1.00  0.00     0.200 A 
ATOM     70  F   UNL A   1      44.375  25.967  37.477  1.00  0.00    -0.200 F 
ATOM     71  F   UNL A   1      46.923  26.915  37.252  1.00  0.00    -0.200 F 
ENDBRANCH  38  61
ENDBRANCH  12  13
ENDBRANCH   5   7
ENDBRANCH   2   3
ENDBRANCH   1   2
BRANCH   1  72
ATOM     72  C   UNL A   1      31.650  30.797  26.230  1.00  0.00     0.023 C 
BRANCH  72  73
ATOM     73  C   UNL A   1      31.921  29.706  27.260  1.00  0.00     0.116 C 
BRANCH  73  74
ATOM     74  N   UNL A   1      33.340  29.563  27.507  1.00  0.00    -0.354 N 
ATOM     75  C   UNL A   1      34.243  28.743  26.903  1.00  0.00     0.242 C 
ATOM     76  H   UNL A   1      33.704  30.143  28.215  1.00  0.00     0.163 HD
ATOM     77  O   UNL A   1      35.424  28.841  27.255  1.00  0.00    -0.273 OA
BRANCH  75  78
ATOM     78  C   UNL A   1      33.830  27.783  25.756  1.00  0.00     0.174 C 
BRANCH  78  79
ATOM     79  N   UNL A   1      34.024  28.424  24.437  1.00  0.00    -0.339 N 
ATOM     80  C   UNL A   1      33.522  28.452  23.183  1.00  0.00     0.278 C 
ATOM     81  H   UNL A   1      34.783  29.048  24.494  1.00  0.00     0.164 HD
ATOM     82  O   UNL A   1      34.391  28.643  22.316  1.00  0.00    -0.268 OA
BRANCH  80  83
ATOM     83  C   UNL A   1      32.030  28.486  22.759  1.00  0.00     0.272 C 
ATOM     84  C   UNL A   1      31.322  27.218  23.275  1.00  0.00     0.076 C 
ATOM     85  N   UNL A   1      31.312  29.692  23.178  1.00  0.00    -0.333 N 
ATOM     86  C   UNL A   1      29.848  27.177  22.882  1.00  0.00     0.016 C 
ATOM     87  C   UNL A   1      29.896  29.685  22.790  1.00  0.00     0.186 C 
ATOM     88  H   UNL A   1      31.760  30.503  22.750  1.00  0.00     0.347 HD
ATOM     89  H   UNL A   1      31.348  29.729  24.197  1.00  0.00     0.347 HD
ATOM     90  C   UNL A   1      29.152  28.458  23.341  1.00  0.00     0.048 C 
ATOM     91  C   UNL A   1      29.230  30.971  23.302  1.00  0.00     0.065 C 
ATOM     92  C   UNL A   1      27.681  28.492  22.902  1.00  0.00     0.010 C 
ATOM     93  C   UNL A   1      27.754  31.025  22.915  1.00  0.00     0.006 C 
ATOM     94  C   UNL A   1      26.997  29.778  23.363  1.00  0.00     0.001 C 
ENDBRANCH  80  83
ENDBRANCH  78  79
BRANCH  78  95
ATOM     95  C   UNL A   1      34.336  26.398  26.016  1.00  0.00     0.021 C 
ATOM     96  C   UNL A   1      33.361  25.240  26.049  1.00  0.00     0.006 C 
ATOM     97  C   UNL A   1      34.346  25.350  24.925  1.00  0.00     0.006 C 
ENDBRANCH  78  95
ENDBRANCH  75  78
ENDBRANCH  73  74
ENDBRANCH  72  73
ENDBRANCH   1  72
TORSDOF 14
ENDMDL
MODEL 2
REMARK VINA RESULT:     -12.6      0.154      1.590
REMARK SMILES O=C(NCCCCNC(=O)[C@@H](NC(=O)[C@H]1CC[C@@H]2CCCC[C@H]2[NH2+]1)C1CC1)c1ccc(-c2c3nc(c(-c4c(F)c(F)c(F)c(F)c4F)c4ccc([nH]4)c(-c4c(F)c(F)c(F)c(F)c4F)c4nc(c(-c5c(F)c(F)c(F)c(F)c5F)c5ccc2[nH]5)C=C4)C=C3)cc1
REMARK SMILES IDX 5 1 4 2 3 3 1 4 2 5 28 7 29 8 90 9 30 10 89 11 31 12 32 13
REMARK SMILES IDX 33 14 83 15 34 16 88 17 82 18 84 19 35 20 87 21 81 22 80 23
REMARK SMILES IDX 36 25 68 26 48 27 67 28 49 29 52 30 66 31 85 32 50 33 51 34
REMARK SMILES IDX 65 36 86 37 53 38 37 39 38 40 46 41 39 42 40 43 44 44 47 45
REMARK SMILES IDX 41 46 42 47 45 48 43 49 69 50 70 51 78 52 71 53 72 54 76 55
REMARK SMILES IDX 79 56 73 57 74 58 77 59 75 60 54 61 55 62 63 63 56 64 57 65
REMARK SMILES IDX 61 66 64 67 58 68 59 69 62 70 60 71 6 72 7 73 8 74 9 75
REMARK SMILES IDX 10 77 11 78 12 79 13 80 14 82 15 83 16 84 24 85 17 86 23 87
REMARK SMILES IDX 18 90 22 91 19 92 21 93 20 94 25 95 26 96 27 97
REMARK H PARENT 3 6 84 24 52 35 8 76 12 81 24 88 24 89
REMARK Flexibility Score: inf
ROOT
ATOM      1  C   UNL A   1      31.415  32.252  26.610  1.00  0.00     0.023 C 
ENDROOT
BRANCH   1   2
ATOM      2  C   UNL A   1      32.631  32.914  27.248  1.00  0.00     0.116 C 
BRANCH   2   3
ATOM      3  N   UNL A   1      32.361  34.278  27.682  1.00  0.00    -0.352 N 
ATOM      4  O   UNL A   1      32.524  36.091  29.019  1.00  0.00    -0.269 OA
ATOM      5  C   UNL A   1      32.972  35.003  28.672  1.00  0.00     0.251 C 
ATOM      6  H   UNL A   1      31.642  34.743  27.197  1.00  0.00     0.163 HD
BRANCH   5   7
ATOM      7  C   UNL A   1      34.166  34.450  29.340  1.00  0.00     0.039 A 
ATOM      8  C   UNL A   1      35.439  34.655  28.801  1.00  0.00     0.014 A 
ATOM      9  C   UNL A   1      33.999  33.705  30.509  1.00  0.00     0.014 A 
ATOM     10  C   UNL A   1      36.536  34.011  29.363  1.00  0.00     0.010 A 
ATOM     11  C   UNL A   1      35.110  33.117  31.111  1.00  0.00     0.010 A 
ATOM     12  C   UNL A   1      36.381  33.242  30.527  1.00  0.00    -0.014 A 
BRANCH  12  13
ATOM     13  C   UNL A   1      37.560  32.600  31.155  1.00  0.00     0.031 A 
ATOM     14  C   UNL A   1      38.289  31.489  30.457  1.00  0.00     0.074 A 
ATOM     15  C   UNL A   1      37.953  33.011  32.374  1.00  0.00     0.049 A 
ATOM     16  N   UNL A   1      39.279  30.752  30.888  1.00  0.00    -0.248 NA
ATOM     17  C   UNL A   1      37.839  31.157  29.097  1.00  0.00     0.031 C 
ATOM     18  C   UNL A   1      37.320  34.083  33.144  1.00  0.00     0.029 A 
ATOM     19  N   UNL A   1      38.967  32.571  33.184  1.00  0.00    -0.354 N 
ATOM     20  C   UNL A   1      39.555  29.852  29.868  1.00  0.00     0.074 A 
ATOM     21  C   UNL A   1      38.613  30.122  28.802  1.00  0.00     0.031 C 
ATOM     22  C   UNL A   1      37.965  34.225  34.310  1.00  0.00     0.029 A 
ATOM     23  C   UNL A   1      39.016  33.216  34.394  1.00  0.00     0.049 A 
ATOM     24  H   UNL A   1      39.598  31.862  32.923  1.00  0.00     0.167 HD
ATOM     25  C   UNL A   1      40.510  28.890  29.829  1.00  0.00     0.037 A 
ATOM     26  C   UNL A   1      39.796  32.996  35.467  1.00  0.00     0.037 A 
ATOM     27  C   UNL A   1      41.448  28.639  30.891  1.00  0.00     0.049 A 
ATOM     28  C   UNL A   1      40.826  31.904  35.412  1.00  0.00     0.074 A 
ATOM     29  C   UNL A   1      42.478  27.716  30.935  1.00  0.00     0.029 A 
ATOM     30  N   UNL A   1      41.466  29.313  32.105  1.00  0.00    -0.354 N 
ATOM     31  N   UNL A   1      41.096  31.076  34.434  1.00  0.00    -0.248 NA
ATOM     32  C   UNL A   1      41.656  31.717  36.608  1.00  0.00     0.031 C 
ATOM     33  C   UNL A   1      43.087  27.797  32.192  1.00  0.00     0.029 A 
ATOM     34  C   UNL A   1      42.474  28.809  32.913  1.00  0.00     0.049 A 
ATOM     35  H   UNL A   1      40.854  30.042  32.355  1.00  0.00     0.167 HD
ATOM     36  C   UNL A   1      42.143  30.285  34.883  1.00  0.00     0.074 A 
ATOM     37  C   UNL A   1      42.463  30.737  36.222  1.00  0.00     0.031 C 
ATOM     38  C   UNL A   1      42.784  29.278  34.240  1.00  0.00     0.037 A 
BRANCH  25  39
ATOM     39  C   UNL A   1      40.565  28.019  28.607  1.00  0.00     0.064 A 
ATOM     40  C   UNL A   1      41.315  28.373  27.476  1.00  0.00     0.173 A 
ATOM     41  C   UNL A   1      39.877  26.795  28.577  1.00  0.00     0.173 A 
ATOM     42  F   UNL A   1      41.984  29.537  27.448  1.00  0.00    -0.203 F 
ATOM     43  C   UNL A   1      41.348  27.554  26.350  1.00  0.00     0.198 A 
ATOM     44  C   UNL A   1      39.935  25.965  27.462  1.00  0.00     0.198 A 
ATOM     45  F   UNL A   1      39.151  26.403  29.635  1.00  0.00    -0.203 F 
ATOM     46  F   UNL A   1      42.029  27.940  25.262  1.00  0.00    -0.200 F 
ATOM     47  C   UNL A   1      40.662  26.349  26.346  1.00  0.00     0.200 A 
ATOM     48  F   UNL A   1      39.281  24.795  27.465  1.00  0.00    -0.200 F 
ATOM     49  F   UNL A   1      40.695  25.561  25.262  1.00  0.00    -0.200 F 
ENDBRANCH  25  39
BRANCH  26  50
ATOM     50  C   UNL A   1      39.615  33.835  36.678  1.00  0.00     0.064 A 
ATOM     51  C   UNL A   1      40.202  35.103  36.769  1.00  0.00     0.173 A 
ATOM     52  C   UNL A   1      38.807  33.407  37.742  1.00  0.00     0.173 A 
ATOM     53  F   UNL A   1      40.994  35.547  35.782  1.00  0.00    -0.203 F 
ATOM     54  C   UNL A   1      39.991  35.912  37.883  1.00  0.00     0.198 A 
ATOM     55  C   UNL A   1      38.575  34.228  38.843  1.00  0.00     0.198 A 
ATOM     56  F   UNL A   1      38.217  32.205  37.696  1.00  0.00    -0.203 F 
ATOM     57  F   UNL A   1      40.582  37.112  37.958  1.00  0.00    -0.200 F 
ATOM     58  C   UNL A   1      39.170  35.479  38.914  1.00  0.00     0.200 A 
ATOM     59  F   UNL A   1      37.766  33.814  39.827  1.00  0.00    -0.200 F 
ATOM     60  F   UNL A   1      38.952  36.266  39.976  1.00  0.00    -0.200 F 
ENDBRANCH  26  50
BRANCH  38  61
ATOM     61  C   UNL A   1      43.926  28.622  34.957  1.00  0.00     0.064 A 
ATOM     62  C   UNL A   1      43.741  27.480  35.749  1.00  0.00     0.173 A 
ATOM     63  C   UNL A   1      45.231  29.114  34.804  1.00  0.00     0.173 A 
ATOM     64  F   UNL A   1      42.510  26.982  35.939  1.00  0.00    -0.203 F 
ATOM     65  C   UNL A   1      44.821  26.862  36.373  1.00  0.00     0.198 A 
ATOM     66  C   UNL A   1      46.312  28.478  35.408  1.00  0.00     0.198 A 
ATOM     67  F   UNL A   1      45.459  30.203  34.054  1.00  0.00    -0.203 F 
ATOM     68  F   UNL A   1      44.619  25.792  37.154  1.00  0.00    -0.200 F 
ATOM     69  C   UNL A   1      46.106  27.356  36.195  1.00  0.00     0.200 A 
ATOM     70  F   UNL A   1      47.553  28.951  35.225  1.00  0.00    -0.200 F 
ATOM     71  F   UNL A   1      47.146  26.753  36.787  1.00  0.00    -0.200 F 
ENDBRANCH  38  61
ENDBRANCH  12  13
ENDBRANCH   5   7
ENDBRANCH   2   3
ENDBRANCH   1   2
BRANCH   1  72
ATOM     72  C   UNL A   1      31.647  30.821  26.121  1.00  0.00     0.023 C 
BRANCH  72  73
ATOM     73  C   UNL A   1      31.909  29.818  27.238  1.00  0.00     0.116 C 
BRANCH  73  74
ATOM     74  N   UNL A   1      33.329  29.668  27.482  1.00  0.00    -0.354 N 
ATOM     75  C   UNL A   1      34.221  28.824  26.895  1.00  0.00     0.242 C 
ATOM     76  H   UNL A   1      33.702  30.263  28.172  1.00  0.00     0.163 HD
ATOM     77  O   UNL A   1      35.404  28.920  27.238  1.00  0.00    -0.273 OA
BRANCH  75  78
ATOM     78  C   UNL A   1      33.792  27.837  25.777  1.00  0.00     0.174 C 
BRANCH  78  79
ATOM     79  N   UNL A   1      33.987  28.440  24.440  1.00  0.00    -0.339 N 
ATOM     80  C   UNL A   1      33.486  28.433  23.184  1.00  0.00     0.278 C 
ATOM     81  H   UNL A   1      34.746  29.066  24.479  1.00  0.00     0.164 HD
ATOM     82  O   UNL A   1      34.356  28.598  22.313  1.00  0.00    -0.268 OA
BRANCH  80  83
ATOM     83  C   UNL A   1      31.995  28.455  22.759  1.00  0.00     0.272 C 
ATOM     84  C   UNL A   1      31.277  27.222  23.342  1.00  0.00     0.076 C 
ATOM     85  N   UNL A   1      31.285  29.687  23.112  1.00  0.00    -0.333 N 
ATOM     86  C   UNL A   1      29.802  27.171  22.952  1.00  0.00     0.016 C 
ATOM     87  C   UNL A   1      29.869  29.669  22.725  1.00  0.00     0.186 C 
ATOM     88  H   UNL A   1      31.740  30.470  22.641  1.00  0.00     0.347 HD
ATOM     89  H   UNL A   1      31.321  29.779  24.127  1.00  0.00     0.347 HD
ATOM     90  C   UNL A   1      29.116  28.480  23.340  1.00  0.00     0.048 C 
ATOM     91  C   UNL A   1      29.213  30.986  23.166  1.00  0.00     0.065 C 
ATOM     92  C   UNL A   1      27.646  28.501  22.899  1.00  0.00     0.010 C 
ATOM     93  C   UNL A   1      27.737  31.030  22.775  1.00  0.00     0.006 C 
ATOM     94  C   UNL A   1      26.971  29.815  23.290  1.00  0.00     0.001 C 
ENDBRANCH  80  83
ENDBRANCH  78  79
BRANCH  78  95
ATOM     95  C   UNL A   1      34.284  26.455  26.071  1.00  0.00     0.021 C 
ATOM     96  C   UNL A   1      33.307  25.298  26.071  1.00  0.00     0.006 C 
ATOM     97  C   UNL A   1      34.342  25.396  24.992  1.00  0.00     0.006 C 
ENDBRANCH  78  95
ENDBRANCH  75  78
ENDBRANCH  73  74
ENDBRANCH  72  73
ENDBRANCH   1  72
TORSDOF 14
ENDMDL
MODEL 3
REMARK VINA RESULT:     -12.5      6.218     11.659
REMARK SMILES O=C(NCCCCNC(=O)[C@@H](NC(=O)[C@H]1CC[C@@H]2CCCC[C@H]2[NH2+]1)C1CC1)c1ccc(-c2c3nc(c(-c4c(F)c(F)c(F)c(F)c4F)c4ccc([nH]4)c(-c4c(F)c(F)c(F)c(F)c4F)c4nc(c(-c5c(F)c(F)c(F)c(F)c5F)c5ccc2[nH]5)C=C4)C=C3)cc1
REMARK SMILES IDX 5 1 4 2 3 3 1 4 2 5 28 7 29 8 90 9 30 10 89 11 31 12 32 13
REMARK SMILES IDX 33 14 83 15 34 16 88 17 82 18 84 19 35 20 87 21 81 22 80 23
REMARK SMILES IDX 36 25 68 26 48 27 67 28 49 29 52 30 66 31 85 32 50 33 51 34
REMARK SMILES IDX 65 36 86 37 53 38 37 39 38 40 46 41 39 42 40 43 44 44 47 45
REMARK SMILES IDX 41 46 42 47 45 48 43 49 69 50 70 51 78 52 71 53 72 54 76 55
REMARK SMILES IDX 79 56 73 57 74 58 77 59 75 60 54 61 55 62 63 63 56 64 57 65
REMARK SMILES IDX 61 66 64 67 58 68 59 69 62 70 60 71 6 72 7 73 8 74 9 75
REMARK SMILES IDX 10 77 11 78 12 79 13 80 14 82 15 83 16 84 24 85 17 86 23 87
REMARK SMILES IDX 18 90 22 91 19 92 21 93 20 94 25 95 26 96 27 97
REMARK H PARENT 3 6 84 24 52 35 8 76 12 81 24 88 24 89
REMARK Flexibility Score: inf
ROOT
ATOM      1  C   UNL A   1      38.457  19.493  24.937  1.00  0.00     0.023 C 
ENDROOT
BRANCH   1   2
ATOM      2  C   UNL A   1      39.566  19.821  25.932  1.00  0.00     0.116 C 
BRANCH   2   3
ATOM      3  N   UNL A   1      40.633  18.832  25.925  1.00  0.00    -0.352 N 
ATOM      4  O   UNL A   1      42.769  18.097  25.870  1.00  0.00    -0.269 OA
ATOM      5  C   UNL A   1      41.986  19.023  26.052  1.00  0.00     0.251 C 
ATOM      6  H   UNL A   1      40.346  17.897  25.814  1.00  0.00     0.163 HD
BRANCH   5   7
ATOM      7  C   UNL A   1      42.495  20.367  26.385  1.00  0.00     0.039 A 
ATOM      8  C   UNL A   1      42.452  20.836  27.701  1.00  0.00     0.014 A 
ATOM      9  C   UNL A   1      43.007  21.166  25.362  1.00  0.00     0.014 A 
ATOM     10  C   UNL A   1      42.805  22.152  27.974  1.00  0.00     0.010 A 
ATOM     11  C   UNL A   1      43.426  22.464  25.650  1.00  0.00     0.010 A 
ATOM     12  C   UNL A   1      43.302  22.975  26.952  1.00  0.00    -0.014 A 
BRANCH  12  13
ATOM     13  C   UNL A   1      43.728  24.361  27.256  1.00  0.00     0.031 A 
ATOM     14  C   UNL A   1      42.744  25.368  27.776  1.00  0.00     0.074 A 
ATOM     15  C   UNL A   1      45.008  24.713  27.033  1.00  0.00     0.049 A 
ATOM     16  N   UNL A   1      42.913  26.644  28.011  1.00  0.00    -0.248 NA
ATOM     17  C   UNL A   1      41.388  24.879  28.061  1.00  0.00     0.031 C 
ATOM     18  C   UNL A   1      46.051  23.816  26.532  1.00  0.00     0.029 A 
ATOM     19  N   UNL A   1      45.646  25.915  27.188  1.00  0.00    -0.354 N 
ATOM     20  C   UNL A   1      41.683  27.116  28.445  1.00  0.00     0.074 A 
ATOM     21  C   UNL A   1      40.769  25.994  28.423  1.00  0.00     0.031 C 
ATOM     22  C   UNL A   1      47.201  24.496  26.429  1.00  0.00     0.029 A 
ATOM     23  C   UNL A   1      46.962  25.887  26.799  1.00  0.00     0.049 A 
ATOM     24  H   UNL A   1      45.205  26.720  27.544  1.00  0.00     0.167 HD
ATOM     25  C   UNL A   1      41.352  28.374  28.829  1.00  0.00     0.037 A 
ATOM     26  C   UNL A   1      47.867  26.878  26.715  1.00  0.00     0.037 A 
ATOM     27  C   UNL A   1      42.273  29.479  28.858  1.00  0.00     0.049 A 
ATOM     28  C   UNL A   1      47.468  28.269  27.116  1.00  0.00     0.074 A 
ATOM     29  C   UNL A   1      42.048  30.782  29.266  1.00  0.00     0.029 A 
ATOM     30  N   UNL A   1      43.600  29.412  28.454  1.00  0.00    -0.354 N 
ATOM     31  N   UNL A   1      46.310  28.701  27.550  1.00  0.00    -0.248 NA
ATOM     32  C   UNL A   1      48.500  29.309  27.014  1.00  0.00     0.031 C 
ATOM     33  C   UNL A   1      43.223  31.515  29.064  1.00  0.00     0.029 A 
ATOM     34  C   UNL A   1      44.198  30.657  28.581  1.00  0.00     0.049 A 
ATOM     35  H   UNL A   1      44.050  28.601  28.126  1.00  0.00     0.167 HD
ATOM     36  C   UNL A   1      46.477  30.055  27.798  1.00  0.00     0.074 A 
ATOM     37  C   UNL A   1      47.852  30.373  27.469  1.00  0.00     0.031 C 
ATOM     38  C   UNL A   1      45.572  30.952  28.259  1.00  0.00     0.037 A 
BRANCH  25  39
ATOM     39  C   UNL A   1      39.924  28.626  29.219  1.00  0.00     0.064 A 
ATOM     40  C   UNL A   1      39.463  28.414  30.527  1.00  0.00     0.173 A 
ATOM     41  C   UNL A   1      39.005  29.111  28.274  1.00  0.00     0.173 A 
ATOM     42  F   UNL A   1      40.297  27.941  31.467  1.00  0.00    -0.203 F 
ATOM     43  C   UNL A   1      38.133  28.646  30.867  1.00  0.00     0.198 A 
ATOM     44  C   UNL A   1      37.683  29.370  28.624  1.00  0.00     0.198 A 
ATOM     45  F   UNL A   1      39.393  29.339  27.011  1.00  0.00    -0.203 F 
ATOM     46  F   UNL A   1      37.705  28.386  32.111  1.00  0.00    -0.200 F 
ATOM     47  C   UNL A   1      37.245  29.129  29.917  1.00  0.00     0.200 A 
ATOM     48  F   UNL A   1      36.831  29.848  27.707  1.00  0.00    -0.200 F 
ATOM     49  F   UNL A   1      35.966  29.353  30.245  1.00  0.00    -0.200 F 
ENDBRANCH  25  39
BRANCH  26  50
ATOM     50  C   UNL A   1      49.234  26.571  26.225  1.00  0.00     0.064 A 
ATOM     51  C   UNL A   1      49.588  26.800  24.889  1.00  0.00     0.173 A 
ATOM     52  C   UNL A   1      50.226  26.095  27.094  1.00  0.00     0.173 A 
ATOM     53  F   UNL A   1      48.668  27.241  24.019  1.00  0.00    -0.203 F 
ATOM     54  C   UNL A   1      50.884  26.561  24.440  1.00  0.00     0.198 A 
ATOM     55  C   UNL A   1      51.529  25.881  26.650  1.00  0.00     0.198 A 
ATOM     56  F   UNL A   1      49.937  25.868  28.384  1.00  0.00    -0.203 F 
ATOM     57  F   UNL A   1      51.193  26.766  23.152  1.00  0.00    -0.200 F 
ATOM     58  C   UNL A   1      51.856  26.111  25.322  1.00  0.00     0.200 A 
ATOM     59  F   UNL A   1      52.468  25.465  27.509  1.00  0.00    -0.200 F 
ATOM     60  F   UNL A   1      53.107  25.900  24.893  1.00  0.00    -0.200 F 
ENDBRANCH  26  50
BRANCH  38  61
ATOM     61  C   UNL A   1      46.049  32.357  28.482  1.00  0.00     0.064 A 
ATOM     62  C   UNL A   1      46.640  32.752  29.690  1.00  0.00     0.173 A 
ATOM     63  C   UNL A   1      45.961  33.303  27.449  1.00  0.00     0.173 A 
ATOM     64  F   UNL A   1      46.731  31.888  30.712  1.00  0.00    -0.203 F 
ATOM     65  C   UNL A   1      47.113  34.050  29.861  1.00  0.00     0.198 A 
ATOM     66  C   UNL A   1      46.459  34.592  27.615  1.00  0.00     0.198 A 
ATOM     67  F   UNL A   1      45.406  32.971  26.274  1.00  0.00    -0.203 F 
ATOM     68  F   UNL A   1      47.642  34.419  31.036  1.00  0.00    -0.200 F 
ATOM     69  C   UNL A   1      47.030  34.966  28.822  1.00  0.00     0.200 A 
ATOM     70  F   UNL A   1      46.388  35.471  26.605  1.00  0.00    -0.200 F 
ATOM     71  F   UNL A   1      47.497  36.212  28.985  1.00  0.00    -0.200 F 
ENDBRANCH  38  61
ENDBRANCH  12  13
ENDBRANCH   5   7
ENDBRANCH   2   3
ENDBRANCH   1   2
BRANCH   1  72
ATOM     72  C   UNL A   1      37.228  20.398  25.024  1.00  0.00     0.023 C 
BRANCH  72  73
ATOM     73  C   UNL A   1      37.366  21.707  24.255  1.00  0.00     0.116 C 
BRANCH  73  74
ATOM     74  N   UNL A   1      37.816  22.777  25.121  1.00  0.00    -0.354 N 
ATOM     75  C   UNL A   1      37.086  23.713  25.788  1.00  0.00     0.242 C 
ATOM     76  H   UNL A   1      38.791  22.835  25.246  1.00  0.00     0.163 HD
ATOM     77  O   UNL A   1      37.700  24.499  26.517  1.00  0.00    -0.273 OA
BRANCH  75  78
ATOM     78  C   UNL A   1      35.536  23.743  25.709  1.00  0.00     0.174 C 
BRANCH  78  79
ATOM     79  N   UNL A   1      34.938  22.940  26.797  1.00  0.00    -0.339 N 
ATOM     80  C   UNL A   1      33.865  22.170  27.087  1.00  0.00     0.278 C 
ATOM     81  H   UNL A   1      35.528  22.977  27.584  1.00  0.00     0.164 HD
ATOM     82  O   UNL A   1      33.512  22.258  28.275  1.00  0.00    -0.268 OA
BRANCH  80  83
ATOM     83  C   UNL A   1      33.204  21.089  26.193  1.00  0.00     0.272 C 
ATOM     84  C   UNL A   1      32.668  21.746  24.906  1.00  0.00     0.076 C 
ATOM     85  N   UNL A   1      34.075  19.955  25.876  1.00  0.00    -0.333 N 
ATOM     86  C   UNL A   1      31.991  20.739  23.980  1.00  0.00     0.016 C 
ATOM     87  C   UNL A   1      33.436  18.961  25.004  1.00  0.00     0.186 C 
ATOM     88  H   UNL A   1      34.343  19.496  26.747  1.00  0.00     0.347 HD
ATOM     89  H   UNL A   1      34.884  20.323  25.375  1.00  0.00     0.347 HD
ATOM     90  C   UNL A   1      32.942  19.580  23.687  1.00  0.00     0.048 C 
ATOM     91  C   UNL A   1      34.438  17.836  24.708  1.00  0.00     0.065 C 
ATOM     92  C   UNL A   1      32.275  18.506  22.817  1.00  0.00     0.010 C 
ATOM     93  C   UNL A   1      33.821  16.763  23.813  1.00  0.00     0.006 C 
ATOM     94  C   UNL A   1      33.234  17.351  22.533  1.00  0.00     0.001 C 
ENDBRANCH  80  83
ENDBRANCH  78  79
BRANCH  78  95
ATOM     95  C   UNL A   1      35.047  25.128  25.423  1.00  0.00     0.021 C 
ATOM     96  C   UNL A   1      34.024  25.349  24.329  1.00  0.00     0.006 C 
ATOM     97  C   UNL A   1      33.632  25.546  25.762  1.00  0.00     0.006 C 
ENDBRANCH  78  95
ENDBRANCH  75  78
ENDBRANCH  73  74
ENDBRANCH  72  73
ENDBRANCH   1  72
TORSDOF 14
ENDMDL
