MODEL 1
REMARK VINA RESULT:      -9.6      0.000      0.000
REMARK SMILES C[C@@H](CC(=O)NCCCCNC(=O)c1ccc(-c2c3nc(c(-c4c(F)c(F)c(F)c(F)c4F)c4ccc([nH]4)c(-c4c(F)c(F)c(F)c(F)c4F)c4nc(c(-c5c(F)c(F)c(F)c(F)c5F)c5ccc2[nH]5)C=C4)C=C3)cc1)Cc1nnc(C2C(C)(C)C2(C)C)o1
REMARK SMILES IDX 7 1 6 2 4 3 5 4 3 6 2 7 1 8 77 9 78 10 79 11 89 12 80 13
REMARK SMILES IDX 81 14 82 15 83 16 86 17 84 18 85 19 87 20 88 21 8 22 9 23
REMARK SMILES IDX 10 24 11 25 12 26 13 28 14 29 15 30 76 31 16 32 75 33 17 34
REMARK SMILES IDX 18 35 19 36 69 37 20 38 74 39 68 40 70 41 21 42 73 43 67 44
REMARK SMILES IDX 66 45 22 47 54 48 34 49 53 50 35 51 38 52 52 53 71 54 36 55
REMARK SMILES IDX 37 56 51 58 72 59 39 60 23 61 24 62 32 63 25 64 26 65 30 66
REMARK SMILES IDX 33 67 27 68 28 69 31 70 29 71 55 72 56 73 64 74 57 75 58 76
REMARK SMILES IDX 62 77 65 78 59 79 60 80 63 81 61 82 40 83 41 84 49 85 42 86
REMARK SMILES IDX 43 87 47 88 50 89 44 90 45 91 48 92 46 93
REMARK H PARENT 6 5 11 27 70 46 38 57
REMARK Flexibility Score: inf
ROOT
ATOM      1  C   UNL A   1      38.320  34.174  30.403  1.00  0.00     0.116 C 
ENDROOT
BRANCH   1   2
ATOM      2  N   UNL A   1      37.415  34.742  31.378  1.00  0.00    -0.356 N 
ATOM      3  C   UNL A   1      37.320  34.512  32.714  1.00  0.00     0.220 C 
ATOM      4  O   UNL A   1      36.400  35.051  33.332  1.00  0.00    -0.275 OA
ATOM      5  H   UNL A   1      36.769  35.392  31.020  1.00  0.00     0.163 HD
BRANCH   3   6
ATOM      6  C   UNL A   1      38.308  33.605  33.432  1.00  0.00     0.103 C 
BRANCH   6   7
ATOM      7  C   UNL A   1      38.092  32.079  33.304  1.00  0.00     0.004 C 
ATOM      8  C   UNL A   1      36.626  31.719  33.037  1.00  0.00     0.009 C 
BRANCH   7   9
ATOM      9  C   UNL A   1      38.749  31.287  34.454  1.00  0.00     0.103 C 
BRANCH   9  10
ATOM     10  C   UNL A   1      39.408  30.029  34.033  1.00  0.00     0.216 A 
ATOM     11  N   UNL A   1      38.944  28.987  33.383  1.00  0.00    -0.113 NA
ATOM     12  O   UNL A   1      40.728  29.909  34.357  1.00  0.00    -0.425 OA
ATOM     13  N   UNL A   1      40.017  28.127  33.233  1.00  0.00    -0.113 NA
ATOM     14  C   UNL A   1      41.057  28.702  33.808  1.00  0.00     0.220 A 
BRANCH  14  15
ATOM     15  C   UNL A   1      42.450  28.087  33.791  1.00  0.00     0.090 C 
ATOM     16  C   UNL A   1      43.299  28.052  35.073  1.00  0.00    -0.017 C 
ATOM     17  C   UNL A   1      42.804  26.748  34.446  1.00  0.00    -0.017 C 
ATOM     18  C   UNL A   1      44.743  28.485  34.910  1.00  0.00     0.012 C 
ATOM     19  C   UNL A   1      42.759  28.478  36.423  1.00  0.00     0.012 C 
ATOM     20  C   UNL A   1      41.738  25.915  35.123  1.00  0.00     0.012 C 
ATOM     21  C   UNL A   1      43.813  25.867  33.732  1.00  0.00     0.012 C 
ENDBRANCH  14  15
ENDBRANCH   9  10
ENDBRANCH   7   9
ENDBRANCH   6   7
ENDBRANCH   3   6
ENDBRANCH   1   2
BRANCH   1  22
ATOM     22  C   UNL A   1      37.562  33.322  29.385  1.00  0.00     0.023 C 
BRANCH  22  23
ATOM     23  C   UNL A   1      36.076  33.643  29.246  1.00  0.00     0.023 C 
BRANCH  23  24
ATOM     24  C   UNL A   1      35.129  32.638  29.888  1.00  0.00     0.116 C 
BRANCH  24  25
ATOM     25  N   UNL A   1      34.324  31.898  28.927  1.00  0.00    -0.352 N 
ATOM     26  C   UNL A   1      34.648  30.763  28.222  1.00  0.00     0.251 C 
ATOM     27  H   UNL A   1      33.424  32.260  28.759  1.00  0.00     0.163 HD
ATOM     28  O   UNL A   1      33.879  30.315  27.377  1.00  0.00    -0.269 OA
BRANCH  26  29
ATOM     29  C   UNL A   1      35.953  30.112  28.454  1.00  0.00     0.039 A 
ATOM     30  C   UNL A   1      36.925  30.173  27.453  1.00  0.00     0.014 A 
ATOM     31  C   UNL A   1      36.235  29.494  29.676  1.00  0.00     0.014 A 
ATOM     32  C   UNL A   1      38.211  29.697  27.711  1.00  0.00     0.010 A 
ATOM     33  C   UNL A   1      37.535  29.091  29.958  1.00  0.00     0.010 A 
ATOM     34  C   UNL A   1      38.538  29.199  28.983  1.00  0.00    -0.014 A 
BRANCH  34  35
ATOM     35  C   UNL A   1      39.929  28.812  29.327  1.00  0.00     0.031 A 
ATOM     36  C   UNL A   1      40.802  29.753  30.107  1.00  0.00     0.074 A 
ATOM     37  C   UNL A   1      40.432  27.654  28.857  1.00  0.00     0.049 A 
ATOM     38  N   UNL A   1      42.068  29.640  30.421  1.00  0.00    -0.248 NA
ATOM     39  C   UNL A   1      40.178  31.002  30.569  1.00  0.00     0.031 C 
ATOM     40  C   UNL A   1      39.702  26.686  28.035  1.00  0.00     0.029 A 
ATOM     41  N   UNL A   1      41.680  27.101  28.991  1.00  0.00    -0.354 N 
ATOM     42  C   UNL A   1      42.395  30.809  31.093  1.00  0.00     0.074 A 
ATOM     43  C   UNL A   1      41.211  31.639  31.102  1.00  0.00     0.031 C 
ATOM     44  C   UNL A   1      40.509  25.651  27.754  1.00  0.00     0.029 A 
ATOM     45  C   UNL A   1      41.821  25.896  28.347  1.00  0.00     0.049 A 
ATOM     46  H   UNL A   1      42.408  27.527  29.499  1.00  0.00     0.167 HD
ATOM     47  C   UNL A   1      43.571  31.149  31.672  1.00  0.00     0.037 A 
ATOM     48  C   UNL A   1      42.889  25.083  28.241  1.00  0.00     0.037 A 
ATOM     49  C   UNL A   1      44.735  30.303  31.695  1.00  0.00     0.049 A 
ATOM     50  C   UNL A   1      44.177  25.474  28.913  1.00  0.00     0.074 A 
ATOM     51  C   UNL A   1      45.948  30.522  32.324  1.00  0.00     0.029 A 
ATOM     52  N   UNL A   1      44.829  29.073  31.060  1.00  0.00    -0.354 N 
ATOM     53  N   UNL A   1      44.453  26.549  29.609  1.00  0.00    -0.248 NA
ATOM     54  C   UNL A   1      45.300  24.535  28.786  1.00  0.00     0.031 C 
ATOM     55  C   UNL A   1      46.789  29.440  32.041  1.00  0.00     0.029 A 
ATOM     56  C   UNL A   1      46.087  28.530  31.268  1.00  0.00     0.049 A 
ATOM     57  H   UNL A   1      44.109  28.650  30.540  1.00  0.00     0.167 HD
ATOM     58  C   UNL A   1      45.771  26.409  30.020  1.00  0.00     0.074 A 
ATOM     59  C   UNL A   1      46.234  25.136  29.510  1.00  0.00     0.031 C 
ATOM     60  C   UNL A   1      46.530  27.260  30.753  1.00  0.00     0.037 A 
BRANCH  47  61
ATOM     61  C   UNL A   1      43.653  32.490  32.337  1.00  0.00     0.064 A 
ATOM     62  C   UNL A   1      43.865  33.664  31.599  1.00  0.00     0.173 A 
ATOM     63  C   UNL A   1      43.489  32.608  33.726  1.00  0.00     0.173 A 
ATOM     64  F   UNL A   1      44.041  33.603  30.270  1.00  0.00    -0.203 F 
ATOM     65  C   UNL A   1      43.939  34.904  32.229  1.00  0.00     0.198 A 
ATOM     66  C   UNL A   1      43.535  33.852  34.349  1.00  0.00     0.198 A 
ATOM     67  F   UNL A   1      43.281  31.516  34.477  1.00  0.00    -0.203 F 
ATOM     68  F   UNL A   1      44.191  36.005  31.508  1.00  0.00    -0.200 F 
ATOM     69  C   UNL A   1      43.768  34.997  33.602  1.00  0.00     0.200 A 
ATOM     70  F   UNL A   1      43.361  33.942  35.675  1.00  0.00    -0.200 F 
ATOM     71  F   UNL A   1      43.835  36.191  34.206  1.00  0.00    -0.200 F 
ENDBRANCH  47  61
BRANCH  48  72
ATOM     72  C   UNL A   1      42.777  23.805  27.493  1.00  0.00     0.064 A 
ATOM     73  C   UNL A   1      43.160  23.728  26.147  1.00  0.00     0.173 A 
ATOM     74  C   UNL A   1      42.291  22.640  28.102  1.00  0.00     0.173 A 
ATOM     75  F   UNL A   1      43.612  24.823  25.516  1.00  0.00    -0.203 F 
ATOM     76  C   UNL A   1      43.045  22.537  25.433  1.00  0.00     0.198 A 
ATOM     77  C   UNL A   1      42.199  21.444  27.394  1.00  0.00     0.198 A 
ATOM     78  F   UNL A   1      41.917  22.662  29.390  1.00  0.00    -0.203 F 
ATOM     79  F   UNL A   1      43.381  22.501  24.137  1.00  0.00    -0.200 F 
ATOM     80  C   UNL A   1      42.570  21.394  26.059  1.00  0.00     0.200 A 
ATOM     81  F   UNL A   1      41.752  20.338  28.006  1.00  0.00    -0.200 F 
ATOM     82  F   UNL A   1      42.464  20.248  25.374  1.00  0.00    -0.200 F 
ENDBRANCH  48  72
BRANCH  60  83
ATOM     83  C   UNL A   1      47.933  26.832  31.062  1.00  0.00     0.064 A 
ATOM     84  C   UNL A   1      48.225  26.028  32.173  1.00  0.00     0.173 A 
ATOM     85  C   UNL A   1      48.990  27.198  30.217  1.00  0.00     0.173 A 
ATOM     86  F   UNL A   1      47.248  25.668  33.021  1.00  0.00    -0.203 F 
ATOM     87  C   UNL A   1      49.530  25.623  32.439  1.00  0.00     0.198 A 
ATOM     88  C   UNL A   1      50.289  26.769  30.470  1.00  0.00     0.198 A 
ATOM     89  F   UNL A   1      48.760  27.962  29.137  1.00  0.00    -0.203 F 
ATOM     90  F   UNL A   1      49.792  24.890  33.529  1.00  0.00    -0.200 F 
ATOM     91  C   UNL A   1      50.559  25.987  31.583  1.00  0.00     0.200 A 
ATOM     92  F   UNL A   1      51.282  27.113  29.637  1.00  0.00    -0.200 F 
ATOM     93  F   UNL A   1      51.814  25.591  31.836  1.00  0.00    -0.200 F 
ENDBRANCH  60  83
ENDBRANCH  34  35
ENDBRANCH  26  29
ENDBRANCH  24  25
ENDBRANCH  23  24
ENDBRANCH  22  23
ENDBRANCH   1  22
TORSDOF 15
ENDMDL
MODEL 2
REMARK VINA RESULT:      -9.6      0.136      1.598
REMARK SMILES C[C@@H](CC(=O)NCCCCNC(=O)c1ccc(-c2c3nc(c(-c4c(F)c(F)c(F)c(F)c4F)c4ccc([nH]4)c(-c4c(F)c(F)c(F)c(F)c4F)c4nc(c(-c5c(F)c(F)c(F)c(F)c5F)c5ccc2[nH]5)C=C4)C=C3)cc1)Cc1nnc(C2C(C)(C)C2(C)C)o1
REMARK SMILES IDX 7 1 6 2 4 3 5 4 3 6 2 7 1 8 77 9 78 10 79 11 89 12 80 13
REMARK SMILES IDX 81 14 82 15 83 16 86 17 84 18 85 19 87 20 88 21 8 22 9 23
REMARK SMILES IDX 10 24 11 25 12 26 13 28 14 29 15 30 76 31 16 32 75 33 17 34
REMARK SMILES IDX 18 35 19 36 69 37 20 38 74 39 68 40 70 41 21 42 73 43 67 44
REMARK SMILES IDX 66 45 22 47 54 48 34 49 53 50 35 51 38 52 52 53 71 54 36 55
REMARK SMILES IDX 37 56 51 58 72 59 39 60 23 61 24 62 32 63 25 64 26 65 30 66
REMARK SMILES IDX 33 67 27 68 28 69 31 70 29 71 55 72 56 73 64 74 57 75 58 76
REMARK SMILES IDX 62 77 65 78 59 79 60 80 63 81 61 82 40 83 41 84 49 85 42 86
REMARK SMILES IDX 43 87 47 88 50 89 44 90 45 91 48 92 46 93
REMARK H PARENT 6 5 11 27 70 46 38 57
REMARK Flexibility Score: inf
ROOT
ATOM      1  C   UNL A   1      38.352  34.169  30.212  1.00  0.00     0.116 C 
ENDROOT
BRANCH   1   2
ATOM      2  N   UNL A   1      37.492  34.714  31.239  1.00  0.00    -0.356 N 
ATOM      3  C   UNL A   1      37.443  34.439  32.570  1.00  0.00     0.220 C 
ATOM      4  O   UNL A   1      36.555  34.969  33.240  1.00  0.00    -0.275 OA
ATOM      5  H   UNL A   1      36.843  35.386  30.929  1.00  0.00     0.163 HD
BRANCH   3   6
ATOM      6  C   UNL A   1      38.443  33.493  33.218  1.00  0.00     0.103 C 
BRANCH   6   7
ATOM      7  C   UNL A   1      38.129  31.981  33.160  1.00  0.00     0.004 C 
ATOM      8  C   UNL A   1      36.635  31.704  32.955  1.00  0.00     0.009 C 
BRANCH   7   9
ATOM      9  C   UNL A   1      38.775  31.194  34.320  1.00  0.00     0.103 C 
BRANCH   9  10
ATOM     10  C   UNL A   1      39.439  29.936  33.911  1.00  0.00     0.216 A 
ATOM     11  N   UNL A   1      38.988  28.894  33.252  1.00  0.00    -0.113 NA
ATOM     12  O   UNL A   1      40.753  29.813  34.262  1.00  0.00    -0.425 OA
ATOM     13  N   UNL A   1      40.062  28.033  33.122  1.00  0.00    -0.113 NA
ATOM     14  C   UNL A   1      41.091  28.606  33.719  1.00  0.00     0.220 A 
BRANCH  14  15
ATOM     15  C   UNL A   1      42.483  27.989  33.729  1.00  0.00     0.090 C 
ATOM     16  C   UNL A   1      43.324  27.993  35.016  1.00  0.00    -0.017 C 
ATOM     17  C   UNL A   1      42.831  26.670  34.427  1.00  0.00    -0.017 C 
ATOM     18  C   UNL A   1      44.771  28.419  34.848  1.00  0.00     0.012 C 
ATOM     19  C   UNL A   1      42.778  28.460  36.349  1.00  0.00     0.012 C 
ATOM     20  C   UNL A   1      41.760  25.860  35.123  1.00  0.00     0.012 C 
ATOM     21  C   UNL A   1      43.844  25.767  33.746  1.00  0.00     0.012 C 
ENDBRANCH  14  15
ENDBRANCH   9  10
ENDBRANCH   7   9
ENDBRANCH   6   7
ENDBRANCH   3   6
ENDBRANCH   1   2
BRANCH   1  22
ATOM     22  C   UNL A   1      37.555  33.298  29.240  1.00  0.00     0.023 C 
BRANCH  22  23
ATOM     23  C   UNL A   1      36.060  33.597  29.173  1.00  0.00     0.023 C 
BRANCH  23  24
ATOM     24  C   UNL A   1      35.157  32.547  29.806  1.00  0.00     0.116 C 
BRANCH  24  25
ATOM     25  N   UNL A   1      34.353  31.810  28.841  1.00  0.00    -0.352 N 
ATOM     26  C   UNL A   1      34.680  30.680  28.129  1.00  0.00     0.251 C 
ATOM     27  H   UNL A   1      33.453  32.171  28.674  1.00  0.00     0.163 HD
ATOM     28  O   UNL A   1      33.912  30.235  27.282  1.00  0.00    -0.269 OA
BRANCH  26  29
ATOM     29  C   UNL A   1      35.986  30.030  28.359  1.00  0.00     0.039 A 
ATOM     30  C   UNL A   1      36.966  30.118  27.367  1.00  0.00     0.014 A 
ATOM     31  C   UNL A   1      36.261  29.387  29.569  1.00  0.00     0.014 A 
ATOM     32  C   UNL A   1      38.253  29.643  27.626  1.00  0.00     0.010 A 
ATOM     33  C   UNL A   1      37.560  28.984  29.853  1.00  0.00     0.010 A 
ATOM     34  C   UNL A   1      38.571  29.119  28.890  1.00  0.00    -0.014 A 
BRANCH  34  35
ATOM     35  C   UNL A   1      39.961  28.731  29.237  1.00  0.00     0.031 A 
ATOM     36  C   UNL A   1      40.834  29.673  30.016  1.00  0.00     0.074 A 
ATOM     37  C   UNL A   1      40.463  27.570  28.772  1.00  0.00     0.049 A 
ATOM     38  N   UNL A   1      42.099  29.559  30.332  1.00  0.00    -0.248 NA
ATOM     39  C   UNL A   1      40.210  30.924  30.473  1.00  0.00     0.031 C 
ATOM     40  C   UNL A   1      39.734  26.601  27.951  1.00  0.00     0.029 A 
ATOM     41  N   UNL A   1      41.710  27.016  28.909  1.00  0.00    -0.354 N 
ATOM     42  C   UNL A   1      42.426  30.729  31.002  1.00  0.00     0.074 A 
ATOM     43  C   UNL A   1      41.243  31.561  31.006  1.00  0.00     0.031 C 
ATOM     44  C   UNL A   1      40.540  25.564  27.675  1.00  0.00     0.029 A 
ATOM     45  C   UNL A   1      41.851  25.809  28.270  1.00  0.00     0.049 A 
ATOM     46  H   UNL A   1      42.438  27.443  29.418  1.00  0.00     0.167 HD
ATOM     47  C   UNL A   1      43.602  31.070  31.581  1.00  0.00     0.037 A 
ATOM     48  C   UNL A   1      42.918  24.995  28.168  1.00  0.00     0.037 A 
ATOM     49  C   UNL A   1      44.765  30.223  31.609  1.00  0.00     0.049 A 
ATOM     50  C   UNL A   1      44.206  25.386  28.840  1.00  0.00     0.074 A 
ATOM     51  C   UNL A   1      45.977  30.442  32.239  1.00  0.00     0.029 A 
ATOM     52  N   UNL A   1      44.858  28.991  30.978  1.00  0.00    -0.354 N 
ATOM     53  N   UNL A   1      44.482  26.463  29.533  1.00  0.00    -0.248 NA
ATOM     54  C   UNL A   1      45.327  24.445  28.718  1.00  0.00     0.031 C 
ATOM     55  C   UNL A   1      46.817  29.358  31.961  1.00  0.00     0.029 A 
ATOM     56  C   UNL A   1      46.116  28.446  31.189  1.00  0.00     0.049 A 
ATOM     57  H   UNL A   1      44.139  28.567  30.458  1.00  0.00     0.167 HD
ATOM     58  C   UNL A   1      45.799  26.322  29.947  1.00  0.00     0.074 A 
ATOM     59  C   UNL A   1      46.261  25.047  29.442  1.00  0.00     0.031 C 
ATOM     60  C   UNL A   1      46.557  27.174  30.679  1.00  0.00     0.037 A 
BRANCH  47  61
ATOM     61  C   UNL A   1      43.684  32.413  32.243  1.00  0.00     0.064 A 
ATOM     62  C   UNL A   1      43.520  32.560  33.628  1.00  0.00     0.173 A 
ATOM     63  C   UNL A   1      43.960  33.564  31.488  1.00  0.00     0.173 A 
ATOM     64  F   UNL A   1      43.242  31.493  34.392  1.00  0.00    -0.203 F 
ATOM     65  C   UNL A   1      43.599  33.813  34.231  1.00  0.00     0.198 A 
ATOM     66  C   UNL A   1      44.066  34.811  32.097  1.00  0.00     0.198 A 
ATOM     67  F   UNL A   1      44.128  33.477  30.160  1.00  0.00    -0.203 F 
ATOM     68  F   UNL A   1      43.389  33.935  35.548  1.00  0.00    -0.200 F 
ATOM     69  C   UNL A   1      43.878  34.936  33.466  1.00  0.00     0.200 A 
ATOM     70  F   UNL A   1      44.345  35.894  31.359  1.00  0.00    -0.200 F 
ATOM     71  F   UNL A   1      43.958  36.141  34.047  1.00  0.00    -0.200 F 
ENDBRANCH  47  61
BRANCH  48  72
ATOM     72  C   UNL A   1      42.805  23.715  27.423  1.00  0.00     0.064 A 
ATOM     73  C   UNL A   1      42.315  22.562  28.052  1.00  0.00     0.173 A 
ATOM     74  C   UNL A   1      43.179  23.616  26.076  1.00  0.00     0.173 A 
ATOM     75  F   UNL A   1      41.964  22.604  29.346  1.00  0.00    -0.203 F 
ATOM     76  C   UNL A   1      42.218  21.354  27.365  1.00  0.00     0.198 A 
ATOM     77  C   UNL A   1      43.059  22.413  25.383  1.00  0.00     0.198 A 
ATOM     78  F   UNL A   1      43.649  24.693  25.428  1.00  0.00    -0.203 F 
ATOM     79  F   UNL A   1      41.783  20.258  28.000  1.00  0.00    -0.200 F 
ATOM     80  C   UNL A   1      42.585  21.282  26.029  1.00  0.00     0.200 A 
ATOM     81  F   UNL A   1      43.403  22.350  24.089  1.00  0.00    -0.200 F 
ATOM     82  F   UNL A   1      42.488  20.121  25.368  1.00  0.00    -0.200 F 
ENDBRANCH  48  72
BRANCH  60  83
ATOM     83  C   UNL A   1      47.959  26.746  30.992  1.00  0.00     0.064 A 
ATOM     84  C   UNL A   1      48.250  25.957  32.114  1.00  0.00     0.173 A 
ATOM     85  C   UNL A   1      49.017  27.095  30.139  1.00  0.00     0.173 A 
ATOM     86  F   UNL A   1      47.274  25.612  32.968  1.00  0.00    -0.203 F 
ATOM     87  C   UNL A   1      49.554  25.550  32.383  1.00  0.00     0.198 A 
ATOM     88  C   UNL A   1      50.314  26.665  30.396  1.00  0.00     0.198 A 
ATOM     89  F   UNL A   1      48.788  27.845  29.050  1.00  0.00    -0.203 F 
ATOM     90  F   UNL A   1      49.816  24.832  33.483  1.00  0.00    -0.200 F 
ATOM     91  C   UNL A   1      50.584  25.898  31.521  1.00  0.00     0.200 A 
ATOM     92  F   UNL A   1      51.307  26.994  29.557  1.00  0.00    -0.200 F 
ATOM     93  F   UNL A   1      51.837  25.501  31.777  1.00  0.00    -0.200 F 
ENDBRANCH  60  83
ENDBRANCH  34  35
ENDBRANCH  26  29
ENDBRANCH  24  25
ENDBRANCH  23  24
ENDBRANCH  22  23
ENDBRANCH   1  22
TORSDOF 15
ENDMDL
MODEL 3
REMARK VINA RESULT:      -9.4      4.468     10.649
REMARK SMILES C[C@@H](CC(=O)NCCCCNC(=O)c1ccc(-c2c3nc(c(-c4c(F)c(F)c(F)c(F)c4F)c4ccc([nH]4)c(-c4c(F)c(F)c(F)c(F)c4F)c4nc(c(-c5c(F)c(F)c(F)c(F)c5F)c5ccc2[nH]5)C=C4)C=C3)cc1)Cc1nnc(C2C(C)(C)C2(C)C)o1
REMARK SMILES IDX 7 1 6 2 4 3 5 4 3 6 2 7 1 8 77 9 78 10 79 11 89 12 80 13
REMARK SMILES IDX 81 14 82 15 83 16 86 17 84 18 85 19 87 20 88 21 8 22 9 23
REMARK SMILES IDX 10 24 11 25 12 26 13 28 14 29 15 30 76 31 16 32 75 33 17 34
REMARK SMILES IDX 18 35 19 36 69 37 20 38 74 39 68 40 70 41 21 42 73 43 67 44
REMARK SMILES IDX 66 45 22 47 54 48 34 49 53 50 35 51 38 52 52 53 71 54 36 55
REMARK SMILES IDX 37 56 51 58 72 59 39 60 23 61 24 62 32 63 25 64 26 65 30 66
REMARK SMILES IDX 33 67 27 68 28 69 31 70 29 71 55 72 56 73 64 74 57 75 58 76
REMARK SMILES IDX 62 77 65 78 59 79 60 80 63 81 61 82 40 83 41 84 49 85 42 86
REMARK SMILES IDX 43 87 47 88 50 89 44 90 45 91 48 92 46 93
REMARK H PARENT 6 5 11 27 70 46 38 57
REMARK Flexibility Score: inf
ROOT
ATOM      1  C   UNL A   1      33.339  29.809  26.149  1.00  0.00     0.116 C 
ENDROOT
BRANCH   1   2
ATOM      2  N   UNL A   1      33.295  29.791  24.703  1.00  0.00    -0.356 N 
ATOM      3  C   UNL A   1      33.416  28.746  23.842  1.00  0.00     0.220 C 
ATOM      4  O   UNL A   1      33.436  28.988  22.634  1.00  0.00    -0.275 OA
ATOM      5  H   UNL A   1      33.158  30.668  24.277  1.00  0.00     0.163 HD
BRANCH   3   6
ATOM      6  C   UNL A   1      33.537  27.316  24.347  1.00  0.00     0.103 C 
BRANCH   6   7
ATOM      7  C   UNL A   1      32.234  26.493  24.464  1.00  0.00     0.004 C 
ATOM      8  C   UNL A   1      31.112  27.048  23.578  1.00  0.00     0.009 C 
BRANCH   7   9
ATOM      9  C   UNL A   1      31.825  26.232  25.930  1.00  0.00     0.103 C 
BRANCH   9  10
ATOM     10  C   UNL A   1      32.005  24.831  26.375  1.00  0.00     0.216 A 
ATOM     11  N   UNL A   1      31.381  24.129  27.293  1.00  0.00    -0.113 NA
ATOM     12  O   UNL A   1      32.977  24.121  25.732  1.00  0.00    -0.425 OA
ATOM     13  N   UNL A   1      31.941  22.865  27.248  1.00  0.00    -0.113 NA
ATOM     14  C   UNL A   1      32.872  22.888  26.312  1.00  0.00     0.220 A 
BRANCH  14  15
ATOM     15  C   UNL A   1      33.670  21.653  25.917  1.00  0.00     0.090 C 
ATOM     16  C   UNL A   1      33.350  20.907  24.611  1.00  0.00    -0.017 C 
ATOM     17  C   UNL A   1      34.692  21.622  24.775  1.00  0.00    -0.017 C 
ATOM     18  C   UNL A   1      33.262  19.397  24.727  1.00  0.00     0.012 C 
ATOM     19  C   UNL A   1      32.352  21.427  23.595  1.00  0.00     0.012 C 
ATOM     20  C   UNL A   1      35.007  22.875  23.988  1.00  0.00     0.012 C 
ATOM     21  C   UNL A   1      35.936  20.774  24.975  1.00  0.00     0.012 C 
ENDBRANCH  14  15
ENDBRANCH   9  10
ENDBRANCH   7   9
ENDBRANCH   6   7
ENDBRANCH   3   6
ENDBRANCH   1   2
BRANCH   1  22
ATOM     22  C   UNL A   1      31.990  30.232  26.730  1.00  0.00     0.023 C 
BRANCH  22  23
ATOM     23  C   UNL A   1      31.722  31.735  26.727  1.00  0.00     0.023 C 
BRANCH  23  24
ATOM     24  C   UNL A   1      32.830  32.595  27.319  1.00  0.00     0.116 C 
BRANCH  24  25
ATOM     25  N   UNL A   1      32.421  33.966  27.594  1.00  0.00    -0.352 N 
ATOM     26  C   UNL A   1      32.948  34.858  28.497  1.00  0.00     0.251 C 
ATOM     27  H   UNL A   1      31.664  34.298  27.060  1.00  0.00     0.163 HD
ATOM     28  O   UNL A   1      32.422  35.954  28.668  1.00  0.00    -0.269 OA
BRANCH  26  29
ATOM     29  C   UNL A   1      34.127  34.470  29.299  1.00  0.00     0.039 A 
ATOM     30  C   UNL A   1      33.927  33.910  30.563  1.00  0.00     0.014 A 
ATOM     31  C   UNL A   1      35.418  34.606  28.781  1.00  0.00     0.014 A 
ATOM     32  C   UNL A   1      35.017  33.400  31.269  1.00  0.00     0.010 A 
ATOM     33  C   UNL A   1      36.490  34.030  29.451  1.00  0.00     0.010 A 
ATOM     34  C   UNL A   1      36.299  33.411  30.695  1.00  0.00    -0.014 A 
BRANCH  34  35
ATOM     35  C   UNL A   1      37.450  32.756  31.364  1.00  0.00     0.031 A 
ATOM     36  C   UNL A   1      38.150  31.601  30.704  1.00  0.00     0.074 A 
ATOM     37  C   UNL A   1      37.806  33.142  32.605  1.00  0.00     0.049 A 
ATOM     38  N   UNL A   1      39.107  30.839  31.167  1.00  0.00    -0.248 NA
ATOM     39  C   UNL A   1      37.688  31.235  29.356  1.00  0.00     0.031 C 
ATOM     40  C   UNL A   1      37.163  34.208  33.376  1.00  0.00     0.029 A 
ATOM     41  N   UNL A   1      38.786  32.672  33.443  1.00  0.00    -0.354 N 
ATOM     42  C   UNL A   1      39.345  29.892  30.181  1.00  0.00     0.074 A 
ATOM     43  C   UNL A   1      38.401  30.145  29.114  1.00  0.00     0.031 C 
ATOM     44  C   UNL A   1      37.777  34.324  34.564  1.00  0.00     0.029 A 
ATOM     45  C   UNL A   1      38.834  33.320  34.653  1.00  0.00     0.049 A 
ATOM     46  H   UNL A   1      39.397  31.939  33.200  1.00  0.00     0.167 HD
ATOM     47  C   UNL A   1      40.282  28.915  30.157  1.00  0.00     0.037 A 
ATOM     48  C   UNL A   1      39.635  33.122  35.717  1.00  0.00     0.037 A 
ATOM     49  C   UNL A   1      41.245  28.692  31.203  1.00  0.00     0.049 A 
ATOM     50  C   UNL A   1      40.683  32.045  35.655  1.00  0.00     0.074 A 
ATOM     51  C   UNL A   1      42.285  27.780  31.238  1.00  0.00     0.029 A 
ATOM     52  N   UNL A   1      41.283  29.391  32.401  1.00  0.00    -0.354 N 
ATOM     53  N   UNL A   1      40.946  31.203  34.686  1.00  0.00    -0.248 NA
ATOM     54  C   UNL A   1      41.546  31.894  36.835  1.00  0.00     0.031 C 
ATOM     55  C   UNL A   1      42.933  27.904  32.472  1.00  0.00     0.029 A 
ATOM     56  C   UNL A   1      42.320  28.918  33.190  1.00  0.00     0.049 A 
ATOM     57  H   UNL A   1      40.666  30.115  32.653  1.00  0.00     0.167 HD
ATOM     58  C   UNL A   1      42.016  30.437  35.128  1.00  0.00     0.074 A 
ATOM     59  C   UNL A   1      42.363  30.925  36.446  1.00  0.00     0.031 C 
ATOM     60  C   UNL A   1      42.652  29.419  34.499  1.00  0.00     0.037 A 
BRANCH  47  61
ATOM     61  C   UNL A   1      40.317  28.019  28.955  1.00  0.00     0.064 A 
ATOM     62  C   UNL A   1      41.081  28.340  27.823  1.00  0.00     0.173 A 
ATOM     63  C   UNL A   1      39.602  26.812  28.944  1.00  0.00     0.173 A 
ATOM     64  F   UNL A   1      41.773  29.490  27.779  1.00  0.00    -0.203 F 
ATOM     65  C   UNL A   1      41.107  27.500  26.713  1.00  0.00     0.198 A 
ATOM     66  C   UNL A   1      39.652  25.961  27.844  1.00  0.00     0.198 A 
ATOM     67  F   UNL A   1      38.858  26.457  30.003  1.00  0.00    -0.203 F 
ATOM     68  F   UNL A   1      41.805  27.852  25.625  1.00  0.00    -0.200 F 
ATOM     69  C   UNL A   1      40.397  26.308  26.727  1.00  0.00     0.200 A 
ATOM     70  F   UNL A   1      38.973  24.805  27.862  1.00  0.00    -0.200 F 
ATOM     71  F   UNL A   1      40.425  25.499  25.659  1.00  0.00    -0.200 F 
ENDBRANCH  47  61
BRANCH  48  72
ATOM     72  C   UNL A   1      39.496  33.983  36.919  1.00  0.00     0.064 A 
ATOM     73  C   UNL A   1      38.723  33.567  38.012  1.00  0.00     0.173 A 
ATOM     74  C   UNL A   1      40.131  35.230  37.004  1.00  0.00     0.173 A 
ATOM     75  F   UNL A   1      38.080  32.390  37.967  1.00  0.00    -0.203 F 
ATOM     76  C   UNL A   1      38.576  34.373  39.138  1.00  0.00     0.198 A 
ATOM     77  C   UNL A   1      40.003  36.025  38.141  1.00  0.00     0.198 A 
ATOM     78  F   UNL A   1      40.887  35.669  35.987  1.00  0.00    -0.203 F 
ATOM     79  F   UNL A   1      37.800  33.969  40.152  1.00  0.00    -0.200 F 
ATOM     80  C   UNL A   1      39.221  35.600  39.204  1.00  0.00     0.200 A 
ATOM     81  F   UNL A   1      40.638  37.203  38.207  1.00  0.00    -0.200 F 
ATOM     82  F   UNL A   1      39.083  36.373  40.289  1.00  0.00    -0.200 F 
ENDBRANCH  48  72
BRANCH  60  83
ATOM     83  C   UNL A   1      43.799  28.778  35.221  1.00  0.00     0.064 A 
ATOM     84  C   UNL A   1      45.116  29.227  35.046  1.00  0.00     0.173 A 
ATOM     85  C   UNL A   1      43.574  27.730  36.126  1.00  0.00     0.173 A 
ATOM     86  F   UNL A   1      45.382  30.215  34.178  1.00  0.00    -0.203 F 
ATOM     87  C   UNL A   1      46.170  28.636  35.737  1.00  0.00     0.198 A 
ATOM     88  C   UNL A   1      44.626  27.159  36.834  1.00  0.00     0.198 A 
ATOM     89  F   UNL A   1      42.330  27.269  36.331  1.00  0.00    -0.203 F 
ATOM     90  F   UNL A   1      47.425  29.053  35.524  1.00  0.00    -0.200 F 
ATOM     91  C   UNL A   1      45.924  27.608  36.635  1.00  0.00     0.200 A 
ATOM     92  F   UNL A   1      44.386  26.172  37.709  1.00  0.00    -0.200 F 
ATOM     93  F   UNL A   1      46.939  27.044  37.304  1.00  0.00    -0.200 F 
ENDBRANCH  60  83
ENDBRANCH  34  35
ENDBRANCH  26  29
ENDBRANCH  24  25
ENDBRANCH  23  24
ENDBRANCH  22  23
ENDBRANCH   1  22
TORSDOF 15
ENDMDL
