MODEL 1
REMARK VINA RESULT:     -12.5      0.000      0.000
REMARK SMILES Cc1cc(C)c(C(=O)N[C@H](C(=O)NCCCCNC(=O)c2ccc(-c3c4nc(c(-c5c(F)c(F)c(F)c(F)c5F)c5ccc([nH]5)c(-c5c(F)c(F)c(F)c(F)c5F)c5nc(c(-c6c(F)c(F)c(F)c(F)c6F)c6ccc3[nH]6)C=C5)C=C4)cc2)C(C)C)c(=O)[nH]1
REMARK SMILES IDX 15 1 14 2 13 3 11 4 12 5 10 7 9 8 7 9 8 10 6 12 1 13 2 14
REMARK SMILES IDX 3 15 89 16 4 17 87 18 5 20 88 21 84 22 85 23 86 24 16 25
REMARK SMILES IDX 17 26 18 27 19 28 20 30 21 31 22 32 83 33 23 34 82 35 24 36
REMARK SMILES IDX 25 37 26 38 76 39 27 40 81 41 75 42 77 43 28 44 80 45 74 46
REMARK SMILES IDX 73 47 29 49 61 50 41 51 60 52 42 53 45 54 59 55 78 56 43 57
REMARK SMILES IDX 44 58 58 60 79 61 46 62 30 63 31 64 39 65 32 66 33 67 37 68
REMARK SMILES IDX 40 69 34 70 35 71 38 72 36 73 62 74 63 75 71 76 64 77 65 78
REMARK SMILES IDX 69 79 72 80 66 81 67 82 70 83 68 84 47 85 48 86 56 87 49 88
REMARK SMILES IDX 50 89 54 90 57 91 51 92 52 93 55 94 53 95
REMARK H PARENT 13 6 9 11 89 19 18 29 77 48 45 59
REMARK Flexibility Score: inf
ROOT
ATOM      1  C   UNL A   1      31.755  30.474  25.815  1.00  0.00     0.023 C 
ENDROOT
BRANCH   1   2
ATOM      2  C   UNL A   1      31.788  29.143  26.561  1.00  0.00     0.116 C 
BRANCH   2   3
ATOM      3  N   UNL A   1      33.020  28.397  26.412  1.00  0.00    -0.354 N 
ATOM      4  C   UNL A   1      33.241  27.141  25.898  1.00  0.00     0.242 C 
ATOM      5  O   UNL A   1      34.423  26.780  25.884  1.00  0.00    -0.273 OA
ATOM      6  H   UNL A   1      33.828  28.862  26.729  1.00  0.00     0.163 HD
BRANCH   4   7
ATOM      7  C   UNL A   1      32.066  26.140  25.576  1.00  0.00     0.174 C 
BRANCH   7   8
ATOM      8  N   UNL A   1      31.864  25.752  24.171  1.00  0.00    -0.340 N 
ATOM      9  C   UNL A   1      31.406  26.306  23.027  1.00  0.00     0.257 C 
ATOM     10  O   UNL A   1      31.565  25.554  22.056  1.00  0.00    -0.269 OA
ATOM     11  H   UNL A   1      32.143  24.820  24.021  1.00  0.00     0.164 HD
BRANCH   9  12
ATOM     12  C   UNL A   1      30.785  27.664  22.847  1.00  0.00     0.107 A 
ATOM     13  C   UNL A   1      28.762  31.260  21.484  1.00  0.00     0.064 C 
ATOM     14  C   UNL A   1      29.411  30.034  22.038  1.00  0.00     0.015 A 
ATOM     15  C   UNL A   1      28.754  29.032  22.633  1.00  0.00     0.025 A 
ATOM     16  N   UNL A   1      30.771  29.955  21.958  1.00  0.00    -0.326 N 
ATOM     17  C   UNL A   1      29.451  27.827  23.080  1.00  0.00    -0.031 A 
ATOM     18  C   UNL A   1      31.513  28.906  22.434  1.00  0.00     0.261 A 
ATOM     19  H   UNL A   1      31.251  30.701  21.530  1.00  0.00     0.169 HD
ATOM     20  C   UNL A   1      28.526  26.845  23.759  1.00  0.00     0.045 C 
ATOM     21  O   UNL A   1      32.721  29.062  22.546  1.00  0.00    -0.269 OA
ENDBRANCH   9  12
ENDBRANCH   7   8
BRANCH   7  22
ATOM     22  C   UNL A   1      31.789  24.923  26.518  1.00  0.00     0.015 C 
ATOM     23  C   UNL A   1      30.446  24.223  26.322  1.00  0.00     0.010 C 
ATOM     24  C   UNL A   1      32.910  23.873  26.389  1.00  0.00     0.010 C 
ENDBRANCH   7  22
ENDBRANCH   4   7
ENDBRANCH   2   3
ENDBRANCH   1   2
BRANCH   1  25
ATOM     25  C   UNL A   1      31.469  31.716  26.658  1.00  0.00     0.023 C 
BRANCH  25  26
ATOM     26  C   UNL A   1      32.689  32.467  27.191  1.00  0.00     0.116 C 
BRANCH  26  27
ATOM     27  N   UNL A   1      32.410  33.848  27.560  1.00  0.00    -0.352 N 
ATOM     28  C   UNL A   1      33.007  34.676  28.482  1.00  0.00     0.251 C 
ATOM     29  H   UNL A   1      31.666  34.261  27.064  1.00  0.00     0.163 HD
ATOM     30  O   UNL A   1      32.534  35.789  28.699  1.00  0.00    -0.269 OA
BRANCH  28  31
ATOM     31  C   UNL A   1      34.193  34.234  29.248  1.00  0.00     0.039 A 
ATOM     32  C   UNL A   1      34.001  33.619  30.489  1.00  0.00     0.014 A 
ATOM     33  C   UNL A   1      35.488  34.438  28.769  1.00  0.00     0.014 A 
ATOM     34  C   UNL A   1      35.097  33.122  31.201  1.00  0.00     0.010 A 
ATOM     35  C   UNL A   1      36.574  33.880  29.441  1.00  0.00     0.010 A 
ATOM     36  C   UNL A   1      36.390  33.207  30.660  1.00  0.00    -0.014 A 
BRANCH  36  37
ATOM     37  C   UNL A   1      37.557  32.587  31.340  1.00  0.00     0.031 A 
ATOM     38  C   UNL A   1      38.295  31.450  30.691  1.00  0.00     0.074 A 
ATOM     39  C   UNL A   1      37.904  32.994  32.576  1.00  0.00     0.049 A 
ATOM     40  N   UNL A   1      39.266  30.714  31.169  1.00  0.00    -0.248 NA
ATOM     41  C   UNL A   1      37.869  31.073  29.333  1.00  0.00     0.031 C 
ATOM     42  C   UNL A   1      37.238  34.054  33.335  1.00  0.00     0.029 A 
ATOM     43  N   UNL A   1      38.894  32.555  33.421  1.00  0.00    -0.354 N 
ATOM     44  C   UNL A   1      39.550  29.776  30.185  1.00  0.00     0.074 A 
ATOM     45  C   UNL A   1      38.625  30.009  29.097  1.00  0.00     0.031 C 
ATOM     46  C   UNL A   1      37.847  34.195  34.523  1.00  0.00     0.029 A 
ATOM     47  C   UNL A   1      38.923  33.213  34.626  1.00  0.00     0.049 A 
ATOM     48  H   UNL A   1      39.525  31.837  33.185  1.00  0.00     0.167 HD
ATOM     49  C   UNL A   1      40.512  28.823  30.181  1.00  0.00     0.037 A 
ATOM     50  C   UNL A   1      39.720  33.039  35.699  1.00  0.00     0.037 A 
ATOM     51  C   UNL A   1      41.462  28.621  31.241  1.00  0.00     0.049 A 
ATOM     52  C   UNL A   1      40.790  31.982  35.661  1.00  0.00     0.074 A 
ATOM     53  C   UNL A   1      42.519  27.729  31.292  1.00  0.00     0.029 A 
ATOM     54  N   UNL A   1      41.474  29.324  32.436  1.00  0.00    -0.354 N 
ATOM     55  N   UNL A   1      41.085  31.141  34.700  1.00  0.00    -0.248 NA
ATOM     56  C   UNL A   1      41.639  31.850  36.854  1.00  0.00     0.031 C 
ATOM     57  C   UNL A   1      43.151  27.869  32.531  1.00  0.00     0.029 A 
ATOM     58  C   UNL A   1      42.510  28.874  33.237  1.00  0.00     0.049 A 
ATOM     59  H   UNL A   1      40.840  30.038  32.679  1.00  0.00     0.167 HD
ATOM     60  C   UNL A   1      42.159  30.393  35.163  1.00  0.00     0.074 A 
ATOM     61  C   UNL A   1      42.477  30.891  36.484  1.00  0.00     0.031 C 
ATOM     62  C   UNL A   1      42.817  29.382  34.548  1.00  0.00     0.037 A 
BRANCH  49  63
ATOM     63  C   UNL A   1      40.605  27.929  28.980  1.00  0.00     0.064 A 
ATOM     64  C   UNL A   1      39.831  26.765  28.876  1.00  0.00     0.173 A 
ATOM     65  C   UNL A   1      41.420  28.279  27.893  1.00  0.00     0.173 A 
ATOM     66  F   UNL A   1      39.043  26.384  29.893  1.00  0.00    -0.203 F 
ATOM     67  C   UNL A   1      39.879  25.974  27.730  1.00  0.00     0.198 A 
ATOM     68  C   UNL A   1      41.447  27.499  26.740  1.00  0.00     0.198 A 
ATOM     69  F   UNL A   1      42.175  29.386  27.943  1.00  0.00    -0.203 F 
ATOM     70  F   UNL A   1      39.153  24.850  27.664  1.00  0.00    -0.200 F 
ATOM     71  C   UNL A   1      40.680  26.347  26.661  1.00  0.00     0.200 A 
ATOM     72  F   UNL A   1      42.212  27.866  25.703  1.00  0.00    -0.200 F 
ATOM     73  F   UNL A   1      40.713  25.592  25.554  1.00  0.00    -0.200 F 
ENDBRANCH  49  63
BRANCH  50  74
ATOM     74  C   UNL A   1      39.550  33.904  36.896  1.00  0.00     0.064 A 
ATOM     75  C   UNL A   1      38.780  33.475  37.985  1.00  0.00     0.173 A 
ATOM     76  C   UNL A   1      40.151  35.167  36.976  1.00  0.00     0.173 A 
ATOM     77  F   UNL A   1      38.167  32.283  37.943  1.00  0.00    -0.203 F 
ATOM     78  C   UNL A   1      38.606  34.284  39.107  1.00  0.00     0.198 A 
ATOM     79  C   UNL A   1      39.996  35.966  38.108  1.00  0.00     0.198 A 
ATOM     80  F   UNL A   1      40.899  35.622  35.960  1.00  0.00    -0.203 F 
ATOM     81  F   UNL A   1      37.834  33.866  40.118  1.00  0.00    -0.200 F 
ATOM     82  C   UNL A   1      39.220  35.526  39.169  1.00  0.00     0.200 A 
ATOM     83  F   UNL A   1      40.599  37.161  38.170  1.00  0.00    -0.200 F 
ATOM     84  F   UNL A   1      39.057  36.302  40.250  1.00  0.00    -0.200 F 
ENDBRANCH  50  74
BRANCH  62  85
ATOM     85  C   UNL A   1      43.958  28.748  35.286  1.00  0.00     0.064 A 
ATOM     86  C   UNL A   1      45.270  29.223  35.147  1.00  0.00     0.173 A 
ATOM     87  C   UNL A   1      43.726  27.707  36.198  1.00  0.00     0.173 A 
ATOM     88  F   UNL A   1      45.542  30.207  34.278  1.00  0.00    -0.203 F 
ATOM     89  C   UNL A   1      46.311  28.671  35.888  1.00  0.00     0.198 A 
ATOM     90  C   UNL A   1      44.765  27.175  36.956  1.00  0.00     0.198 A 
ATOM     91  F   UNL A   1      42.486  27.224  36.371  1.00  0.00    -0.203 F 
ATOM     92  F   UNL A   1      47.561  29.121  35.720  1.00  0.00    -0.200 F 
ATOM     93  C   UNL A   1      46.056  27.655  36.798  1.00  0.00     0.200 A 
ATOM     94  F   UNL A   1      44.516  26.203  37.843  1.00  0.00    -0.200 F 
ATOM     95  F   UNL A   1      47.058  27.137  37.523  1.00  0.00    -0.200 F 
ENDBRANCH  62  85
ENDBRANCH  36  37
ENDBRANCH  28  31
ENDBRANCH  26  27
ENDBRANCH  25  26
ENDBRANCH   1  25
TORSDOF 14
ENDMDL
MODEL 2
REMARK VINA RESULT:     -12.4      5.721     11.124
REMARK SMILES Cc1cc(C)c(C(=O)N[C@H](C(=O)NCCCCNC(=O)c2ccc(-c3c4nc(c(-c5c(F)c(F)c(F)c(F)c5F)c5ccc([nH]5)c(-c5c(F)c(F)c(F)c(F)c5F)c5nc(c(-c6c(F)c(F)c(F)c(F)c6F)c6ccc3[nH]6)C=C5)C=C4)cc2)C(C)C)c(=O)[nH]1
REMARK SMILES IDX 15 1 14 2 13 3 11 4 12 5 10 7 9 8 7 9 8 10 6 12 1 13 2 14
REMARK SMILES IDX 3 15 89 16 4 17 87 18 5 20 88 21 84 22 85 23 86 24 16 25
REMARK SMILES IDX 17 26 18 27 19 28 20 30 21 31 22 32 83 33 23 34 82 35 24 36
REMARK SMILES IDX 25 37 26 38 76 39 27 40 81 41 75 42 77 43 28 44 80 45 74 46
REMARK SMILES IDX 73 47 29 49 61 50 41 51 60 52 42 53 45 54 59 55 78 56 43 57
REMARK SMILES IDX 44 58 58 60 79 61 46 62 30 63 31 64 39 65 32 66 33 67 37 68
REMARK SMILES IDX 40 69 34 70 35 71 38 72 36 73 62 74 63 75 71 76 64 77 65 78
REMARK SMILES IDX 69 79 72 80 66 81 67 82 70 83 68 84 47 85 48 86 56 87 49 88
REMARK SMILES IDX 50 89 54 90 57 91 51 92 52 93 55 94 53 95
REMARK H PARENT 13 6 9 11 89 19 18 29 77 48 45 59
REMARK Flexibility Score: inf
ROOT
ATOM      1  C   UNL A   1      36.788  20.735  24.989  1.00  0.00     0.023 C 
ENDROOT
BRANCH   1   2
ATOM      2  C   UNL A   1      35.395  20.111  25.001  1.00  0.00     0.116 C 
BRANCH   2   3
ATOM      3  N   UNL A   1      34.463  20.731  25.919  1.00  0.00    -0.354 N 
ATOM      4  C   UNL A   1      33.520  21.707  25.702  1.00  0.00     0.242 C 
ATOM      5  O   UNL A   1      32.850  22.019  26.693  1.00  0.00    -0.273 OA
ATOM      6  H   UNL A   1      34.513  20.402  26.846  1.00  0.00     0.163 HD
BRANCH   4   7
ATOM      7  C   UNL A   1      33.455  22.539  24.364  1.00  0.00     0.174 C 
BRANCH   7   8
ATOM      8  N   UNL A   1      32.126  22.869  23.829  1.00  0.00    -0.340 N 
ATOM      9  C   UNL A   1      31.237  23.885  23.888  1.00  0.00     0.257 C 
ATOM     10  O   UNL A   1      30.278  23.703  23.125  1.00  0.00    -0.269 OA
ATOM     11  H   UNL A   1      31.784  22.138  23.263  1.00  0.00     0.164 HD
BRANCH   9  12
ATOM     12  C   UNL A   1      31.320  25.131  24.725  1.00  0.00     0.107 A 
ATOM     13  C   UNL A   1      32.423  28.432  27.328  1.00  0.00     0.064 C 
ATOM     14  C   UNL A   1      32.005  27.363  26.372  1.00  0.00     0.015 A 
ATOM     15  C   UNL A   1      32.260  27.378  25.059  1.00  0.00     0.025 A 
ATOM     16  N   UNL A   1      31.283  26.320  26.876  1.00  0.00    -0.326 N 
ATOM     17  C   UNL A   1      31.886  26.255  24.200  1.00  0.00    -0.031 A 
ATOM     18  C   UNL A   1      30.813  25.273  26.128  1.00  0.00     0.261 A 
ATOM     19  H   UNL A   1      31.087  26.320  27.841  1.00  0.00     0.169 HD
ATOM     20  C   UNL A   1      32.231  26.499  22.750  1.00  0.00     0.045 C 
ATOM     21  O   UNL A   1      29.967  24.546  26.628  1.00  0.00    -0.269 OA
ENDBRANCH   9  12
ENDBRANCH   7   8
BRANCH   7  22
ATOM     22  C   UNL A   1      34.444  23.728  24.129  1.00  0.00     0.015 C 
ATOM     23  C   UNL A   1      35.113  24.293  25.380  1.00  0.00     0.010 C 
ATOM     24  C   UNL A   1      35.542  23.327  23.126  1.00  0.00     0.010 C 
ENDBRANCH   7  22
ENDBRANCH   4   7
ENDBRANCH   2   3
ENDBRANCH   1   2
BRANCH   1  25
ATOM     25  C   UNL A   1      37.967  19.763  25.001  1.00  0.00     0.023 C 
BRANCH  25  26
ATOM     26  C   UNL A   1      39.205  20.213  25.775  1.00  0.00     0.116 C 
BRANCH  26  27
ATOM     27  N   UNL A   1      40.234  19.187  25.878  1.00  0.00    -0.352 N 
ATOM     28  C   UNL A   1      41.584  19.281  26.126  1.00  0.00     0.251 C 
ATOM     29  H   UNL A   1      39.908  18.266  25.750  1.00  0.00     0.163 HD
ATOM     30  O   UNL A   1      42.286  18.275  26.068  1.00  0.00    -0.269 OA
BRANCH  28  31
ATOM     31  C   UNL A   1      42.214  20.586  26.426  1.00  0.00     0.039 A 
ATOM     32  C   UNL A   1      42.709  21.352  25.365  1.00  0.00     0.014 A 
ATOM     33  C   UNL A   1      42.343  21.050  27.736  1.00  0.00     0.014 A 
ATOM     34  C   UNL A   1      43.241  22.622  25.610  1.00  0.00     0.010 A 
ATOM     35  C   UNL A   1      42.805  22.344  27.973  1.00  0.00     0.010 A 
ATOM     36  C   UNL A   1      43.251  23.148  26.911  1.00  0.00    -0.014 A 
BRANCH  36  37
ATOM     37  C   UNL A   1      43.703  24.537  27.183  1.00  0.00     0.031 A 
ATOM     38  C   UNL A   1      42.731  25.566  27.689  1.00  0.00     0.074 A 
ATOM     39  C   UNL A   1      44.971  24.893  26.900  1.00  0.00     0.049 A 
ATOM     40  N   UNL A   1      42.909  26.848  27.884  1.00  0.00    -0.248 NA
ATOM     41  C   UNL A   1      41.368  25.097  27.991  1.00  0.00     0.031 C 
ATOM     42  C   UNL A   1      46.000  24.003  26.360  1.00  0.00     0.029 A 
ATOM     43  N   UNL A   1      45.609  26.105  27.013  1.00  0.00    -0.354 N 
ATOM     44  C   UNL A   1      41.682  27.340  28.308  1.00  0.00     0.074 A 
ATOM     45  C   UNL A   1      40.755  26.229  28.306  1.00  0.00     0.031 C 
ATOM     46  C   UNL A   1      47.142  24.692  26.205  1.00  0.00     0.029 A 
ATOM     47  C   UNL A   1      46.919  26.079  26.600  1.00  0.00     0.049 A 
ATOM     48  H   UNL A   1      45.170  26.915  27.358  1.00  0.00     0.167 HD
ATOM     49  C   UNL A   1      41.365  28.601  28.688  1.00  0.00     0.037 A 
ATOM     50  C   UNL A   1      47.836  27.066  26.536  1.00  0.00     0.037 A 
ATOM     51  C   UNL A   1      42.297  29.695  28.735  1.00  0.00     0.049 A 
ATOM     52  C   UNL A   1      47.459  28.453  26.978  1.00  0.00     0.074 A 
ATOM     53  C   UNL A   1      42.084  30.989  29.178  1.00  0.00     0.029 A 
ATOM     54  N   UNL A   1      43.622  29.623  28.331  1.00  0.00    -0.354 N 
ATOM     55  N   UNL A   1      46.311  28.892  27.431  1.00  0.00    -0.248 NA
ATOM     56  C   UNL A   1      48.506  29.483  26.901  1.00  0.00     0.031 C 
ATOM     57  C   UNL A   1      43.270  31.709  29.010  1.00  0.00     0.029 A 
ATOM     58  C   UNL A   1      44.233  30.854  28.499  1.00  0.00     0.049 A 
ATOM     59  H   UNL A   1      44.062  28.816  27.978  1.00  0.00     0.167 HD
ATOM     60  C   UNL A   1      46.499  30.239  27.709  1.00  0.00     0.074 A 
ATOM     61  C   UNL A   1      47.878  30.544  27.390  1.00  0.00     0.031 C 
ATOM     62  C   UNL A   1      45.606  31.142  28.181  1.00  0.00     0.037 A 
BRANCH  49  63
ATOM     63  C   UNL A   1      39.950  28.870  29.105  1.00  0.00     0.064 A 
ATOM     64  C   UNL A   1      38.971  29.235  28.170  1.00  0.00     0.173 A 
ATOM     65  C   UNL A   1      39.554  28.689  30.439  1.00  0.00     0.173 A 
ATOM     66  F   UNL A   1      39.303  29.429  26.885  1.00  0.00    -0.203 F 
ATOM     67  C   UNL A   1      37.647  29.423  28.558  1.00  0.00     0.198 A 
ATOM     68  C   UNL A   1      38.224  28.854  30.818  1.00  0.00     0.198 A 
ATOM     69  F   UNL A   1      40.453  28.334  31.368  1.00  0.00    -0.203 F 
ATOM     70  F   UNL A   1      36.733  29.801  27.654  1.00  0.00    -0.200 F 
ATOM     71  C   UNL A   1      37.274  29.224  29.879  1.00  0.00     0.200 A 
ATOM     72  F   UNL A   1      37.863  28.650  32.092  1.00  0.00    -0.200 F 
ATOM     73  F   UNL A   1      35.995  29.391  30.247  1.00  0.00    -0.200 F 
ENDBRANCH  49  63
BRANCH  50  74
ATOM     74  C   UNL A   1      49.209  26.769  26.053  1.00  0.00     0.064 A 
ATOM     75  C   UNL A   1      49.560  26.989  24.714  1.00  0.00     0.173 A 
ATOM     76  C   UNL A   1      50.194  26.264  26.913  1.00  0.00     0.173 A 
ATOM     77  F   UNL A   1      48.644  27.448  23.849  1.00  0.00    -0.203 F 
ATOM     78  C   UNL A   1      50.843  26.703  24.250  1.00  0.00     0.198 A 
ATOM     79  C   UNL A   1      51.484  26.001  26.454  1.00  0.00     0.198 A 
ATOM     80  F   UNL A   1      49.908  26.039  28.204  1.00  0.00    -0.203 F 
ATOM     81  F   UNL A   1      51.142  26.886  22.957  1.00  0.00    -0.200 F 
ATOM     82  C   UNL A   1      51.805  26.215  25.122  1.00  0.00     0.200 A 
ATOM     83  F   UNL A   1      52.413  25.542  27.301  1.00  0.00    -0.200 F 
ATOM     84  F   UNL A   1      53.040  25.945  24.677  1.00  0.00    -0.200 F 
ENDBRANCH  50  74
BRANCH  62  85
ATOM     85  C   UNL A   1      46.087  32.545  28.395  1.00  0.00     0.064 A 
ATOM     86  C   UNL A   1      45.967  33.518  27.393  1.00  0.00     0.173 A 
ATOM     87  C   UNL A   1      46.602  32.939  29.640  1.00  0.00     0.173 A 
ATOM     88  F   UNL A   1      45.493  33.185  26.184  1.00  0.00    -0.203 F 
ATOM     89  C   UNL A   1      46.355  34.835  27.626  1.00  0.00     0.198 A 
ATOM     90  C   UNL A   1      46.966  34.262  29.877  1.00  0.00     0.198 A 
ATOM     91  F   UNL A   1      46.730  32.046  30.632  1.00  0.00    -0.203 F 
ATOM     92  F   UNL A   1      46.257  35.743  26.646  1.00  0.00    -0.200 F 
ATOM     93  C   UNL A   1      46.844  35.207  28.870  1.00  0.00     0.200 A 
ATOM     94  F   UNL A   1      47.426  34.623  31.082  1.00  0.00    -0.200 F 
ATOM     95  F   UNL A   1      47.202  36.479  29.097  1.00  0.00    -0.200 F 
ENDBRANCH  62  85
ENDBRANCH  36  37
ENDBRANCH  28  31
ENDBRANCH  26  27
ENDBRANCH  25  26
ENDBRANCH   1  25
TORSDOF 14
ENDMDL
MODEL 3
REMARK VINA RESULT:     -12.3      5.716     11.033
REMARK SMILES Cc1cc(C)c(C(=O)N[C@H](C(=O)NCCCCNC(=O)c2ccc(-c3c4nc(c(-c5c(F)c(F)c(F)c(F)c5F)c5ccc([nH]5)c(-c5c(F)c(F)c(F)c(F)c5F)c5nc(c(-c6c(F)c(F)c(F)c(F)c6F)c6ccc3[nH]6)C=C5)C=C4)cc2)C(C)C)c(=O)[nH]1
REMARK SMILES IDX 15 1 14 2 13 3 11 4 12 5 10 7 9 8 7 9 8 10 6 12 1 13 2 14
REMARK SMILES IDX 3 15 89 16 4 17 87 18 5 20 88 21 84 22 85 23 86 24 16 25
REMARK SMILES IDX 17 26 18 27 19 28 20 30 21 31 22 32 83 33 23 34 82 35 24 36
REMARK SMILES IDX 25 37 26 38 76 39 27 40 81 41 75 42 77 43 28 44 80 45 74 46
REMARK SMILES IDX 73 47 29 49 61 50 41 51 60 52 42 53 45 54 59 55 78 56 43 57
REMARK SMILES IDX 44 58 58 60 79 61 46 62 30 63 31 64 39 65 32 66 33 67 37 68
REMARK SMILES IDX 40 69 34 70 35 71 38 72 36 73 62 74 63 75 71 76 64 77 65 78
REMARK SMILES IDX 69 79 72 80 66 81 67 82 70 83 68 84 47 85 48 86 56 87 49 88
REMARK SMILES IDX 50 89 54 90 57 91 51 92 52 93 55 94 53 95
REMARK H PARENT 13 6 9 11 89 19 18 29 77 48 45 59
REMARK Flexibility Score: inf
ROOT
ATOM      1  C   UNL A   1      36.963  20.639  24.615  1.00  0.00     0.023 C 
ENDROOT
BRANCH   1   2
ATOM      2  C   UNL A   1      36.702  21.747  25.631  1.00  0.00     0.116 C 
BRANCH   2   3
ATOM      3  N   UNL A   1      35.653  21.456  26.585  1.00  0.00    -0.354 N 
ATOM      4  C   UNL A   1      34.305  21.718  26.530  1.00  0.00     0.242 C 
ATOM      5  O   UNL A   1      33.653  21.324  27.503  1.00  0.00    -0.273 OA
ATOM      6  H   UNL A   1      35.952  20.999  27.405  1.00  0.00     0.163 HD
BRANCH   4   7
ATOM      7  C   UNL A   1      33.670  22.659  25.435  1.00  0.00     0.174 C 
BRANCH   7   8
ATOM      8  N   UNL A   1      33.956  24.099  25.523  1.00  0.00    -0.340 N 
ATOM      9  C   UNL A   1      33.298  25.270  25.379  1.00  0.00     0.257 C 
ATOM     10  O   UNL A   1      34.006  26.237  25.691  1.00  0.00    -0.269 OA
ATOM     11  H   UNL A   1      34.901  24.255  25.754  1.00  0.00     0.164 HD
BRANCH   9  12
ATOM     12  C   UNL A   1      31.880  25.477  24.923  1.00  0.00     0.107 A 
ATOM     13  C   UNL A   1      27.930  26.957  23.878  1.00  0.00     0.064 C 
ATOM     14  C   UNL A   1      29.289  26.401  24.152  1.00  0.00     0.015 A 
ATOM     15  C   UNL A   1      30.318  26.462  23.300  1.00  0.00     0.025 A 
ATOM     16  N   UNL A   1      29.474  25.758  25.341  1.00  0.00    -0.326 N 
ATOM     17  C   UNL A   1      31.642  25.964  23.671  1.00  0.00    -0.031 A 
ATOM     18  C   UNL A   1      30.654  25.181  25.732  1.00  0.00     0.261 A 
ATOM     19  H   UNL A   1      28.710  25.705  25.960  1.00  0.00     0.169 HD
ATOM     20  C   UNL A   1      32.643  26.095  22.548  1.00  0.00     0.045 C 
ATOM     21  O   UNL A   1      30.630  24.415  26.684  1.00  0.00    -0.269 OA
ENDBRANCH   9  12
ENDBRANCH   7   8
BRANCH   7  22
ATOM     22  C   UNL A   1      33.624  22.206  23.939  1.00  0.00     0.015 C 
ATOM     23  C   UNL A   1      32.245  22.221  23.283  1.00  0.00     0.010 C 
ATOM     24  C   UNL A   1      34.581  23.061  23.086  1.00  0.00     0.010 C 
ENDBRANCH   7  22
ENDBRANCH   4   7
ENDBRANCH   2   3
ENDBRANCH   1   2
BRANCH   1  25
ATOM     25  C   UNL A   1      37.966  19.562  25.028  1.00  0.00     0.023 C 
BRANCH  25  26
ATOM     26  C   UNL A   1      39.220  20.050  25.752  1.00  0.00     0.116 C 
BRANCH  26  27
ATOM     27  N   UNL A   1      40.266  19.040  25.854  1.00  0.00    -0.352 N 
ATOM     28  C   UNL A   1      41.612  19.155  26.111  1.00  0.00     0.251 C 
ATOM     29  H   UNL A   1      39.956  18.115  25.715  1.00  0.00     0.163 HD
ATOM     30  O   UNL A   1      42.332  18.162  26.049  1.00  0.00    -0.269 OA
BRANCH  28  31
ATOM     31  C   UNL A   1      42.218  20.468  26.427  1.00  0.00     0.039 A 
ATOM     32  C   UNL A   1      42.742  21.235  25.381  1.00  0.00     0.014 A 
ATOM     33  C   UNL A   1      42.296  20.939  27.738  1.00  0.00     0.014 A 
ATOM     34  C   UNL A   1      43.253  22.511  25.638  1.00  0.00     0.010 A 
ATOM     35  C   UNL A   1      42.736  22.238  27.985  1.00  0.00     0.010 A 
ATOM     36  C   UNL A   1      43.211  23.042  26.936  1.00  0.00    -0.014 A 
BRANCH  36  37
ATOM     37  C   UNL A   1      43.639  24.438  27.217  1.00  0.00     0.031 A 
ATOM     38  C   UNL A   1      42.645  25.451  27.711  1.00  0.00     0.074 A 
ATOM     39  C   UNL A   1      44.906  24.813  26.953  1.00  0.00     0.049 A 
ATOM     40  N   UNL A   1      42.802  26.735  27.912  1.00  0.00    -0.248 NA
ATOM     41  C   UNL A   1      41.285  24.962  27.992  1.00  0.00     0.031 C 
ATOM     42  C   UNL A   1      45.954  23.939  26.426  1.00  0.00     0.029 A 
ATOM     43  N   UNL A   1      45.524  26.034  27.078  1.00  0.00    -0.354 N 
ATOM     44  C   UNL A   1      41.562  27.208  28.319  1.00  0.00     0.074 A 
ATOM     45  C   UNL A   1      40.651  26.084  28.301  1.00  0.00     0.031 C 
ATOM     46  C   UNL A   1      47.089  24.644  26.288  1.00  0.00     0.029 A 
ATOM     47  C   UNL A   1      46.840  26.028  26.683  1.00  0.00     0.049 A 
ATOM     48  H   UNL A   1      45.069  26.836  27.418  1.00  0.00     0.167 HD
ATOM     49  C   UNL A   1      41.221  28.464  28.696  1.00  0.00     0.037 A 
ATOM     50  C   UNL A   1      47.743  27.027  26.634  1.00  0.00     0.037 A 
ATOM     51  C   UNL A   1      42.136  29.571  28.759  1.00  0.00     0.049 A 
ATOM     52  C   UNL A   1      47.340  28.408  27.073  1.00  0.00     0.074 A 
ATOM     53  C   UNL A   1      41.897  30.861  29.201  1.00  0.00     0.029 A 
ATOM     54  N   UNL A   1      43.467  29.519  28.374  1.00  0.00    -0.354 N 
ATOM     55  N   UNL A   1      46.180  28.830  27.511  1.00  0.00    -0.248 NA
ATOM     56  C   UNL A   1      48.373  29.453  27.014  1.00  0.00     0.031 C 
ATOM     57  C   UNL A   1      43.075  31.599  29.052  1.00  0.00     0.029 A 
ATOM     58  C   UNL A   1      44.058  30.759  28.553  1.00  0.00     0.049 A 
ATOM     59  H   UNL A   1      43.925  28.719  28.026  1.00  0.00     0.167 HD
ATOM     60  C   UNL A   1      46.344  30.178  27.794  1.00  0.00     0.074 A 
ATOM     61  C   UNL A   1      47.723  30.504  27.495  1.00  0.00     0.031 C 
ATOM     62  C   UNL A   1      45.431  31.067  28.255  1.00  0.00     0.037 A 
BRANCH  49  63
ATOM     63  C   UNL A   1      39.796  28.711  29.094  1.00  0.00     0.064 A 
ATOM     64  C   UNL A   1      39.373  28.559  30.422  1.00  0.00     0.173 A 
ATOM     65  C   UNL A   1      38.865  29.176  28.154  1.00  0.00     0.173 A 
ATOM     66  F   UNL A   1      40.224  28.108  31.355  1.00  0.00    -0.203 F 
ATOM     67  C   UNL A   1      38.062  28.850  30.792  1.00  0.00     0.198 A 
ATOM     68  C   UNL A   1      37.562  29.489  28.533  1.00  0.00     0.198 A 
ATOM     69  F   UNL A   1      39.224  29.344  26.873  1.00  0.00    -0.203 F 
ATOM     70  F   UNL A   1      37.671  28.668  32.061  1.00  0.00    -0.200 F 
ATOM     71  C   UNL A   1      37.161  29.323  29.850  1.00  0.00     0.200 A 
ATOM     72  F   UNL A   1      36.696  29.957  27.623  1.00  0.00    -0.200 F 
ATOM     73  F   UNL A   1      35.905  29.617  30.212  1.00  0.00    -0.200 F 
ENDBRANCH  49  63
BRANCH  50  74
ATOM     74  C   UNL A   1      49.127  26.751  26.170  1.00  0.00     0.064 A 
ATOM     75  C   UNL A   1      50.098  26.267  27.058  1.00  0.00     0.173 A 
ATOM     76  C   UNL A   1      49.508  26.962  24.838  1.00  0.00     0.173 A 
ATOM     77  F   UNL A   1      49.786  26.072  28.348  1.00  0.00    -0.203 F 
ATOM     78  C   UNL A   1      51.401  26.015  26.634  1.00  0.00     0.198 A 
ATOM     79  C   UNL A   1      50.805  26.688  24.409  1.00  0.00     0.198 A 
ATOM     80  F   UNL A   1      48.616  27.423  23.948  1.00  0.00    -0.203 F 
ATOM     81  F   UNL A   1      52.318  25.589  27.512  1.00  0.00    -0.200 F 
ATOM     82  C   UNL A   1      51.752  26.220  25.308  1.00  0.00     0.200 A 
ATOM     83  F   UNL A   1      51.138  26.876  23.125  1.00  0.00    -0.200 F 
ATOM     84  F   UNL A   1      53.004  25.974  24.899  1.00  0.00    -0.200 F 
ENDBRANCH  50  74
BRANCH  62  85
ATOM     85  C   UNL A   1      45.889  32.477  28.479  1.00  0.00     0.064 A 
ATOM     86  C   UNL A   1      46.478  32.868  29.689  1.00  0.00     0.173 A 
ATOM     87  C   UNL A   1      45.807  33.425  27.448  1.00  0.00     0.173 A 
ATOM     88  F   UNL A   1      46.567  32.000  30.708  1.00  0.00    -0.203 F 
ATOM     89  C   UNL A   1      46.962  34.162  29.863  1.00  0.00     0.198 A 
ATOM     90  C   UNL A   1      46.313  34.711  27.616  1.00  0.00     0.198 A 
ATOM     91  F   UNL A   1      45.258  33.096  26.269  1.00  0.00    -0.203 F 
ATOM     92  F   UNL A   1      47.497  34.523  31.036  1.00  0.00    -0.200 F 
ATOM     93  C   UNL A   1      46.887  35.078  28.823  1.00  0.00     0.200 A 
ATOM     94  F   UNL A   1      46.253  35.591  26.608  1.00  0.00    -0.200 F 
ATOM     95  F   UNL A   1      47.368  36.319  28.988  1.00  0.00    -0.200 F 
ENDBRANCH  62  85
ENDBRANCH  36  37
ENDBRANCH  28  31
ENDBRANCH  26  27
ENDBRANCH  25  26
ENDBRANCH   1  25
TORSDOF 14
ENDMDL
