MODEL 1
REMARK VINA RESULT:     -12.1      0.000      0.000
REMARK SMILES C[C@H]([NH2+][C@@H](C)[C@]12C[C@H]3C[C@H](C[C@H](C3)C1)C2)[C@@H](C)C(=O)NCCCCNC(=O)c1ccc(-c2c3nc(c(-c4c(F)c(F)c(F)c(F)c4F)c4ccc([nH]4)c(-c4c(F)c(F)c(F)c(F)c4F)c4nc(c(-c5c(F)c(F)c(F)c(F)c5F)c5ccc2[nH]5)C=C4)C=C3)cc1
REMARK SMILES IDX 21 1 20 2 18 3 19 4 16 6 17 7 2 8 1 9 3 10 4 13 5 14 6 15
REMARK SMILES IDX 7 16 14 17 15 18 8 19 12 20 10 21 9 22 13 23 11 24 22 25
REMARK SMILES IDX 23 26 24 27 25 28 26 29 27 31 28 32 29 33 90 34 30 35 89 36
REMARK SMILES IDX 31 37 32 38 33 39 83 40 34 41 88 42 82 43 84 44 35 45 87 46
REMARK SMILES IDX 81 47 80 48 36 50 68 51 48 52 67 53 49 54 52 55 66 56 85 57
REMARK SMILES IDX 50 58 51 59 65 61 86 62 53 63 37 64 38 65 46 66 39 67 40 68
REMARK SMILES IDX 44 69 47 70 41 71 42 72 45 73 43 74 69 75 70 76 78 77 71 78
REMARK SMILES IDX 72 79 76 80 79 81 73 82 74 83 77 84 75 85 54 86 55 87 63 88
REMARK SMILES IDX 56 89 57 90 61 91 64 92 58 93 59 94 62 95 60 96
REMARK H PARENT 20 5 3 11 3 12 25 30 84 49 52 60
REMARK Flexibility Score: inf
ROOT
ATOM      1  C   UNL A   1      35.158  21.845  24.633  1.00  0.00     0.116 C 
ENDROOT
BRANCH   1   2
ATOM      2  N   UNL A   1      33.942  21.123  24.957  1.00  0.00    -0.356 N 
ATOM      3  C   UNL A   1      32.681  21.568  25.218  1.00  0.00     0.228 C 
ATOM      4  O   UNL A   1      31.799  20.713  25.339  1.00  0.00    -0.275 OA
ATOM      5  H   UNL A   1      34.046  20.145  24.995  1.00  0.00     0.163 HD
BRANCH   3   6
ATOM      6  C   UNL A   1      32.355  23.053  25.409  1.00  0.00     0.133 C 
ATOM      7  C   UNL A   1      32.476  23.477  26.871  1.00  0.00     0.024 C 
BRANCH   6   8
ATOM      8  C   UNL A   1      31.049  23.401  24.638  1.00  0.00     0.191 C 
ATOM      9  C   UNL A   1      31.436  23.596  23.151  1.00  0.00     0.076 C 
BRANCH   8  10
ATOM     10  N   UNL A   1      30.366  24.588  25.172  1.00  0.00    -0.341 N 
ATOM     11  H   UNL A   1      30.733  24.755  26.110  1.00  0.00     0.346 HD
ATOM     12  H   UNL A   1      29.373  24.361  25.128  1.00  0.00     0.346 HD
BRANCH  10  13
ATOM     13  C   UNL A   1      30.502  25.852  24.410  1.00  0.00     0.185 C 
ATOM     14  C   UNL A   1      29.050  26.324  24.202  1.00  0.00     0.076 C 
BRANCH  13  15
ATOM     15  C   UNL A   1      31.427  26.985  25.026  1.00  0.00     0.023 C 
ATOM     16  C   UNL A   1      32.923  26.790  24.655  1.00  0.00     0.016 C 
ATOM     17  C   UNL A   1      31.347  27.018  26.589  1.00  0.00     0.016 C 
ATOM     18  C   UNL A   1      30.968  28.393  24.560  1.00  0.00     0.016 C 
ATOM     19  C   UNL A   1      33.794  27.923  25.228  1.00  0.00    -0.010 C 
ATOM     20  C   UNL A   1      32.220  28.150  27.179  1.00  0.00    -0.010 C 
ATOM     21  C   UNL A   1      31.850  29.515  25.118  1.00  0.00    -0.010 C 
ATOM     22  C   UNL A   1      33.302  29.269  24.678  1.00  0.00     0.007 C 
ATOM     23  C   UNL A   1      33.683  27.933  26.762  1.00  0.00     0.007 C 
ATOM     24  C   UNL A   1      31.748  29.508  26.643  1.00  0.00     0.007 C 
ENDBRANCH  13  15
ENDBRANCH  10  13
ENDBRANCH   8  10
ENDBRANCH   6   8
ENDBRANCH   3   6
ENDBRANCH   1   2
BRANCH   1  25
ATOM     25  C   UNL A   1      36.309  21.575  25.599  1.00  0.00     0.023 C 
BRANCH  25  26
ATOM     26  C   UNL A   1      37.522  20.861  25.011  1.00  0.00     0.023 C 
BRANCH  26  27
ATOM     27  C   UNL A   1      38.812  20.970  25.814  1.00  0.00     0.116 C 
BRANCH  27  28
ATOM     28  N   UNL A   1      39.647  19.779  25.746  1.00  0.00    -0.352 N 
ATOM     29  C   UNL A   1      40.990  19.646  26.009  1.00  0.00     0.251 C 
ATOM     30  H   UNL A   1      39.185  18.953  25.474  1.00  0.00     0.163 HD
ATOM     31  O   UNL A   1      41.557  18.573  25.830  1.00  0.00    -0.269 OA
BRANCH  29  32
ATOM     32  C   UNL A   1      41.760  20.822  26.459  1.00  0.00     0.039 A 
ATOM     33  C   UNL A   1      42.264  21.702  25.498  1.00  0.00     0.014 A 
ATOM     34  C   UNL A   1      41.918  21.092  27.821  1.00  0.00     0.014 A 
ATOM     35  C   UNL A   1      42.836  22.909  25.904  1.00  0.00     0.010 A 
ATOM     36  C   UNL A   1      42.423  22.325  28.220  1.00  0.00     0.010 A 
ATOM     37  C   UNL A   1      42.865  23.254  27.264  1.00  0.00    -0.014 A 
BRANCH  37  38
ATOM     38  C   UNL A   1      43.305  24.597  27.715  1.00  0.00     0.031 A 
ATOM     39  C   UNL A   1      42.291  25.654  28.040  1.00  0.00     0.074 A 
ATOM     40  C   UNL A   1      44.620  24.890  27.737  1.00  0.00     0.049 A 
ATOM     41  N   UNL A   1      42.475  26.917  28.329  1.00  0.00    -0.248 NA
ATOM     42  C   UNL A   1      40.880  25.241  28.013  1.00  0.00     0.031 C 
ATOM     43  C   UNL A   1      45.700  23.958  27.409  1.00  0.00     0.029 A 
ATOM     44  N   UNL A   1      45.271  26.062  28.030  1.00  0.00    -0.354 N 
ATOM     45  C   UNL A   1      41.207  27.451  28.505  1.00  0.00     0.074 A 
ATOM     46  C   UNL A   1      40.259  26.389  28.242  1.00  0.00     0.031 C 
ATOM     47  C   UNL A   1      46.879  24.587  27.537  1.00  0.00     0.029 A 
ATOM     48  C   UNL A   1      46.637  25.979  27.908  1.00  0.00     0.049 A 
ATOM     49  H   UNL A   1      44.804  26.885  28.303  1.00  0.00     0.167 HD
ATOM     50  C   UNL A   1      40.865  28.709  28.874  1.00  0.00     0.037 A 
ATOM     51  C   UNL A   1      47.586  26.922  28.060  1.00  0.00     0.037 A 
ATOM     52  C   UNL A   1      41.811  29.758  29.147  1.00  0.00     0.049 A 
ATOM     53  C   UNL A   1      47.177  28.324  28.419  1.00  0.00     0.074 A 
ATOM     54  C   UNL A   1      41.567  31.048  29.585  1.00  0.00     0.029 A 
ATOM     55  N   UNL A   1      43.186  29.638  29.001  1.00  0.00    -0.354 N 
ATOM     56  N   UNL A   1      45.978  28.803  28.643  1.00  0.00    -0.248 NA
ATOM     57  C   UNL A   1      48.253  29.318  28.539  1.00  0.00     0.031 C 
ATOM     58  C   UNL A   1      42.791  31.723  29.658  1.00  0.00     0.029 A 
ATOM     59  C   UNL A   1      43.801  30.841  29.310  1.00  0.00     0.049 A 
ATOM     60  H   UNL A   1      43.654  28.819  28.719  1.00  0.00     0.167 HD
ATOM     61  C   UNL A   1      46.156  30.144  28.953  1.00  0.00     0.074 A 
ATOM     62  C   UNL A   1      47.580  30.401  28.900  1.00  0.00     0.031 C 
ATOM     63  C   UNL A   1      45.221  31.079  29.254  1.00  0.00     0.037 A 
BRANCH  50  64
ATOM     64  C   UNL A   1      39.402  29.015  29.001  1.00  0.00     0.064 A 
ATOM     65  C   UNL A   1      38.634  29.408  27.894  1.00  0.00     0.173 A 
ATOM     66  C   UNL A   1      38.752  28.895  30.239  1.00  0.00     0.173 A 
ATOM     67  F   UNL A   1      39.210  29.548  26.690  1.00  0.00    -0.203 F 
ATOM     68  C   UNL A   1      37.280  29.701  28.028  1.00  0.00     0.198 A 
ATOM     69  C   UNL A   1      37.391  29.161  30.363  1.00  0.00     0.198 A 
ATOM     70  F   UNL A   1      39.438  28.519  31.329  1.00  0.00    -0.203 F 
ATOM     71  F   UNL A   1      36.580  30.125  26.966  1.00  0.00    -0.200 F 
ATOM     72  C   UNL A   1      36.658  29.572  29.260  1.00  0.00     0.200 A 
ATOM     73  F   UNL A   1      36.789  29.024  31.552  1.00  0.00    -0.200 F 
ATOM     74  F   UNL A   1      35.353  29.852  29.387  1.00  0.00    -0.200 F 
ENDBRANCH  50  64
BRANCH  51  75
ATOM     75  C   UNL A   1      49.018  26.567  27.887  1.00  0.00     0.064 A 
ATOM     76  C   UNL A   1      49.833  26.321  29.000  1.00  0.00     0.173 A 
ATOM     77  C   UNL A   1      49.600  26.462  26.615  1.00  0.00     0.173 A 
ATOM     78  F   UNL A   1      49.325  26.431  30.237  1.00  0.00    -0.203 F 
ATOM     79  C   UNL A   1      51.178  25.995  28.850  1.00  0.00     0.198 A 
ATOM     80  C   UNL A   1      50.940  26.110  26.465  1.00  0.00     0.198 A 
ATOM     81  F   UNL A   1      48.863  26.685  25.518  1.00  0.00    -0.203 F 
ATOM     82  F   UNL A   1      51.943  25.800  29.932  1.00  0.00    -0.200 F 
ATOM     83  C   UNL A   1      51.730  25.883  27.582  1.00  0.00     0.200 A 
ATOM     84  F   UNL A   1      51.466  25.991  25.238  1.00  0.00    -0.200 F 
ATOM     85  F   UNL A   1      53.022  25.562  27.437  1.00  0.00    -0.200 F 
ENDBRANCH  51  75
BRANCH  63  86
ATOM     86  C   UNL A   1      45.708  32.462  29.572  1.00  0.00     0.064 A 
ATOM     87  C   UNL A   1      46.093  32.822  30.871  1.00  0.00     0.173 A 
ATOM     88  C   UNL A   1      45.841  33.421  28.555  1.00  0.00     0.173 A 
ATOM     89  F   UNL A   1      45.967  31.947  31.880  1.00  0.00    -0.203 F 
ATOM     90  C   UNL A   1      46.581  34.097  31.144  1.00  0.00     0.198 A 
ATOM     91  C   UNL A   1      46.354  34.685  28.827  1.00  0.00     0.198 A 
ATOM     92  F   UNL A   1      45.489  33.123  27.296  1.00  0.00    -0.203 F 
ATOM     93  F   UNL A   1      46.908  34.433  32.399  1.00  0.00    -0.200 F 
ATOM     94  C   UNL A   1      46.719  35.024  30.121  1.00  0.00     0.200 A 
ATOM     95  F   UNL A   1      46.498  35.576  27.835  1.00  0.00    -0.200 F 
ATOM     96  F   UNL A   1      47.200  36.247  30.384  1.00  0.00    -0.200 F 
ENDBRANCH  63  86
ENDBRANCH  37  38
ENDBRANCH  29  32
ENDBRANCH  27  28
ENDBRANCH  26  27
ENDBRANCH  25  26
ENDBRANCH   1  25
TORSDOF 15
ENDMDL
MODEL 2
REMARK VINA RESULT:     -12.1      3.351      7.668
REMARK SMILES C[C@H]([NH2+][C@@H](C)[C@]12C[C@H]3C[C@H](C[C@H](C3)C1)C2)[C@@H](C)C(=O)NCCCCNC(=O)c1ccc(-c2c3nc(c(-c4c(F)c(F)c(F)c(F)c4F)c4ccc([nH]4)c(-c4c(F)c(F)c(F)c(F)c4F)c4nc(c(-c5c(F)c(F)c(F)c(F)c5F)c5ccc2[nH]5)C=C4)C=C3)cc1
REMARK SMILES IDX 21 1 20 2 18 3 19 4 16 6 17 7 2 8 1 9 3 10 4 13 5 14 6 15
REMARK SMILES IDX 7 16 14 17 15 18 8 19 12 20 10 21 9 22 13 23 11 24 22 25
REMARK SMILES IDX 23 26 24 27 25 28 26 29 27 31 28 32 29 33 90 34 30 35 89 36
REMARK SMILES IDX 31 37 32 38 33 39 83 40 34 41 88 42 82 43 84 44 35 45 87 46
REMARK SMILES IDX 81 47 80 48 36 50 68 51 48 52 67 53 49 54 52 55 66 56 85 57
REMARK SMILES IDX 50 58 51 59 65 61 86 62 53 63 37 64 38 65 46 66 39 67 40 68
REMARK SMILES IDX 44 69 47 70 41 71 42 72 45 73 43 74 69 75 70 76 78 77 71 78
REMARK SMILES IDX 72 79 76 80 79 81 73 82 74 83 77 84 75 85 54 86 55 87 63 88
REMARK SMILES IDX 56 89 57 90 61 91 64 92 58 93 59 94 62 95 60 96
REMARK H PARENT 20 5 3 11 3 12 25 30 84 49 52 60
REMARK Flexibility Score: inf
ROOT
ATOM      1  C   UNL A   1      33.359  28.949  23.305  1.00  0.00     0.116 C 
ENDROOT
BRANCH   1   2
ATOM      2  N   UNL A   1      32.087  28.791  22.627  1.00  0.00    -0.356 N 
ATOM      3  C   UNL A   1      31.244  27.723  22.547  1.00  0.00     0.228 C 
ATOM      4  O   UNL A   1      30.152  27.911  22.003  1.00  0.00    -0.275 OA
ATOM      5  H   UNL A   1      31.779  29.591  22.143  1.00  0.00     0.163 HD
BRANCH   3   6
ATOM      6  C   UNL A   1      31.629  26.330  23.055  1.00  0.00     0.133 C 
ATOM      7  C   UNL A   1      32.080  25.417  21.917  1.00  0.00     0.024 C 
BRANCH   6   8
ATOM      8  C   UNL A   1      30.537  25.813  24.035  1.00  0.00     0.191 C 
ATOM      9  C   UNL A   1      30.551  26.751  25.268  1.00  0.00     0.076 C 
BRANCH   8  10
ATOM     10  N   UNL A   1      30.733  24.411  24.427  1.00  0.00    -0.341 N 
ATOM     11  H   UNL A   1      31.152  23.927  23.632  1.00  0.00     0.346 HD
ATOM     12  H   UNL A   1      29.807  24.082  24.698  1.00  0.00     0.346 HD
BRANCH  10  13
ATOM     13  C   UNL A   1      31.590  24.148  25.608  1.00  0.00     0.185 C 
ATOM     14  C   UNL A   1      30.732  23.228  26.498  1.00  0.00     0.076 C 
BRANCH  13  15
ATOM     15  C   UNL A   1      33.041  23.560  25.345  1.00  0.00     0.023 C 
ATOM     16  C   UNL A   1      34.090  24.676  25.087  1.00  0.00     0.016 C 
ATOM     17  C   UNL A   1      33.070  22.611  24.102  1.00  0.00     0.016 C 
ATOM     18  C   UNL A   1      33.512  22.688  26.541  1.00  0.00     0.016 C 
ATOM     19  C   UNL A   1      35.496  24.084  24.877  1.00  0.00    -0.010 C 
ATOM     20  C   UNL A   1      34.477  22.011  23.877  1.00  0.00    -0.010 C 
ATOM     21  C   UNL A   1      34.920  22.118  26.335  1.00  0.00    -0.010 C 
ATOM     22  C   UNL A   1      35.900  23.282  26.122  1.00  0.00     0.007 C 
ATOM     23  C   UNL A   1      35.485  23.150  23.655  1.00  0.00     0.007 C 
ATOM     24  C   UNL A   1      34.905  21.204  25.110  1.00  0.00     0.007 C 
ENDBRANCH  13  15
ENDBRANCH  10  13
ENDBRANCH   8  10
ENDBRANCH   6   8
ENDBRANCH   3   6
ENDBRANCH   1   2
BRANCH   1  25
ATOM     25  C   UNL A   1      33.229  29.337  24.776  1.00  0.00     0.023 C 
BRANCH  25  26
ATOM     26  C   UNL A   1      33.890  28.394  25.777  1.00  0.00     0.023 C 
BRANCH  26  27
ATOM     27  C   UNL A   1      33.563  28.647  27.243  1.00  0.00     0.116 C 
BRANCH  27  28
ATOM     28  N   UNL A   1      33.654  30.048  27.631  1.00  0.00    -0.352 N 
ATOM     29  C   UNL A   1      34.722  30.732  28.160  1.00  0.00     0.251 C 
ATOM     30  H   UNL A   1      32.837  30.579  27.494  1.00  0.00     0.163 HD
ATOM     31  O   UNL A   1      34.605  31.906  28.501  1.00  0.00    -0.269 OA
BRANCH  29  32
ATOM     32  C   UNL A   1      36.004  30.029  28.368  1.00  0.00     0.039 A 
ATOM     33  C   UNL A   1      36.967  30.077  27.357  1.00  0.00     0.014 A 
ATOM     34  C   UNL A   1      36.278  29.390  29.580  1.00  0.00     0.014 A 
ATOM     35  C   UNL A   1      38.247  29.576  27.602  1.00  0.00     0.010 A 
ATOM     36  C   UNL A   1      37.573  28.956  29.846  1.00  0.00     0.010 A 
ATOM     37  C   UNL A   1      38.574  29.067  28.868  1.00  0.00    -0.014 A 
BRANCH  37  38
ATOM     38  C   UNL A   1      39.965  28.688  29.216  1.00  0.00     0.031 A 
ATOM     39  C   UNL A   1      40.844  29.646  29.966  1.00  0.00     0.074 A 
ATOM     40  C   UNL A   1      40.464  27.518  28.769  1.00  0.00     0.049 A 
ATOM     41  N   UNL A   1      42.117  29.550  30.252  1.00  0.00    -0.248 NA
ATOM     42  C   UNL A   1      40.211  30.887  30.434  1.00  0.00     0.031 C 
ATOM     43  C   UNL A   1      39.720  26.520  28.001  1.00  0.00     0.029 A 
ATOM     44  N   UNL A   1      41.722  26.981  28.881  1.00  0.00    -0.354 N 
ATOM     45  C   UNL A   1      42.440  30.721  30.922  1.00  0.00     0.074 A 
ATOM     46  C   UNL A   1      41.243  31.534  30.956  1.00  0.00     0.031 C 
ATOM     47  C   UNL A   1      40.527  25.483  27.727  1.00  0.00     0.029 A 
ATOM     48  C   UNL A   1      41.859  25.765  28.257  1.00  0.00     0.049 A 
ATOM     49  H   UNL A   1      42.457  27.424  29.364  1.00  0.00     0.167 HD
ATOM     50  C   UNL A   1      43.624  31.076  31.478  1.00  0.00     0.037 A 
ATOM     51  C   UNL A   1      42.939  24.975  28.111  1.00  0.00     0.037 A 
ATOM     52  C   UNL A   1      44.807  30.258  31.453  1.00  0.00     0.049 A 
ATOM     53  C   UNL A   1      44.255  25.416  28.693  1.00  0.00     0.074 A 
ATOM     54  C   UNL A   1      46.038  30.503  32.038  1.00  0.00     0.029 A 
ATOM     55  N   UNL A   1      44.910  29.038  30.800  1.00  0.00    -0.354 N 
ATOM     56  N   UNL A   1      44.534  26.497  29.377  1.00  0.00    -0.248 NA
ATOM     57  C   UNL A   1      45.406  24.529  28.474  1.00  0.00     0.031 C 
ATOM     58  C   UNL A   1      46.899  29.453  31.699  1.00  0.00     0.029 A 
ATOM     59  C   UNL A   1      46.192  28.532  30.942  1.00  0.00     0.049 A 
ATOM     60  H   UNL A   1      44.179  28.598  30.309  1.00  0.00     0.167 HD
ATOM     61  C   UNL A   1      45.884  26.412  29.691  1.00  0.00     0.074 A 
ATOM     62  C   UNL A   1      46.364  25.165  29.132  1.00  0.00     0.031 C 
ATOM     63  C   UNL A   1      46.654  27.289  30.381  1.00  0.00     0.037 A 
BRANCH  50  64
ATOM     64  C   UNL A   1      43.692  32.411  32.158  1.00  0.00     0.064 A 
ATOM     65  C   UNL A   1      43.411  32.553  33.526  1.00  0.00     0.173 A 
ATOM     66  C   UNL A   1      44.062  33.560  31.443  1.00  0.00     0.173 A 
ATOM     67  F   UNL A   1      43.042  31.488  34.253  1.00  0.00    -0.203 F 
ATOM     68  C   UNL A   1      43.466  33.800  34.144  1.00  0.00     0.198 A 
ATOM     69  C   UNL A   1      44.144  34.800  32.070  1.00  0.00     0.198 A 
ATOM     70  F   UNL A   1      44.345  33.479  30.134  1.00  0.00    -0.203 F 
ATOM     71  F   UNL A   1      43.143  33.918  35.439  1.00  0.00    -0.200 F 
ATOM     72  C   UNL A   1      43.838  34.921  33.418  1.00  0.00     0.200 A 
ATOM     73  F   UNL A   1      44.515  35.880  31.370  1.00  0.00    -0.200 F 
ATOM     74  F   UNL A   1      43.892  36.120  34.014  1.00  0.00    -0.200 F 
ENDBRANCH  50  64
BRANCH  51  75
ATOM     75  C   UNL A   1      42.820  23.679  27.396  1.00  0.00     0.064 A 
ATOM     76  C   UNL A   1      43.198  23.567  26.051  1.00  0.00     0.173 A 
ATOM     77  C   UNL A   1      42.335  22.529  28.036  1.00  0.00     0.173 A 
ATOM     78  F   UNL A   1      43.647  24.645  25.391  1.00  0.00    -0.203 F 
ATOM     79  C   UNL A   1      43.083  22.358  25.369  1.00  0.00     0.198 A 
ATOM     80  C   UNL A   1      42.245  21.314  27.360  1.00  0.00     0.198 A 
ATOM     81  F   UNL A   1      41.963  22.583  29.323  1.00  0.00    -0.203 F 
ATOM     82  F   UNL A   1      43.417  22.288  24.073  1.00  0.00    -0.200 F 
ATOM     83  C   UNL A   1      42.613  21.230  26.026  1.00  0.00     0.200 A 
ATOM     84  F   UNL A   1      41.802  20.224  28.002  1.00  0.00    -0.200 F 
ATOM     85  F   UNL A   1      42.510  20.065  25.372  1.00  0.00    -0.200 F 
ENDBRANCH  51  75
BRANCH  63  86
ATOM     86  C   UNL A   1      48.094  26.922  30.591  1.00  0.00     0.064 A 
ATOM     87  C   UNL A   1      48.488  26.066  31.629  1.00  0.00     0.173 A 
ATOM     88  C   UNL A   1      49.083  27.390  29.712  1.00  0.00     0.173 A 
ATOM     89  F   UNL A   1      47.583  25.607  32.506  1.00  0.00    -0.203 F 
ATOM     90  C   UNL A   1      49.822  25.703  31.788  1.00  0.00     0.198 A 
ATOM     91  C   UNL A   1      50.411  27.003  29.857  1.00  0.00     0.198 A 
ATOM     92  F   UNL A   1      48.755  28.208  28.700  1.00  0.00    -0.203 F 
ATOM     93  F   UNL A   1      50.183  24.914  32.809  1.00  0.00    -0.200 F 
ATOM     94  C   UNL A   1      50.780  26.164  30.898  1.00  0.00     0.200 A 
ATOM     95  F   UNL A   1      51.334  27.440  28.989  1.00  0.00    -0.200 F 
ATOM     96  F   UNL A   1      52.063  25.804  31.045  1.00  0.00    -0.200 F 
ENDBRANCH  63  86
ENDBRANCH  37  38
ENDBRANCH  29  32
ENDBRANCH  27  28
ENDBRANCH  26  27
ENDBRANCH  25  26
ENDBRANCH   1  25
TORSDOF 15
ENDMDL
MODEL 3
REMARK VINA RESULT:     -12.0      5.585     10.523
REMARK SMILES C[C@H]([NH2+][C@@H](C)[C@]12C[C@H]3C[C@H](C[C@H](C3)C1)C2)[C@@H](C)C(=O)NCCCCNC(=O)c1ccc(-c2c3nc(c(-c4c(F)c(F)c(F)c(F)c4F)c4ccc([nH]4)c(-c4c(F)c(F)c(F)c(F)c4F)c4nc(c(-c5c(F)c(F)c(F)c(F)c5F)c5ccc2[nH]5)C=C4)C=C3)cc1
REMARK SMILES IDX 21 1 20 2 18 3 19 4 16 6 17 7 2 8 1 9 3 10 4 13 5 14 6 15
REMARK SMILES IDX 7 16 14 17 15 18 8 19 12 20 10 21 9 22 13 23 11 24 22 25
REMARK SMILES IDX 23 26 24 27 25 28 26 29 27 31 28 32 29 33 90 34 30 35 89 36
REMARK SMILES IDX 31 37 32 38 33 39 83 40 34 41 88 42 82 43 84 44 35 45 87 46
REMARK SMILES IDX 81 47 80 48 36 50 68 51 48 52 67 53 49 54 52 55 66 56 85 57
REMARK SMILES IDX 50 58 51 59 65 61 86 62 53 63 37 64 38 65 46 66 39 67 40 68
REMARK SMILES IDX 44 69 47 70 41 71 42 72 45 73 43 74 69 75 70 76 78 77 71 78
REMARK SMILES IDX 72 79 76 80 79 81 73 82 74 83 77 84 75 85 54 86 55 87 63 88
REMARK SMILES IDX 56 89 57 90 61 91 64 92 58 93 59 94 62 95 60 96
REMARK H PARENT 20 5 3 11 3 12 25 30 84 49 52 60
REMARK Flexibility Score: inf
ROOT
ATOM      1  C   UNL A   1      32.525  29.671  25.162  1.00  0.00     0.116 C 
ENDROOT
BRANCH   1   2
ATOM      2  N   UNL A   1      31.323  29.574  24.357  1.00  0.00    -0.356 N 
ATOM      3  C   UNL A   1      30.635  28.488  23.907  1.00  0.00     0.228 C 
ATOM      4  O   UNL A   1      29.558  28.702  23.341  1.00  0.00    -0.275 OA
ATOM      5  H   UNL A   1      30.939  30.440  24.090  1.00  0.00     0.163 HD
BRANCH   3   6
ATOM      6  C   UNL A   1      31.172  27.059  24.038  1.00  0.00     0.133 C 
ATOM      7  C   UNL A   1      31.442  26.429  22.673  1.00  0.00     0.024 C 
BRANCH   6   8
ATOM      8  C   UNL A   1      30.309  26.271  25.064  1.00  0.00     0.191 C 
ATOM      9  C   UNL A   1      30.703  26.778  26.474  1.00  0.00     0.076 C 
BRANCH   8  10
ATOM     10  N   UNL A   1      30.474  24.815  24.955  1.00  0.00    -0.341 N 
ATOM     11  H   UNL A   1      30.888  24.621  24.042  1.00  0.00     0.346 HD
ATOM     12  H   UNL A   1      29.538  24.434  25.097  1.00  0.00     0.346 HD
BRANCH  10  13
ATOM     13  C   UNL A   1      31.316  24.146  25.976  1.00  0.00     0.185 C 
ATOM     14  C   UNL A   1      30.442  22.982  26.481  1.00  0.00     0.076 C 
BRANCH  13  15
ATOM     15  C   UNL A   1      32.765  23.672  25.535  1.00  0.00     0.023 C 
ATOM     16  C   UNL A   1      33.782  24.846  25.499  1.00  0.00     0.016 C 
ATOM     17  C   UNL A   1      32.760  23.029  24.108  1.00  0.00     0.016 C 
ATOM     18  C   UNL A   1      33.300  22.566  26.484  1.00  0.00     0.016 C 
ATOM     19  C   UNL A   1      35.189  24.354  25.109  1.00  0.00    -0.010 C 
ATOM     20  C   UNL A   1      34.168  22.533  23.703  1.00  0.00    -0.010 C 
ATOM     21  C   UNL A   1      34.709  22.094  26.104  1.00  0.00    -0.010 C 
ATOM     22  C   UNL A   1      35.658  23.303  26.125  1.00  0.00     0.007 C 
ATOM     23  C   UNL A   1      35.145  23.720  23.710  1.00  0.00     0.007 C 
ATOM     24  C   UNL A   1      34.660  21.480  24.704  1.00  0.00     0.007 C 
ENDBRANCH  13  15
ENDBRANCH  10  13
ENDBRANCH   8  10
ENDBRANCH   6   8
ENDBRANCH   3   6
ENDBRANCH   1   2
BRANCH   1  25
ATOM     25  C   UNL A   1      32.262  30.058  26.616  1.00  0.00     0.023 C 
BRANCH  25  26
ATOM     26  C   UNL A   1      31.864  31.510  26.860  1.00  0.00     0.023 C 
BRANCH  26  27
ATOM     27  C   UNL A   1      32.962  32.421  27.393  1.00  0.00     0.116 C 
BRANCH  27  28
ATOM     28  N   UNL A   1      32.531  33.796  27.606  1.00  0.00    -0.352 N 
ATOM     29  C   UNL A   1      33.050  34.744  28.456  1.00  0.00     0.251 C 
ATOM     30  H   UNL A   1      31.761  34.086  27.066  1.00  0.00     0.163 HD
ATOM     31  O   UNL A   1      32.515  35.843  28.565  1.00  0.00    -0.269 OA
BRANCH  29  32
ATOM     32  C   UNL A   1      34.229  34.412  29.280  1.00  0.00     0.039 A 
ATOM     33  C   UNL A   1      34.028  33.863  30.548  1.00  0.00     0.014 A 
ATOM     34  C   UNL A   1      35.521  34.573  28.773  1.00  0.00     0.014 A 
ATOM     35  C   UNL A   1      35.120  33.376  31.268  1.00  0.00     0.010 A 
ATOM     36  C   UNL A   1      36.599  34.024  29.459  1.00  0.00     0.010 A 
ATOM     37  C   UNL A   1      36.404  33.400  30.702  1.00  0.00    -0.014 A 
BRANCH  37  38
ATOM     38  C   UNL A   1      37.556  32.737  31.362  1.00  0.00     0.031 A 
ATOM     39  C   UNL A   1      38.229  31.565  30.710  1.00  0.00     0.074 A 
ATOM     40  C   UNL A   1      37.930  33.133  32.595  1.00  0.00     0.049 A 
ATOM     41  N   UNL A   1      39.163  30.779  31.181  1.00  0.00    -0.248 NA
ATOM     42  C   UNL A   1      37.772  31.217  29.357  1.00  0.00     0.031 C 
ATOM     43  C   UNL A   1      37.331  34.236  33.347  1.00  0.00     0.029 A 
ATOM     44  N   UNL A   1      38.892  32.639  33.440  1.00  0.00    -0.354 N 
ATOM     45  C   UNL A   1      39.397  29.838  30.189  1.00  0.00     0.074 A 
ATOM     46  C   UNL A   1      38.473  30.119  29.111  1.00  0.00     0.031 C 
ATOM     47  C   UNL A   1      37.950  34.348  34.533  1.00  0.00     0.029 A 
ATOM     48  C   UNL A   1      38.955  33.295  34.645  1.00  0.00     0.049 A 
ATOM     49  H   UNL A   1      39.481  31.886  33.206  1.00  0.00     0.167 HD
ATOM     50  C   UNL A   1      40.315  28.842  30.171  1.00  0.00     0.037 A 
ATOM     51  C   UNL A   1      39.724  33.063  35.726  1.00  0.00     0.037 A 
ATOM     52  C   UNL A   1      41.240  28.575  31.240  1.00  0.00     0.049 A 
ATOM     53  C   UNL A   1      40.700  31.918  35.701  1.00  0.00     0.074 A 
ATOM     54  C   UNL A   1      42.248  27.627  31.293  1.00  0.00     0.029 A 
ATOM     55  N   UNL A   1      41.266  29.254  32.450  1.00  0.00    -0.354 N 
ATOM     56  N   UNL A   1      40.955  31.072  34.735  1.00  0.00    -0.248 NA
ATOM     57  C   UNL A   1      41.488  31.693  36.921  1.00  0.00     0.031 C 
ATOM     58  C   UNL A   1      42.852  27.701  32.553  1.00  0.00     0.029 A 
ATOM     59  C   UNL A   1      42.251  28.725  33.268  1.00  0.00     0.049 A 
ATOM     60  H   UNL A   1      40.671  30.000  32.691  1.00  0.00     0.167 HD
ATOM     61  C   UNL A   1      41.947  30.230  35.218  1.00  0.00     0.074 A 
ATOM     62  C   UNL A   1      42.256  30.676  36.561  1.00  0.00     0.031 C 
ATOM     63  C   UNL A   1      42.548  29.181  34.603  1.00  0.00     0.037 A 
BRANCH  50  64
ATOM     64  C   UNL A   1      40.359  27.968  28.953  1.00  0.00     0.064 A 
ATOM     65  C   UNL A   1      41.132  28.308  27.832  1.00  0.00     0.173 A 
ATOM     66  C   UNL A   1      39.637  26.765  28.911  1.00  0.00     0.173 A 
ATOM     67  F   UNL A   1      41.831  29.452  27.817  1.00  0.00    -0.203 F 
ATOM     68  C   UNL A   1      41.154  27.493  26.703  1.00  0.00     0.198 A 
ATOM     69  C   UNL A   1      39.685  25.938  27.791  1.00  0.00     0.198 A 
ATOM     70  F   UNL A   1      38.886  26.390  29.958  1.00  0.00    -0.203 F 
ATOM     71  F   UNL A   1      41.858  27.866  25.625  1.00  0.00    -0.200 F 
ATOM     72  C   UNL A   1      40.436  26.308  26.685  1.00  0.00     0.200 A 
ATOM     73  F   UNL A   1      39.001  24.787  27.781  1.00  0.00    -0.200 F 
ATOM     74  F   UNL A   1      40.460  25.524  25.598  1.00  0.00    -0.200 F 
ENDBRANCH  50  64
BRANCH  51  75
ATOM     75  C   UNL A   1      39.612  33.942  36.919  1.00  0.00     0.064 A 
ATOM     76  C   UNL A   1      38.786  33.587  37.994  1.00  0.00     0.173 A 
ATOM     77  C   UNL A   1      40.327  35.144  37.015  1.00  0.00     0.173 A 
ATOM     78  F   UNL A   1      38.066  32.456  37.938  1.00  0.00    -0.203 F 
ATOM     79  C   UNL A   1      38.668  34.406  39.113  1.00  0.00     0.198 A 
ATOM     80  C   UNL A   1      40.229  35.952  38.146  1.00  0.00     0.198 A 
ATOM     81  F   UNL A   1      41.134  35.528  36.014  1.00  0.00    -0.203 F 
ATOM     82  F   UNL A   1      37.843  34.061  40.110  1.00  0.00    -0.200 F 
ATOM     83  C   UNL A   1      39.396  35.585  39.192  1.00  0.00     0.200 A 
ATOM     84  F   UNL A   1      40.943  37.083  38.223  1.00  0.00    -0.200 F 
ATOM     85  F   UNL A   1      39.288  36.371  40.272  1.00  0.00    -0.200 F 
ENDBRANCH  51  75
BRANCH  63  86
ATOM     86  C   UNL A   1      43.616  28.456  35.366  1.00  0.00     0.064 A 
ATOM     87  C   UNL A   1      44.965  28.827  35.271  1.00  0.00     0.173 A 
ATOM     88  C   UNL A   1      43.280  27.411  36.241  1.00  0.00     0.173 A 
ATOM     89  F   UNL A   1      45.338  29.807  34.434  1.00  0.00    -0.203 F 
ATOM     90  C   UNL A   1      45.941  28.170  36.016  1.00  0.00     0.198 A 
ATOM     91  C   UNL A   1      44.255  26.776  37.004  1.00  0.00     0.198 A 
ATOM     92  F   UNL A   1      42.003  27.022  36.370  1.00  0.00    -0.203 F 
ATOM     93  F   UNL A   1      47.228  28.516  35.882  1.00  0.00    -0.200 F 
ATOM     94  C   UNL A   1      45.584  27.152  36.887  1.00  0.00     0.200 A 
ATOM     95  F   UNL A   1      43.907  25.800  37.855  1.00  0.00    -0.200 F 
ATOM     96  F   UNL A   1      46.524  26.529  37.612  1.00  0.00    -0.200 F 
ENDBRANCH  63  86
ENDBRANCH  37  38
ENDBRANCH  29  32
ENDBRANCH  27  28
ENDBRANCH  26  27
ENDBRANCH  25  26
ENDBRANCH   1  25
TORSDOF 15
ENDMDL
