MODEL 1
REMARK VINA RESULT:     -11.9      0.000      0.000
REMARK SMILES N#CCNC(=O)Cn1ccc(C(=O)NCCCCNC(=O)c2ccc(-c3c4nc(c(-c5c(F)c(F)c(F)c(F)c5F)c5ccc([nH]5)c(-c5c(F)c(F)c(F)c(F)c5F)c5nc(c(-c6c(F)c(F)c(F)c(F)c6F)c6ccc3[nH]6)C=C5)C=C4)cc2)c1
REMARK SMILES IDX 15 1 14 2 12 3 13 4 11 6 8 7 9 8 85 9 10 10 7 11 5 12 4 13
REMARK SMILES IDX 6 15 3 16 2 17 1 18 16 19 17 20 18 21 19 22 20 23 21 25
REMARK SMILES IDX 22 26 23 27 84 28 24 29 83 30 25 31 26 32 27 33 77 34 28 35
REMARK SMILES IDX 82 36 76 37 78 38 29 39 81 40 75 41 74 42 30 44 62 45 42 46
REMARK SMILES IDX 61 47 43 48 46 49 60 50 79 51 44 52 45 53 59 55 80 56 47 57
REMARK SMILES IDX 31 58 32 59 40 60 33 61 34 62 38 63 41 64 35 65 36 66 39 67
REMARK SMILES IDX 37 68 63 69 64 70 72 71 65 72 66 73 70 74 73 75 67 76 68 77
REMARK SMILES IDX 71 78 69 79 48 80 49 81 57 82 50 83 51 84 55 85 58 86 52 87
REMARK SMILES IDX 53 88 56 89 54 90
REMARK H PARENT 14 5 4 14 19 24 78 43 46 54
REMARK Flexibility Score: inf
ROOT
ATOM      1  C   UNL A   1      32.743  29.410  24.686  1.00  0.00     0.116 C 
ENDROOT
BRANCH   1   2
ATOM      2  N   UNL A   1      31.438  29.441  24.054  1.00  0.00    -0.352 N 
ATOM      3  C   UNL A   1      30.520  28.453  23.817  1.00  0.00     0.252 C 
ATOM      4  O   UNL A   1      29.508  28.766  23.171  1.00  0.00    -0.269 OA
ATOM      5  H   UNL A   1      31.163  30.332  23.739  1.00  0.00     0.163 HD
BRANCH   3   6
ATOM      6  C   UNL A   1      30.750  27.077  24.233  1.00  0.00     0.057 A 
ATOM      7  N   UNL A   1      31.263  25.221  25.393  1.00  0.00    -0.344 N 
ATOM      8  C   UNL A   1      31.166  24.845  24.085  1.00  0.00     0.087 A 
ATOM      9  C   UNL A   1      30.938  26.552  25.501  1.00  0.00     0.100 A 
ATOM     10  C   UNL A   1      30.758  25.944  23.363  1.00  0.00     0.033 A 
BRANCH   7  11
ATOM     11  C   UNL A   1      31.610  24.400  26.548  1.00  0.00     0.221 C 
BRANCH  11  12
ATOM     12  C   UNL A   1      30.729  23.197  26.784  1.00  0.00     0.240 C 
ATOM     13  N   UNL A   1      31.056  21.995  26.230  1.00  0.00    -0.341 N 
ATOM     14  H   UNL A   1      30.401  21.271  26.355  1.00  0.00     0.164 HD
ATOM     15  O   UNL A   1      29.672  23.287  27.409  1.00  0.00    -0.273 OA
BRANCH  13  16
ATOM     16  C   UNL A   1      32.248  21.650  25.480  1.00  0.00     0.236 C 
BRANCH  16  17
ATOM     17  C   UNL A   1      32.274  20.179  25.096  1.00  0.00     0.084 C 
ATOM     18  N   UNL A   1      32.295  18.959  24.777  1.00  0.00    -0.196 NA
ENDBRANCH  16  17
ENDBRANCH  13  16
ENDBRANCH  11  12
ENDBRANCH   7  11
ENDBRANCH   3   6
ENDBRANCH   1   2
BRANCH   1  19
ATOM     19  C   UNL A   1      32.708  29.773  26.166  1.00  0.00     0.023 C 
BRANCH  19  20
ATOM     20  C   UNL A   1      33.485  28.814  27.077  1.00  0.00     0.023 C 
BRANCH  20  21
ATOM     21  C   UNL A   1      35.011  28.929  26.977  1.00  0.00     0.116 C 
BRANCH  21  22
ATOM     22  N   UNL A   1      35.466  30.276  27.280  1.00  0.00    -0.352 N 
ATOM     23  C   UNL A   1      36.512  30.680  28.067  1.00  0.00     0.251 C 
ATOM     24  H   UNL A   1      34.949  31.001  26.861  1.00  0.00     0.163 HD
ATOM     25  O   UNL A   1      36.487  31.800  28.572  1.00  0.00    -0.269 OA
BRANCH  23  26
ATOM     26  C   UNL A   1      37.680  29.810  28.310  1.00  0.00     0.039 A 
ATOM     27  C   UNL A   1      38.677  29.753  27.328  1.00  0.00     0.014 A 
ATOM     28  C   UNL A   1      37.736  28.964  29.425  1.00  0.00     0.014 A 
ATOM     29  C   UNL A   1      39.755  28.888  27.485  1.00  0.00     0.010 A 
ATOM     30  C   UNL A   1      38.819  28.104  29.593  1.00  0.00     0.010 A 
ATOM     31  C   UNL A   1      39.835  28.082  28.630  1.00  0.00    -0.014 A 
BRANCH  31  32
ATOM     32  C   UNL A   1      41.127  27.426  28.933  1.00  0.00     0.031 A 
ATOM     33  C   UNL A   1      41.123  25.976  28.348  1.00  0.00     0.074 A 
ATOM     34  C   UNL A   1      42.043  28.155  29.655  1.00  0.00     0.049 A 
ATOM     35  N   UNL A   1      41.773  24.917  28.718  1.00  0.00    -0.248 NA
ATOM     36  C   UNL A   1      40.212  25.641  27.209  1.00  0.00     0.031 C 
ATOM     37  C   UNL A   1      41.881  29.578  30.046  1.00  0.00     0.029 A 
ATOM     38  N   UNL A   1      43.282  27.881  30.211  1.00  0.00    -0.354 N 
ATOM     39  C   UNL A   1      41.535  23.892  27.763  1.00  0.00     0.074 A 
ATOM     40  C   UNL A   1      40.470  24.360  26.935  1.00  0.00     0.031 C 
ATOM     41  C   UNL A   1      42.900  29.997  30.833  1.00  0.00     0.029 A 
ATOM     42  C   UNL A   1      43.839  28.911  31.036  1.00  0.00     0.049 A 
ATOM     43  H   UNL A   1      43.752  27.031  30.049  1.00  0.00     0.167 HD
ATOM     44  C   UNL A   1      42.353  22.802  27.630  1.00  0.00     0.037 A 
ATOM     45  C   UNL A   1      44.946  28.862  31.854  1.00  0.00     0.037 A 
ATOM     46  C   UNL A   1      43.360  22.862  28.631  1.00  0.00     0.049 A 
ATOM     47  C   UNL A   1      45.572  27.583  31.517  1.00  0.00     0.074 A 
ATOM     48  C   UNL A   1      43.299  22.699  29.989  1.00  0.00     0.029 A 
ATOM     49  N   UNL A   1      44.506  23.539  28.295  1.00  0.00    -0.354 N 
ATOM     50  N   UNL A   1      46.224  27.360  30.416  1.00  0.00    -0.248 NA
ATOM     51  C   UNL A   1      45.370  26.442  32.417  1.00  0.00     0.031 C 
ATOM     52  C   UNL A   1      44.108  23.754  30.448  1.00  0.00     0.029 A 
ATOM     53  C   UNL A   1      44.871  24.269  29.392  1.00  0.00     0.049 A 
ATOM     54  H   UNL A   1      44.976  23.504  27.430  1.00  0.00     0.167 HD
ATOM     55  C   UNL A   1      46.180  25.992  30.345  1.00  0.00     0.074 A 
ATOM     56  C   UNL A   1      45.978  25.506  31.696  1.00  0.00     0.031 C 
ATOM     57  C   UNL A   1      45.728  25.409  29.206  1.00  0.00     0.037 A 
BRANCH  44  58
ATOM     58  C   UNL A   1      42.580  21.783  26.540  1.00  0.00     0.064 A 
ATOM     59  C   UNL A   1      42.150  20.449  26.786  1.00  0.00     0.173 A 
ATOM     60  C   UNL A   1      43.523  21.943  25.520  1.00  0.00     0.173 A 
ATOM     61  F   UNL A   1      41.197  20.189  27.696  1.00  0.00    -0.203 F 
ATOM     62  C   UNL A   1      42.764  19.349  26.192  1.00  0.00     0.198 A 
ATOM     63  C   UNL A   1      44.096  20.834  24.882  1.00  0.00     0.198 A 
ATOM     64  F   UNL A   1      43.988  23.154  25.190  1.00  0.00    -0.203 F 
ATOM     65  F   UNL A   1      42.449  18.109  26.594  1.00  0.00    -0.200 F 
ATOM     66  C   UNL A   1      43.757  19.543  25.256  1.00  0.00     0.200 A 
ATOM     67  F   UNL A   1      45.049  21.023  23.959  1.00  0.00    -0.200 F 
ATOM     68  F   UNL A   1      44.411  18.493  24.740  1.00  0.00    -0.200 F 
ENDBRANCH  44  58
BRANCH  45  69
ATOM     69  C   UNL A   1      45.640  29.635  32.970  1.00  0.00     0.064 A 
ATOM     70  C   UNL A   1      46.840  30.345  32.876  1.00  0.00     0.173 A 
ATOM     71  C   UNL A   1      44.999  29.766  34.246  1.00  0.00     0.173 A 
ATOM     72  F   UNL A   1      47.628  30.215  31.803  1.00  0.00    -0.203 F 
ATOM     73  C   UNL A   1      47.279  31.212  33.905  1.00  0.00     0.198 A 
ATOM     74  C   UNL A   1      45.393  30.671  35.232  1.00  0.00     0.198 A 
ATOM     75  F   UNL A   1      43.949  29.011  34.593  1.00  0.00    -0.203 F 
ATOM     76  F   UNL A   1      48.437  31.874  33.771  1.00  0.00    -0.200 F 
ATOM     77  C   UNL A   1      46.529  31.415  35.053  1.00  0.00     0.200 A 
ATOM     78  F   UNL A   1      44.643  30.820  36.336  1.00  0.00    -0.200 F 
ATOM     79  F   UNL A   1      46.902  32.303  35.984  1.00  0.00    -0.200 F 
ENDBRANCH  45  69
BRANCH  57  80
ATOM     80  C   UNL A   1      45.873  26.260  27.953  1.00  0.00     0.064 A 
ATOM     81  C   UNL A   1      47.149  26.693  27.553  1.00  0.00     0.173 A 
ATOM     82  C   UNL A   1      44.799  26.761  27.199  1.00  0.00     0.173 A 
ATOM     83  F   UNL A   1      48.238  26.238  28.192  1.00  0.00    -0.203 F 
ATOM     84  C   UNL A   1      47.331  27.592  26.496  1.00  0.00     0.198 A 
ATOM     85  C   UNL A   1      44.975  27.661  26.141  1.00  0.00     0.198 A 
ATOM     86  F   UNL A   1      43.549  26.386  27.459  1.00  0.00    -0.203 F 
ATOM     87  F   UNL A   1      48.568  27.978  26.156  1.00  0.00    -0.200 F 
ATOM     88  C   UNL A   1      46.243  28.081  25.794  1.00  0.00     0.200 A 
ATOM     89  F   UNL A   1      43.911  28.112  25.457  1.00  0.00    -0.200 F 
ATOM     90  F   UNL A   1      46.419  28.935  24.776  1.00  0.00    -0.200 F 
ENDBRANCH  57  80
ENDBRANCH  31  32
ENDBRANCH  23  26
ENDBRANCH  21  22
ENDBRANCH  20  21
ENDBRANCH  19  20
ENDBRANCH   1  19
TORSDOF 15
ENDMDL
MODEL 2
REMARK VINA RESULT:     -11.6      4.703      9.680
REMARK SMILES N#CCNC(=O)Cn1ccc(C(=O)NCCCCNC(=O)c2ccc(-c3c4nc(c(-c5c(F)c(F)c(F)c(F)c5F)c5ccc([nH]5)c(-c5c(F)c(F)c(F)c(F)c5F)c5nc(c(-c6c(F)c(F)c(F)c(F)c6F)c6ccc3[nH]6)C=C5)C=C4)cc2)c1
REMARK SMILES IDX 15 1 14 2 12 3 13 4 11 6 8 7 9 8 85 9 10 10 7 11 5 12 4 13
REMARK SMILES IDX 6 15 3 16 2 17 1 18 16 19 17 20 18 21 19 22 20 23 21 25
REMARK SMILES IDX 22 26 23 27 84 28 24 29 83 30 25 31 26 32 27 33 77 34 28 35
REMARK SMILES IDX 82 36 76 37 78 38 29 39 81 40 75 41 74 42 30 44 62 45 42 46
REMARK SMILES IDX 61 47 43 48 46 49 60 50 79 51 44 52 45 53 59 55 80 56 47 57
REMARK SMILES IDX 31 58 32 59 40 60 33 61 34 62 38 63 41 64 35 65 36 66 39 67
REMARK SMILES IDX 37 68 63 69 64 70 72 71 65 72 66 73 70 74 73 75 67 76 68 77
REMARK SMILES IDX 71 78 69 79 48 80 49 81 57 82 50 83 51 84 55 85 58 86 52 87
REMARK SMILES IDX 53 88 56 89 54 90
REMARK H PARENT 14 5 4 14 19 24 78 43 46 54
REMARK Flexibility Score: inf
ROOT
ATOM      1  C   UNL A   1      34.800  24.316  25.400  1.00  0.00     0.116 C 
ENDROOT
BRANCH   1   2
ATOM      2  N   UNL A   1      33.846  23.675  26.284  1.00  0.00    -0.352 N 
ATOM      3  C   UNL A   1      32.558  23.997  26.617  1.00  0.00     0.252 C 
ATOM      4  O   UNL A   1      32.005  23.297  27.481  1.00  0.00    -0.269 OA
ATOM      5  H   UNL A   1      34.186  22.863  26.725  1.00  0.00     0.163 HD
BRANCH   3   6
ATOM      6  C   UNL A   1      31.885  25.156  26.047  1.00  0.00     0.057 A 
ATOM      7  N   UNL A   1      31.268  27.242  25.482  1.00  0.00    -0.344 N 
ATOM      8  C   UNL A   1      30.246  26.421  25.105  1.00  0.00     0.087 A 
ATOM      9  C   UNL A   1      32.295  26.477  25.982  1.00  0.00     0.100 A 
ATOM     10  C   UNL A   1      30.638  25.124  25.351  1.00  0.00     0.033 A 
BRANCH   7  11
ATOM     11  C   UNL A   1      31.351  28.694  25.372  1.00  0.00     0.221 C 
BRANCH  11  12
ATOM     12  C   UNL A   1      31.084  29.262  24.000  1.00  0.00     0.240 C 
ATOM     13  N   UNL A   1      32.074  29.273  23.062  1.00  0.00    -0.341 N 
ATOM     14  H   UNL A   1      31.861  29.728  22.216  1.00  0.00     0.164 HD
ATOM     15  O   UNL A   1      30.007  29.789  23.720  1.00  0.00    -0.273 OA
BRANCH  13  16
ATOM     16  C   UNL A   1      33.403  28.699  23.157  1.00  0.00     0.236 C 
BRANCH  16  17
ATOM     17  C   UNL A   1      33.555  27.468  22.278  1.00  0.00     0.084 C 
ATOM     18  N   UNL A   1      33.682  26.447  21.549  1.00  0.00    -0.196 NA
ENDBRANCH  16  17
ENDBRANCH  13  16
ENDBRANCH  11  12
ENDBRANCH   7  11
ENDBRANCH   3   6
ENDBRANCH   1   2
BRANCH   1  19
ATOM     19  C   UNL A   1      35.715  23.331  24.680  1.00  0.00     0.023 C 
BRANCH  19  20
ATOM     20  C   UNL A   1      37.207  23.501  24.995  1.00  0.00     0.023 C 
BRANCH  20  21
ATOM     21  C   UNL A   1      37.506  24.181  26.336  1.00  0.00     0.116 C 
BRANCH  21  22
ATOM     22  N   UNL A   1      38.619  23.544  27.021  1.00  0.00    -0.352 N 
ATOM     23  C   UNL A   1      39.733  24.114  27.580  1.00  0.00     0.251 C 
ATOM     24  H   UNL A   1      38.566  22.564  27.093  1.00  0.00     0.163 HD
ATOM     25  O   UNL A   1      40.753  23.442  27.706  1.00  0.00    -0.269 OA
BRANCH  23  26
ATOM     26  C   UNL A   1      39.732  25.513  28.053  1.00  0.00     0.039 A 
ATOM     27  C   UNL A   1      39.191  25.782  29.318  1.00  0.00     0.014 A 
ATOM     28  C   UNL A   1      40.138  26.562  27.220  1.00  0.00     0.014 A 
ATOM     29  C   UNL A   1      39.103  27.095  29.767  1.00  0.00     0.010 A 
ATOM     30  C   UNL A   1      40.062  27.878  27.669  1.00  0.00     0.010 A 
ATOM     31  C   UNL A   1      39.561  28.139  28.950  1.00  0.00    -0.014 A 
BRANCH  31  32
ATOM     32  C   UNL A   1      39.761  29.471  29.565  1.00  0.00     0.031 A 
ATOM     33  C   UNL A   1      38.500  30.357  29.306  1.00  0.00     0.074 A 
ATOM     34  C   UNL A   1      40.961  29.691  30.199  1.00  0.00     0.049 A 
ATOM     35  N   UNL A   1      38.377  31.646  29.233  1.00  0.00    -0.248 NA
ATOM     36  C   UNL A   1      37.182  29.705  29.030  1.00  0.00     0.031 C 
ATOM     37  C   UNL A   1      42.012  28.665  30.415  1.00  0.00     0.029 A 
ATOM     38  N   UNL A   1      41.560  30.791  30.792  1.00  0.00    -0.354 N 
ATOM     39  C   UNL A   1      36.994  31.956  29.134  1.00  0.00     0.074 A 
ATOM     40  C   UNL A   1      36.325  30.720  28.886  1.00  0.00     0.031 C 
ATOM     41  C   UNL A   1      43.121  29.199  30.981  1.00  0.00     0.029 A 
ATOM     42  C   UNL A   1      42.919  30.616  31.208  1.00  0.00     0.049 A 
ATOM     43  H   UNL A   1      41.080  31.642  30.920  1.00  0.00     0.167 HD
ATOM     44  C   UNL A   1      36.491  33.196  29.431  1.00  0.00     0.037 A 
ATOM     45  C   UNL A   1      43.819  31.560  31.652  1.00  0.00     0.037 A 
ATOM     46  C   UNL A   1      37.573  34.063  29.746  1.00  0.00     0.049 A 
ATOM     47  C   UNL A   1      43.002  32.762  31.827  1.00  0.00     0.074 A 
ATOM     48  C   UNL A   1      38.557  34.605  28.965  1.00  0.00     0.029 A 
ATOM     49  N   UNL A   1      37.953  34.098  31.065  1.00  0.00    -0.354 N 
ATOM     50  N   UNL A   1      42.158  32.932  32.798  1.00  0.00    -0.248 NA
ATOM     51  C   UNL A   1      43.052  33.803  30.795  1.00  0.00     0.031 C 
ATOM     52  C   UNL A   1      39.699  34.432  29.769  1.00  0.00     0.029 A 
ATOM     53  C   UNL A   1      39.319  34.129  31.083  1.00  0.00     0.049 A 
ATOM     54  H   UNL A   1      37.355  34.102  31.848  1.00  0.00     0.167 HD
ATOM     55  C   UNL A   1      41.343  33.907  32.284  1.00  0.00     0.074 A 
ATOM     56  C   UNL A   1      42.111  34.610  31.276  1.00  0.00     0.031 C 
ATOM     57  C   UNL A   1      40.002  33.703  32.275  1.00  0.00     0.037 A 
BRANCH  44  58
ATOM     58  C   UNL A   1      35.117  33.722  29.763  1.00  0.00     0.064 A 
ATOM     59  C   UNL A   1      34.516  34.625  28.842  1.00  0.00     0.173 A 
ATOM     60  C   UNL A   1      34.586  33.726  31.057  1.00  0.00     0.173 A 
ATOM     61  F   UNL A   1      34.902  34.654  27.556  1.00  0.00    -0.203 F 
ATOM     62  C   UNL A   1      33.595  35.591  29.241  1.00  0.00     0.198 A 
ATOM     63  C   UNL A   1      33.616  34.662  31.440  1.00  0.00     0.198 A 
ATOM     64  F   UNL A   1      35.062  32.908  32.004  1.00  0.00    -0.203 F 
ATOM     65  F   UNL A   1      33.198  36.535  28.376  1.00  0.00    -0.200 F 
ATOM     66  C   UNL A   1      33.163  35.623  30.550  1.00  0.00     0.200 A 
ATOM     67  F   UNL A   1      33.182  34.683  32.708  1.00  0.00    -0.200 F 
ATOM     68  F   UNL A   1      32.341  36.598  30.963  1.00  0.00    -0.200 F 
ENDBRANCH  44  58
BRANCH  45  69
ATOM     69  C   UNL A   1      45.304  31.753  31.934  1.00  0.00     0.064 A 
ATOM     70  C   UNL A   1      45.911  31.857  33.188  1.00  0.00     0.173 A 
ATOM     71  C   UNL A   1      46.240  31.739  30.847  1.00  0.00     0.173 A 
ATOM     72  F   UNL A   1      45.175  32.023  34.292  1.00  0.00    -0.203 F 
ATOM     73  C   UNL A   1      47.318  31.806  33.345  1.00  0.00     0.198 A 
ATOM     74  C   UNL A   1      47.621  31.619  31.003  1.00  0.00     0.198 A 
ATOM     75  F   UNL A   1      45.846  31.841  29.571  1.00  0.00    -0.203 F 
ATOM     76  F   UNL A   1      47.856  31.908  34.568  1.00  0.00    -0.200 F 
ATOM     77  C   UNL A   1      48.164  31.632  32.261  1.00  0.00     0.200 A 
ATOM     78  F   UNL A   1      48.402  31.471  29.921  1.00  0.00    -0.200 F 
ATOM     79  F   UNL A   1      49.486  31.495  32.422  1.00  0.00    -0.200 F 
ENDBRANCH  45  69
BRANCH  57  80
ATOM     80  C   UNL A   1      39.498  32.728  33.329  1.00  0.00     0.064 A 
ATOM     81  C   UNL A   1      39.723  33.000  34.689  1.00  0.00     0.173 A 
ATOM     82  C   UNL A   1      38.906  31.485  33.050  1.00  0.00     0.173 A 
ATOM     83  F   UNL A   1      40.250  34.178  35.055  1.00  0.00    -0.203 F 
ATOM     84  C   UNL A   1      39.411  32.076  35.693  1.00  0.00     0.198 A 
ATOM     85  C   UNL A   1      38.592  30.557  34.049  1.00  0.00     0.198 A 
ATOM     86  F   UNL A   1      38.606  31.138  31.800  1.00  0.00    -0.203 F 
ATOM     87  F   UNL A   1      39.650  32.381  36.976  1.00  0.00    -0.200 F 
ATOM     88  C   UNL A   1      38.851  30.852  35.373  1.00  0.00     0.200 A 
ATOM     89  F   UNL A   1      38.032  29.380  33.724  1.00  0.00    -0.200 F 
ATOM     90  F   UNL A   1      38.544  29.971  36.335  1.00  0.00    -0.200 F 
ENDBRANCH  57  80
ENDBRANCH  31  32
ENDBRANCH  23  26
ENDBRANCH  21  22
ENDBRANCH  20  21
ENDBRANCH  19  20
ENDBRANCH   1  19
TORSDOF 15
ENDMDL
MODEL 3
REMARK VINA RESULT:     -11.6      1.735      2.375
REMARK SMILES N#CCNC(=O)Cn1ccc(C(=O)NCCCCNC(=O)c2ccc(-c3c4nc(c(-c5c(F)c(F)c(F)c(F)c5F)c5ccc([nH]5)c(-c5c(F)c(F)c(F)c(F)c5F)c5nc(c(-c6c(F)c(F)c(F)c(F)c6F)c6ccc3[nH]6)C=C5)C=C4)cc2)c1
REMARK SMILES IDX 15 1 14 2 12 3 13 4 11 6 8 7 9 8 85 9 10 10 7 11 5 12 4 13
REMARK SMILES IDX 6 15 3 16 2 17 1 18 16 19 17 20 18 21 19 22 20 23 21 25
REMARK SMILES IDX 22 26 23 27 84 28 24 29 83 30 25 31 26 32 27 33 77 34 28 35
REMARK SMILES IDX 82 36 76 37 78 38 29 39 81 40 75 41 74 42 30 44 62 45 42 46
REMARK SMILES IDX 61 47 43 48 46 49 60 50 79 51 44 52 45 53 59 55 80 56 47 57
REMARK SMILES IDX 31 58 32 59 40 60 33 61 34 62 38 63 41 64 35 65 36 66 39 67
REMARK SMILES IDX 37 68 63 69 64 70 72 71 65 72 66 73 70 74 73 75 67 76 68 77
REMARK SMILES IDX 71 78 69 79 48 80 49 81 57 82 50 83 51 84 55 85 58 86 52 87
REMARK SMILES IDX 53 88 56 89 54 90
REMARK H PARENT 14 5 4 14 19 24 78 43 46 54
REMARK Flexibility Score: inf
ROOT
ATOM      1  C   UNL A   1      32.706  27.001  25.120  1.00  0.00     0.116 C 
ENDROOT
BRANCH   1   2
ATOM      2  N   UNL A   1      33.062  27.024  23.715  1.00  0.00    -0.352 N 
ATOM      3  C   UNL A   1      33.397  26.020  22.845  1.00  0.00     0.252 C 
ATOM      4  O   UNL A   1      33.742  26.355  21.701  1.00  0.00    -0.269 OA
ATOM      5  H   UNL A   1      33.065  27.923  23.314  1.00  0.00     0.163 HD
BRANCH   3   6
ATOM      6  C   UNL A   1      33.427  24.625  23.261  1.00  0.00     0.057 A 
ATOM      7  N   UNL A   1      34.056  22.597  23.999  1.00  0.00    -0.344 N 
ATOM      8  C   UNL A   1      32.823  22.439  23.438  1.00  0.00     0.087 A 
ATOM      9  C   UNL A   1      34.395  23.929  23.965  1.00  0.00     0.100 A 
ATOM     10  C   UNL A   1      32.371  23.684  23.062  1.00  0.00     0.033 A 
BRANCH   7  11
ATOM     11  C   UNL A   1      34.919  21.582  24.592  1.00  0.00     0.221 C 
BRANCH  11  12
ATOM     12  C   UNL A   1      35.685  22.012  25.820  1.00  0.00     0.240 C 
ATOM     13  N   UNL A   1      35.079  21.997  27.041  1.00  0.00    -0.341 N 
ATOM     14  H   UNL A   1      35.606  22.364  27.788  1.00  0.00     0.164 HD
ATOM     15  O   UNL A   1      36.834  22.449  25.740  1.00  0.00    -0.273 OA
BRANCH  13  16
ATOM     16  C   UNL A   1      33.755  21.511  27.377  1.00  0.00     0.236 C 
BRANCH  16  17
ATOM     17  C   UNL A   1      32.711  22.614  27.316  1.00  0.00     0.084 C 
ATOM     18  N   UNL A   1      31.845  23.529  27.265  1.00  0.00    -0.196 NA
ENDBRANCH  16  17
ENDBRANCH  13  16
ENDBRANCH  11  12
ENDBRANCH   7  11
ENDBRANCH   3   6
ENDBRANCH   1   2
BRANCH   1  19
ATOM     19  C   UNL A   1      32.537  28.390  25.725  1.00  0.00     0.023 C 
BRANCH  19  20
ATOM     20  C   UNL A   1      33.329  28.622  27.018  1.00  0.00     0.023 C 
BRANCH  20  21
ATOM     21  C   UNL A   1      34.827  28.876  26.816  1.00  0.00     0.116 C 
BRANCH  21  22
ATOM     22  N   UNL A   1      35.207  30.209  27.255  1.00  0.00    -0.352 N 
ATOM     23  C   UNL A   1      36.177  30.583  28.148  1.00  0.00     0.251 C 
ATOM     24  H   UNL A   1      34.694  30.948  26.856  1.00  0.00     0.163 HD
ATOM     25  O   UNL A   1      36.073  31.658  28.735  1.00  0.00    -0.269 OA
BRANCH  23  26
ATOM     26  C   UNL A   1      37.357  29.736  28.410  1.00  0.00     0.039 A 
ATOM     27  C   UNL A   1      38.377  29.708  27.450  1.00  0.00     0.014 A 
ATOM     28  C   UNL A   1      37.407  28.882  29.519  1.00  0.00     0.014 A 
ATOM     29  C   UNL A   1      39.469  28.863  27.624  1.00  0.00     0.010 A 
ATOM     30  C   UNL A   1      38.503  28.043  29.704  1.00  0.00     0.010 A 
ATOM     31  C   UNL A   1      39.540  28.050  28.764  1.00  0.00    -0.014 A 
BRANCH  31  32
ATOM     32  C   UNL A   1      40.839  27.418  29.091  1.00  0.00     0.031 A 
ATOM     33  C   UNL A   1      40.985  26.086  28.286  1.00  0.00     0.074 A 
ATOM     34  C   UNL A   1      41.633  28.064  30.009  1.00  0.00     0.049 A 
ATOM     35  N   UNL A   1      41.666  25.013  28.549  1.00  0.00    -0.248 NA
ATOM     36  C   UNL A   1      40.208  25.897  27.021  1.00  0.00     0.031 C 
ATOM     37  C   UNL A   1      41.342  29.393  30.602  1.00  0.00     0.029 A 
ATOM     38  N   UNL A   1      42.830  27.764  30.639  1.00  0.00    -0.354 N 
ATOM     39  C   UNL A   1      41.586  24.149  27.424  1.00  0.00     0.074 A 
ATOM     40  C   UNL A   1      40.575  24.693  26.576  1.00  0.00     0.031 C 
ATOM     41  C   UNL A   1      42.254  29.727  31.546  1.00  0.00     0.029 A 
ATOM     42  C   UNL A   1      43.239  28.672  31.670  1.00  0.00     0.049 A 
ATOM     43  H   UNL A   1      43.368  26.977  30.394  1.00  0.00     0.167 HD
ATOM     44  C   UNL A   1      42.483  23.138  27.205  1.00  0.00     0.037 A 
ATOM     45  C   UNL A   1      44.266  28.544  32.580  1.00  0.00     0.037 A 
ATOM     46  C   UNL A   1      43.386  23.082  28.301  1.00  0.00     0.049 A 
ATOM     47  C   UNL A   1      45.002  27.371  32.110  1.00  0.00     0.074 A 
ATOM     48  C   UNL A   1      43.209  22.697  29.602  1.00  0.00     0.029 A 
ATOM     49  N   UNL A   1      44.511  23.862  28.197  1.00  0.00    -0.354 N 
ATOM     50  N   UNL A   1      45.768  27.364  31.061  1.00  0.00    -0.248 NA
ATOM     51  C   UNL A   1      44.793  26.089  32.792  1.00  0.00     0.031 C 
ATOM     52  C   UNL A   1      43.900  23.701  30.304  1.00  0.00     0.029 A 
ATOM     53  C   UNL A   1      44.723  24.419  29.427  1.00  0.00     0.049 A 
ATOM     54  H   UNL A   1      45.061  23.993  27.390  1.00  0.00     0.167 HD
ATOM     55  C   UNL A   1      45.821  26.026  30.770  1.00  0.00     0.074 A 
ATOM     56  C   UNL A   1      45.527  25.315  31.999  1.00  0.00     0.031 C 
ATOM     57  C   UNL A   1      45.517  25.615  29.513  1.00  0.00     0.037 A 
BRANCH  44  58
ATOM     58  C   UNL A   1      42.877  22.324  25.996  1.00  0.00     0.064 A 
ATOM     59  C   UNL A   1      42.915  20.909  26.140  1.00  0.00     0.173 A 
ATOM     60  C   UNL A   1      43.590  22.848  24.914  1.00  0.00     0.173 A 
ATOM     61  F   UNL A   1      42.210  20.295  27.104  1.00  0.00    -0.203 F 
ATOM     62  C   UNL A   1      43.761  20.107  25.377  1.00  0.00     0.198 A 
ATOM     63  C   UNL A   1      44.395  22.029  24.110  1.00  0.00     0.198 A 
ATOM     64  F   UNL A   1      43.612  24.164  24.671  1.00  0.00    -0.203 F 
ATOM     65  F   UNL A   1      43.898  18.806  25.672  1.00  0.00    -0.200 F 
ATOM     66  C   UNL A   1      44.520  20.674  24.375  1.00  0.00     0.200 A 
ATOM     67  F   UNL A   1      45.120  22.577  23.126  1.00  0.00    -0.200 F 
ATOM     68  F   UNL A   1      45.398  19.927  23.691  1.00  0.00    -0.200 F 
ENDBRANCH  44  58
BRANCH  45  69
ATOM     69  C   UNL A   1      44.799  29.157  33.869  1.00  0.00     0.064 A 
ATOM     70  C   UNL A   1      44.130  29.248  35.092  1.00  0.00     0.173 A 
ATOM     71  C   UNL A   1      46.156  29.619  33.926  1.00  0.00     0.173 A 
ATOM     72  F   UNL A   1      42.820  28.989  35.175  1.00  0.00    -0.203 F 
ATOM     73  C   UNL A   1      44.795  29.628  36.283  1.00  0.00     0.198 A 
ATOM     74  C   UNL A   1      46.831  29.927  35.108  1.00  0.00     0.198 A 
ATOM     75  F   UNL A   1      46.893  29.792  32.822  1.00  0.00    -0.203 F 
ATOM     76  F   UNL A   1      44.112  29.700  37.434  1.00  0.00    -0.200 F 
ATOM     77  C   UNL A   1      46.152  29.912  36.298  1.00  0.00     0.200 A 
ATOM     78  F   UNL A   1      48.142  30.213  35.070  1.00  0.00    -0.200 F 
ATOM     79  F   UNL A   1      46.796  30.183  37.440  1.00  0.00    -0.200 F 
ENDBRANCH  45  69
BRANCH  57  80
ATOM     80  C   UNL A   1      45.722  26.667  28.432  1.00  0.00     0.064 A 
ATOM     81  C   UNL A   1      47.007  27.191  28.209  1.00  0.00     0.173 A 
ATOM     82  C   UNL A   1      44.689  27.262  27.689  1.00  0.00     0.173 A 
ATOM     83  F   UNL A   1      48.062  26.660  28.846  1.00  0.00    -0.203 F 
ATOM     84  C   UNL A   1      47.233  28.257  27.332  1.00  0.00     0.198 A 
ATOM     85  C   UNL A   1      44.908  28.329  26.810  1.00  0.00     0.198 A 
ATOM     86  F   UNL A   1      43.437  26.819  27.786  1.00  0.00    -0.203 F 
ATOM     87  F   UNL A   1      48.477  28.723  27.157  1.00  0.00    -0.200 F 
ATOM     88  C   UNL A   1      46.183  28.831  26.637  1.00  0.00     0.200 A 
ATOM     89  F   UNL A   1      43.881  28.863  26.130  1.00  0.00    -0.200 F 
ATOM     90  F   UNL A   1      46.401  29.846  25.790  1.00  0.00    -0.200 F 
ENDBRANCH  57  80
ENDBRANCH  31  32
ENDBRANCH  23  26
ENDBRANCH  21  22
ENDBRANCH  20  21
ENDBRANCH  19  20
ENDBRANCH   1  19
TORSDOF 15
ENDMDL
