MODEL 1
REMARK VINA RESULT:     -10.9      0.000      0.000
REMARK SMILES C[C@H](O)[C@H](C)[N@H+](CCC(=O)NCCCCNC(=O)c1ccc(-c2c3nc(c(-c4c(F)c(F)c(F)c(F)c4F)c4ccc([nH]4)c(-c4c(F)c(F)c(F)c(F)c4F)c4nc(c(-c5c(F)c(F)c(F)c(F)c5F)c5ccc2[nH]5)C=C4)C=C3)cc1)C1CC1
REMARK SMILES IDX 12 1 11 2 9 3 10 4 8 6 7 7 6 8 4 10 5 11 2 12 1 13 3 14
REMARK SMILES IDX 82 16 83 17 84 18 13 19 14 20 15 21 16 22 17 23 18 25 19 26
REMARK SMILES IDX 20 27 81 28 21 29 80 30 22 31 23 32 24 33 74 34 25 35 79 36
REMARK SMILES IDX 73 37 75 38 26 39 78 40 72 41 71 42 27 44 59 45 39 46 58 47
REMARK SMILES IDX 40 48 43 49 57 50 76 51 41 52 42 53 56 55 77 56 44 57 28 58
REMARK SMILES IDX 29 59 37 60 30 61 31 62 35 63 38 64 32 65 33 66 36 67 34 68
REMARK SMILES IDX 60 69 61 70 69 71 62 72 63 73 67 74 70 75 64 76 65 77 68 78
REMARK SMILES IDX 66 79 45 80 46 81 54 82 47 83 48 84 52 85 55 86 49 87 50 88
REMARK SMILES IDX 53 89 51 90
REMARK H PARENT 11 5 6 9 3 15 16 24 75 43 43 54
REMARK Flexibility Score: inf
ROOT
ATOM      1  C   UNL A   1      32.911  29.396  27.102  1.00  0.00     0.116 C 
ENDROOT
BRANCH   1   2
ATOM      2  N   UNL A   1      31.951  28.315  27.228  1.00  0.00    -0.356 N 
ATOM      3  C   UNL A   1      31.938  27.066  26.681  1.00  0.00     0.225 C 
ATOM      4  O   UNL A   1      31.015  26.310  26.995  1.00  0.00    -0.275 OA
ATOM      5  H   UNL A   1      31.180  28.517  27.807  1.00  0.00     0.163 HD
BRANCH   3   6
ATOM      6  C   UNL A   1      33.042  26.607  25.762  1.00  0.00     0.161 C 
BRANCH   6   7
ATOM      7  C   UNL A   1      32.784  25.312  24.979  1.00  0.00     0.272 C 
BRANCH   7   8
ATOM      8  N   UNL A   1      33.595  24.129  25.286  1.00  0.00    -0.328 N 
ATOM      9  H   UNL A   1      33.891  23.232  24.900  1.00  0.00     0.348 HD
BRANCH   8  10
ATOM     10  C   UNL A   1      34.954  24.052  24.702  1.00  0.00     0.209 C 
ATOM     11  C   UNL A   1      36.081  23.838  25.734  1.00  0.00     0.078 C 
BRANCH  10  12
ATOM     12  C   UNL A   1      35.191  22.985  23.558  1.00  0.00     0.169 C 
ATOM     13  C   UNL A   1      36.659  22.896  23.136  1.00  0.00     0.045 C 
BRANCH  12  14
ATOM     14  O   UNL A   1      34.501  23.269  22.345  1.00  0.00    -0.387 OA
ATOM     15  H   UNL A   1      33.768  22.642  22.235  1.00  0.00     0.211 HD
ENDBRANCH  12  14
ENDBRANCH  10  12
ENDBRANCH   8  10
BRANCH   8  16
ATOM     16  C   UNL A   1      33.007  23.189  26.242  1.00  0.00     0.184 C 
ATOM     17  C   UNL A   1      31.551  22.915  26.482  1.00  0.00     0.071 C 
ATOM     18  C   UNL A   1      32.379  21.901  25.763  1.00  0.00     0.071 C 
ENDBRANCH   8  16
ENDBRANCH   7   8
ENDBRANCH   6   7
ENDBRANCH   3   6
ENDBRANCH   1   2
BRANCH   1  19
ATOM     19  C   UNL A   1      32.444  30.591  26.262  1.00  0.00     0.023 C 
BRANCH  19  20
ATOM     20  C   UNL A   1      31.906  31.781  27.062  1.00  0.00     0.023 C 
BRANCH  20  21
ATOM     21  C   UNL A   1      32.988  32.797  27.356  1.00  0.00     0.116 C 
BRANCH  21  22
ATOM     22  N   UNL A   1      32.524  34.141  27.669  1.00  0.00    -0.352 N 
ATOM     23  C   UNL A   1      33.046  34.986  28.631  1.00  0.00     0.251 C 
ATOM     24  H   UNL A   1      31.764  34.483  27.144  1.00  0.00     0.163 HD
ATOM     25  O   UNL A   1      32.530  36.067  28.884  1.00  0.00    -0.269 OA
BRANCH  23  26
ATOM     26  C   UNL A   1      34.214  34.511  29.407  1.00  0.00     0.039 A 
ATOM     27  C   UNL A   1      34.016  33.875  30.634  1.00  0.00     0.014 A 
ATOM     28  C   UNL A   1      35.488  34.567  28.843  1.00  0.00     0.014 A 
ATOM     29  C   UNL A   1      35.083  33.205  31.236  1.00  0.00     0.010 A 
ATOM     30  C   UNL A   1      36.498  33.772  29.357  1.00  0.00     0.010 A 
ATOM     31  C   UNL A   1      36.318  33.099  30.572  1.00  0.00    -0.014 A 
BRANCH  31  32
ATOM     32  C   UNL A   1      37.455  32.333  31.142  1.00  0.00     0.031 A 
ATOM     33  C   UNL A   1      37.933  32.649  32.535  1.00  0.00     0.074 A 
ATOM     34  C   UNL A   1      38.103  31.423  30.389  1.00  0.00     0.049 A 
ATOM     35  N   UNL A   1      38.959  32.169  33.192  1.00  0.00    -0.248 NA
ATOM     36  C   UNL A   1      37.195  33.692  33.269  1.00  0.00     0.031 C 
ATOM     37  C   UNL A   1      37.790  31.092  28.997  1.00  0.00     0.029 A 
ATOM     38  N   UNL A   1      39.164  30.607  30.690  1.00  0.00    -0.354 N 
ATOM     39  C   UNL A   1      39.004  32.880  34.386  1.00  0.00     0.074 A 
ATOM     40  C   UNL A   1      37.965  33.880  34.327  1.00  0.00     0.031 C 
ATOM     41  C   UNL A   1      38.601  30.106  28.584  1.00  0.00     0.029 A 
ATOM     42  C   UNL A   1      39.512  29.755  29.668  1.00  0.00     0.049 A 
ATOM     43  H   UNL A   1      39.631  30.628  31.556  1.00  0.00     0.167 HD
ATOM     44  C   UNL A   1      39.810  32.687  35.456  1.00  0.00     0.037 A 
ATOM     45  C   UNL A   1      40.452  28.792  29.627  1.00  0.00     0.037 A 
ATOM     46  C   UNL A   1      40.789  31.637  35.533  1.00  0.00     0.049 A 
ATOM     47  C   UNL A   1      41.291  28.547  30.853  1.00  0.00     0.074 A 
ATOM     48  C   UNL A   1      41.600  31.285  36.596  1.00  0.00     0.029 A 
ATOM     49  N   UNL A   1      41.074  30.757  34.498  1.00  0.00    -0.354 N 
ATOM     50  N   UNL A   1      41.271  29.170  32.007  1.00  0.00    -0.248 NA
ATOM     51  C   UNL A   1      42.274  27.459  30.774  1.00  0.00     0.031 C 
ATOM     52  C   UNL A   1      42.398  30.210  36.193  1.00  0.00     0.029 A 
ATOM     53  C   UNL A   1      42.055  29.866  34.894  1.00  0.00     0.049 A 
ATOM     54  H   UNL A   1      40.642  30.766  33.614  1.00  0.00     0.167 HD
ATOM     55  C   UNL A   1      42.211  28.530  32.803  1.00  0.00     0.074 A 
ATOM     56  C   UNL A   1      42.774  27.462  32.001  1.00  0.00     0.031 C 
ATOM     57  C   UNL A   1      42.581  28.801  34.078  1.00  0.00     0.037 A 
BRANCH  44  58
ATOM     58  C   UNL A   1      39.640  33.614  36.625  1.00  0.00     0.064 A 
ATOM     59  C   UNL A   1      38.802  33.296  37.706  1.00  0.00     0.173 A 
ATOM     60  C   UNL A   1      40.314  34.844  36.663  1.00  0.00     0.173 A 
ATOM     61  F   UNL A   1      38.120  32.139  37.714  1.00  0.00    -0.203 F 
ATOM     62  C   UNL A   1      38.605  34.192  38.753  1.00  0.00     0.198 A 
ATOM     63  C   UNL A   1      40.144  35.724  37.729  1.00  0.00     0.198 A 
ATOM     64  F   UNL A   1      41.130  35.200  35.660  1.00  0.00    -0.203 F 
ATOM     65  F   UNL A   1      37.740  33.897  39.732  1.00  0.00    -0.200 F 
ATOM     66  C   UNL A   1      39.279  35.403  38.766  1.00  0.00     0.200 A 
ATOM     67  F   UNL A   1      40.804  36.889  37.748  1.00  0.00    -0.200 F 
ATOM     68  F   UNL A   1      39.087  36.268  39.773  1.00  0.00    -0.200 F 
ENDBRANCH  44  58
BRANCH  45  69
ATOM     69  C   UNL A   1      40.597  27.940  28.416  1.00  0.00     0.064 A 
ATOM     70  C   UNL A   1      41.392  28.360  27.339  1.00  0.00     0.173 A 
ATOM     71  C   UNL A   1      39.955  26.699  28.305  1.00  0.00     0.173 A 
ATOM     72  F   UNL A   1      42.014  29.548  27.390  1.00  0.00    -0.203 F 
ATOM     73  C   UNL A   1      41.520  27.582  26.190  1.00  0.00     0.198 A 
ATOM     74  C   UNL A   1      40.106  25.909  27.166  1.00  0.00     0.198 A 
ATOM     75  F   UNL A   1      39.190  26.246  29.309  1.00  0.00    -0.203 F 
ATOM     76  F   UNL A   1      42.251  28.030  25.159  1.00  0.00    -0.200 F 
ATOM     77  C   UNL A   1      40.882  26.355  26.105  1.00  0.00     0.200 A 
ATOM     78  F   UNL A   1      39.498  24.717  27.093  1.00  0.00    -0.200 F 
ATOM     79  F   UNL A   1      41.008  25.606  25.002  1.00  0.00    -0.200 F 
ENDBRANCH  45  69
BRANCH  57  80
ATOM     80  C   UNL A   1      43.609  27.902  34.697  1.00  0.00     0.064 A 
ATOM     81  C   UNL A   1      43.248  26.717  35.353  1.00  0.00     0.173 A 
ATOM     82  C   UNL A   1      44.972  28.212  34.593  1.00  0.00     0.173 A 
ATOM     83  F   UNL A   1      41.955  26.386  35.489  1.00  0.00    -0.203 F 
ATOM     84  C   UNL A   1      44.217  25.886  35.907  1.00  0.00     0.198 A 
ATOM     85  C   UNL A   1      45.940  27.364  35.122  1.00  0.00     0.198 A 
ATOM     86  F   UNL A   1      45.367  29.331  33.967  1.00  0.00    -0.203 F 
ATOM     87  F   UNL A   1      43.849  24.782  36.573  1.00  0.00    -0.200 F 
ATOM     88  C   UNL A   1      45.562  26.206  35.785  1.00  0.00     0.200 A 
ATOM     89  F   UNL A   1      47.239  27.667  34.991  1.00  0.00    -0.200 F 
ATOM     90  F   UNL A   1      46.493  25.402  36.314  1.00  0.00    -0.200 F 
ENDBRANCH  57  80
ENDBRANCH  31  32
ENDBRANCH  23  26
ENDBRANCH  21  22
ENDBRANCH  20  21
ENDBRANCH  19  20
ENDBRANCH   1  19
TORSDOF 17
ENDMDL
MODEL 2
REMARK VINA RESULT:     -10.9      1.280      2.252
REMARK SMILES C[C@H](O)[C@H](C)[N@H+](CCC(=O)NCCCCNC(=O)c1ccc(-c2c3nc(c(-c4c(F)c(F)c(F)c(F)c4F)c4ccc([nH]4)c(-c4c(F)c(F)c(F)c(F)c4F)c4nc(c(-c5c(F)c(F)c(F)c(F)c5F)c5ccc2[nH]5)C=C4)C=C3)cc1)C1CC1
REMARK SMILES IDX 12 1 11 2 9 3 10 4 8 6 7 7 6 8 4 10 5 11 2 12 1 13 3 14
REMARK SMILES IDX 82 16 83 17 84 18 13 19 14 20 15 21 16 22 17 23 18 25 19 26
REMARK SMILES IDX 20 27 81 28 21 29 80 30 22 31 23 32 24 33 74 34 25 35 79 36
REMARK SMILES IDX 73 37 75 38 26 39 78 40 72 41 71 42 27 44 59 45 39 46 58 47
REMARK SMILES IDX 40 48 43 49 57 50 76 51 41 52 42 53 56 55 77 56 44 57 28 58
REMARK SMILES IDX 29 59 37 60 30 61 31 62 35 63 38 64 32 65 33 66 36 67 34 68
REMARK SMILES IDX 60 69 61 70 69 71 62 72 63 73 67 74 70 75 64 76 65 77 68 78
REMARK SMILES IDX 66 79 45 80 46 81 54 82 47 83 48 84 52 85 55 86 49 87 50 88
REMARK SMILES IDX 53 89 51 90
REMARK H PARENT 11 5 6 9 3 15 16 24 75 43 43 54
REMARK Flexibility Score: inf
ROOT
ATOM      1  C   UNL A   1      33.497  29.886  26.601  1.00  0.00     0.116 C 
ENDROOT
BRANCH   1   2
ATOM      2  N   UNL A   1      33.696  29.667  25.181  1.00  0.00    -0.356 N 
ATOM      3  C   UNL A   1      33.710  28.516  24.448  1.00  0.00     0.225 C 
ATOM      4  O   UNL A   1      33.853  28.613  23.227  1.00  0.00    -0.275 OA
ATOM      5  H   UNL A   1      33.847  30.488  24.657  1.00  0.00     0.163 HD
BRANCH   3   6
ATOM      6  C   UNL A   1      33.507  27.175  25.105  1.00  0.00     0.161 C 
BRANCH   6   7
ATOM      7  C   UNL A   1      32.749  26.121  24.284  1.00  0.00     0.272 C 
BRANCH   7   8
ATOM      8  N   UNL A   1      31.302  25.982  24.479  1.00  0.00    -0.328 N 
ATOM      9  H   UNL A   1      30.466  25.582  24.053  1.00  0.00     0.348 HD
BRANCH   8  10
ATOM     10  C   UNL A   1      30.799  24.704  25.031  1.00  0.00     0.209 C 
ATOM     11  C   UNL A   1      31.140  23.462  24.181  1.00  0.00     0.078 C 
BRANCH  10  12
ATOM     12  C   UNL A   1      31.204  24.348  26.519  1.00  0.00     0.169 C 
ATOM     13  C   UNL A   1      32.394  23.389  26.588  1.00  0.00     0.045 C 
BRANCH  12  14
ATOM     14  O   UNL A   1      30.184  23.683  27.257  1.00  0.00    -0.387 OA
ATOM     15  H   UNL A   1      29.486  24.317  27.487  1.00  0.00     0.211 HD
ENDBRANCH  12  14
ENDBRANCH  10  12
ENDBRANCH   8  10
BRANCH   8  16
ATOM     16  C   UNL A   1      30.508  27.182  24.206  1.00  0.00     0.184 C 
ATOM     17  C   UNL A   1      30.209  27.801  22.872  1.00  0.00     0.071 C 
ATOM     18  C   UNL A   1      29.130  27.067  23.598  1.00  0.00     0.071 C 
ENDBRANCH   8  16
ENDBRANCH   7   8
ENDBRANCH   6   7
ENDBRANCH   3   6
ENDBRANCH   1   2
BRANCH   1  19
ATOM     19  C   UNL A   1      32.097  30.369  26.999  1.00  0.00     0.023 C 
BRANCH  19  20
ATOM     20  C   UNL A   1      31.816  31.850  26.727  1.00  0.00     0.023 C 
BRANCH  20  21
ATOM     21  C   UNL A   1      32.840  32.748  27.387  1.00  0.00     0.116 C 
BRANCH  21  22
ATOM     22  N   UNL A   1      32.408  34.113  27.648  1.00  0.00    -0.352 N 
ATOM     23  C   UNL A   1      32.955  34.983  28.572  1.00  0.00     0.251 C 
ATOM     24  H   UNL A   1      31.652  34.450  27.115  1.00  0.00     0.163 HD
ATOM     25  O   UNL A   1      32.464  36.086  28.786  1.00  0.00    -0.269 OA
BRANCH  23  26
ATOM     26  C   UNL A   1      34.118  34.514  29.360  1.00  0.00     0.039 A 
ATOM     27  C   UNL A   1      33.910  33.792  30.536  1.00  0.00     0.014 A 
ATOM     28  C   UNL A   1      35.406  34.666  28.848  1.00  0.00     0.014 A 
ATOM     29  C   UNL A   1      34.987  33.135  31.134  1.00  0.00     0.010 A 
ATOM     30  C   UNL A   1      36.436  33.886  29.347  1.00  0.00     0.010 A 
ATOM     31  C   UNL A   1      36.247  33.129  30.510  1.00  0.00    -0.014 A 
BRANCH  31  32
ATOM     32  C   UNL A   1      37.400  32.381  31.073  1.00  0.00     0.031 A 
ATOM     33  C   UNL A   1      37.878  32.700  32.466  1.00  0.00     0.074 A 
ATOM     34  C   UNL A   1      38.062  31.487  30.313  1.00  0.00     0.049 A 
ATOM     35  N   UNL A   1      38.914  32.235  33.117  1.00  0.00    -0.248 NA
ATOM     36  C   UNL A   1      37.123  33.725  33.207  1.00  0.00     0.031 C 
ATOM     37  C   UNL A   1      37.750  31.157  28.921  1.00  0.00     0.029 A 
ATOM     38  N   UNL A   1      39.139  30.689  30.606  1.00  0.00    -0.354 N 
ATOM     39  C   UNL A   1      38.951  32.941  34.313  1.00  0.00     0.074 A 
ATOM     40  C   UNL A   1      37.893  33.922  34.263  1.00  0.00     0.031 C 
ATOM     41  C   UNL A   1      38.577  30.187  28.500  1.00  0.00     0.029 A 
ATOM     42  C   UNL A   1      39.499  29.849  29.579  1.00  0.00     0.049 A 
ATOM     43  H   UNL A   1      39.609  30.714  31.471  1.00  0.00     0.167 HD
ATOM     44  C   UNL A   1      39.764  32.758  35.380  1.00  0.00     0.037 A 
ATOM     45  C   UNL A   1      40.456  28.903  29.530  1.00  0.00     0.037 A 
ATOM     46  C   UNL A   1      40.763  31.725  35.448  1.00  0.00     0.049 A 
ATOM     47  C   UNL A   1      41.303  28.668  30.751  1.00  0.00     0.074 A 
ATOM     48  C   UNL A   1      41.583  31.384  36.506  1.00  0.00     0.029 A 
ATOM     49  N   UNL A   1      41.060  30.856  34.408  1.00  0.00    -0.354 N 
ATOM     50  N   UNL A   1      41.276  29.285  31.909  1.00  0.00    -0.248 NA
ATOM     51  C   UNL A   1      42.306  27.598  30.664  1.00  0.00     0.031 C 
ATOM     52  C   UNL A   1      42.400  30.326  36.095  1.00  0.00     0.029 A 
ATOM     53  C   UNL A   1      42.058  29.981  34.796  1.00  0.00     0.049 A 
ATOM     54  H   UNL A   1      40.624  30.861  33.525  1.00  0.00     0.167 HD
ATOM     55  C   UNL A   1      42.232  28.659  32.698  1.00  0.00     0.074 A 
ATOM     56  C   UNL A   1      42.810  27.604  31.889  1.00  0.00     0.031 C 
ATOM     57  C   UNL A   1      42.601  28.930  33.973  1.00  0.00     0.037 A 
BRANCH  44  58
ATOM     58  C   UNL A   1      39.582  33.676  36.554  1.00  0.00     0.064 A 
ATOM     59  C   UNL A   1      38.791  33.317  37.658  1.00  0.00     0.173 A 
ATOM     60  C   UNL A   1      40.194  34.938  36.573  1.00  0.00     0.173 A 
ATOM     61  F   UNL A   1      38.168  32.128  37.685  1.00  0.00    -0.203 F 
ATOM     62  C   UNL A   1      38.580  34.204  38.711  1.00  0.00     0.198 A 
ATOM     63  C   UNL A   1      40.011  35.809  37.645  1.00  0.00     0.198 A 
ATOM     64  F   UNL A   1      40.963  35.334  35.549  1.00  0.00    -0.203 F 
ATOM     65  F   UNL A   1      37.759  33.866  39.714  1.00  0.00    -0.200 F 
ATOM     66  C   UNL A   1      39.193  35.446  38.706  1.00  0.00     0.200 A 
ATOM     67  F   UNL A   1      40.613  37.006  37.646  1.00  0.00    -0.200 F 
ATOM     68  F   UNL A   1      38.986  36.301  39.718  1.00  0.00    -0.200 F 
ENDBRANCH  44  58
BRANCH  45  69
ATOM     69  C   UNL A   1      40.612  28.059  28.315  1.00  0.00     0.064 A 
ATOM     70  C   UNL A   1      39.961  26.820  28.218  1.00  0.00     0.173 A 
ATOM     71  C   UNL A   1      41.404  28.463  27.232  1.00  0.00     0.173 A 
ATOM     72  F   UNL A   1      39.205  26.380  29.235  1.00  0.00    -0.203 F 
ATOM     73  C   UNL A   1      40.116  26.009  27.095  1.00  0.00     0.198 A 
ATOM     74  C   UNL A   1      41.536  27.663  26.097  1.00  0.00     0.198 A 
ATOM     75  F   UNL A   1      42.042  29.643  27.269  1.00  0.00    -0.203 F 
ATOM     76  F   UNL A   1      39.517  24.810  27.050  1.00  0.00    -0.200 F 
ATOM     77  C   UNL A   1      40.899  26.433  26.033  1.00  0.00     0.200 A 
ATOM     78  F   UNL A   1      42.283  28.082  25.066  1.00  0.00    -0.200 F 
ATOM     79  F   UNL A   1      41.044  25.655  24.953  1.00  0.00    -0.200 F 
ENDBRANCH  45  69
BRANCH  57  80
ATOM     80  C   UNL A   1      43.647  28.047  34.584  1.00  0.00     0.064 A 
ATOM     81  C   UNL A   1      43.315  26.833  35.201  1.00  0.00     0.173 A 
ATOM     82  C   UNL A   1      45.002  28.403  34.512  1.00  0.00     0.173 A 
ATOM     83  F   UNL A   1      42.031  26.457  35.306  1.00  0.00    -0.203 F 
ATOM     84  C   UNL A   1      44.301  26.018  35.748  1.00  0.00     0.198 A 
ATOM     85  C   UNL A   1      45.988  27.572  35.033  1.00  0.00     0.198 A 
ATOM     86  F   UNL A   1      45.370  29.551  33.923  1.00  0.00    -0.203 F 
ATOM     87  F   UNL A   1      43.959  24.885  36.377  1.00  0.00    -0.200 F 
ATOM     88  C   UNL A   1      45.636  26.384  35.658  1.00  0.00     0.200 A 
ATOM     89  F   UNL A   1      47.278  27.919  34.932  1.00  0.00    -0.200 F 
ATOM     90  F   UNL A   1      46.585  25.595  36.180  1.00  0.00    -0.200 F 
ENDBRANCH  57  80
ENDBRANCH  31  32
ENDBRANCH  23  26
ENDBRANCH  21  22
ENDBRANCH  20  21
ENDBRANCH  19  20
ENDBRANCH   1  19
TORSDOF 17
ENDMDL
MODEL 3
REMARK VINA RESULT:     -10.9      1.899      3.226
REMARK SMILES C[C@H](O)[C@H](C)[N@H+](CCC(=O)NCCCCNC(=O)c1ccc(-c2c3nc(c(-c4c(F)c(F)c(F)c(F)c4F)c4ccc([nH]4)c(-c4c(F)c(F)c(F)c(F)c4F)c4nc(c(-c5c(F)c(F)c(F)c(F)c5F)c5ccc2[nH]5)C=C4)C=C3)cc1)C1CC1
REMARK SMILES IDX 12 1 11 2 9 3 10 4 8 6 7 7 6 8 4 10 5 11 2 12 1 13 3 14
REMARK SMILES IDX 82 16 83 17 84 18 13 19 14 20 15 21 16 22 17 23 18 25 19 26
REMARK SMILES IDX 20 27 81 28 21 29 80 30 22 31 23 32 24 33 74 34 25 35 79 36
REMARK SMILES IDX 73 37 75 38 26 39 78 40 72 41 71 42 27 44 59 45 39 46 58 47
REMARK SMILES IDX 40 48 43 49 57 50 76 51 41 52 42 53 56 55 77 56 44 57 28 58
REMARK SMILES IDX 29 59 37 60 30 61 31 62 35 63 38 64 32 65 33 66 36 67 34 68
REMARK SMILES IDX 60 69 61 70 69 71 62 72 63 73 67 74 70 75 64 76 65 77 68 78
REMARK SMILES IDX 66 79 45 80 46 81 54 82 47 83 48 84 52 85 55 86 49 87 50 88
REMARK SMILES IDX 53 89 51 90
REMARK H PARENT 11 5 6 9 3 15 16 24 75 43 43 54
REMARK Flexibility Score: inf
ROOT
ATOM      1  C   UNL A   1      34.003  30.107  26.886  1.00  0.00     0.116 C 
ENDROOT
BRANCH   1   2
ATOM      2  N   UNL A   1      34.246  29.022  25.954  1.00  0.00    -0.356 N 
ATOM      3  C   UNL A   1      33.568  28.639  24.833  1.00  0.00     0.225 C 
ATOM      4  O   UNL A   1      34.021  27.696  24.181  1.00  0.00    -0.275 OA
ATOM      5  H   UNL A   1      35.032  28.468  26.166  1.00  0.00     0.163 HD
BRANCH   3   6
ATOM      6  C   UNL A   1      32.334  29.379  24.381  1.00  0.00     0.161 C 
BRANCH   6   7
ATOM      7  C   UNL A   1      31.799  29.024  22.986  1.00  0.00     0.272 C 
BRANCH   7   8
ATOM      8  N   UNL A   1      30.349  28.903  22.797  1.00  0.00    -0.328 N 
ATOM      9  H   UNL A   1      29.460  29.030  23.280  1.00  0.00     0.348 HD
BRANCH   8  10
ATOM     10  C   UNL A   1      29.586  30.139  22.509  1.00  0.00     0.209 C 
ATOM     11  C   UNL A   1      28.452  29.964  21.477  1.00  0.00     0.078 C 
BRANCH  10  12
ATOM     12  C   UNL A   1      28.950  30.901  23.742  1.00  0.00     0.169 C 
ATOM     13  C   UNL A   1      27.653  31.625  23.377  1.00  0.00     0.045 C 
BRANCH  12  14
ATOM     14  O   UNL A   1      29.777  31.927  24.282  1.00  0.00    -0.387 OA
ATOM     15  H   UNL A   1      29.784  32.687  23.679  1.00  0.00     0.211 HD
ENDBRANCH  12  14
ENDBRANCH  10  12
ENDBRANCH   8  10
BRANCH   8  16
ATOM     16  C   UNL A   1      29.821  27.538  22.802  1.00  0.00     0.184 C 
ATOM     17  C   UNL A   1      29.984  26.495  23.869  1.00  0.00     0.071 C 
ATOM     18  C   UNL A   1      28.662  27.168  23.697  1.00  0.00     0.071 C 
ENDBRANCH   8  16
ENDBRANCH   7   8
ENDBRANCH   6   7
ENDBRANCH   3   6
ENDBRANCH   1   2
BRANCH   1  19
ATOM     19  C   UNL A   1      32.534  30.326  27.267  1.00  0.00     0.023 C 
BRANCH  19  20
ATOM     20  C   UNL A   1      32.007  31.748  27.047  1.00  0.00     0.023 C 
BRANCH  20  21
ATOM     21  C   UNL A   1      33.058  32.792  27.355  1.00  0.00     0.116 C 
BRANCH  21  22
ATOM     22  N   UNL A   1      32.555  34.116  27.692  1.00  0.00    -0.352 N 
ATOM     23  C   UNL A   1      33.040  34.951  28.680  1.00  0.00     0.251 C 
ATOM     24  H   UNL A   1      31.792  34.449  27.164  1.00  0.00     0.163 HD
ATOM     25  O   UNL A   1      32.492  36.012  28.951  1.00  0.00    -0.269 OA
BRANCH  23  26
ATOM     26  C   UNL A   1      34.210  34.489  29.462  1.00  0.00     0.039 A 
ATOM     27  C   UNL A   1      34.013  33.772  30.643  1.00  0.00     0.014 A 
ATOM     28  C   UNL A   1      35.494  34.643  28.940  1.00  0.00     0.014 A 
ATOM     29  C   UNL A   1      35.097  33.121  31.236  1.00  0.00     0.010 A 
ATOM     30  C   UNL A   1      36.530  33.870  29.436  1.00  0.00     0.010 A 
ATOM     31  C   UNL A   1      36.352  33.117  30.604  1.00  0.00    -0.014 A 
BRANCH  31  32
ATOM     32  C   UNL A   1      37.512  32.376  31.161  1.00  0.00     0.031 A 
ATOM     33  C   UNL A   1      37.999  32.703  32.549  1.00  0.00     0.074 A 
ATOM     34  C   UNL A   1      38.171  31.480  30.401  1.00  0.00     0.049 A 
ATOM     35  N   UNL A   1      39.041  32.246  33.195  1.00  0.00    -0.248 NA
ATOM     36  C   UNL A   1      37.246  33.730  33.291  1.00  0.00     0.031 C 
ATOM     37  C   UNL A   1      37.850  31.142  29.013  1.00  0.00     0.029 A 
ATOM     38  N   UNL A   1      39.253  30.687  30.691  1.00  0.00    -0.354 N 
ATOM     39  C   UNL A   1      39.085  32.958  34.387  1.00  0.00     0.074 A 
ATOM     40  C   UNL A   1      38.023  33.935  34.340  1.00  0.00     0.031 C 
ATOM     41  C   UNL A   1      38.678  30.173  28.592  1.00  0.00     0.029 A 
ATOM     42  C   UNL A   1      39.608  29.843  29.666  1.00  0.00     0.049 A 
ATOM     43  H   UNL A   1      39.729  30.718  31.552  1.00  0.00     0.167 HD
ATOM     44  C   UNL A   1      39.906  32.783  35.449  1.00  0.00     0.037 A 
ATOM     45  C   UNL A   1      40.568  28.899  29.614  1.00  0.00     0.037 A 
ATOM     46  C   UNL A   1      40.909  31.754  35.515  1.00  0.00     0.049 A 
ATOM     47  C   UNL A   1      41.425  28.674  30.831  1.00  0.00     0.074 A 
ATOM     48  C   UNL A   1      41.738  31.421  36.569  1.00  0.00     0.029 A 
ATOM     49  N   UNL A   1      41.201  30.880  34.478  1.00  0.00    -0.354 N 
ATOM     50  N   UNL A   1      41.404  29.297  31.985  1.00  0.00    -0.248 NA
ATOM     51  C   UNL A   1      42.430  27.607  30.742  1.00  0.00     0.031 C 
ATOM     52  C   UNL A   1      42.556  30.363  36.158  1.00  0.00     0.029 A 
ATOM     53  C   UNL A   1      42.205  30.011  34.863  1.00  0.00     0.049 A 
ATOM     54  H   UNL A   1      40.759  30.879  33.598  1.00  0.00     0.167 HD
ATOM     55  C   UNL A   1      42.368  28.678  32.771  1.00  0.00     0.074 A 
ATOM     56  C   UNL A   1      42.944  27.621  31.963  1.00  0.00     0.031 C 
ATOM     57  C   UNL A   1      42.745  28.958  34.042  1.00  0.00     0.037 A 
BRANCH  44  58
ATOM     58  C   UNL A   1      39.729  33.707  36.620  1.00  0.00     0.064 A 
ATOM     59  C   UNL A   1      38.915  33.369  37.713  1.00  0.00     0.173 A 
ATOM     60  C   UNL A   1      40.372  34.954  36.647  1.00  0.00     0.173 A 
ATOM     61  F   UNL A   1      38.263  32.195  37.731  1.00  0.00    -0.203 F 
ATOM     62  C   UNL A   1      38.710  34.261  38.761  1.00  0.00     0.198 A 
ATOM     63  C   UNL A   1      40.195  35.830  37.715  1.00  0.00     0.198 A 
ATOM     64  F   UNL A   1      41.165  35.329  35.633  1.00  0.00    -0.203 F 
ATOM     65  F   UNL A   1      37.867  33.945  39.753  1.00  0.00    -0.200 F 
ATOM     66  C   UNL A   1      39.353  35.489  38.764  1.00  0.00     0.200 A 
ATOM     67  F   UNL A   1      40.825  37.012  37.723  1.00  0.00    -0.200 F 
ATOM     68  F   UNL A   1      39.153  36.349  39.773  1.00  0.00    -0.200 F 
ENDBRANCH  44  58
BRANCH  45  69
ATOM     69  C   UNL A   1      40.718  28.050  28.403  1.00  0.00     0.064 A 
ATOM     70  C   UNL A   1      40.073  26.807  28.319  1.00  0.00     0.173 A 
ATOM     71  C   UNL A   1      41.498  28.453  27.310  1.00  0.00     0.173 A 
ATOM     72  F   UNL A   1      39.329  26.368  29.345  1.00  0.00    -0.203 F 
ATOM     73  C   UNL A   1      40.222  25.990  27.199  1.00  0.00     0.198 A 
ATOM     74  C   UNL A   1      41.624  27.647  26.179  1.00  0.00     0.198 A 
ATOM     75  F   UNL A   1      42.129  29.636  27.335  1.00  0.00    -0.203 F 
ATOM     76  F   UNL A   1      39.629  24.788  27.166  1.00  0.00    -0.200 F 
ATOM     77  C   UNL A   1      40.993  26.413  26.128  1.00  0.00     0.200 A 
ATOM     78  F   UNL A   1      42.360  28.064  25.139  1.00  0.00    -0.200 F 
ATOM     79  F   UNL A   1      41.133  25.630  25.050  1.00  0.00    -0.200 F 
ENDBRANCH  45  69
BRANCH  57  80
ATOM     80  C   UNL A   1      43.799  28.081  34.650  1.00  0.00     0.064 A 
ATOM     81  C   UNL A   1      43.474  26.873  35.283  1.00  0.00     0.173 A 
ATOM     82  C   UNL A   1      45.152  28.437  34.557  1.00  0.00     0.173 A 
ATOM     83  F   UNL A   1      42.192  26.499  35.408  1.00  0.00    -0.203 F 
ATOM     84  C   UNL A   1      44.467  26.065  35.827  1.00  0.00     0.198 A 
ATOM     85  C   UNL A   1      46.145  27.611  35.075  1.00  0.00     0.198 A 
ATOM     86  F   UNL A   1      45.514  29.578  33.952  1.00  0.00    -0.203 F 
ATOM     87  F   UNL A   1      44.133  24.938  36.472  1.00  0.00    -0.200 F 
ATOM     88  C   UNL A   1      45.801  26.430  35.717  1.00  0.00     0.200 A 
ATOM     89  F   UNL A   1      47.434  27.957  34.956  1.00  0.00    -0.200 F 
ATOM     90  F   UNL A   1      46.756  25.646  36.236  1.00  0.00    -0.200 F 
ENDBRANCH  57  80
ENDBRANCH  31  32
ENDBRANCH  23  26
ENDBRANCH  21  22
ENDBRANCH  20  21
ENDBRANCH  19  20
ENDBRANCH   1  19
TORSDOF 17
ENDMDL
