MODEL 1
REMARK VINA RESULT:     -12.5      0.000      0.000
REMARK SMILES CC(C)[NH2+][C@@]1(C(=O)NCCCCNC(=O)c2ccc(-c3c4nc(c(-c5c(F)c(F)c(F)c(F)c5F)c5ccc([nH]5)c(-c5c(F)c(F)c(F)c(F)c5F)c5nc(c(-c6c(F)c(F)c(F)c(F)c6F)c6ccc3[nH]6)C=C5)C=C4)cc2)CC[C@@H](Sc2cccc(Br)c2)C1
REMARK SMILES IDX 10 1 9 2 8 3 6 4 7 5 5 7 79 8 90 9 80 10 81 11 4 12 2 15
REMARK SMILES IDX 1 16 3 17 82 18 83 19 84 20 89 21 85 22 87 23 86 24 88 25
REMARK SMILES IDX 11 26 12 27 13 28 14 29 15 31 16 32 17 33 78 34 18 35 77 36
REMARK SMILES IDX 19 37 20 38 21 39 71 40 22 41 76 42 70 43 72 44 23 45 75 46
REMARK SMILES IDX 69 47 68 48 24 50 56 51 36 52 55 53 37 54 40 55 54 56 73 57
REMARK SMILES IDX 38 58 39 59 53 61 74 62 41 63 25 64 26 65 34 66 27 67 28 68
REMARK SMILES IDX 32 69 35 70 29 71 30 72 33 73 31 74 57 75 58 76 66 77 59 78
REMARK SMILES IDX 60 79 64 80 67 81 61 82 62 83 65 84 63 85 42 86 43 87 51 88
REMARK SMILES IDX 44 89 45 90 49 91 52 92 46 93 47 94 50 95 48 96
REMARK H PARENT 8 6 4 13 4 14 13 30 72 49 40 60
REMARK Flexibility Score: inf
ROOT
ATOM      1  C   UNL A   1      32.073  30.136  27.084  1.00  0.00     0.023 C 
ENDROOT
BRANCH   1   2
ATOM      2  C   UNL A   1      33.437  29.615  26.638  1.00  0.00     0.116 C 
BRANCH   2   3
ATOM      3  N   UNL A   1      33.608  29.686  25.207  1.00  0.00    -0.351 N 
ATOM      4  C   UNL A   1      33.271  28.853  24.184  1.00  0.00     0.281 C 
ATOM      5  O   UNL A   1      33.616  29.276  23.072  1.00  0.00    -0.268 OA
ATOM      6  H   UNL A   1      34.061  30.507  24.909  1.00  0.00     0.163 HD
BRANCH   4   7
ATOM      7  C   UNL A   1      32.571  27.443  24.375  1.00  0.00     0.176 C 
ATOM      8  C   UNL A   1      33.137  26.541  25.481  1.00  0.00     0.080 C 
ATOM      9  C   UNL A   1      32.708  26.633  23.064  1.00  0.00     0.094 C 
ATOM     10  C   UNL A   1      33.822  25.333  24.845  1.00  0.00     0.022 C 
ATOM     11  C   UNL A   1      33.653  25.464  23.337  1.00  0.00     0.058 C 
BRANCH   7  12
ATOM     12  N   UNL A   1      31.106  27.646  24.587  1.00  0.00    -0.332 N 
ATOM     13  H   UNL A   1      30.823  27.035  25.353  1.00  0.00     0.347 HD
ATOM     14  H   UNL A   1      31.013  28.648  24.759  1.00  0.00     0.347 HD
BRANCH  12  15
ATOM     15  C   UNL A   1      30.198  27.385  23.462  1.00  0.00     0.176 C 
ATOM     16  C   UNL A   1      29.104  26.445  23.983  1.00  0.00     0.075 C 
ATOM     17  C   UNL A   1      29.534  28.655  22.920  1.00  0.00     0.075 C 
ENDBRANCH  12  15
ENDBRANCH   7  12
BRANCH  11  18
ATOM     18  S   UNL A   1      33.202  23.911  22.456  1.00  0.00    -0.122 SA
BRANCH  18  19
ATOM     19  C   UNL A   1      33.897  22.663  23.522  1.00  0.00     0.009 A 
ATOM     20  C   UNL A   1      33.057  21.685  24.070  1.00  0.00     0.015 A 
ATOM     21  C   UNL A   1      35.261  22.640  23.820  1.00  0.00     0.030 A 
ATOM     22  C   UNL A   1      33.583  20.662  24.860  1.00  0.00     0.002 A 
ATOM     23  C   UNL A   1      35.781  21.613  24.606  1.00  0.00     0.019 A 
ATOM     24  C   UNL A   1      34.952  20.621  25.122  1.00  0.00     0.016 A 
ATOM     25  Br  UNL A   1      37.637  21.563  24.963  1.00  0.00    -0.051 Br
ENDBRANCH  18  19
ENDBRANCH  11  18
ENDBRANCH   4   7
ENDBRANCH   2   3
ENDBRANCH   1   2
BRANCH   1  26
ATOM     26  C   UNL A   1      31.847  31.625  26.826  1.00  0.00     0.023 C 
BRANCH  26  27
ATOM     27  C   UNL A   1      32.912  32.554  27.402  1.00  0.00     0.116 C 
BRANCH  27  28
ATOM     28  N   UNL A   1      32.457  33.918  27.634  1.00  0.00    -0.352 N 
ATOM     29  C   UNL A   1      32.969  34.837  28.520  1.00  0.00     0.251 C 
ATOM     30  H   UNL A   1      31.690  34.218  27.093  1.00  0.00     0.163 HD
ATOM     31  O   UNL A   1      32.450  35.939  28.662  1.00  0.00    -0.269 OA
BRANCH  29  32
ATOM     32  C   UNL A   1      34.133  34.450  29.341  1.00  0.00     0.039 A 
ATOM     33  C   UNL A   1      33.912  33.849  30.581  1.00  0.00     0.014 A 
ATOM     34  C   UNL A   1      35.427  34.593  28.836  1.00  0.00     0.014 A 
ATOM     35  C   UNL A   1      34.991  33.311  31.283  1.00  0.00     0.010 A 
ATOM     36  C   UNL A   1      36.489  33.991  29.500  1.00  0.00     0.010 A 
ATOM     37  C   UNL A   1      36.281  33.338  30.725  1.00  0.00    -0.014 A 
BRANCH  37  38
ATOM     38  C   UNL A   1      37.426  32.681  31.401  1.00  0.00     0.031 A 
ATOM     39  C   UNL A   1      38.122  31.526  30.743  1.00  0.00     0.074 A 
ATOM     40  C   UNL A   1      37.783  33.073  32.639  1.00  0.00     0.049 A 
ATOM     41  N   UNL A   1      39.086  30.769  31.202  1.00  0.00    -0.248 NA
ATOM     42  C   UNL A   1      37.650  31.148  29.401  1.00  0.00     0.031 C 
ATOM     43  C   UNL A   1      37.140  34.141  33.409  1.00  0.00     0.029 A 
ATOM     44  N   UNL A   1      38.767  32.609  33.475  1.00  0.00    -0.354 N 
ATOM     45  C   UNL A   1      39.318  29.817  30.218  1.00  0.00     0.074 A 
ATOM     46  C   UNL A   1      38.361  30.057  29.161  1.00  0.00     0.031 C 
ATOM     47  C   UNL A   1      37.763  34.266  34.592  1.00  0.00     0.029 A 
ATOM     48  C   UNL A   1      38.826  33.269  34.678  1.00  0.00     0.049 A 
ATOM     49  H   UNL A   1      39.374  31.872  33.235  1.00  0.00     0.167 HD
ATOM     50  C   UNL A   1      40.263  28.848  30.188  1.00  0.00     0.037 A 
ATOM     51  C   UNL A   1      39.645  33.087  35.731  1.00  0.00     0.037 A 
ATOM     52  C   UNL A   1      41.238  28.637  31.224  1.00  0.00     0.049 A 
ATOM     53  C   UNL A   1      40.704  32.021  35.660  1.00  0.00     0.074 A 
ATOM     54  C   UNL A   1      42.280  27.728  31.257  1.00  0.00     0.029 A 
ATOM     55  N   UNL A   1      41.291  29.353  32.412  1.00  0.00    -0.354 N 
ATOM     56  N   UNL A   1      40.962  31.174  34.694  1.00  0.00    -0.248 NA
ATOM     57  C   UNL A   1      41.591  31.891  36.825  1.00  0.00     0.031 C 
ATOM     58  C   UNL A   1      42.945  27.870  32.480  1.00  0.00     0.029 A 
ATOM     59  C   UNL A   1      42.342  28.895  33.191  1.00  0.00     0.049 A 
ATOM     60  H   UNL A   1      40.674  30.077  32.663  1.00  0.00     0.167 HD
ATOM     61  C   UNL A   1      42.054  30.431  35.119  1.00  0.00     0.074 A 
ATOM     62  C   UNL A   1      42.419  30.935  36.426  1.00  0.00     0.031 C 
ATOM     63  C   UNL A   1      42.696  29.419  34.484  1.00  0.00     0.037 A 
BRANCH  50  64
ATOM     64  C   UNL A   1      40.292  27.951  28.986  1.00  0.00     0.064 A 
ATOM     65  C   UNL A   1      41.036  28.280  27.843  1.00  0.00     0.173 A 
ATOM     66  C   UNL A   1      39.586  26.739  28.984  1.00  0.00     0.173 A 
ATOM     67  F   UNL A   1      41.716  29.435  27.789  1.00  0.00    -0.203 F 
ATOM     68  C   UNL A   1      41.048  27.443  26.730  1.00  0.00     0.198 A 
ATOM     69  C   UNL A   1      39.624  25.890  27.881  1.00  0.00     0.198 A 
ATOM     70  F   UNL A   1      38.861  26.375  30.052  1.00  0.00    -0.203 F 
ATOM     71  F   UNL A   1      41.724  27.803  25.630  1.00  0.00    -0.200 F 
ATOM     72  C   UNL A   1      40.348  26.245  26.753  1.00  0.00     0.200 A 
ATOM     73  F   UNL A   1      38.955  24.729  27.907  1.00  0.00    -0.200 F 
ATOM     74  F   UNL A   1      40.363  25.440  25.683  1.00  0.00    -0.200 F 
ENDBRANCH  50  64
BRANCH  51  75
ATOM     75  C   UNL A   1      39.524  33.960  36.927  1.00  0.00     0.064 A 
ATOM     76  C   UNL A   1      38.770  33.554  38.037  1.00  0.00     0.173 A 
ATOM     77  C   UNL A   1      40.152  35.212  36.987  1.00  0.00     0.173 A 
ATOM     78  F   UNL A   1      38.134  32.374  38.017  1.00  0.00    -0.203 F 
ATOM     79  C   UNL A   1      38.629  34.377  39.152  1.00  0.00     0.198 A 
ATOM     80  C   UNL A   1      40.033  36.023  38.113  1.00  0.00     0.198 A 
ATOM     81  F   UNL A   1      40.891  35.643  35.953  1.00  0.00    -0.203 F 
ATOM     82  F   UNL A   1      37.866  33.983  40.181  1.00  0.00    -0.200 F 
ATOM     83  C   UNL A   1      39.265  35.609  39.192  1.00  0.00     0.200 A 
ATOM     84  F   UNL A   1      40.659  37.208  38.154  1.00  0.00    -0.200 F 
ATOM     85  F   UNL A   1      39.133  36.399  40.266  1.00  0.00    -0.200 F 
ENDBRANCH  51  75
BRANCH  63  86
ATOM     86  C   UNL A   1      43.879  28.815  35.181  1.00  0.00     0.064 A 
ATOM     87  C   UNL A   1      43.744  27.716  36.040  1.00  0.00     0.173 A 
ATOM     88  C   UNL A   1      45.169  29.318  34.950  1.00  0.00     0.173 A 
ATOM     89  F   UNL A   1      42.530  27.209  36.302  1.00  0.00    -0.203 F 
ATOM     90  C   UNL A   1      44.856  27.156  36.663  1.00  0.00     0.198 A 
ATOM     91  C   UNL A   1      46.280  28.739  35.554  1.00  0.00     0.198 A 
ATOM     92  F   UNL A   1      45.350  30.366  34.132  1.00  0.00    -0.203 F 
ATOM     93  F   UNL A   1      44.700  26.133  37.515  1.00  0.00    -0.200 F 
ATOM     94  C   UNL A   1      46.123  27.663  36.415  1.00  0.00     0.200 A 
ATOM     95  F   UNL A   1      47.505  29.223  35.304  1.00  0.00    -0.200 F 
ATOM     96  F   UNL A   1      47.193  27.119  37.010  1.00  0.00    -0.200 F 
ENDBRANCH  63  86
ENDBRANCH  37  38
ENDBRANCH  29  32
ENDBRANCH  27  28
ENDBRANCH  26  27
ENDBRANCH   1  26
TORSDOF 15
ENDMDL
MODEL 2
REMARK VINA RESULT:     -12.3      5.943     11.243
REMARK SMILES CC(C)[NH2+][C@@]1(C(=O)NCCCCNC(=O)c2ccc(-c3c4nc(c(-c5c(F)c(F)c(F)c(F)c5F)c5ccc([nH]5)c(-c5c(F)c(F)c(F)c(F)c5F)c5nc(c(-c6c(F)c(F)c(F)c(F)c6F)c6ccc3[nH]6)C=C5)C=C4)cc2)CC[C@@H](Sc2cccc(Br)c2)C1
REMARK SMILES IDX 10 1 9 2 8 3 6 4 7 5 5 7 79 8 90 9 80 10 81 11 4 12 2 15
REMARK SMILES IDX 1 16 3 17 82 18 83 19 84 20 89 21 85 22 87 23 86 24 88 25
REMARK SMILES IDX 11 26 12 27 13 28 14 29 15 31 16 32 17 33 78 34 18 35 77 36
REMARK SMILES IDX 19 37 20 38 21 39 71 40 22 41 76 42 70 43 72 44 23 45 75 46
REMARK SMILES IDX 69 47 68 48 24 50 56 51 36 52 55 53 37 54 40 55 54 56 73 57
REMARK SMILES IDX 38 58 39 59 53 61 74 62 41 63 25 64 26 65 34 66 27 67 28 68
REMARK SMILES IDX 32 69 35 70 29 71 30 72 33 73 31 74 57 75 58 76 66 77 59 78
REMARK SMILES IDX 60 79 64 80 67 81 61 82 62 83 65 84 63 85 42 86 43 87 51 88
REMARK SMILES IDX 44 89 45 90 49 91 52 92 46 93 47 94 50 95 48 96
REMARK H PARENT 8 6 4 13 4 14 13 30 72 49 40 60
REMARK Flexibility Score: inf
ROOT
ATOM      1  C   UNL A   1      37.437  21.598  24.560  1.00  0.00     0.023 C 
ENDROOT
BRANCH   1   2
ATOM      2  C   UNL A   1      37.061  22.555  25.689  1.00  0.00     0.116 C 
BRANCH   2   3
ATOM      3  N   UNL A   1      36.046  22.007  26.555  1.00  0.00    -0.351 N 
ATOM      4  C   UNL A   1      34.686  22.069  26.554  1.00  0.00     0.281 C 
ATOM      5  O   UNL A   1      34.166  21.464  27.502  1.00  0.00    -0.268 OA
ATOM      6  H   UNL A   1      36.413  21.478  27.299  1.00  0.00     0.163 HD
BRANCH   4   7
ATOM      7  C   UNL A   1      33.830  22.887  25.498  1.00  0.00     0.176 C 
ATOM      8  C   UNL A   1      34.316  24.306  25.174  1.00  0.00     0.080 C 
ATOM      9  C   UNL A   1      32.390  23.051  26.041  1.00  0.00     0.094 C 
ATOM     10  C   UNL A   1      33.316  25.320  25.726  1.00  0.00     0.022 C 
ATOM     11  C   UNL A   1      32.183  24.530  26.368  1.00  0.00     0.058 C 
BRANCH   7  12
ATOM     12  N   UNL A   1      33.712  22.091  24.240  1.00  0.00    -0.332 N 
ATOM     13  H   UNL A   1      33.746  22.749  23.462  1.00  0.00     0.347 HD
ATOM     14  H   UNL A   1      34.481  21.422  24.291  1.00  0.00     0.347 HD
BRANCH  12  15
ATOM     15  C   UNL A   1      32.517  21.257  24.054  1.00  0.00     0.176 C 
ATOM     16  C   UNL A   1      32.098  21.401  22.587  1.00  0.00     0.075 C 
ATOM     17  C   UNL A   1      32.770  19.774  24.346  1.00  0.00     0.075 C 
ENDBRANCH  12  15
ENDBRANCH   7  12
BRANCH  11  18
ATOM     18  S   UNL A   1      30.487  25.149  26.010  1.00  0.00    -0.122 SA
BRANCH  18  19
ATOM     19  C   UNL A   1      30.808  26.810  25.446  1.00  0.00     0.009 A 
ATOM     20  C   UNL A   1      30.420  27.182  24.153  1.00  0.00     0.015 A 
ATOM     21  C   UNL A   1      31.438  27.746  26.270  1.00  0.00     0.030 A 
ATOM     22  C   UNL A   1      30.605  28.491  23.708  1.00  0.00     0.002 A 
ATOM     23  C   UNL A   1      31.617  29.053  25.821  1.00  0.00     0.019 A 
ATOM     24  C   UNL A   1      31.199  29.433  24.547  1.00  0.00     0.016 A 
ATOM     25  Br  UNL A   1      32.425  30.327  26.960  1.00  0.00    -0.051 Br
ENDBRANCH  18  19
ENDBRANCH  11  18
ENDBRANCH   4   7
ENDBRANCH   2   3
ENDBRANCH   1   2
BRANCH   1  26
ATOM     26  C   UNL A   1      38.092  20.298  25.022  1.00  0.00     0.023 C 
BRANCH  26  27
ATOM     27  C   UNL A   1      39.367  20.466  25.843  1.00  0.00     0.116 C 
BRANCH  27  28
ATOM     28  N   UNL A   1      40.213  19.282  25.890  1.00  0.00    -0.352 N 
ATOM     29  C   UNL A   1      41.562  19.219  26.151  1.00  0.00     0.251 C 
ATOM     30  H   UNL A   1      39.765  18.422  25.713  1.00  0.00     0.163 HD
ATOM     31  O   UNL A   1      42.169  18.156  26.099  1.00  0.00    -0.269 OA
BRANCH  29  32
ATOM     32  C   UNL A   1      42.279  20.475  26.446  1.00  0.00     0.039 A 
ATOM     33  C   UNL A   1      42.799  21.218  25.386  1.00  0.00     0.014 A 
ATOM     34  C   UNL A   1      42.345  20.955  27.756  1.00  0.00     0.014 A 
ATOM     35  C   UNL A   1      43.314  22.492  25.630  1.00  0.00     0.010 A 
ATOM     36  C   UNL A   1      42.788  22.252  27.986  1.00  0.00     0.010 A 
ATOM     37  C   UNL A   1      43.269  23.035  26.925  1.00  0.00    -0.014 A 
BRANCH  37  38
ATOM     38  C   UNL A   1      43.713  24.425  27.193  1.00  0.00     0.031 A 
ATOM     39  C   UNL A   1      42.734  25.437  27.713  1.00  0.00     0.074 A 
ATOM     40  C   UNL A   1      44.973  24.792  26.890  1.00  0.00     0.049 A 
ATOM     41  N   UNL A   1      42.903  26.716  27.932  1.00  0.00    -0.248 NA
ATOM     42  C   UNL A   1      41.372  24.955  27.991  1.00  0.00     0.031 C 
ATOM     43  C   UNL A   1      45.998  23.916  26.319  1.00  0.00     0.029 A 
ATOM     44  N   UNL A   1      45.604  26.006  27.009  1.00  0.00    -0.354 N 
ATOM     45  C   UNL A   1      41.668  27.192  28.353  1.00  0.00     0.074 A 
ATOM     46  C   UNL A   1      40.746  26.078  28.307  1.00  0.00     0.031 C 
ATOM     47  C   UNL A   1      47.135  24.613  26.162  1.00  0.00     0.029 A 
ATOM     48  C   UNL A   1      46.912  25.991  26.589  1.00  0.00     0.049 A 
ATOM     49  H   UNL A   1      45.161  26.810  27.362  1.00  0.00     0.167 HD
ATOM     50  C   UNL A   1      41.341  28.439  28.766  1.00  0.00     0.037 A 
ATOM     51  C   UNL A   1      47.825  26.979  26.552  1.00  0.00     0.037 A 
ATOM     52  C   UNL A   1      42.270  29.534  28.848  1.00  0.00     0.049 A 
ATOM     53  C   UNL A   1      47.442  28.349  27.043  1.00  0.00     0.074 A 
ATOM     54  C   UNL A   1      42.054  30.816  29.318  1.00  0.00     0.029 A 
ATOM     55  N   UNL A   1      43.598  29.470  28.450  1.00  0.00    -0.354 N 
ATOM     56  N   UNL A   1      46.291  28.770  27.507  1.00  0.00    -0.248 NA
ATOM     57  C   UNL A   1      48.489  29.380  27.011  1.00  0.00     0.031 C 
ATOM     58  C   UNL A   1      43.243  31.540  29.174  1.00  0.00     0.029 A 
ATOM     59  C   UNL A   1      44.210  30.696  28.653  1.00  0.00     0.049 A 
ATOM     60  H   UNL A   1      44.039  28.672  28.079  1.00  0.00     0.167 HD
ATOM     61  C   UNL A   1      46.480  30.101  27.848  1.00  0.00     0.074 A 
ATOM     62  C   UNL A   1      47.862  30.416  27.549  1.00  0.00     0.031 C 
ATOM     63  C   UNL A   1      45.589  30.986  28.360  1.00  0.00     0.037 A 
BRANCH  50  64
ATOM     64  C   UNL A   1      39.916  28.678  29.174  1.00  0.00     0.064 A 
ATOM     65  C   UNL A   1      38.961  29.150  28.261  1.00  0.00     0.173 A 
ATOM     66  C   UNL A   1      39.498  28.412  30.486  1.00  0.00     0.173 A 
ATOM     67  F   UNL A   1      39.315  29.432  26.999  1.00  0.00    -0.203 F 
ATOM     68  C   UNL A   1      37.645  29.376  28.655  1.00  0.00     0.198 A 
ATOM     69  C   UNL A   1      38.174  28.612  30.868  1.00  0.00     0.198 A 
ATOM     70  F   UNL A   1      40.370  27.958  31.397  1.00  0.00    -0.203 F 
ATOM     71  F   UNL A   1      36.762  29.876  27.779  1.00  0.00    -0.200 F 
ATOM     72  C   UNL A   1      37.251  29.100  29.956  1.00  0.00     0.200 A 
ATOM     73  F   UNL A   1      37.791  28.336  32.123  1.00  0.00    -0.200 F 
ATOM     74  F   UNL A   1      35.983  29.315  30.332  1.00  0.00    -0.200 F 
ENDBRANCH  50  64
BRANCH  51  75
ATOM     75  C   UNL A   1      49.202  26.702  26.070  1.00  0.00     0.064 A 
ATOM     76  C   UNL A   1      49.573  26.999  24.751  1.00  0.00     0.173 A 
ATOM     77  C   UNL A   1      50.172  26.134  26.909  1.00  0.00     0.173 A 
ATOM     78  F   UNL A   1      48.674  27.524  23.906  1.00  0.00    -0.203 F 
ATOM     79  C   UNL A   1      50.855  26.719  24.283  1.00  0.00     0.198 A 
ATOM     80  C   UNL A   1      51.461  25.879  26.447  1.00  0.00     0.198 A 
ATOM     81  F   UNL A   1      49.868  25.837  28.181  1.00  0.00    -0.203 F 
ATOM     82  F   UNL A   1      51.169  26.973  23.005  1.00  0.00    -0.200 F 
ATOM     83  C   UNL A   1      51.800  26.164  25.132  1.00  0.00     0.200 A 
ATOM     84  F   UNL A   1      52.376  25.353  27.274  1.00  0.00    -0.200 F 
ATOM     85  F   UNL A   1      53.034  25.897  24.683  1.00  0.00    -0.200 F 
ENDBRANCH  51  75
BRANCH  63  86
ATOM     86  C   UNL A   1      46.091  32.366  28.662  1.00  0.00     0.064 A 
ATOM     87  C   UNL A   1      46.698  32.676  29.887  1.00  0.00     0.173 A 
ATOM     88  C   UNL A   1      46.002  33.380  27.696  1.00  0.00     0.173 A 
ATOM     89  F   UNL A   1      46.794  31.744  30.847  1.00  0.00    -0.203 F 
ATOM     90  C   UNL A   1      47.176  33.958  30.143  1.00  0.00     0.198 A 
ATOM     91  C   UNL A   1      46.505  34.652  27.945  1.00  0.00     0.198 A 
ATOM     92  F   UNL A   1      45.434  33.131  26.505  1.00  0.00    -0.203 F 
ATOM     93  F   UNL A   1      47.713  34.244  31.338  1.00  0.00    -0.200 F 
ATOM     94  C   UNL A   1      47.086  34.943  29.171  1.00  0.00     0.200 A 
ATOM     95  F   UNL A   1      46.427  35.600  27.001  1.00  0.00    -0.200 F 
ATOM     96  F   UNL A   1      47.553  36.175  29.416  1.00  0.00    -0.200 F 
ENDBRANCH  63  86
ENDBRANCH  37  38
ENDBRANCH  29  32
ENDBRANCH  27  28
ENDBRANCH  26  27
ENDBRANCH   1  26
TORSDOF 15
ENDMDL
MODEL 3
REMARK VINA RESULT:     -12.2      0.756      7.405
REMARK SMILES CC(C)[NH2+][C@@]1(C(=O)NCCCCNC(=O)c2ccc(-c3c4nc(c(-c5c(F)c(F)c(F)c(F)c5F)c5ccc([nH]5)c(-c5c(F)c(F)c(F)c(F)c5F)c5nc(c(-c6c(F)c(F)c(F)c(F)c6F)c6ccc3[nH]6)C=C5)C=C4)cc2)CC[C@@H](Sc2cccc(Br)c2)C1
REMARK SMILES IDX 10 1 9 2 8 3 6 4 7 5 5 7 79 8 90 9 80 10 81 11 4 12 2 15
REMARK SMILES IDX 1 16 3 17 82 18 83 19 84 20 89 21 85 22 87 23 86 24 88 25
REMARK SMILES IDX 11 26 12 27 13 28 14 29 15 31 16 32 17 33 78 34 18 35 77 36
REMARK SMILES IDX 19 37 20 38 21 39 71 40 22 41 76 42 70 43 72 44 23 45 75 46
REMARK SMILES IDX 69 47 68 48 24 50 56 51 36 52 55 53 37 54 40 55 54 56 73 57
REMARK SMILES IDX 38 58 39 59 53 61 74 62 41 63 25 64 26 65 34 66 27 67 28 68
REMARK SMILES IDX 32 69 35 70 29 71 30 72 33 73 31 74 57 75 58 76 66 77 59 78
REMARK SMILES IDX 60 79 64 80 67 81 61 82 62 83 65 84 63 85 42 86 43 87 51 88
REMARK SMILES IDX 44 89 45 90 49 91 52 92 46 93 47 94 50 95 48 96
REMARK H PARENT 8 6 4 13 4 14 13 30 72 49 40 60
REMARK Flexibility Score: inf
ROOT
ATOM      1  C   UNL A   1      32.080  30.409  26.924  1.00  0.00     0.023 C 
ENDROOT
BRANCH   1   2
ATOM      2  C   UNL A   1      31.623  29.600  25.712  1.00  0.00     0.116 C 
BRANCH   2   3
ATOM      3  N   UNL A   1      32.565  29.669  24.622  1.00  0.00    -0.351 N 
ATOM      4  C   UNL A   1      32.762  28.910  23.509  1.00  0.00     0.281 C 
ATOM      5  O   UNL A   1      33.709  29.296  22.811  1.00  0.00    -0.268 OA
ATOM      6  H   UNL A   1      33.194  30.422  24.697  1.00  0.00     0.163 HD
BRANCH   4   7
ATOM      7  C   UNL A   1      31.923  27.610  23.155  1.00  0.00     0.176 C 
ATOM      8  C   UNL A   1      31.438  26.764  24.340  1.00  0.00     0.080 C 
ATOM      9  C   UNL A   1      32.799  26.667  22.297  1.00  0.00     0.094 C 
ATOM     10  C   UNL A   1      32.185  25.432  24.346  1.00  0.00     0.022 C 
ATOM     11  C   UNL A   1      33.115  25.432  23.140  1.00  0.00     0.058 C 
BRANCH   7  12
ATOM     12  N   UNL A   1      30.762  27.995  22.298  1.00  0.00    -0.332 N 
ATOM     13  H   UNL A   1      31.139  28.355  21.422  1.00  0.00     0.347 HD
ATOM     14  H   UNL A   1      30.207  27.141  22.226  1.00  0.00     0.347 HD
BRANCH  12  15
ATOM     15  C   UNL A   1      29.820  28.998  22.812  1.00  0.00     0.176 C 
ATOM     16  C   UNL A   1      29.782  30.138  21.788  1.00  0.00     0.075 C 
ATOM     17  C   UNL A   1      28.398  28.452  22.988  1.00  0.00     0.075 C 
ENDBRANCH  12  15
ENDBRANCH   7  12
BRANCH  11  18
ATOM     18  S   UNL A   1      33.166  23.861  22.182  1.00  0.00    -0.122 SA
BRANCH  18  19
ATOM     19  C   UNL A   1      33.888  22.731  23.358  1.00  0.00     0.009 A 
ATOM     20  C   UNL A   1      33.142  21.629  23.795  1.00  0.00     0.015 A 
ATOM     21  C   UNL A   1      35.181  22.924  23.850  1.00  0.00     0.030 A 
ATOM     22  C   UNL A   1      33.704  20.697  24.669  1.00  0.00     0.002 A 
ATOM     23  C   UNL A   1      35.737  21.988  24.720  1.00  0.00     0.019 A 
ATOM     24  C   UNL A   1      35.009  20.872  25.127  1.00  0.00     0.016 A 
ATOM     25  Br  UNL A   1      37.506  22.230  25.341  1.00  0.00    -0.051 Br
ENDBRANCH  18  19
ENDBRANCH  11  18
ENDBRANCH   4   7
ENDBRANCH   2   3
ENDBRANCH   1   2
BRANCH   1  26
ATOM     26  C   UNL A   1      31.757  31.900  26.849  1.00  0.00     0.023 C 
BRANCH  26  27
ATOM     27  C   UNL A   1      32.892  32.834  27.261  1.00  0.00     0.116 C 
BRANCH  27  28
ATOM     28  N   UNL A   1      32.459  34.166  27.661  1.00  0.00    -0.352 N 
ATOM     29  C   UNL A   1      32.996  34.967  28.643  1.00  0.00     0.251 C 
ATOM     30  H   UNL A   1      31.690  34.537  27.171  1.00  0.00     0.163 HD
ATOM     31  O   UNL A   1      32.494  36.049  28.922  1.00  0.00    -0.269 OA
BRANCH  29  32
ATOM     32  C   UNL A   1      34.165  34.470  29.394  1.00  0.00     0.039 A 
ATOM     33  C   UNL A   1      33.957  33.829  30.616  1.00  0.00     0.014 A 
ATOM     34  C   UNL A   1      35.443  34.553  28.839  1.00  0.00     0.014 A 
ATOM     35  C   UNL A   1      35.027  33.193  31.247  1.00  0.00     0.010 A 
ATOM     36  C   UNL A   1      36.490  33.855  29.429  1.00  0.00     0.010 A 
ATOM     37  C   UNL A   1      36.291  33.163  30.634  1.00  0.00    -0.014 A 
BRANCH  37  38
ATOM     38  C   UNL A   1      37.418  32.406  31.231  1.00  0.00     0.031 A 
ATOM     39  C   UNL A   1      37.927  32.770  32.594  1.00  0.00     0.074 A 
ATOM     40  C   UNL A   1      38.032  31.447  30.510  1.00  0.00     0.049 A 
ATOM     41  N   UNL A   1      38.949  32.287  33.254  1.00  0.00    -0.248 NA
ATOM     42  C   UNL A   1      37.213  33.847  33.299  1.00  0.00     0.031 C 
ATOM     43  C   UNL A   1      37.671  31.046  29.149  1.00  0.00     0.029 A 
ATOM     44  N   UNL A   1      39.101  30.643  30.819  1.00  0.00    -0.354 N 
ATOM     45  C   UNL A   1      39.011  33.013  34.436  1.00  0.00     0.074 A 
ATOM     46  C   UNL A   1      37.959  34.005  34.381  1.00  0.00     0.031 C 
ATOM     47  C   UNL A   1      38.486  30.056  28.751  1.00  0.00     0.029 A 
ATOM     48  C   UNL A   1      39.446  29.774  29.813  1.00  0.00     0.049 A 
ATOM     49  H   UNL A   1      39.574  30.685  31.681  1.00  0.00     0.167 HD
ATOM     50  C   UNL A   1      39.853  32.849  35.483  1.00  0.00     0.037 A 
ATOM     51  C   UNL A   1      40.429  28.855  29.756  1.00  0.00     0.037 A 
ATOM     52  C   UNL A   1      40.872  31.836  35.551  1.00  0.00     0.049 A 
ATOM     53  C   UNL A   1      41.333  28.675  30.946  1.00  0.00     0.074 A 
ATOM     54  C   UNL A   1      41.730  31.542  36.595  1.00  0.00     0.029 A 
ATOM     55  N   UNL A   1      41.166  30.948  34.527  1.00  0.00    -0.354 N 
ATOM     56  N   UNL A   1      41.336  29.318  32.087  1.00  0.00    -0.248 NA
ATOM     57  C   UNL A   1      42.366  27.635  30.840  1.00  0.00     0.031 C 
ATOM     58  C   UNL A   1      42.568  30.497  36.191  1.00  0.00     0.029 A 
ATOM     59  C   UNL A   1      42.204  30.113  34.911  1.00  0.00     0.049 A 
ATOM     60  H   UNL A   1      40.707  30.915  33.657  1.00  0.00     0.167 HD
ATOM     61  C   UNL A   1      42.347  28.745  32.845  1.00  0.00     0.074 A 
ATOM     62  C   UNL A   1      42.929  27.692  32.038  1.00  0.00     0.031 C 
ATOM     63  C   UNL A   1      42.760  29.064  34.098  1.00  0.00     0.037 A 
BRANCH  50  64
ATOM     64  C   UNL A   1      39.693  33.781  36.649  1.00  0.00     0.064 A 
ATOM     65  C   UNL A   1      38.885  33.451  37.747  1.00  0.00     0.173 A 
ATOM     66  C   UNL A   1      40.372  35.008  36.677  1.00  0.00     0.173 A 
ATOM     67  F   UNL A   1      38.203  32.296  37.760  1.00  0.00    -0.203 F 
ATOM     68  C   UNL A   1      38.739  34.328  38.818  1.00  0.00     0.198 A 
ATOM     69  C   UNL A   1      40.246  35.870  37.764  1.00  0.00     0.198 A 
ATOM     70  F   UNL A   1      41.159  35.371  35.654  1.00  0.00    -0.203 F 
ATOM     71  F   UNL A   1      37.921  34.014  39.832  1.00  0.00    -0.200 F 
ATOM     72  C   UNL A   1      39.425  35.534  38.829  1.00  0.00     0.200 A 
ATOM     73  F   UNL A   1      40.917  37.030  37.778  1.00  0.00    -0.200 F 
ATOM     74  F   UNL A   1      39.285  36.375  39.862  1.00  0.00    -0.200 F 
ENDBRANCH  50  64
BRANCH  51  75
ATOM     75  C   UNL A   1      40.586  28.008  28.547  1.00  0.00     0.064 A 
ATOM     76  C   UNL A   1      39.974  26.748  28.471  1.00  0.00     0.173 A 
ATOM     77  C   UNL A   1      41.347  28.432  27.449  1.00  0.00     0.173 A 
ATOM     78  F   UNL A   1      39.253  26.292  29.505  1.00  0.00    -0.203 F 
ATOM     79  C   UNL A   1      40.137  25.936  27.351  1.00  0.00     0.198 A 
ATOM     80  C   UNL A   1      41.487  27.629  26.319  1.00  0.00     0.198 A 
ATOM     81  F   UNL A   1      41.947  29.631  27.470  1.00  0.00    -0.203 F 
ATOM     82  F   UNL A   1      39.577  24.718  27.323  1.00  0.00    -0.200 F 
ATOM     83  C   UNL A   1      40.888  26.378  26.273  1.00  0.00     0.200 A 
ATOM     84  F   UNL A   1      42.205  28.065  25.273  1.00  0.00    -0.200 F 
ATOM     85  F   UNL A   1      41.042  25.598  25.195  1.00  0.00    -0.200 F 
ENDBRANCH  51  75
BRANCH  63  86
ATOM     86  C   UNL A   1      43.869  28.241  34.683  1.00  0.00     0.064 A 
ATOM     87  C   UNL A   1      45.209  28.646  34.595  1.00  0.00     0.173 A 
ATOM     88  C   UNL A   1      43.582  27.056  35.377  1.00  0.00     0.173 A 
ATOM     89  F   UNL A   1      45.534  29.764  33.929  1.00  0.00    -0.203 F 
ATOM     90  C   UNL A   1      46.224  27.880  35.160  1.00  0.00     0.198 A 
ATOM     91  C   UNL A   1      44.597  26.308  35.964  1.00  0.00     0.198 A 
ATOM     92  F   UNL A   1      42.315  26.631  35.494  1.00  0.00    -0.203 F 
ATOM     93  F   UNL A   1      47.502  28.261  35.027  1.00  0.00    -0.200 F 
ATOM     94  C   UNL A   1      45.918  26.716  35.850  1.00  0.00     0.200 A 
ATOM     95  F   UNL A   1      44.298  25.190  36.640  1.00  0.00    -0.200 F 
ATOM     96  F   UNL A   1      46.896  25.983  36.400  1.00  0.00    -0.200 F 
ENDBRANCH  63  86
ENDBRANCH  37  38
ENDBRANCH  29  32
ENDBRANCH  27  28
ENDBRANCH  26  27
ENDBRANCH   1  26
TORSDOF 15
ENDMDL
