MODEL 1
REMARK VINA RESULT:     -13.6      0.000      0.000
REMARK SMILES O=C(NCCCCNC(=O)[C@H](c1c[nH]c2ccc(Cl)cc12)[NH+]1CCN(c2cccc(Cl)c2)CC1)c1ccc(-c2c3nc(c(-c4c(F)c(F)c(F)c(F)c4F)c4ccc([nH]4)c(-c4c(F)c(F)c(F)c(F)c4F)c4nc(c(-c5c(F)c(F)c(F)c(F)c5F)c5ccc2[nH]5)C=C4)C=C3)cc1
REMARK SMILES IDX 5 1 4 2 3 3 1 4 2 5 35 7 36 8 97 9 37 10 96 11 38 12 39 13
REMARK SMILES IDX 40 14 90 15 41 16 95 17 89 18 91 19 42 20 94 21 88 22 87 23
REMARK SMILES IDX 43 25 75 26 55 27 74 28 56 29 59 30 73 31 92 32 57 33 58 34
REMARK SMILES IDX 72 36 93 37 60 38 44 39 45 40 53 41 46 42 47 43 51 44 54 45
REMARK SMILES IDX 48 46 49 47 52 48 50 49 76 50 77 51 85 52 78 53 79 54 83 55
REMARK SMILES IDX 86 56 80 57 81 58 84 59 82 60 61 61 62 62 70 63 63 64 64 65
REMARK SMILES IDX 68 66 71 67 65 68 66 69 69 70 67 71 6 72 7 73 8 74 9 75
REMARK SMILES IDX 10 77 11 78 22 79 23 80 34 81 24 83 33 84 25 85 26 86 27 87
REMARK SMILES IDX 32 88 28 89 30 90 29 91 31 92 12 93 13 94 21 95 14 96 15 97
REMARK SMILES IDX 20 98 16 100 18 101 17 102 19 103
REMARK H PARENT 3 6 91 24 59 35 8 76 22 82 14 99
REMARK Flexibility Score: inf
ROOT
ATOM      1  C   UNL A   1      32.983  29.328  24.361  1.00  0.00     0.023 C 
ENDROOT
BRANCH   1   2
ATOM      2  C   UNL A   1      33.122  29.524  25.866  1.00  0.00     0.116 C 
BRANCH   2   3
ATOM      3  N   UNL A   1      32.757  30.863  26.297  1.00  0.00    -0.352 N 
ATOM      4  O   UNL A   1      32.833  32.708  27.597  1.00  0.00    -0.269 OA
ATOM      5  C   UNL A   1      33.355  31.657  27.251  1.00  0.00     0.251 C 
ATOM      6  H   UNL A   1      31.976  31.257  25.847  1.00  0.00     0.163 HD
BRANCH   5   7
ATOM      7  C   UNL A   1      34.619  31.216  27.880  1.00  0.00     0.039 A 
ATOM      8  C   UNL A   1      34.764  29.909  28.355  1.00  0.00     0.014 A 
ATOM      9  C   UNL A   1      35.670  32.129  28.000  1.00  0.00     0.014 A 
ATOM     10  C   UNL A   1      35.903  29.559  29.072  1.00  0.00     0.010 A 
ATOM     11  C   UNL A   1      36.845  31.751  28.656  1.00  0.00     0.010 A 
ATOM     12  C   UNL A   1      36.956  30.476  29.230  1.00  0.00    -0.014 A 
BRANCH  12  13
ATOM     13  C   UNL A   1      38.172  30.068  29.978  1.00  0.00     0.031 A 
ATOM     14  C   UNL A   1      38.399  30.520  31.393  1.00  0.00     0.074 A 
ATOM     15  C   UNL A   1      39.065  29.259  29.377  1.00  0.00     0.049 A 
ATOM     16  N   UNL A   1      39.388  30.233  32.204  1.00  0.00    -0.248 NA
ATOM     17  C   UNL A   1      37.391  31.419  31.975  1.00  0.00     0.031 C 
ATOM     18  C   UNL A   1      38.959  28.764  28.005  1.00  0.00     0.029 A 
ATOM     19  N   UNL A   1      40.224  28.695  29.847  1.00  0.00    -0.354 N 
ATOM     20  C   UNL A   1      39.134  30.930  33.378  1.00  0.00     0.074 A 
ATOM     21  C   UNL A   1      37.911  31.675  33.167  1.00  0.00     0.031 C 
ATOM     22  C   UNL A   1      39.981  27.931  27.758  1.00  0.00     0.029 A 
ATOM     23  C   UNL A   1      40.841  27.875  28.936  1.00  0.00     0.049 A 
ATOM     24  H   UNL A   1      40.578  28.862  30.750  1.00  0.00     0.167 HD
ATOM     25  C   UNL A   1      39.853  30.941  34.526  1.00  0.00     0.037 A 
ATOM     26  C   UNL A   1      41.975  27.159  29.035  1.00  0.00     0.037 A 
ATOM     27  C   UNL A   1      41.057  30.179  34.740  1.00  0.00     0.049 A 
ATOM     28  C   UNL A   1      42.756  27.197  30.317  1.00  0.00     0.074 A 
ATOM     29  C   UNL A   1      41.830  30.087  35.885  1.00  0.00     0.029 A 
ATOM     30  N   UNL A   1      41.666  29.380  33.784  1.00  0.00    -0.354 N 
ATOM     31  N   UNL A   1      42.485  27.828  31.432  1.00  0.00    -0.248 NA
ATOM     32  C   UNL A   1      44.004  26.421  30.351  1.00  0.00     0.031 C 
ATOM     33  C   UNL A   1      42.930  29.267  35.608  1.00  0.00     0.029 A 
ATOM     34  C   UNL A   1      42.818  28.809  34.305  1.00  0.00     0.049 A 
ATOM     35  H   UNL A   1      41.331  29.238  32.869  1.00  0.00     0.167 HD
ATOM     36  C   UNL A   1      43.511  27.509  32.309  1.00  0.00     0.074 A 
ATOM     37  C   UNL A   1      44.405  26.618  31.599  1.00  0.00     0.031 C 
ATOM     38  C   UNL A   1      43.695  27.919  33.589  1.00  0.00     0.037 A 
BRANCH  25  39
ATOM     39  C   UNL A   1      39.367  31.825  35.640  1.00  0.00     0.064 A 
ATOM     40  C   UNL A   1      39.791  33.156  35.767  1.00  0.00     0.173 A 
ATOM     41  C   UNL A   1      38.439  31.341  36.575  1.00  0.00     0.173 A 
ATOM     42  F   UNL A   1      40.686  33.665  34.907  1.00  0.00    -0.203 F 
ATOM     43  C   UNL A   1      39.327  33.959  36.807  1.00  0.00     0.198 A 
ATOM     44  C   UNL A   1      37.956  32.155  37.596  1.00  0.00     0.198 A 
ATOM     45  F   UNL A   1      37.995  30.078  36.495  1.00  0.00    -0.203 F 
ATOM     46  F   UNL A   1      39.783  35.214  36.936  1.00  0.00    -0.200 F 
ATOM     47  C   UNL A   1      38.407  33.461  37.716  1.00  0.00     0.200 A 
ATOM     48  F   UNL A   1      37.058  31.676  38.467  1.00  0.00    -0.200 F 
ATOM     49  F   UNL A   1      37.960  34.236  38.713  1.00  0.00    -0.200 F 
ENDBRANCH  25  39
BRANCH  26  50
ATOM     50  C   UNL A   1      42.419  26.328  27.889  1.00  0.00     0.064 A 
ATOM     51  C   UNL A   1      41.913  25.034  27.703  1.00  0.00     0.173 A 
ATOM     52  C   UNL A   1      43.330  26.817  26.942  1.00  0.00     0.173 A 
ATOM     53  F   UNL A   1      41.053  24.517  28.594  1.00  0.00    -0.203 F 
ATOM     54  C   UNL A   1      42.310  24.257  26.617  1.00  0.00     0.198 A 
ATOM     55  C   UNL A   1      43.706  26.049  25.842  1.00  0.00     0.198 A 
ATOM     56  F   UNL A   1      43.837  28.051  27.073  1.00  0.00    -0.203 F 
ATOM     57  F   UNL A   1      41.835  23.012  26.479  1.00  0.00    -0.200 F 
ATOM     58  C   UNL A   1      43.199  24.768  25.683  1.00  0.00     0.200 A 
ATOM     59  F   UNL A   1      44.552  26.553  24.933  1.00  0.00    -0.200 F 
ATOM     60  F   UNL A   1      43.569  24.026  24.631  1.00  0.00    -0.200 F 
ENDBRANCH  26  50
BRANCH  38  61
ATOM     61  C   UNL A   1      44.891  27.375  34.313  1.00  0.00     0.064 A 
ATOM     62  C   UNL A   1      46.115  28.059  34.331  1.00  0.00     0.173 A 
ATOM     63  C   UNL A   1      44.802  26.164  35.015  1.00  0.00     0.173 A 
ATOM     64  F   UNL A   1      46.253  29.212  33.660  1.00  0.00    -0.203 F 
ATOM     65  C   UNL A   1      47.215  27.536  35.006  1.00  0.00     0.198 A 
ATOM     66  C   UNL A   1      45.897  25.658  35.711  1.00  0.00     0.198 A 
ATOM     67  F   UNL A   1      43.651  25.475  35.032  1.00  0.00    -0.203 F 
ATOM     68  F   UNL A   1      48.389  28.182  34.969  1.00  0.00    -0.200 F 
ATOM     69  C   UNL A   1      47.103  26.340  35.699  1.00  0.00     0.200 A 
ATOM     70  F   UNL A   1      45.784  24.508  36.388  1.00  0.00    -0.200 F 
ATOM     71  F   UNL A   1      48.164  25.839  36.348  1.00  0.00    -0.200 F 
ENDBRANCH  38  61
ENDBRANCH  12  13
ENDBRANCH   5   7
ENDBRANCH   2   3
ENDBRANCH   1   2
BRANCH   1  72
ATOM     72  C   UNL A   1      33.913  28.275  23.753  1.00  0.00     0.023 C 
BRANCH  72  73
ATOM     73  C   UNL A   1      33.653  26.851  24.239  1.00  0.00     0.116 C 
BRANCH  73  74
ATOM     74  N   UNL A   1      33.631  25.907  23.133  1.00  0.00    -0.351 N 
ATOM     75  C   UNL A   1      33.468  24.543  23.128  1.00  0.00     0.283 C 
ATOM     76  H   UNL A   1      33.754  26.310  22.244  1.00  0.00     0.163 HD
ATOM     77  O   UNL A   1      33.576  23.978  22.036  1.00  0.00    -0.268 OA
BRANCH  75  78
ATOM     78  C   UNL A   1      33.099  23.806  24.439  1.00  0.00     0.307 C 
BRANCH  78  79
ATOM     79  N   UNL A   1      31.632  23.615  24.652  1.00  0.00    -0.318 N 
ATOM     80  C   UNL A   1      31.031  24.406  25.759  1.00  0.00     0.284 C 
ATOM     81  C   UNL A   1      30.734  23.700  23.492  1.00  0.00     0.284 C 
ATOM     82  H   UNL A   1      31.680  22.630  24.910  1.00  0.00     0.349 HD
ATOM     83  C   UNL A   1      30.539  25.849  25.418  1.00  0.00     0.178 C 
ATOM     84  C   UNL A   1      30.363  25.127  23.056  1.00  0.00     0.178 C 
ATOM     85  N   UNL A   1      29.750  25.862  24.177  1.00  0.00    -0.360 N 
BRANCH  85  86
ATOM     86  C   UNL A   1      29.072  27.013  23.775  1.00  0.00     0.038 A 
ATOM     87  C   UNL A   1      27.680  27.078  23.961  1.00  0.00     0.026 A 
ATOM     88  C   UNL A   1      29.694  28.085  23.124  1.00  0.00     0.046 A 
ATOM     89  C   UNL A   1      26.926  28.159  23.501  1.00  0.00     0.004 A 
ATOM     90  C   UNL A   1      28.939  29.166  22.658  1.00  0.00     0.043 A 
ATOM     91  C   UNL A   1      27.558  29.206  22.839  1.00  0.00     0.020 A 
ATOM     92  Cl  UNL A   1      29.719  30.453  21.821  1.00  0.00    -0.084 Cl
ENDBRANCH  85  86
ENDBRANCH  78  79
BRANCH  78  93
ATOM     93  C   UNL A   1      33.970  22.569  24.624  1.00  0.00     0.044 A 
ATOM     94  C   UNL A   1      33.670  21.254  24.302  1.00  0.00     0.094 A 
ATOM     95  C   UNL A   1      35.348  22.554  25.054  1.00  0.00     0.011 A 
ATOM     96  N   UNL A   1      34.729  20.456  24.626  1.00  0.00    -0.361 N 
ATOM     97  C   UNL A   1      35.784  21.226  25.049  1.00  0.00     0.046 A 
ATOM     98  C   UNL A   1      36.278  23.551  25.419  1.00  0.00     0.031 A 
ATOM     99  H   UNL A   1      34.737  19.474  24.566  1.00  0.00     0.166 HD
ATOM    100  C   UNL A   1      37.082  20.839  25.402  1.00  0.00     0.028 A 
ATOM    101  C   UNL A   1      37.588  23.180  25.748  1.00  0.00     0.041 A 
ATOM    102  C   UNL A   1      37.984  21.847  25.745  1.00  0.00     0.022 A 
ATOM    103  Cl  UNL A   1      38.736  24.404  26.142  1.00  0.00    -0.084 Cl
ENDBRANCH  78  93
ENDBRANCH  75  78
ENDBRANCH  73  74
ENDBRANCH  72  73
ENDBRANCH   1  72
TORSDOF 14
ENDMDL
MODEL 2
REMARK VINA RESULT:     -13.4      4.543      9.357
REMARK SMILES O=C(NCCCCNC(=O)[C@H](c1c[nH]c2ccc(Cl)cc12)[NH+]1CCN(c2cccc(Cl)c2)CC1)c1ccc(-c2c3nc(c(-c4c(F)c(F)c(F)c(F)c4F)c4ccc([nH]4)c(-c4c(F)c(F)c(F)c(F)c4F)c4nc(c(-c5c(F)c(F)c(F)c(F)c5F)c5ccc2[nH]5)C=C4)C=C3)cc1
REMARK SMILES IDX 5 1 4 2 3 3 1 4 2 5 35 7 36 8 97 9 37 10 96 11 38 12 39 13
REMARK SMILES IDX 40 14 90 15 41 16 95 17 89 18 91 19 42 20 94 21 88 22 87 23
REMARK SMILES IDX 43 25 75 26 55 27 74 28 56 29 59 30 73 31 92 32 57 33 58 34
REMARK SMILES IDX 72 36 93 37 60 38 44 39 45 40 53 41 46 42 47 43 51 44 54 45
REMARK SMILES IDX 48 46 49 47 52 48 50 49 76 50 77 51 85 52 78 53 79 54 83 55
REMARK SMILES IDX 86 56 80 57 81 58 84 59 82 60 61 61 62 62 70 63 63 64 64 65
REMARK SMILES IDX 68 66 71 67 65 68 66 69 69 70 67 71 6 72 7 73 8 74 9 75
REMARK SMILES IDX 10 77 11 78 22 79 23 80 34 81 24 83 33 84 25 85 26 86 27 87
REMARK SMILES IDX 32 88 28 89 30 90 29 91 31 92 12 93 13 94 21 95 14 96 15 97
REMARK SMILES IDX 20 98 16 100 18 101 17 102 19 103
REMARK H PARENT 3 6 91 24 59 35 8 76 22 82 14 99
REMARK Flexibility Score: inf
ROOT
ATOM      1  C   UNL A   1      38.246  19.981  24.873  1.00  0.00     0.023 C 
ENDROOT
BRANCH   1   2
ATOM      2  C   UNL A   1      39.259  20.134  26.003  1.00  0.00     0.116 C 
BRANCH   2   3
ATOM      3  N   UNL A   1      40.321  19.144  25.947  1.00  0.00    -0.352 N 
ATOM      4  O   UNL A   1      42.452  18.402  25.876  1.00  0.00    -0.269 OA
ATOM      5  C   UNL A   1      41.678  19.323  26.096  1.00  0.00     0.251 C 
ATOM      6  H   UNL A   1      40.032  18.219  25.779  1.00  0.00     0.163 HD
BRANCH   5   7
ATOM      7  C   UNL A   1      42.200  20.649  26.496  1.00  0.00     0.039 A 
ATOM      8  C   UNL A   1      42.282  21.009  27.843  1.00  0.00     0.014 A 
ATOM      9  C   UNL A   1      42.604  21.544  25.502  1.00  0.00     0.014 A 
ATOM     10  C   UNL A   1      42.635  22.310  28.189  1.00  0.00     0.010 A 
ATOM     11  C   UNL A   1      43.031  22.827  25.856  1.00  0.00     0.010 A 
ATOM     12  C   UNL A   1      43.014  23.232  27.200  1.00  0.00    -0.014 A 
BRANCH  12  13
ATOM     13  C   UNL A   1      43.411  24.606  27.598  1.00  0.00     0.031 A 
ATOM     14  C   UNL A   1      44.850  25.039  27.559  1.00  0.00     0.074 A 
ATOM     15  C   UNL A   1      42.456  25.478  27.971  1.00  0.00     0.049 A 
ATOM     16  N   UNL A   1      45.370  26.208  27.841  1.00  0.00    -0.248 NA
ATOM     17  C   UNL A   1      45.839  24.025  27.162  1.00  0.00     0.031 C 
ATOM     18  C   UNL A   1      41.027  25.172  28.058  1.00  0.00     0.029 A 
ATOM     19  N   UNL A   1      42.536  26.800  28.327  1.00  0.00    -0.354 N 
ATOM     20  C   UNL A   1      46.742  26.066  27.678  1.00  0.00     0.074 A 
ATOM     21  C   UNL A   1      46.978  24.690  27.296  1.00  0.00     0.031 C 
ATOM     22  C   UNL A   1      40.359  26.285  28.393  1.00  0.00     0.029 A 
ATOM     23  C   UNL A   1      41.316  27.369  28.596  1.00  0.00     0.049 A 
ATOM     24  H   UNL A   1      43.386  27.294  28.383  1.00  0.00     0.167 HD
ATOM     25  C   UNL A   1      47.711  27.000  27.826  1.00  0.00     0.037 A 
ATOM     26  C   UNL A   1      41.001  28.622  28.967  1.00  0.00     0.037 A 
ATOM     27  C   UNL A   1      47.469  28.375  28.184  1.00  0.00     0.049 A 
ATOM     28  C   UNL A   1      42.097  29.635  29.132  1.00  0.00     0.074 A 
ATOM     29  C   UNL A   1      48.382  29.408  28.312  1.00  0.00     0.029 A 
ATOM     30  N   UNL A   1      46.222  28.907  28.474  1.00  0.00    -0.354 N 
ATOM     31  N   UNL A   1      43.385  29.499  28.936  1.00  0.00    -0.248 NA
ATOM     32  C   UNL A   1      41.693  30.977  29.573  1.00  0.00     0.031 C 
ATOM     33  C   UNL A   1      47.692  30.555  28.722  1.00  0.00     0.029 A 
ATOM     34  C   UNL A   1      46.343  30.249  28.803  1.00  0.00     0.049 A 
ATOM     35  H   UNL A   1      45.374  28.407  28.450  1.00  0.00     0.167 HD
ATOM     36  C   UNL A   1      43.945  30.740  29.205  1.00  0.00     0.074 A 
ATOM     37  C   UNL A   1      42.852  31.620  29.566  1.00  0.00     0.031 C 
ATOM     38  C   UNL A   1      45.247  31.115  29.155  1.00  0.00     0.037 A 
BRANCH  25  39
ATOM     39  C   UNL A   1      49.134  26.561  27.624  1.00  0.00     0.064 A 
ATOM     40  C   UNL A   1      49.686  26.405  26.344  1.00  0.00     0.173 A 
ATOM     41  C   UNL A   1      49.966  26.324  28.730  1.00  0.00     0.173 A 
ATOM     42  F   UNL A   1      48.931  26.609  25.253  1.00  0.00    -0.203 F 
ATOM     43  C   UNL A   1      51.008  25.998  26.178  1.00  0.00     0.198 A 
ATOM     44  C   UNL A   1      51.295  25.945  28.560  1.00  0.00     0.198 A 
ATOM     45  F   UNL A   1      49.491  26.466  29.975  1.00  0.00    -0.203 F 
ATOM     46  F   UNL A   1      51.500  25.810  24.945  1.00  0.00    -0.200 F 
ATOM     47  C   UNL A   1      51.813  25.774  27.285  1.00  0.00     0.200 A 
ATOM     48  F   UNL A   1      52.074  25.739  29.631  1.00  0.00    -0.200 F 
ATOM     49  F   UNL A   1      53.085  25.385  27.123  1.00  0.00    -0.200 F 
ENDBRANCH  25  39
BRANCH  26  50
ATOM     50  C   UNL A   1      39.579  28.988  29.180  1.00  0.00     0.064 A 
ATOM     51  C   UNL A   1      39.002  28.910  30.455  1.00  0.00     0.173 A 
ATOM     52  C   UNL A   1      38.777  29.449  28.126  1.00  0.00     0.173 A 
ATOM     53  F   UNL A   1      39.725  28.457  31.491  1.00  0.00    -0.203 F 
ATOM     54  C   UNL A   1      37.674  29.272  30.665  1.00  0.00     0.198 A 
ATOM     55  C   UNL A   1      37.457  29.836  28.342  1.00  0.00     0.198 A 
ATOM     56  F   UNL A   1      39.286  29.546  26.889  1.00  0.00    -0.203 F 
ATOM     57  F   UNL A   1      37.136  29.159  31.888  1.00  0.00    -0.200 F 
ATOM     58  C   UNL A   1      36.905  29.742  29.611  1.00  0.00     0.200 A 
ATOM     59  F   UNL A   1      36.723  30.304  27.324  1.00  0.00    -0.200 F 
ATOM     60  F   UNL A   1      35.631  30.103  29.816  1.00  0.00    -0.200 F 
ENDBRANCH  26  50
BRANCH  38  61
ATOM     61  C   UNL A   1      45.555  32.550  29.465  1.00  0.00     0.064 A 
ATOM     62  C   UNL A   1      45.534  33.539  28.471  1.00  0.00     0.173 A 
ATOM     63  C   UNL A   1      45.854  32.942  30.778  1.00  0.00     0.173 A 
ATOM     64  F   UNL A   1      45.270  33.209  27.197  1.00  0.00    -0.203 F 
ATOM     65  C   UNL A   1      45.828  34.865  28.777  1.00  0.00     0.198 A 
ATOM     66  C   UNL A   1      46.120  34.274  31.084  1.00  0.00     0.198 A 
ATOM     67  F   UNL A   1      45.883  32.034  31.765  1.00  0.00    -0.203 F 
ATOM     68  F   UNL A   1      45.850  35.785  27.802  1.00  0.00    -0.200 F 
ATOM     69  C   UNL A   1      46.115  35.232  30.083  1.00  0.00     0.200 A 
ATOM     70  F   UNL A   1      46.388  34.628  32.349  1.00  0.00    -0.200 F 
ATOM     71  F   UNL A   1      46.396  36.510  30.375  1.00  0.00    -0.200 F 
ENDBRANCH  38  61
ENDBRANCH  12  13
ENDBRANCH   5   7
ENDBRANCH   2   3
ENDBRANCH   1   2
BRANCH   1  72
ATOM     72  C   UNL A   1      36.866  20.581  25.151  1.00  0.00     0.023 C 
BRANCH  72  73
ATOM     73  C   UNL A   1      36.806  22.102  25.033  1.00  0.00     0.116 C 
BRANCH  73  74
ATOM     74  N   UNL A   1      36.191  22.515  23.781  1.00  0.00    -0.351 N 
ATOM     75  C   UNL A   1      34.907  22.918  23.509  1.00  0.00     0.283 C 
ATOM     76  H   UNL A   1      36.792  22.502  23.002  1.00  0.00     0.163 HD
ATOM     77  O   UNL A   1      34.635  23.134  22.324  1.00  0.00    -0.268 OA
BRANCH  75  78
ATOM     78  C   UNL A   1      33.907  23.143  24.670  1.00  0.00     0.307 C 
BRANCH  78  79
ATOM     79  N   UNL A   1      32.704  23.951  24.304  1.00  0.00    -0.318 N 
ATOM     80  C   UNL A   1      31.794  24.301  25.427  1.00  0.00     0.284 C 
ATOM     81  C   UNL A   1      32.886  25.150  23.474  1.00  0.00     0.284 C 
ATOM     82  H   UNL A   1      32.270  23.248  23.706  1.00  0.00     0.349 HD
ATOM     83  C   UNL A   1      32.116  25.605  26.225  1.00  0.00     0.178 C 
ATOM     84  C   UNL A   1      33.349  26.406  24.232  1.00  0.00     0.178 C 
ATOM     85  N   UNL A   1      32.404  26.726  25.318  1.00  0.00    -0.360 N 
BRANCH  85  86
ATOM     86  C   UNL A   1      32.552  28.022  25.811  1.00  0.00     0.038 A 
ATOM     87  C   UNL A   1      33.545  28.271  26.773  1.00  0.00     0.026 A 
ATOM     88  C   UNL A   1      31.710  29.081  25.453  1.00  0.00     0.046 A 
ATOM     89  C   UNL A   1      33.688  29.523  27.376  1.00  0.00     0.004 A 
ATOM     90  C   UNL A   1      31.848  30.334  26.060  1.00  0.00     0.043 A 
ATOM     91  C   UNL A   1      32.830  30.559  27.022  1.00  0.00     0.020 A 
ATOM     92  Cl  UNL A   1      30.773  31.611  25.635  1.00  0.00    -0.084 Cl
ENDBRANCH  85  86
ENDBRANCH  78  79
BRANCH  78  93
ATOM     93  C   UNL A   1      33.640  21.839  25.411  1.00  0.00     0.044 A 
ATOM     94  C   UNL A   1      33.611  21.622  26.781  1.00  0.00     0.094 A 
ATOM     95  C   UNL A   1      33.227  20.590  24.817  1.00  0.00     0.011 A 
ATOM     96  N   UNL A   1      33.330  20.309  27.025  1.00  0.00    -0.361 N 
ATOM     97  C   UNL A   1      33.050  19.663  25.847  1.00  0.00     0.046 A 
ATOM     98  C   UNL A   1      32.957  20.168  23.497  1.00  0.00     0.031 A 
ATOM     99  H   UNL A   1      33.328  19.887  27.914  1.00  0.00     0.166 HD
ATOM    100  C   UNL A   1      32.638  18.342  25.634  1.00  0.00     0.028 A 
ATOM    101  C   UNL A   1      32.517  18.857  23.272  1.00  0.00     0.041 A 
ATOM    102  C   UNL A   1      32.365  17.956  24.321  1.00  0.00     0.022 A 
ATOM    103  Cl  UNL A   1      32.138  18.360  21.667  1.00  0.00    -0.084 Cl
ENDBRANCH  78  93
ENDBRANCH  75  78
ENDBRANCH  73  74
ENDBRANCH  72  73
ENDBRANCH   1  72
TORSDOF 14
ENDMDL
MODEL 3
REMARK VINA RESULT:     -13.3      4.553      7.855
REMARK SMILES O=C(NCCCCNC(=O)[C@H](c1c[nH]c2ccc(Cl)cc12)[NH+]1CCN(c2cccc(Cl)c2)CC1)c1ccc(-c2c3nc(c(-c4c(F)c(F)c(F)c(F)c4F)c4ccc([nH]4)c(-c4c(F)c(F)c(F)c(F)c4F)c4nc(c(-c5c(F)c(F)c(F)c(F)c5F)c5ccc2[nH]5)C=C4)C=C3)cc1
REMARK SMILES IDX 5 1 4 2 3 3 1 4 2 5 35 7 36 8 97 9 37 10 96 11 38 12 39 13
REMARK SMILES IDX 40 14 90 15 41 16 95 17 89 18 91 19 42 20 94 21 88 22 87 23
REMARK SMILES IDX 43 25 75 26 55 27 74 28 56 29 59 30 73 31 92 32 57 33 58 34
REMARK SMILES IDX 72 36 93 37 60 38 44 39 45 40 53 41 46 42 47 43 51 44 54 45
REMARK SMILES IDX 48 46 49 47 52 48 50 49 76 50 77 51 85 52 78 53 79 54 83 55
REMARK SMILES IDX 86 56 80 57 81 58 84 59 82 60 61 61 62 62 70 63 63 64 64 65
REMARK SMILES IDX 68 66 71 67 65 68 66 69 69 70 67 71 6 72 7 73 8 74 9 75
REMARK SMILES IDX 10 77 11 78 22 79 23 80 34 81 24 83 33 84 25 85 26 86 27 87
REMARK SMILES IDX 32 88 28 89 30 90 29 91 31 92 12 93 13 94 21 95 14 96 15 97
REMARK SMILES IDX 20 98 16 100 18 101 17 102 19 103
REMARK H PARENT 3 6 91 24 59 35 8 76 22 82 14 99
REMARK Flexibility Score: inf
ROOT
ATOM      1  C   UNL A   1      38.109  19.859  24.790  1.00  0.00     0.023 C 
ENDROOT
BRANCH   1   2
ATOM      2  C   UNL A   1      39.162  20.162  25.850  1.00  0.00     0.116 C 
BRANCH   2   3
ATOM      3  N   UNL A   1      40.192  19.141  25.931  1.00  0.00    -0.352 N 
ATOM      4  O   UNL A   1      42.299  18.331  26.002  1.00  0.00    -0.269 OA
ATOM      5  C   UNL A   1      41.550  19.294  26.099  1.00  0.00     0.251 C 
ATOM      6  H   UNL A   1      39.877  18.212  25.855  1.00  0.00     0.163 HD
BRANCH   5   7
ATOM      7  C   UNL A   1      42.105  20.639  26.369  1.00  0.00     0.039 A 
ATOM      8  C   UNL A   1      42.311  21.077  27.680  1.00  0.00     0.014 A 
ATOM      9  C   UNL A   1      42.414  21.472  25.292  1.00  0.00     0.014 A 
ATOM     10  C   UNL A   1      42.692  22.395  27.914  1.00  0.00     0.010 A 
ATOM     11  C   UNL A   1      42.870  22.772  25.528  1.00  0.00     0.010 A 
ATOM     12  C   UNL A   1      42.977  23.256  26.841  1.00  0.00    -0.014 A 
BRANCH  12  13
ATOM     13  C   UNL A   1      43.407  24.649  27.119  1.00  0.00     0.031 A 
ATOM     14  C   UNL A   1      42.465  25.643  27.738  1.00  0.00     0.074 A 
ATOM     15  C   UNL A   1      44.672  25.009  26.832  1.00  0.00     0.049 A 
ATOM     16  N   UNL A   1      42.684  26.890  28.077  1.00  0.00    -0.248 NA
ATOM     17  C   UNL A   1      41.093  25.183  28.003  1.00  0.00     0.031 C 
ATOM     18  C   UNL A   1      45.675  24.136  26.221  1.00  0.00     0.029 A 
ATOM     19  N   UNL A   1      45.337  26.191  27.034  1.00  0.00    -0.354 N 
ATOM     20  C   UNL A   1      41.478  27.368  28.573  1.00  0.00     0.074 A 
ATOM     21  C   UNL A   1      40.523  26.286  28.468  1.00  0.00     0.031 C 
ATOM     22  C   UNL A   1      46.841  24.795  26.142  1.00  0.00     0.029 A 
ATOM     23  C   UNL A   1      46.654  26.150  26.648  1.00  0.00     0.049 A 
ATOM     24  H   UNL A   1      44.912  26.992  27.418  1.00  0.00     0.167 HD
ATOM     25  C   UNL A   1      41.199  28.595  29.076  1.00  0.00     0.037 A 
ATOM     26  C   UNL A   1      47.606  27.100  26.694  1.00  0.00     0.037 A 
ATOM     27  C   UNL A   1      42.159  29.662  29.200  1.00  0.00     0.049 A 
ATOM     28  C   UNL A   1      47.265  28.453  27.248  1.00  0.00     0.074 A 
ATOM     29  C   UNL A   1      41.983  30.924  29.740  1.00  0.00     0.029 A 
ATOM     30  N   UNL A   1      43.477  29.591  28.774  1.00  0.00    -0.354 N 
ATOM     31  N   UNL A   1      46.133  28.880  27.750  1.00  0.00    -0.248 NA
ATOM     32  C   UNL A   1      48.338  29.457  27.239  1.00  0.00     0.031 C 
ATOM     33  C   UNL A   1      43.183  31.633  29.601  1.00  0.00     0.029 A 
ATOM     34  C   UNL A   1      44.121  30.795  29.018  1.00  0.00     0.049 A 
ATOM     35  H   UNL A   1      43.896  28.802  28.360  1.00  0.00     0.167 HD
ATOM     36  C   UNL A   1      46.361  30.192  28.140  1.00  0.00     0.074 A 
ATOM     37  C   UNL A   1      47.744  30.487  27.826  1.00  0.00     0.031 C 
ATOM     38  C   UNL A   1      45.499  31.073  28.707  1.00  0.00     0.037 A 
BRANCH  25  39
ATOM     39  C   UNL A   1      39.785  28.861  29.510  1.00  0.00     0.064 A 
ATOM     40  C   UNL A   1      39.354  28.608  30.821  1.00  0.00     0.173 A 
ATOM     41  C   UNL A   1      38.857  29.406  28.609  1.00  0.00     0.173 A 
ATOM     42  F   UNL A   1      40.198  28.077  31.720  1.00  0.00    -0.203 F 
ATOM     43  C   UNL A   1      38.039  28.863  31.204  1.00  0.00     0.198 A 
ATOM     44  C   UNL A   1      37.552  29.685  29.004  1.00  0.00     0.198 A 
ATOM     45  F   UNL A   1      39.219  29.673  27.346  1.00  0.00    -0.203 F 
ATOM     46  F   UNL A   1      37.637  28.569  32.450  1.00  0.00    -0.200 F 
ATOM     47  C   UNL A   1      37.141  29.406  30.298  1.00  0.00     0.200 A 
ATOM     48  F   UNL A   1      36.688  30.220  28.129  1.00  0.00    -0.200 F 
ATOM     49  F   UNL A   1      35.877  29.652  30.669  1.00  0.00    -0.200 F 
ENDBRANCH  25  39
BRANCH  26  50
ATOM     50  C   UNL A   1      48.977  26.785  26.222  1.00  0.00     0.064 A 
ATOM     51  C   UNL A   1      49.911  26.188  27.079  1.00  0.00     0.173 A 
ATOM     52  C   UNL A   1      49.372  27.045  24.902  1.00  0.00     0.173 A 
ATOM     53  F   UNL A   1      49.584  25.938  28.356  1.00  0.00    -0.203 F 
ATOM     54  C   UNL A   1      51.193  25.871  26.635  1.00  0.00     0.198 A 
ATOM     55  C   UNL A   1      50.645  26.703  24.451  1.00  0.00     0.198 A 
ATOM     56  F   UNL A   1      48.512  27.610  24.042  1.00  0.00    -0.203 F 
ATOM     57  F   UNL A   1      52.077  25.329  27.483  1.00  0.00    -0.200 F 
ATOM     58  C   UNL A   1      51.556  26.121  25.320  1.00  0.00     0.200 A 
ATOM     59  F   UNL A   1      50.986  26.932  23.176  1.00  0.00    -0.200 F 
ATOM     60  F   UNL A   1      52.784  25.803  24.890  1.00  0.00    -0.200 F 
ENDBRANCH  26  50
BRANCH  38  61
ATOM     61  C   UNL A   1      46.042  32.427  29.058  1.00  0.00     0.064 A 
ATOM     62  C   UNL A   1      46.605  32.690  30.315  1.00  0.00     0.173 A 
ATOM     63  C   UNL A   1      46.014  33.466  28.116  1.00  0.00     0.173 A 
ATOM     64  F   UNL A   1      46.638  31.734  31.254  1.00  0.00    -0.203 F 
ATOM     65  C   UNL A   1      47.099  33.955  30.624  1.00  0.00     0.198 A 
ATOM     66  C   UNL A   1      46.534  34.721  28.420  1.00  0.00     0.198 A 
ATOM     67  F   UNL A   1      45.489  33.262  26.899  1.00  0.00    -0.203 F 
ATOM     68  F   UNL A   1      47.589  34.199  31.847  1.00  0.00    -0.200 F 
ATOM     69  C   UNL A   1      47.068  34.967  29.675  1.00  0.00     0.200 A 
ATOM     70  F   UNL A   1      46.513  35.694  27.500  1.00  0.00    -0.200 F 
ATOM     71  F   UNL A   1      47.546  36.183  29.975  1.00  0.00    -0.200 F 
ENDBRANCH  38  61
ENDBRANCH  12  13
ENDBRANCH   5   7
ENDBRANCH   2   3
ENDBRANCH   1   2
BRANCH   1  72
ATOM     72  C   UNL A   1      36.746  20.518  25.018  1.00  0.00     0.023 C 
BRANCH  72  73
ATOM     73  C   UNL A   1      36.761  22.043  24.917  1.00  0.00     0.116 C 
BRANCH  73  74
ATOM     74  N   UNL A   1      36.122  22.500  23.693  1.00  0.00    -0.351 N 
ATOM     75  C   UNL A   1      34.843  22.946  23.469  1.00  0.00     0.283 C 
ATOM     76  H   UNL A   1      36.698  22.486  22.896  1.00  0.00     0.163 HD
ATOM     77  O   UNL A   1      34.541  23.196  22.298  1.00  0.00    -0.268 OA
BRANCH  75  78
ATOM     78  C   UNL A   1      33.885  23.176  24.665  1.00  0.00     0.307 C 
BRANCH  78  79
ATOM     79  N   UNL A   1      32.678  23.997  24.344  1.00  0.00    -0.318 N 
ATOM     80  C   UNL A   1      31.808  24.345  25.498  1.00  0.00     0.284 C 
ATOM     81  C   UNL A   1      32.843  25.201  23.518  1.00  0.00     0.284 C 
ATOM     82  H   UNL A   1      32.219  23.302  23.755  1.00  0.00     0.349 HD
ATOM     83  C   UNL A   1      32.166  25.640  26.296  1.00  0.00     0.178 C 
ATOM     84  C   UNL A   1      33.341  26.446  24.271  1.00  0.00     0.178 C 
ATOM     85  N   UNL A   1      32.435  26.765  25.388  1.00  0.00    -0.360 N 
BRANCH  85  86
ATOM     86  C   UNL A   1      32.610  28.057  25.886  1.00  0.00     0.038 A 
ATOM     87  C   UNL A   1      33.634  28.289  26.821  1.00  0.00     0.026 A 
ATOM     88  C   UNL A   1      31.768  29.126  25.562  1.00  0.00     0.046 A 
ATOM     89  C   UNL A   1      33.807  29.534  27.428  1.00  0.00     0.004 A 
ATOM     90  C   UNL A   1      31.936  30.373  26.174  1.00  0.00     0.043 A 
ATOM     91  C   UNL A   1      32.949  30.581  27.108  1.00  0.00     0.020 A 
ATOM     92  Cl  UNL A   1      30.861  31.663  25.791  1.00  0.00    -0.084 Cl
ENDBRANCH  85  86
ENDBRANCH  78  79
BRANCH  78  93
ATOM     93  C   UNL A   1      33.631  21.870  25.409  1.00  0.00     0.044 A 
ATOM     94  C   UNL A   1      33.610  21.655  26.779  1.00  0.00     0.094 A 
ATOM     95  C   UNL A   1      33.223  20.618  24.818  1.00  0.00     0.011 A 
ATOM     96  N   UNL A   1      33.340  20.340  27.026  1.00  0.00    -0.361 N 
ATOM     97  C   UNL A   1      33.058  19.690  25.850  1.00  0.00     0.046 A 
ATOM     98  C   UNL A   1      32.949  20.192  23.500  1.00  0.00     0.031 A 
ATOM     99  H   UNL A   1      33.346  19.919  27.915  1.00  0.00     0.166 HD
ATOM    100  C   UNL A   1      32.654  18.367  25.640  1.00  0.00     0.028 A 
ATOM    101  C   UNL A   1      32.517  18.879  23.279  1.00  0.00     0.041 A 
ATOM    102  C   UNL A   1      32.376  17.978  24.329  1.00  0.00     0.022 A 
ATOM    103  Cl  UNL A   1      32.132  18.377  21.676  1.00  0.00    -0.084 Cl
ENDBRANCH  78  93
ENDBRANCH  75  78
ENDBRANCH  73  74
ENDBRANCH  72  73
ENDBRANCH   1  72
TORSDOF 14
ENDMDL
