MODEL 1
REMARK VINA RESULT:     -11.9      0.000      0.000
REMARK SMILES C[C@H]1CN(C(=O)C[N@H+]2CCO[C@H](CC(=O)NCCCCNC(=O)c3ccc(-c4c5nc(c(-c6c(F)c(F)c(F)c(F)c6F)c6ccc([nH]6)c(-c6c(F)c(F)c(F)c(F)c6F)c6nc(c(-c7c(F)c(F)c(F)c(F)c7F)c7ccc4[nH]7)C=C6)C=C5)cc3)C2)CCO1
REMARK SMILES IDX 17 1 16 2 14 3 15 4 13 6 12 7 8 8 9 9 87 10 10 12 11 13 7 14
REMARK SMILES IDX 5 15 6 16 4 17 1 18 2 19 3 20 90 21 89 22 88 23 18 24 19 25
REMARK SMILES IDX 20 26 21 27 22 28 23 30 24 31 25 32 86 33 26 34 85 35 27 36
REMARK SMILES IDX 28 37 29 38 79 39 30 40 84 41 78 42 80 43 31 44 83 45 77 46
REMARK SMILES IDX 76 47 32 49 64 50 44 51 63 52 45 53 48 54 62 55 81 56 46 57
REMARK SMILES IDX 47 58 61 60 82 61 49 62 33 63 34 64 42 65 35 66 36 67 40 68
REMARK SMILES IDX 43 69 37 70 38 71 41 72 39 73 65 74 66 75 74 76 67 77 68 78
REMARK SMILES IDX 72 79 75 80 69 81 70 82 73 83 71 84 50 85 51 86 59 87 52 88
REMARK SMILES IDX 53 89 57 90 60 91 54 92 55 93 58 94 56 95
REMARK H PARENT 16 5 8 11 21 29 80 48 48 59
REMARK Flexibility Score: inf
ROOT
ATOM      1  C   UNL A   1      35.590  20.705  24.720  1.00  0.00     0.116 C 
ENDROOT
BRANCH   1   2
ATOM      2  N   UNL A   1      35.131  20.841  26.089  1.00  0.00    -0.356 N 
ATOM      3  C   UNL A   1      34.659  21.942  26.735  1.00  0.00     0.222 C 
ATOM      4  O   UNL A   1      34.403  21.845  27.936  1.00  0.00    -0.275 OA
ATOM      5  H   UNL A   1      35.163  20.017  26.626  1.00  0.00     0.163 HD
BRANCH   3   6
ATOM      6  C   UNL A   1      34.426  23.239  25.994  1.00  0.00     0.138 C 
BRANCH   6   7
ATOM      7  C   UNL A   1      32.942  23.520  25.743  1.00  0.00     0.182 C 
ATOM      8  N   UNL A   1      30.841  24.488  26.823  1.00  0.00    -0.323 N 
ATOM      9  C   UNL A   1      30.320  23.110  26.732  1.00  0.00     0.291 C 
ATOM     10  C   UNL A   1      32.324  24.367  26.891  1.00  0.00     0.295 C 
ATOM     11  H   UNL A   1      30.459  24.946  27.650  1.00  0.00     0.348 HD
ATOM     12  C   UNL A   1      30.882  22.332  25.539  1.00  0.00     0.222 C 
ATOM     13  O   UNL A   1      32.297  22.230  25.653  1.00  0.00    -0.366 OA
BRANCH   8  14
ATOM     14  C   UNL A   1      30.418  25.361  25.697  1.00  0.00     0.363 C 
BRANCH  14  15
ATOM     15  C   UNL A   1      30.964  26.792  25.848  1.00  0.00     0.277 C 
ATOM     16  O   UNL A   1      31.027  27.307  26.971  1.00  0.00    -0.268 OA
BRANCH  15  17
ATOM     17  N   UNL A   1      31.435  27.461  24.725  1.00  0.00    -0.333 N 
ATOM     18  C   UNL A   1      32.171  25.781  21.403  1.00  0.00     0.040 C 
ATOM     19  C   UNL A   1      31.384  26.424  22.534  1.00  0.00     0.134 C 
ATOM     20  C   UNL A   1      32.294  26.888  23.691  1.00  0.00     0.151 C 
ATOM     21  O   UNL A   1      30.675  27.564  21.997  1.00  0.00    -0.375 OA
ATOM     22  C   UNL A   1      29.854  28.189  23.008  1.00  0.00     0.182 C 
ATOM     23  C   UNL A   1      30.689  28.617  24.223  1.00  0.00     0.148 C 
ENDBRANCH  15  17
ENDBRANCH  14  15
ENDBRANCH   8  14
ENDBRANCH   6   7
ENDBRANCH   3   6
ENDBRANCH   1   2
BRANCH   1  24
ATOM     24  C   UNL A   1      37.087  21.006  24.611  1.00  0.00     0.023 C 
BRANCH  24  25
ATOM     25  C   UNL A   1      37.993  19.834  25.002  1.00  0.00     0.023 C 
BRANCH  25  26
ATOM     26  C   UNL A   1      39.140  20.194  25.939  1.00  0.00     0.116 C 
BRANCH  26  27
ATOM     27  N   UNL A   1      40.186  19.185  25.967  1.00  0.00    -0.352 N 
ATOM     28  C   UNL A   1      41.541  19.350  26.126  1.00  0.00     0.251 C 
ATOM     29  H   UNL A   1      39.882  18.254  25.857  1.00  0.00     0.163 HD
ATOM     30  O   UNL A   1      42.299  18.401  25.987  1.00  0.00    -0.269 OA
BRANCH  28  31
ATOM     31  C   UNL A   1      42.081  20.693  26.432  1.00  0.00     0.039 A 
ATOM     32  C   UNL A   1      42.361  21.559  25.372  1.00  0.00     0.014 A 
ATOM     33  C   UNL A   1      42.296  21.103  27.750  1.00  0.00     0.014 A 
ATOM     34  C   UNL A   1      42.795  22.859  25.639  1.00  0.00     0.010 A 
ATOM     35  C   UNL A   1      42.653  22.422  28.016  1.00  0.00     0.010 A 
ATOM     36  C   UNL A   1      42.908  23.313  26.963  1.00  0.00    -0.014 A 
BRANCH  36  37
ATOM     37  C   UNL A   1      43.284  24.719  27.258  1.00  0.00     0.031 A 
ATOM     38  C   UNL A   1      44.680  25.208  26.991  1.00  0.00     0.074 A 
ATOM     39  C   UNL A   1      42.375  25.545  27.813  1.00  0.00     0.049 A 
ATOM     40  N   UNL A   1      45.199  26.391  27.206  1.00  0.00    -0.248 NA
ATOM     41  C   UNL A   1      45.627  24.232  26.430  1.00  0.00     0.031 C 
ATOM     42  C   UNL A   1      41.004  25.176  28.169  1.00  0.00     0.029 A 
ATOM     43  N   UNL A   1      42.467  26.865  28.178  1.00  0.00    -0.354 N 
ATOM     44  C   UNL A   1      46.528  26.299  26.814  1.00  0.00     0.074 A 
ATOM     45  C   UNL A   1      46.753  24.930  26.407  1.00  0.00     0.031 C 
ATOM     46  C   UNL A   1      40.374  26.250  28.670  1.00  0.00     0.029 A 
ATOM     47  C   UNL A   1      41.307  27.373  28.709  1.00  0.00     0.049 A 
ATOM     48  H   UNL A   1      43.289  27.398  28.070  1.00  0.00     0.167 HD
ATOM     49  C   UNL A   1      47.467  27.275  26.769  1.00  0.00     0.037 A 
ATOM     50  C   UNL A   1      41.027  28.604  29.177  1.00  0.00     0.037 A 
ATOM     51  C   UNL A   1      47.234  28.640  27.164  1.00  0.00     0.049 A 
ATOM     52  C   UNL A   1      42.095  29.664  29.134  1.00  0.00     0.074 A 
ATOM     53  C   UNL A   1      48.105  29.715  27.110  1.00  0.00     0.029 A 
ATOM     54  N   UNL A   1      46.043  29.118  27.694  1.00  0.00    -0.354 N 
ATOM     55  N   UNL A   1      43.325  29.585  28.690  1.00  0.00    -0.248 NA
ATOM     56  C   UNL A   1      41.729  30.990  29.652  1.00  0.00     0.031 C 
ATOM     57  C   UNL A   1      47.462  30.828  27.658  1.00  0.00     0.029 A 
ATOM     58  C   UNL A   1      46.167  30.466  27.995  1.00  0.00     0.049 A 
ATOM     59  H   UNL A   1      45.232  28.579  27.835  1.00  0.00     0.167 HD
ATOM     60  C   UNL A   1      43.870  30.853  28.845  1.00  0.00     0.074 A 
ATOM     61  C   UNL A   1      42.828  31.688  29.406  1.00  0.00     0.031 C 
ATOM     62  C   UNL A   1      45.121  31.287  28.550  1.00  0.00     0.037 A 
BRANCH  49  63
ATOM     63  C   UNL A   1      48.835  26.899  26.275  1.00  0.00     0.064 A 
ATOM     64  C   UNL A   1      49.196  27.048  24.926  1.00  0.00     0.173 A 
ATOM     65  C   UNL A   1      49.809  26.423  27.164  1.00  0.00     0.173 A 
ATOM     66  F   UNL A   1      48.300  27.490  24.031  1.00  0.00    -0.203 F 
ATOM     67  C   UNL A   1      50.470  26.702  24.481  1.00  0.00     0.198 A 
ATOM     68  C   UNL A   1      51.093  26.111  26.722  1.00  0.00     0.198 A 
ATOM     69  F   UNL A   1      49.522  26.267  28.465  1.00  0.00    -0.203 F 
ATOM     70  F   UNL A   1      50.773  26.801  23.180  1.00  0.00    -0.200 F 
ATOM     71  C   UNL A   1      51.420  26.241  25.381  1.00  0.00     0.200 A 
ATOM     72  F   UNL A   1      52.014  25.680  27.595  1.00  0.00    -0.200 F 
ATOM     73  F   UNL A   1      52.647  25.917  24.953  1.00  0.00    -0.200 F 
ENDBRANCH  49  63
BRANCH  50  74
ATOM     74  C   UNL A   1      39.670  28.911  29.703  1.00  0.00     0.064 A 
ATOM     75  C   UNL A   1      38.680  29.453  28.870  1.00  0.00     0.173 A 
ATOM     76  C   UNL A   1      39.338  28.683  31.046  1.00  0.00     0.173 A 
ATOM     77  F   UNL A   1      38.955  29.708  27.582  1.00  0.00    -0.203 F 
ATOM     78  C   UNL A   1      37.420  29.778  29.366  1.00  0.00     0.198 A 
ATOM     79  C   UNL A   1      38.066  28.979  31.533  1.00  0.00     0.198 A 
ATOM     80  F   UNL A   1      40.245  28.161  31.884  1.00  0.00    -0.203 F 
ATOM     81  F   UNL A   1      36.511  30.345  28.561  1.00  0.00    -0.200 F 
ATOM     82  C   UNL A   1      37.112  29.536  30.696  1.00  0.00     0.200 A 
ATOM     83  F   UNL A   1      37.768  28.727  32.815  1.00  0.00    -0.200 F 
ATOM     84  F   UNL A   1      35.899  29.847  31.172  1.00  0.00    -0.200 F 
ENDBRANCH  50  74
BRANCH  62  85
ATOM     85  C   UNL A   1      45.419  32.740  28.791  1.00  0.00     0.064 A 
ATOM     86  C   UNL A   1      45.955  33.193  30.006  1.00  0.00     0.173 A 
ATOM     87  C   UNL A   1      45.188  33.688  27.783  1.00  0.00     0.173 A 
ATOM     88  F   UNL A   1      46.181  32.330  31.009  1.00  0.00    -0.203 F 
ATOM     89  C   UNL A   1      46.214  34.545  30.214  1.00  0.00     0.198 A 
ATOM     90  C   UNL A   1      45.483  35.033  27.981  1.00  0.00     0.198 A 
ATOM     91  F   UNL A   1      44.684  33.308  26.599  1.00  0.00    -0.203 F 
ATOM     92  F   UNL A   1      46.670  34.963  31.403  1.00  0.00    -0.200 F 
ATOM     93  C   UNL A   1      45.986  35.463  29.199  1.00  0.00     0.200 A 
ATOM     94  F   UNL A   1      45.277  35.916  26.994  1.00  0.00    -0.200 F 
ATOM     95  F   UNL A   1      46.240  36.763  29.400  1.00  0.00    -0.200 F 
ENDBRANCH  62  85
ENDBRANCH  36  37
ENDBRANCH  28  31
ENDBRANCH  26  27
ENDBRANCH  25  26
ENDBRANCH  24  25
ENDBRANCH   1  24
TORSDOF 15
ENDMDL
MODEL 2
REMARK VINA RESULT:     -11.9      1.854      8.112
REMARK SMILES C[C@H]1CN(C(=O)C[N@H+]2CCO[C@H](CC(=O)NCCCCNC(=O)c3ccc(-c4c5nc(c(-c6c(F)c(F)c(F)c(F)c6F)c6ccc([nH]6)c(-c6c(F)c(F)c(F)c(F)c6F)c6nc(c(-c7c(F)c(F)c(F)c(F)c7F)c7ccc4[nH]7)C=C6)C=C5)cc3)C2)CCO1
REMARK SMILES IDX 17 1 16 2 14 3 15 4 13 6 12 7 8 8 9 9 87 10 10 12 11 13 7 14
REMARK SMILES IDX 5 15 6 16 4 17 1 18 2 19 3 20 90 21 89 22 88 23 18 24 19 25
REMARK SMILES IDX 20 26 21 27 22 28 23 30 24 31 25 32 86 33 26 34 85 35 27 36
REMARK SMILES IDX 28 37 29 38 79 39 30 40 84 41 78 42 80 43 31 44 83 45 77 46
REMARK SMILES IDX 76 47 32 49 64 50 44 51 63 52 45 53 48 54 62 55 81 56 46 57
REMARK SMILES IDX 47 58 61 60 82 61 49 62 33 63 34 64 42 65 35 66 36 67 40 68
REMARK SMILES IDX 43 69 37 70 38 71 41 72 39 73 65 74 66 75 74 76 67 77 68 78
REMARK SMILES IDX 72 79 75 80 69 81 70 82 73 83 71 84 50 85 51 86 59 87 52 88
REMARK SMILES IDX 53 89 57 90 60 91 54 92 55 93 58 94 56 95
REMARK H PARENT 16 5 8 11 21 29 80 48 48 59
REMARK Flexibility Score: inf
ROOT
ATOM      1  C   UNL A   1      37.832  22.082  25.236  1.00  0.00     0.116 C 
ENDROOT
BRANCH   1   2
ATOM      2  N   UNL A   1      37.145  23.083  24.443  1.00  0.00    -0.356 N 
ATOM      3  C   UNL A   1      36.002  23.768  24.721  1.00  0.00     0.222 C 
ATOM      4  O   UNL A   1      35.548  24.518  23.855  1.00  0.00    -0.275 OA
ATOM      5  H   UNL A   1      37.567  23.299  23.581  1.00  0.00     0.163 HD
BRANCH   3   6
ATOM      6  C   UNL A   1      35.324  23.638  26.067  1.00  0.00     0.138 C 
BRANCH   6   7
ATOM      7  C   UNL A   1      33.978  22.915  25.985  1.00  0.00     0.182 C 
ATOM      8  N   UNL A   1      32.341  21.836  24.350  1.00  0.00    -0.323 N 
ATOM      9  C   UNL A   1      31.428  22.924  24.753  1.00  0.00     0.291 C 
ATOM     10  C   UNL A   1      33.721  22.354  24.558  1.00  0.00     0.295 C 
ATOM     11  H   UNL A   1      32.170  21.588  23.376  1.00  0.00     0.348 HD
ATOM     12  C   UNL A   1      31.648  23.392  26.193  1.00  0.00     0.222 C 
ATOM     13  O   UNL A   1      32.974  23.891  26.342  1.00  0.00    -0.366 OA
BRANCH   8  14
ATOM     14  C   UNL A   1      32.119  20.568  25.092  1.00  0.00     0.363 C 
BRANCH  14  15
ATOM     15  C   UNL A   1      32.567  19.343  24.274  1.00  0.00     0.277 C 
ATOM     16  O   UNL A   1      32.258  19.259  23.079  1.00  0.00    -0.268 OA
BRANCH  15  17
ATOM     17  N   UNL A   1      33.364  18.378  24.879  1.00  0.00    -0.333 N 
ATOM     18  C   UNL A   1      32.161  14.897  25.792  1.00  0.00     0.040 C 
ATOM     19  C   UNL A   1      32.680  16.053  24.952  1.00  0.00     0.134 C 
ATOM     20  C   UNL A   1      32.894  17.334  25.787  1.00  0.00     0.151 C 
ATOM     21  O   UNL A   1      33.937  15.652  24.362  1.00  0.00    -0.375 OA
ATOM     22  C   UNL A   1      34.459  16.684  23.497  1.00  0.00     0.182 C 
ATOM     23  C   UNL A   1      34.634  18.011  24.250  1.00  0.00     0.148 C 
ENDBRANCH  15  17
ENDBRANCH  14  15
ENDBRANCH   8  14
ENDBRANCH   6   7
ENDBRANCH   3   6
ENDBRANCH   1   2
BRANCH   1  24
ATOM     24  C   UNL A   1      37.296  20.680  24.933  1.00  0.00     0.023 C 
BRANCH  24  25
ATOM     25  C   UNL A   1      38.326  19.561  25.121  1.00  0.00     0.023 C 
BRANCH  25  26
ATOM     26  C   UNL A   1      39.545  19.944  25.951  1.00  0.00     0.116 C 
BRANCH  26  27
ATOM     27  N   UNL A   1      40.581  18.925  25.940  1.00  0.00    -0.352 N 
ATOM     28  C   UNL A   1      41.942  19.075  26.065  1.00  0.00     0.251 C 
ATOM     29  H   UNL A   1      40.265  17.999  25.827  1.00  0.00     0.163 HD
ATOM     30  O   UNL A   1      42.687  18.120  25.894  1.00  0.00    -0.269 OA
BRANCH  28  31
ATOM     31  C   UNL A   1      42.504  20.409  26.371  1.00  0.00     0.039 A 
ATOM     32  C   UNL A   1      43.051  21.161  25.329  1.00  0.00     0.014 A 
ATOM     33  C   UNL A   1      42.478  20.922  27.671  1.00  0.00     0.014 A 
ATOM     34  C   UNL A   1      43.513  22.454  25.579  1.00  0.00     0.010 A 
ATOM     35  C   UNL A   1      42.867  22.239  27.903  1.00  0.00     0.010 A 
ATOM     36  C   UNL A   1      43.391  23.018  26.860  1.00  0.00    -0.014 A 
BRANCH  36  37
ATOM     37  C   UNL A   1      43.798  24.422  27.118  1.00  0.00     0.031 A 
ATOM     38  C   UNL A   1      42.794  25.430  27.605  1.00  0.00     0.074 A 
ATOM     39  C   UNL A   1      45.066  24.801  26.868  1.00  0.00     0.049 A 
ATOM     40  N   UNL A   1      42.957  26.704  27.861  1.00  0.00    -0.248 NA
ATOM     41  C   UNL A   1      41.418  24.950  27.808  1.00  0.00     0.031 C 
ATOM     42  C   UNL A   1      46.120  23.931  26.343  1.00  0.00     0.029 A 
ATOM     43  N   UNL A   1      45.686  26.017  27.016  1.00  0.00    -0.354 N 
ATOM     44  C   UNL A   1      41.709  27.175  28.247  1.00  0.00     0.074 A 
ATOM     45  C   UNL A   1      40.786  26.068  28.132  1.00  0.00     0.031 C 
ATOM     46  C   UNL A   1      47.261  24.630  26.245  1.00  0.00     0.029 A 
ATOM     47  C   UNL A   1      47.012  26.008  26.660  1.00  0.00     0.049 A 
ATOM     48  H   UNL A   1      45.222  26.821  27.347  1.00  0.00     0.167 HD
ATOM     49  C   UNL A   1      41.370  28.411  28.687  1.00  0.00     0.037 A 
ATOM     50  C   UNL A   1      47.924  26.999  26.665  1.00  0.00     0.037 A 
ATOM     51  C   UNL A   1      42.295  29.508  28.811  1.00  0.00     0.049 A 
ATOM     52  C   UNL A   1      47.515  28.367  27.139  1.00  0.00     0.074 A 
ATOM     53  C   UNL A   1      42.062  30.784  29.292  1.00  0.00     0.029 A 
ATOM     54  N   UNL A   1      43.633  29.459  28.444  1.00  0.00    -0.354 N 
ATOM     55  N   UNL A   1      46.351  28.781  27.575  1.00  0.00    -0.248 NA
ATOM     56  C   UNL A   1      48.555  29.406  27.130  1.00  0.00     0.031 C 
ATOM     57  C   UNL A   1      43.241  31.524  29.165  1.00  0.00     0.029 A 
ATOM     58  C   UNL A   1      44.229  30.691  28.664  1.00  0.00     0.049 A 
ATOM     59  H   UNL A   1      44.090  28.667  28.081  1.00  0.00     0.167 HD
ATOM     60  C   UNL A   1      46.523  30.115  27.919  1.00  0.00     0.074 A 
ATOM     61  C   UNL A   1      47.911  30.436  27.661  1.00  0.00     0.031 C 
ATOM     62  C   UNL A   1      45.614  30.996  28.406  1.00  0.00     0.037 A 
BRANCH  49  63
ATOM     63  C   UNL A   1      39.935  28.644  29.066  1.00  0.00     0.064 A 
ATOM     64  C   UNL A   1      39.471  28.406  30.370  1.00  0.00     0.173 A 
ATOM     65  C   UNL A   1      39.021  29.146  28.128  1.00  0.00     0.173 A 
ATOM     66  F   UNL A   1      40.300  27.916  31.303  1.00  0.00    -0.203 F 
ATOM     67  C   UNL A   1      38.139  28.632  30.710  1.00  0.00     0.198 A 
ATOM     68  C   UNL A   1      37.698  29.403  28.482  1.00  0.00     0.198 A 
ATOM     69  F   UNL A   1      39.410  29.398  26.870  1.00  0.00    -0.203 F 
ATOM     70  F   UNL A   1      37.708  28.344  31.946  1.00  0.00    -0.200 F 
ATOM     71  C   UNL A   1      37.256  29.137  29.769  1.00  0.00     0.200 A 
ATOM     72  F   UNL A   1      36.850  29.906  27.574  1.00  0.00    -0.200 F 
ATOM     73  F   UNL A   1      35.978  29.361  30.099  1.00  0.00    -0.200 F 
ENDBRANCH  49  63
BRANCH  50  74
ATOM     74  C   UNL A   1      49.320  26.728  26.233  1.00  0.00     0.064 A 
ATOM     75  C   UNL A   1      49.720  26.951  24.907  1.00  0.00     0.173 A 
ATOM     76  C   UNL A   1      50.280  26.232  27.127  1.00  0.00     0.173 A 
ATOM     77  F   UNL A   1      48.834  27.406  24.008  1.00  0.00    -0.203 F 
ATOM     78  C   UNL A   1      51.017  26.663  24.487  1.00  0.00     0.198 A 
ATOM     79  C   UNL A   1      51.586  25.975  26.713  1.00  0.00     0.198 A 
ATOM     80  F   UNL A   1      49.952  26.007  28.408  1.00  0.00    -0.203 F 
ATOM     81  F   UNL A   1      51.356  26.834  23.202  1.00  0.00    -0.200 F 
ATOM     82  C   UNL A   1      51.950  26.180  25.392  1.00  0.00     0.200 A 
ATOM     83  F   UNL A   1      52.489  25.525  27.595  1.00  0.00    -0.200 F 
ATOM     84  F   UNL A   1      53.198  25.906  24.988  1.00  0.00    -0.200 F 
ENDBRANCH  50  74
BRANCH  62  85
ATOM     85  C   UNL A   1      46.101  32.381  28.727  1.00  0.00     0.064 A 
ATOM     86  C   UNL A   1      46.569  32.723  30.005  1.00  0.00     0.173 A 
ATOM     87  C   UNL A   1      46.124  33.373  27.735  1.00  0.00     0.173 A 
ATOM     88  F   UNL A   1      46.555  31.816  30.995  1.00  0.00    -0.203 F 
ATOM     89  C   UNL A   1      47.006  34.015  30.286  1.00  0.00     0.198 A 
ATOM     90  C   UNL A   1      46.596  34.652  28.009  1.00  0.00     0.198 A 
ATOM     91  F   UNL A   1      45.696  33.098  26.493  1.00  0.00    -0.203 F 
ATOM     92  F   UNL A   1      47.392  34.335  31.529  1.00  0.00    -0.200 F 
ATOM     93  C   UNL A   1      47.027  34.977  29.286  1.00  0.00     0.200 A 
ATOM     94  F   UNL A   1      46.631  35.575  27.037  1.00  0.00    -0.200 F 
ATOM     95  F   UNL A   1      47.453  36.217  29.557  1.00  0.00    -0.200 F 
ENDBRANCH  62  85
ENDBRANCH  36  37
ENDBRANCH  28  31
ENDBRANCH  26  27
ENDBRANCH  25  26
ENDBRANCH  24  25
ENDBRANCH   1  24
TORSDOF 15
ENDMDL
MODEL 3
REMARK VINA RESULT:     -11.9      6.054     11.556
REMARK SMILES C[C@H]1CN(C(=O)C[N@H+]2CCO[C@H](CC(=O)NCCCCNC(=O)c3ccc(-c4c5nc(c(-c6c(F)c(F)c(F)c(F)c6F)c6ccc([nH]6)c(-c6c(F)c(F)c(F)c(F)c6F)c6nc(c(-c7c(F)c(F)c(F)c(F)c7F)c7ccc4[nH]7)C=C6)C=C5)cc3)C2)CCO1
REMARK SMILES IDX 17 1 16 2 14 3 15 4 13 6 12 7 8 8 9 9 87 10 10 12 11 13 7 14
REMARK SMILES IDX 5 15 6 16 4 17 1 18 2 19 3 20 90 21 89 22 88 23 18 24 19 25
REMARK SMILES IDX 20 26 21 27 22 28 23 30 24 31 25 32 86 33 26 34 85 35 27 36
REMARK SMILES IDX 28 37 29 38 79 39 30 40 84 41 78 42 80 43 31 44 83 45 77 46
REMARK SMILES IDX 76 47 32 49 64 50 44 51 63 52 45 53 48 54 62 55 81 56 46 57
REMARK SMILES IDX 47 58 61 60 82 61 49 62 33 63 34 64 42 65 35 66 36 67 40 68
REMARK SMILES IDX 43 69 37 70 38 71 41 72 39 73 65 74 66 75 74 76 67 77 68 78
REMARK SMILES IDX 72 79 75 80 69 81 70 82 73 83 71 84 50 85 51 86 59 87 52 88
REMARK SMILES IDX 53 89 57 90 60 91 54 92 55 93 58 94 56 95
REMARK H PARENT 16 5 8 11 21 29 80 48 48 59
REMARK Flexibility Score: inf
ROOT
ATOM      1  C   UNL A   1      33.948  32.157  27.847  1.00  0.00     0.116 C 
ENDROOT
BRANCH   1   2
ATOM      2  N   UNL A   1      35.148  31.381  27.597  1.00  0.00    -0.356 N 
ATOM      3  C   UNL A   1      35.310  30.029  27.565  1.00  0.00     0.222 C 
ATOM      4  O   UNL A   1      36.449  29.584  27.416  1.00  0.00    -0.275 OA
ATOM      5  H   UNL A   1      35.960  31.908  27.423  1.00  0.00     0.163 HD
BRANCH   3   6
ATOM      6  C   UNL A   1      34.121  29.100  27.676  1.00  0.00     0.138 C 
BRANCH   6   7
ATOM      7  C   UNL A   1      33.570  28.678  26.312  1.00  0.00     0.182 C 
ATOM      8  N   UNL A   1      31.407  28.131  25.070  1.00  0.00    -0.323 N 
ATOM      9  C   UNL A   1      31.969  26.771  24.964  1.00  0.00     0.291 C 
ATOM     10  C   UNL A   1      32.016  28.737  26.286  1.00  0.00     0.295 C 
ATOM     11  H   UNL A   1      30.392  28.079  25.140  1.00  0.00     0.348 HD
ATOM     12  C   UNL A   1      33.498  26.754  24.903  1.00  0.00     0.222 C 
ATOM     13  O   UNL A   1      34.036  27.329  26.089  1.00  0.00    -0.366 OA
BRANCH   8  14
ATOM     14  C   UNL A   1      31.647  28.970  23.868  1.00  0.00     0.363 C 
BRANCH  14  15
ATOM     15  C   UNL A   1      30.443  28.949  22.908  1.00  0.00     0.277 C 
ATOM     16  O   UNL A   1      30.491  28.260  21.882  1.00  0.00    -0.268 OA
BRANCH  15  17
ATOM     17  N   UNL A   1      29.296  29.659  23.243  1.00  0.00    -0.333 N 
ATOM     18  C   UNL A   1      29.007  33.438  23.062  1.00  0.00     0.040 C 
ATOM     19  C   UNL A   1      29.033  31.985  22.613  1.00  0.00     0.134 C 
ATOM     20  C   UNL A   1      29.264  31.014  23.790  1.00  0.00     0.151 C 
ATOM     21  O   UNL A   1      27.764  31.685  21.988  1.00  0.00    -0.375 OA
ATOM     22  C   UNL A   1      27.741  30.333  21.480  1.00  0.00     0.182 C 
ATOM     23  C   UNL A   1      28.032  29.313  22.591  1.00  0.00     0.148 C 
ENDBRANCH  15  17
ENDBRANCH  14  15
ENDBRANCH   8  14
ENDBRANCH   6   7
ENDBRANCH   3   6
ENDBRANCH   1   2
BRANCH   1  24
ATOM     24  C   UNL A   1      34.258  33.381  28.712  1.00  0.00     0.023 C 
BRANCH  24  25
ATOM     25  C   UNL A   1      33.165  34.455  28.694  1.00  0.00     0.023 C 
BRANCH  25  26
ATOM     26  C   UNL A   1      33.508  35.733  29.449  1.00  0.00     0.116 C 
BRANCH  26  27
ATOM     27  N   UNL A   1      32.586  36.014  30.537  1.00  0.00    -0.352 N 
ATOM     28  C   UNL A   1      32.675  35.652  31.860  1.00  0.00     0.251 C 
ATOM     29  H   UNL A   1      31.786  36.534  30.293  1.00  0.00     0.163 HD
ATOM     30  O   UNL A   1      31.738  35.852  32.620  1.00  0.00    -0.269 OA
BRANCH  28  31
ATOM     31  C   UNL A   1      33.901  34.986  32.353  1.00  0.00     0.039 A 
ATOM     32  C   UNL A   1      33.800  33.688  32.860  1.00  0.00     0.014 A 
ATOM     33  C   UNL A   1      35.142  35.626  32.303  1.00  0.00     0.014 A 
ATOM     34  C   UNL A   1      34.954  33.009  33.256  1.00  0.00     0.010 A 
ATOM     35  C   UNL A   1      36.299  34.921  32.624  1.00  0.00     0.010 A 
ATOM     36  C   UNL A   1      36.217  33.606  33.106  1.00  0.00    -0.014 A 
BRANCH  36  37
ATOM     37  C   UNL A   1      37.457  32.861  33.440  1.00  0.00     0.031 A 
ATOM     38  C   UNL A   1      38.204  33.156  34.711  1.00  0.00     0.074 A 
ATOM     39  C   UNL A   1      37.937  31.949  32.573  1.00  0.00     0.049 A 
ATOM     40  N   UNL A   1      39.315  32.628  35.160  1.00  0.00    -0.248 NA
ATOM     41  C   UNL A   1      37.642  34.199  35.583  1.00  0.00     0.031 C 
ATOM     42  C   UNL A   1      37.333  31.611  31.282  1.00  0.00     0.029 A 
ATOM     43  N   UNL A   1      39.045  31.141  32.641  1.00  0.00    -0.354 N 
ATOM     44  C   UNL A   1      39.586  33.277  36.358  1.00  0.00     0.074 A 
ATOM     45  C   UNL A   1      38.560  34.280  36.535  1.00  0.00     0.031 C 
ATOM     46  C   UNL A   1      38.058  30.645  30.697  1.00  0.00     0.029 A 
ATOM     47  C   UNL A   1      39.199  30.323  31.549  1.00  0.00     0.049 A 
ATOM     48  H   UNL A   1      39.671  31.148  33.402  1.00  0.00     0.167 HD
ATOM     49  C   UNL A   1      40.583  33.038  37.243  1.00  0.00     0.037 A 
ATOM     50  C   UNL A   1      40.154  29.417  31.266  1.00  0.00     0.037 A 
ATOM     51  C   UNL A   1      41.596  32.030  37.068  1.00  0.00     0.049 A 
ATOM     52  C   UNL A   1      41.261  29.185  32.258  1.00  0.00     0.074 A 
ATOM     53  C   UNL A   1      42.620  31.676  37.930  1.00  0.00     0.029 A 
ATOM     54  N   UNL A   1      41.718  31.217  35.950  1.00  0.00    -0.354 N 
ATOM     55  N   UNL A   1      41.464  29.751  33.422  1.00  0.00    -0.248 NA
ATOM     56  C   UNL A   1      42.270  28.179  31.897  1.00  0.00     0.031 C 
ATOM     57  C   UNL A   1      43.393  30.690  37.311  1.00  0.00     0.029 A 
ATOM     58  C   UNL A   1      42.816  30.381  36.089  1.00  0.00     0.049 A 
ATOM     59  H   UNL A   1      41.114  31.232  35.173  1.00  0.00     0.167 HD
ATOM     60  C   UNL A   1      42.601  29.152  33.946  1.00  0.00     0.074 A 
ATOM     61  C   UNL A   1      43.033  28.163  32.981  1.00  0.00     0.031 C 
ATOM     62  C   UNL A   1      43.232  29.398  35.122  1.00  0.00     0.037 A 
BRANCH  49  63
ATOM     63  C   UNL A   1      40.627  33.884  38.485  1.00  0.00     0.064 A 
ATOM     64  C   UNL A   1      39.902  33.539  39.636  1.00  0.00     0.173 A 
ATOM     65  C   UNL A   1      41.432  35.031  38.539  1.00  0.00     0.173 A 
ATOM     66  F   UNL A   1      39.108  32.457  39.635  1.00  0.00    -0.203 F 
ATOM     67  C   UNL A   1      39.955  34.328  40.783  1.00  0.00     0.198 A 
ATOM     68  C   UNL A   1      41.510  35.799  39.698  1.00  0.00     0.198 A 
ATOM     69  F   UNL A   1      42.152  35.405  37.471  1.00  0.00    -0.203 F 
ATOM     70  F   UNL A   1      39.211  34.008  41.849  1.00  0.00    -0.200 F 
ATOM     71  C   UNL A   1      40.766  35.453  40.815  1.00  0.00     0.200 A 
ATOM     72  F   UNL A   1      42.306  36.877  39.733  1.00  0.00    -0.200 F 
ATOM     73  F   UNL A   1      40.823  36.206  41.921  1.00  0.00    -0.200 F 
ENDBRANCH  49  63
BRANCH  50  74
ATOM     74  C   UNL A   1      40.092  28.640  29.999  1.00  0.00     0.064 A 
ATOM     75  C   UNL A   1      39.452  27.394  29.948  1.00  0.00     0.173 A 
ATOM     76  C   UNL A   1      40.680  29.118  28.819  1.00  0.00     0.173 A 
ATOM     77  F   UNL A   1      38.891  26.884  31.055  1.00  0.00    -0.203 F 
ATOM     78  C   UNL A   1      39.424  26.644  28.774  1.00  0.00     0.198 A 
ATOM     79  C   UNL A   1      40.623  28.383  27.637  1.00  0.00     0.198 A 
ATOM     80  F   UNL A   1      41.300  30.308  28.810  1.00  0.00    -0.203 F 
ATOM     81  F   UNL A   1      38.852  25.433  28.769  1.00  0.00    -0.200 F 
ATOM     82  C   UNL A   1      40.006  27.142  27.618  1.00  0.00     0.200 A 
ATOM     83  F   UNL A   1      41.172  28.875  26.517  1.00  0.00    -0.200 F 
ATOM     84  F   UNL A   1      39.977  26.422  26.488  1.00  0.00    -0.200 F 
ENDBRANCH  50  74
BRANCH  62  85
ATOM     85  C   UNL A   1      44.434  28.557  35.446  1.00  0.00     0.064 A 
ATOM     86  C   UNL A   1      45.733  28.951  35.089  1.00  0.00     0.173 A 
ATOM     87  C   UNL A   1      44.287  27.349  36.147  1.00  0.00     0.173 A 
ATOM     88  F   UNL A   1      45.928  30.090  34.404  1.00  0.00    -0.203 F 
ATOM     89  C   UNL A   1      46.832  28.152  35.389  1.00  0.00     0.198 A 
ATOM     90  C   UNL A   1      45.392  26.572  36.478  1.00  0.00     0.198 A 
ATOM     91  F   UNL A   1      43.069  26.928  36.521  1.00  0.00    -0.203 F 
ATOM     92  F   UNL A   1      48.056  28.520  34.984  1.00  0.00    -0.200 F 
ATOM     93  C   UNL A   1      46.663  26.967  36.090  1.00  0.00     0.200 A 
ATOM     94  F   UNL A   1      45.227  25.436  37.170  1.00  0.00    -0.200 F 
ATOM     95  F   UNL A   1      47.723  26.202  36.382  1.00  0.00    -0.200 F 
ENDBRANCH  62  85
ENDBRANCH  36  37
ENDBRANCH  28  31
ENDBRANCH  26  27
ENDBRANCH  25  26
ENDBRANCH  24  25
ENDBRANCH   1  24
TORSDOF 15
ENDMDL
