MODEL 1
REMARK VINA RESULT:     -12.9      0.000      0.000
REMARK SMILES N#C[C@H]1CN(c2cc(C(=O)NCCCCNC(=O)c3ccc(-c4c5nc(c(-c6c(F)c(F)c(F)c(F)c6F)c6ccc([nH]6)c(-c6c(F)c(F)c(F)c(F)c6F)c6nc(c(-c7c(F)c(F)c(F)c(F)c7F)c7ccc4[nH]7)C=C6)C=C5)cc3)c(N)cc2F)CCO1
REMARK SMILES IDX 13 1 12 2 11 3 9 4 10 5 8 7 6 8 7 9 85 10 84 11 86 12 82 13
REMARK SMILES IDX 5 14 3 15 4 16 89 17 88 18 87 19 2 20 1 21 83 22 14 25 15 26
REMARK SMILES IDX 16 27 17 28 18 30 19 31 20 32 81 33 21 34 80 35 22 36 23 37
REMARK SMILES IDX 24 38 74 39 25 40 79 41 73 42 75 43 26 44 78 45 72 46 71 47
REMARK SMILES IDX 27 49 59 50 39 51 58 52 40 53 43 54 57 55 76 56 41 57 42 58
REMARK SMILES IDX 56 60 77 61 44 62 28 63 29 64 37 65 30 66 31 67 35 68 38 69
REMARK SMILES IDX 32 70 33 71 36 72 34 73 60 74 61 75 69 76 62 77 63 78 67 79
REMARK SMILES IDX 70 80 64 81 65 82 68 83 66 84 45 85 46 86 54 87 47 88 48 89
REMARK SMILES IDX 52 90 55 91 49 92 50 93 53 94 51 95
REMARK H PARENT 11 6 83 23 83 24 16 29 75 48 43 59
REMARK Flexibility Score: inf
ROOT
ATOM      1  C   UNL A   1      31.532  30.854  25.934  1.00  0.00     0.023 C 
ENDROOT
BRANCH   1   2
ATOM      2  C   UNL A   1      32.780  30.008  26.146  1.00  0.00     0.116 C 
BRANCH   2   3
ATOM      3  N   UNL A   1      33.562  29.713  24.961  1.00  0.00    -0.352 N 
ATOM      4  C   UNL A   1      33.186  29.061  23.803  1.00  0.00     0.253 C 
ATOM      5  O   UNL A   1      34.018  28.983  22.898  1.00  0.00    -0.269 OA
ATOM      6  H   UNL A   1      34.495  30.024  24.985  1.00  0.00     0.163 HD
BRANCH   4   7
ATOM      7  C   UNL A   1      31.858  28.383  23.632  1.00  0.00     0.065 A 
ATOM      8  C   UNL A   1      30.526  26.405  24.237  1.00  0.00     0.074 A 
ATOM      9  C   UNL A   1      31.711  27.148  24.311  1.00  0.00     0.045 A 
ATOM     10  C   UNL A   1      29.434  27.019  23.614  1.00  0.00     0.148 A 
ATOM     11  C   UNL A   1      29.559  28.216  22.924  1.00  0.00     0.067 A 
ATOM     12  F   UNL A   1      28.234  26.418  23.616  1.00  0.00    -0.205 F 
ATOM     13  C   UNL A   1      30.805  28.837  22.813  1.00  0.00     0.047 A 
BRANCH   8  14
ATOM     14  N   UNL A   1      30.473  25.095  24.662  1.00  0.00    -0.363 N 
ATOM     15  C   UNL A   1      31.950  23.143  24.369  1.00  0.00     0.240 C 
ATOM     16  C   UNL A   1      30.749  23.942  23.798  1.00  0.00     0.164 C 
ATOM     17  O   UNL A   1      31.745  22.807  25.766  1.00  0.00    -0.360 OA
ATOM     18  C   UNL A   1      31.583  23.996  26.558  1.00  0.00     0.183 C 
ATOM     19  C   UNL A   1      30.363  24.801  26.098  1.00  0.00     0.145 C 
BRANCH  15  20
ATOM     20  C   UNL A   1      32.144  21.908  23.586  1.00  0.00     0.096 C 
ATOM     21  N   UNL A   1      32.279  20.931  22.979  1.00  0.00    -0.195 NA
ENDBRANCH  15  20
ENDBRANCH   8  14
BRANCH  13  22
ATOM     22  N   UNL A   1      30.920  29.854  21.872  1.00  0.00    -0.398 N 
ATOM     23  H   UNL A   1      30.198  30.006  21.221  1.00  0.00     0.156 HD
ATOM     24  H   UNL A   1      31.725  30.423  21.858  1.00  0.00     0.156 HD
ENDBRANCH  13  22
ENDBRANCH   4   7
ENDBRANCH   2   3
ENDBRANCH   1   2
BRANCH   1  25
ATOM     25  C   UNL A   1      31.365  32.057  26.855  1.00  0.00     0.023 C 
BRANCH  25  26
ATOM     26  C   UNL A   1      32.637  32.829  27.187  1.00  0.00     0.116 C 
BRANCH  26  27
ATOM     27  N   UNL A   1      32.398  34.205  27.606  1.00  0.00    -0.352 N 
ATOM     28  C   UNL A   1      33.020  34.949  28.585  1.00  0.00     0.251 C 
ATOM     29  H   UNL A   1      31.686  34.674  27.115  1.00  0.00     0.163 HD
ATOM     30  O   UNL A   1      32.606  36.067  28.874  1.00  0.00    -0.269 OA
BRANCH  28  31
ATOM     31  C   UNL A   1      34.170  34.377  29.316  1.00  0.00     0.039 A 
ATOM     32  C   UNL A   1      33.941  33.622  30.469  1.00  0.00     0.014 A 
ATOM     33  C   UNL A   1      35.469  34.546  28.836  1.00  0.00     0.014 A 
ATOM     34  C   UNL A   1      35.006  32.954  31.080  1.00  0.00     0.010 A 
ATOM     35  C   UNL A   1      36.506  33.797  29.380  1.00  0.00     0.010 A 
ATOM     36  C   UNL A   1      36.288  32.992  30.510  1.00  0.00    -0.014 A 
BRANCH  36  37
ATOM     37  C   UNL A   1      37.426  32.223  31.079  1.00  0.00     0.031 A 
ATOM     38  C   UNL A   1      37.960  32.582  32.441  1.00  0.00     0.074 A 
ATOM     39  C   UNL A   1      38.022  31.254  30.355  1.00  0.00     0.049 A 
ATOM     40  N   UNL A   1      39.013  32.121  33.067  1.00  0.00    -0.248 NA
ATOM     41  C   UNL A   1      37.230  33.623  33.186  1.00  0.00     0.031 C 
ATOM     42  C   UNL A   1      37.625  30.833  29.010  1.00  0.00     0.029 A 
ATOM     43  N   UNL A   1      39.105  30.457  30.641  1.00  0.00    -0.354 N 
ATOM     44  C   UNL A   1      39.071  32.817  34.268  1.00  0.00     0.074 A 
ATOM     45  C   UNL A   1      37.995  33.782  34.254  1.00  0.00     0.031 C 
ATOM     46  C   UNL A   1      38.435  29.843  28.599  1.00  0.00     0.029 A 
ATOM     47  C   UNL A   1      39.443  29.594  29.625  1.00  0.00     0.049 A 
ATOM     48  H   UNL A   1      39.593  30.500  31.495  1.00  0.00     0.167 HD
ATOM     49  C   UNL A   1      39.925  32.646  35.304  1.00  0.00     0.037 A 
ATOM     50  C   UNL A   1      40.462  28.718  29.526  1.00  0.00     0.037 A 
ATOM     51  C   UNL A   1      40.986  31.674  35.324  1.00  0.00     0.049 A 
ATOM     52  C   UNL A   1      41.430  28.587  30.677  1.00  0.00     0.074 A 
ATOM     53  C   UNL A   1      41.886  31.404  36.340  1.00  0.00     0.029 A 
ATOM     54  N   UNL A   1      41.287  30.812  34.280  1.00  0.00    -0.354 N 
ATOM     55  N   UNL A   1      41.439  29.214  31.829  1.00  0.00    -0.248 NA
ATOM     56  C   UNL A   1      42.526  27.621  30.516  1.00  0.00     0.031 C 
ATOM     57  C   UNL A   1      42.769  30.419  35.888  1.00  0.00     0.029 A 
ATOM     58  C   UNL A   1      42.371  30.022  34.623  1.00  0.00     0.049 A 
ATOM     59  H   UNL A   1      40.801  30.769  33.425  1.00  0.00     0.167 HD
ATOM     60  C   UNL A   1      42.505  28.681  32.544  1.00  0.00     0.074 A 
ATOM     61  C   UNL A   1      43.114  27.675  31.702  1.00  0.00     0.031 C 
ATOM     62  C   UNL A   1      42.942  28.998  33.788  1.00  0.00     0.037 A 
BRANCH  49  63
ATOM     63  C   UNL A   1      39.742  33.515  36.515  1.00  0.00     0.064 A 
ATOM     64  C   UNL A   1      40.403  34.746  36.640  1.00  0.00     0.173 A 
ATOM     65  C   UNL A   1      38.847  33.146  37.529  1.00  0.00     0.173 A 
ATOM     66  F   UNL A   1      41.281  35.141  35.705  1.00  0.00    -0.203 F 
ATOM     67  C   UNL A   1      40.187  35.567  37.744  1.00  0.00     0.198 A 
ATOM     68  C   UNL A   1      38.607  33.985  38.614  1.00  0.00     0.198 A 
ATOM     69  F   UNL A   1      38.184  31.981  37.457  1.00  0.00    -0.203 F 
ATOM     70  F   UNL A   1      40.863  36.719  37.862  1.00  0.00    -0.200 F 
ATOM     71  C   UNL A   1      39.282  35.191  38.723  1.00  0.00     0.200 A 
ATOM     72  F   UNL A   1      37.717  33.628  39.550  1.00  0.00    -0.200 F 
ATOM     73  F   UNL A   1      39.060  35.992  39.775  1.00  0.00    -0.200 F 
ENDBRANCH  49  63
BRANCH  50  74
ATOM     74  C   UNL A   1      40.641  27.892  28.299  1.00  0.00     0.064 A 
ATOM     75  C   UNL A   1      40.109  26.595  28.217  1.00  0.00     0.173 A 
ATOM     76  C   UNL A   1      41.400  28.348  27.213  1.00  0.00     0.173 A 
ATOM     77  F   UNL A   1      39.389  26.101  29.235  1.00  0.00    -0.203 F 
ATOM     78  C   UNL A   1      40.375  25.772  27.123  1.00  0.00     0.198 A 
ATOM     79  C   UNL A   1      41.631  27.540  26.100  1.00  0.00     0.198 A 
ATOM     80  F   UNL A   1      41.927  29.581  27.231  1.00  0.00    -0.203 F 
ATOM     81  F   UNL A   1      39.925  24.511  27.113  1.00  0.00    -0.200 F 
ATOM     82  C   UNL A   1      41.134  26.246  26.065  1.00  0.00     0.200 A 
ATOM     83  F   UNL A   1      42.350  28.009  25.072  1.00  0.00    -0.200 F 
ATOM     84  F   UNL A   1      41.401  25.452  25.020  1.00  0.00    -0.200 F 
ENDBRANCH  50  74
BRANCH  62  85
ATOM     85  C   UNL A   1      44.079  28.196  34.355  1.00  0.00     0.064 A 
ATOM     86  C   UNL A   1      45.413  28.620  34.259  1.00  0.00     0.173 A 
ATOM     87  C   UNL A   1      43.818  27.007  35.056  1.00  0.00     0.173 A 
ATOM     88  F   UNL A   1      45.718  29.741  33.590  1.00  0.00    -0.203 F 
ATOM     89  C   UNL A   1      46.444  27.869  34.819  1.00  0.00     0.198 A 
ATOM     90  C   UNL A   1      44.847  26.281  35.648  1.00  0.00     0.198 A 
ATOM     91  F   UNL A   1      42.559  26.560  35.186  1.00  0.00    -0.203 F 
ATOM     92  F   UNL A   1      47.715  28.266  34.670  1.00  0.00    -0.200 F 
ATOM     93  C   UNL A   1      46.159  26.708  35.522  1.00  0.00     0.200 A 
ATOM     94  F   UNL A   1      44.567  25.172  36.345  1.00  0.00    -0.200 F 
ATOM     95  F   UNL A   1      47.153  25.996  36.073  1.00  0.00    -0.200 F 
ENDBRANCH  62  85
ENDBRANCH  36  37
ENDBRANCH  28  31
ENDBRANCH  26  27
ENDBRANCH  25  26
ENDBRANCH   1  25
TORSDOF 14
ENDMDL
MODEL 2
REMARK VINA RESULT:     -12.9      0.519      7.331
REMARK SMILES N#C[C@H]1CN(c2cc(C(=O)NCCCCNC(=O)c3ccc(-c4c5nc(c(-c6c(F)c(F)c(F)c(F)c6F)c6ccc([nH]6)c(-c6c(F)c(F)c(F)c(F)c6F)c6nc(c(-c7c(F)c(F)c(F)c(F)c7F)c7ccc4[nH]7)C=C6)C=C5)cc3)c(N)cc2F)CCO1
REMARK SMILES IDX 13 1 12 2 11 3 9 4 10 5 8 7 6 8 7 9 85 10 84 11 86 12 82 13
REMARK SMILES IDX 5 14 3 15 4 16 89 17 88 18 87 19 2 20 1 21 83 22 14 25 15 26
REMARK SMILES IDX 16 27 17 28 18 30 19 31 20 32 81 33 21 34 80 35 22 36 23 37
REMARK SMILES IDX 24 38 74 39 25 40 79 41 73 42 75 43 26 44 78 45 72 46 71 47
REMARK SMILES IDX 27 49 59 50 39 51 58 52 40 53 43 54 57 55 76 56 41 57 42 58
REMARK SMILES IDX 56 60 77 61 44 62 28 63 29 64 37 65 30 66 31 67 35 68 38 69
REMARK SMILES IDX 32 70 33 71 36 72 34 73 60 74 61 75 69 76 62 77 63 78 67 79
REMARK SMILES IDX 70 80 64 81 65 82 68 83 66 84 45 85 46 86 54 87 47 88 48 89
REMARK SMILES IDX 52 90 55 91 49 92 50 93 53 94 51 95
REMARK H PARENT 11 6 83 23 83 24 16 29 75 48 43 59
REMARK Flexibility Score: inf
ROOT
ATOM      1  C   UNL A   1      31.711  30.709  25.963  1.00  0.00     0.023 C 
ENDROOT
BRANCH   1   2
ATOM      2  C   UNL A   1      32.978  29.878  26.102  1.00  0.00     0.116 C 
BRANCH   2   3
ATOM      3  N   UNL A   1      33.705  29.609  24.877  1.00  0.00    -0.352 N 
ATOM      4  C   UNL A   1      33.268  29.011  23.712  1.00  0.00     0.253 C 
ATOM      5  O   UNL A   1      34.062  28.947  22.772  1.00  0.00    -0.269 OA
ATOM      6  H   UNL A   1      34.647  29.895  24.875  1.00  0.00     0.163 HD
BRANCH   4   7
ATOM      7  C   UNL A   1      31.917  28.373  23.568  1.00  0.00     0.065 A 
ATOM      8  C   UNL A   1      30.556  26.410  24.159  1.00  0.00     0.074 A 
ATOM      9  C   UNL A   1      31.762  27.120  24.212  1.00  0.00     0.045 A 
ATOM     10  C   UNL A   1      29.458  27.072  23.598  1.00  0.00     0.148 A 
ATOM     11  C   UNL A   1      29.590  28.288  22.943  1.00  0.00     0.067 A 
ATOM     12  F   UNL A   1      28.244  26.502  23.626  1.00  0.00    -0.205 F 
ATOM     13  C   UNL A   1      30.847  28.881  22.806  1.00  0.00     0.047 A 
BRANCH   8  14
ATOM     14  N   UNL A   1      30.484  25.088  24.542  1.00  0.00    -0.363 N 
ATOM     15  C   UNL A   1      31.896  23.110  24.128  1.00  0.00     0.240 C 
ATOM     16  C   UNL A   1      30.696  23.959  23.631  1.00  0.00     0.164 C 
ATOM     17  O   UNL A   1      31.736  22.733  25.520  1.00  0.00    -0.360 OA
ATOM     18  C   UNL A   1      31.636  23.898  26.356  1.00  0.00     0.183 C 
ATOM     19  C   UNL A   1      30.421  24.749  25.972  1.00  0.00     0.145 C 
BRANCH  15  20
ATOM     20  C   UNL A   1      32.026  21.898  23.298  1.00  0.00     0.096 C 
ATOM     21  N   UNL A   1      32.132  20.958  22.628  1.00  0.00    -0.195 NA
ENDBRANCH  15  20
ENDBRANCH   8  14
BRANCH  13  22
ATOM     22  N   UNL A   1      30.954  29.926  21.895  1.00  0.00    -0.398 N 
ATOM     23  H   UNL A   1      30.826  30.855  22.194  1.00  0.00     0.156 HD
ATOM     24  H   UNL A   1      31.158  29.736  20.950  1.00  0.00     0.156 HD
ENDBRANCH  13  22
ENDBRANCH   4   7
ENDBRANCH   2   3
ENDBRANCH   1   2
BRANCH   1  25
ATOM     25  C   UNL A   1      31.507  31.810  26.998  1.00  0.00     0.023 C 
BRANCH  25  26
ATOM     26  C   UNL A   1      32.723  32.676  27.307  1.00  0.00     0.116 C 
BRANCH  26  27
ATOM     27  N   UNL A   1      32.398  34.068  27.594  1.00  0.00    -0.352 N 
ATOM     28  C   UNL A   1      32.969  34.938  28.496  1.00  0.00     0.251 C 
ATOM     29  H   UNL A   1      31.659  34.443  27.062  1.00  0.00     0.163 HD
ATOM     30  O   UNL A   1      32.485  36.050  28.680  1.00  0.00    -0.269 OA
BRANCH  28  31
ATOM     31  C   UNL A   1      34.150  34.511  29.275  1.00  0.00     0.039 A 
ATOM     32  C   UNL A   1      33.969  33.953  30.543  1.00  0.00     0.014 A 
ATOM     33  C   UNL A   1      35.432  34.617  28.733  1.00  0.00     0.014 A 
ATOM     34  C   UNL A   1      35.063  33.410  31.222  1.00  0.00     0.010 A 
ATOM     35  C   UNL A   1      36.497  33.982  29.359  1.00  0.00     0.010 A 
ATOM     36  C   UNL A   1      36.328  33.372  30.612  1.00  0.00    -0.014 A 
BRANCH  36  37
ATOM     37  C   UNL A   1      37.496  32.722  31.265  1.00  0.00     0.031 A 
ATOM     38  C   UNL A   1      38.186  31.571  30.581  1.00  0.00     0.074 A 
ATOM     39  C   UNL A   1      37.892  33.113  32.493  1.00  0.00     0.049 A 
ATOM     40  N   UNL A   1      39.139  30.793  31.026  1.00  0.00    -0.248 NA
ATOM     41  C   UNL A   1      37.720  31.230  29.226  1.00  0.00     0.031 C 
ATOM     42  C   UNL A   1      37.287  34.190  33.279  1.00  0.00     0.029 A 
ATOM     43  N   UNL A   1      38.892  32.636  33.307  1.00  0.00    -0.354 N 
ATOM     44  C   UNL A   1      39.378  29.874  30.013  1.00  0.00     0.074 A 
ATOM     45  C   UNL A   1      38.424  30.142  28.960  1.00  0.00     0.031 C 
ATOM     46  C   UNL A   1      37.940  34.307  34.447  1.00  0.00     0.029 A 
ATOM     47  C   UNL A   1      38.975  33.280  34.520  1.00  0.00     0.049 A 
ATOM     48  H   UNL A   1      39.493  31.902  33.045  1.00  0.00     0.167 HD
ATOM     49  C   UNL A   1      40.329  28.912  29.949  1.00  0.00     0.037 A 
ATOM     50  C   UNL A   1      39.780  33.052  35.577  1.00  0.00     0.037 A 
ATOM     51  C   UNL A   1      41.289  28.658  30.990  1.00  0.00     0.049 A 
ATOM     52  C   UNL A   1      40.795  31.938  35.497  1.00  0.00     0.074 A 
ATOM     53  C   UNL A   1      42.312  27.725  31.008  1.00  0.00     0.029 A 
ATOM     54  N   UNL A   1      41.346  29.339  32.196  1.00  0.00    -0.354 N 
ATOM     55  N   UNL A   1      41.047  31.113  34.509  1.00  0.00    -0.248 NA
ATOM     56  C   UNL A   1      41.645  31.729  36.678  1.00  0.00     0.031 C 
ATOM     57  C   UNL A   1      42.950  27.801  32.248  1.00  0.00     0.029 A 
ATOM     58  C   UNL A   1      42.376  28.833  32.972  1.00  0.00     0.049 A 
ATOM     59  H   UNL A   1      40.744  30.072  32.461  1.00  0.00     0.167 HD
ATOM     60  C   UNL A   1      42.112  30.327  34.931  1.00  0.00     0.074 A 
ATOM     61  C   UNL A   1      42.466  30.778  36.258  1.00  0.00     0.031 C 
ATOM     62  C   UNL A   1      42.741  29.319  34.277  1.00  0.00     0.037 A 
BRANCH  49  63
ATOM     63  C   UNL A   1      40.395  28.072  28.707  1.00  0.00     0.064 A 
ATOM     64  C   UNL A   1      41.156  28.465  27.596  1.00  0.00     0.173 A 
ATOM     65  C   UNL A   1      39.746  26.830  28.651  1.00  0.00     0.173 A 
ATOM     66  F   UNL A   1      41.787  29.650  27.593  1.00  0.00    -0.203 F 
ATOM     67  C   UNL A   1      41.252  27.654  26.469  1.00  0.00     0.198 A 
ATOM     68  C   UNL A   1      39.872  26.005  27.536  1.00  0.00     0.198 A 
ATOM     69  F   UNL A   1      39.009  26.403  29.687  1.00  0.00    -0.203 F 
ATOM     70  F   UNL A   1      41.950  28.070  25.403  1.00  0.00    -0.200 F 
ATOM     71  C   UNL A   1      40.619  26.421  26.444  1.00  0.00     0.200 A 
ATOM     72  F   UNL A   1      39.275  24.805  27.521  1.00  0.00    -0.200 F 
ATOM     73  F   UNL A   1      40.728  25.632  25.365  1.00  0.00    -0.200 F 
ENDBRANCH  49  63
BRANCH  50  74
ATOM     74  C   UNL A   1      39.670  33.880  36.810  1.00  0.00     0.064 A 
ATOM     75  C   UNL A   1      38.866  33.471  37.887  1.00  0.00     0.173 A 
ATOM     76  C   UNL A   1      40.306  35.125  36.916  1.00  0.00     0.173 A 
ATOM     77  F   UNL A   1      38.220  32.298  37.831  1.00  0.00    -0.203 F 
ATOM     78  C   UNL A   1      38.662  34.298  38.991  1.00  0.00     0.198 A 
ATOM     79  C   UNL A   1      40.135  35.933  38.040  1.00  0.00     0.198 A 
ATOM     80  F   UNL A   1      41.093  35.565  35.923  1.00  0.00    -0.203 F 
ATOM     81  F   UNL A   1      37.821  33.916  39.962  1.00  0.00    -0.200 F 
ATOM     82  C   UNL A   1      39.299  35.526  39.068  1.00  0.00     0.200 A 
ATOM     83  F   UNL A   1      40.767  37.111  38.118  1.00  0.00    -0.200 F 
ATOM     84  F   UNL A   1      39.092  36.326  40.123  1.00  0.00    -0.200 F 
ENDBRANCH  50  74
BRANCH  62  85
ATOM     85  C   UNL A   1      43.931  28.689  34.944  1.00  0.00     0.064 A 
ATOM     86  C   UNL A   1      43.814  27.562  35.770  1.00  0.00     0.173 A 
ATOM     87  C   UNL A   1      45.219  29.193  34.702  1.00  0.00     0.173 A 
ATOM     88  F   UNL A   1      42.606  27.047  36.043  1.00  0.00    -0.203 F 
ATOM     89  C   UNL A   1      44.938  26.982  36.352  1.00  0.00     0.198 A 
ATOM     90  C   UNL A   1      46.344  28.587  35.253  1.00  0.00     0.198 A 
ATOM     91  F   UNL A   1      45.390  30.264  33.911  1.00  0.00    -0.203 F 
ATOM     92  F   UNL A   1      44.798  25.938  37.180  1.00  0.00    -0.200 F 
ATOM     93  C   UNL A   1      46.202  27.487  36.084  1.00  0.00     0.200 A 
ATOM     94  F   UNL A   1      47.564  29.064  34.974  1.00  0.00    -0.200 F 
ATOM     95  F   UNL A   1      47.284  26.917  36.633  1.00  0.00    -0.200 F 
ENDBRANCH  62  85
ENDBRANCH  36  37
ENDBRANCH  28  31
ENDBRANCH  26  27
ENDBRANCH  25  26
ENDBRANCH   1  25
TORSDOF 14
ENDMDL
MODEL 3
REMARK VINA RESULT:     -12.6      1.475      2.051
REMARK SMILES N#C[C@H]1CN(c2cc(C(=O)NCCCCNC(=O)c3ccc(-c4c5nc(c(-c6c(F)c(F)c(F)c(F)c6F)c6ccc([nH]6)c(-c6c(F)c(F)c(F)c(F)c6F)c6nc(c(-c7c(F)c(F)c(F)c(F)c7F)c7ccc4[nH]7)C=C6)C=C5)cc3)c(N)cc2F)CCO1
REMARK SMILES IDX 13 1 12 2 11 3 9 4 10 5 8 7 6 8 7 9 85 10 84 11 86 12 82 13
REMARK SMILES IDX 5 14 3 15 4 16 89 17 88 18 87 19 2 20 1 21 83 22 14 25 15 26
REMARK SMILES IDX 16 27 17 28 18 30 19 31 20 32 81 33 21 34 80 35 22 36 23 37
REMARK SMILES IDX 24 38 74 39 25 40 79 41 73 42 75 43 26 44 78 45 72 46 71 47
REMARK SMILES IDX 27 49 59 50 39 51 58 52 40 53 43 54 57 55 76 56 41 57 42 58
REMARK SMILES IDX 56 60 77 61 44 62 28 63 29 64 37 65 30 66 31 67 35 68 38 69
REMARK SMILES IDX 32 70 33 71 36 72 34 73 60 74 61 75 69 76 62 77 63 78 67 79
REMARK SMILES IDX 70 80 64 81 65 82 68 83 66 84 45 85 46 86 54 87 47 88 48 89
REMARK SMILES IDX 52 90 55 91 49 92 50 93 53 94 51 95
REMARK H PARENT 11 6 83 23 83 24 16 29 75 48 43 59
REMARK Flexibility Score: inf
ROOT
ATOM      1  C   UNL A   1      31.421  31.011  25.973  1.00  0.00     0.023 C 
ENDROOT
BRANCH   1   2
ATOM      2  C   UNL A   1      31.751  29.703  26.678  1.00  0.00     0.116 C 
BRANCH   2   3
ATOM      3  N   UNL A   1      33.117  29.552  27.140  1.00  0.00    -0.352 N 
ATOM      4  C   UNL A   1      34.140  28.788  26.613  1.00  0.00     0.253 C 
ATOM      5  O   UNL A   1      35.246  28.869  27.150  1.00  0.00    -0.269 OA
ATOM      6  H   UNL A   1      33.350  30.068  27.945  1.00  0.00     0.163 HD
BRANCH   4   7
ATOM      7  C   UNL A   1      33.949  27.819  25.484  1.00  0.00     0.065 A 
ATOM      8  C   UNL A   1      33.944  25.436  24.868  1.00  0.00     0.074 A 
ATOM      9  C   UNL A   1      34.093  26.450  25.823  1.00  0.00     0.045 A 
ATOM     10  C   UNL A   1      33.471  25.820  23.609  1.00  0.00     0.148 A 
ATOM     11  C   UNL A   1      33.344  27.153  23.247  1.00  0.00     0.067 A 
ATOM     12  F   UNL A   1      33.187  24.888  22.685  1.00  0.00    -0.205 F 
ATOM     13  C   UNL A   1      33.713  28.163  24.138  1.00  0.00     0.047 A 
BRANCH   8  14
ATOM     14  N   UNL A   1      34.347  24.144  25.126  1.00  0.00    -0.363 N 
ATOM     15  C   UNL A   1      33.595  21.931  24.337  1.00  0.00     0.240 C 
ATOM     16  C   UNL A   1      33.423  23.040  25.410  1.00  0.00     0.164 C 
ATOM     17  O   UNL A   1      34.983  21.531  24.210  1.00  0.00    -0.360 OA
ATOM     18  C   UNL A   1      35.805  22.649  23.832  1.00  0.00     0.183 C 
ATOM     19  C   UNL A   1      35.745  23.757  24.888  1.00  0.00     0.145 C 
BRANCH  15  20
ATOM     20  C   UNL A   1      32.771  20.761  24.695  1.00  0.00     0.096 C 
ATOM     21  N   UNL A   1      32.119  19.851  24.994  1.00  0.00    -0.195 NA
ENDBRANCH  15  20
ENDBRANCH   8  14
BRANCH  13  22
ATOM     22  N   UNL A   1      33.846  29.445  23.617  1.00  0.00    -0.398 N 
ATOM     23  H   UNL A   1      33.189  30.140  23.848  1.00  0.00     0.156 HD
ATOM     24  H   UNL A   1      34.598  29.657  23.017  1.00  0.00     0.156 HD
ENDBRANCH  13  22
ENDBRANCH   4   7
ENDBRANCH   2   3
ENDBRANCH   1   2
BRANCH   1  25
ATOM     25  C   UNL A   1      31.260  32.238  26.862  1.00  0.00     0.023 C 
BRANCH  25  26
ATOM     26  C   UNL A   1      32.544  32.965  27.243  1.00  0.00     0.116 C 
BRANCH  26  27
ATOM     27  N   UNL A   1      32.342  34.355  27.635  1.00  0.00    -0.352 N 
ATOM     28  C   UNL A   1      32.993  35.105  28.589  1.00  0.00     0.251 C 
ATOM     29  H   UNL A   1      31.634  34.828  27.141  1.00  0.00     0.163 HD
ATOM     30  O   UNL A   1      32.607  36.238  28.859  1.00  0.00    -0.269 OA
BRANCH  28  31
ATOM     31  C   UNL A   1      34.138  34.523  29.319  1.00  0.00     0.039 A 
ATOM     32  C   UNL A   1      33.908  33.807  30.495  1.00  0.00     0.014 A 
ATOM     33  C   UNL A   1      35.434  34.645  28.815  1.00  0.00     0.014 A 
ATOM     34  C   UNL A   1      34.965  33.128  31.109  1.00  0.00     0.010 A 
ATOM     35  C   UNL A   1      36.459  33.884  29.364  1.00  0.00     0.010 A 
ATOM     36  C   UNL A   1      36.239  33.117  30.519  1.00  0.00    -0.014 A 
BRANCH  36  37
ATOM     37  C   UNL A   1      37.364  32.333  31.093  1.00  0.00     0.031 A 
ATOM     38  C   UNL A   1      37.907  32.695  32.451  1.00  0.00     0.074 A 
ATOM     39  C   UNL A   1      37.944  31.349  30.375  1.00  0.00     0.049 A 
ATOM     40  N   UNL A   1      38.953  32.222  33.079  1.00  0.00    -0.248 NA
ATOM     41  C   UNL A   1      37.195  33.753  33.188  1.00  0.00     0.031 C 
ATOM     42  C   UNL A   1      37.538  30.924  29.034  1.00  0.00     0.029 A 
ATOM     43  N   UNL A   1      39.014  30.537  30.666  1.00  0.00    -0.354 N 
ATOM     44  C   UNL A   1      39.024  32.927  34.274  1.00  0.00     0.074 A 
ATOM     45  C   UNL A   1      37.964  33.908  34.254  1.00  0.00     0.031 C 
ATOM     46  C   UNL A   1      38.331  29.918  28.630  1.00  0.00     0.029 A 
ATOM     47  C   UNL A   1      39.336  29.661  29.657  1.00  0.00     0.049 A 
ATOM     48  H   UNL A   1      39.504  30.579  31.519  1.00  0.00     0.167 HD
ATOM     49  C   UNL A   1      39.878  32.750  35.310  1.00  0.00     0.037 A 
ATOM     50  C   UNL A   1      40.341  28.768  29.563  1.00  0.00     0.037 A 
ATOM     51  C   UNL A   1      40.922  31.760  35.336  1.00  0.00     0.049 A 
ATOM     52  C   UNL A   1      41.309  28.630  30.713  1.00  0.00     0.074 A 
ATOM     53  C   UNL A   1      41.820  31.484  36.353  1.00  0.00     0.029 A 
ATOM     54  N   UNL A   1      41.207  30.886  34.299  1.00  0.00    -0.354 N 
ATOM     55  N   UNL A   1      41.330  29.266  31.860  1.00  0.00    -0.248 NA
ATOM     56  C   UNL A   1      42.389  27.645  30.558  1.00  0.00     0.031 C 
ATOM     57  C   UNL A   1      42.686  30.482  35.908  1.00  0.00     0.029 A 
ATOM     58  C   UNL A   1      42.279  30.081  34.646  1.00  0.00     0.049 A 
ATOM     59  H   UNL A   1      40.720  30.844  33.444  1.00  0.00     0.167 HD
ATOM     60  C   UNL A   1      42.388  28.722  32.578  1.00  0.00     0.074 A 
ATOM     61  C   UNL A   1      42.979  27.699  31.743  1.00  0.00     0.031 C 
ATOM     62  C   UNL A   1      42.832  29.041  33.818  1.00  0.00     0.037 A 
BRANCH  49  63
ATOM     63  C   UNL A   1      39.711  33.631  36.514  1.00  0.00     0.064 A 
ATOM     64  C   UNL A   1      40.342  34.880  36.601  1.00  0.00     0.173 A 
ATOM     65  C   UNL A   1      38.858  33.253  37.562  1.00  0.00     0.173 A 
ATOM     66  F   UNL A   1      41.178  35.285  35.632  1.00  0.00    -0.203 F 
ATOM     67  C   UNL A   1      40.140  35.712  37.700  1.00  0.00     0.198 A 
ATOM     68  C   UNL A   1      38.632  34.102  38.643  1.00  0.00     0.198 A 
ATOM     69  F   UNL A   1      38.225  32.071  37.528  1.00  0.00    -0.203 F 
ATOM     70  F   UNL A   1      40.788  36.882  37.780  1.00  0.00    -0.200 F 
ATOM     71  C   UNL A   1      39.277  35.326  38.713  1.00  0.00     0.200 A 
ATOM     72  F   UNL A   1      37.782  33.735  39.613  1.00  0.00    -0.200 F 
ATOM     73  F   UNL A   1      39.068  36.137  39.761  1.00  0.00    -0.200 F 
ENDBRANCH  49  63
BRANCH  50  74
ATOM     74  C   UNL A   1      40.504  27.929  28.342  1.00  0.00     0.064 A 
ATOM     75  C   UNL A   1      39.957  26.637  28.274  1.00  0.00     0.173 A 
ATOM     76  C   UNL A   1      41.263  28.367  27.248  1.00  0.00     0.173 A 
ATOM     77  F   UNL A   1      39.237  26.160  29.300  1.00  0.00    -0.203 F 
ATOM     78  C   UNL A   1      40.209  25.802  27.187  1.00  0.00     0.198 A 
ATOM     79  C   UNL A   1      41.479  27.547  26.142  1.00  0.00     0.198 A 
ATOM     80  F   UNL A   1      41.804  29.595  27.253  1.00  0.00    -0.203 F 
ATOM     81  F   UNL A   1      39.745  24.546  27.190  1.00  0.00    -0.200 F 
ATOM     82  C   UNL A   1      40.968  26.259  26.120  1.00  0.00     0.200 A 
ATOM     83  F   UNL A   1      42.197  27.999  25.105  1.00  0.00    -0.200 F 
ATOM     84  F   UNL A   1      41.220  25.452  25.080  1.00  0.00    -0.200 F 
ENDBRANCH  50  74
BRANCH  62  85
ATOM     85  C   UNL A   1      43.957  28.225  34.390  1.00  0.00     0.064 A 
ATOM     86  C   UNL A   1      43.734  27.021  35.073  1.00  0.00     0.173 A 
ATOM     87  C   UNL A   1      45.287  28.633  34.199  1.00  0.00     0.173 A 
ATOM     88  F   UNL A   1      42.483  26.591  35.293  1.00  0.00    -0.203 F 
ATOM     89  C   UNL A   1      44.798  26.271  35.568  1.00  0.00     0.198 A 
ATOM     90  C   UNL A   1      46.350  27.861  34.660  1.00  0.00     0.198 A 
ATOM     91  F   UNL A   1      45.559  29.773  33.544  1.00  0.00    -0.203 F 
ATOM     92  F   UNL A   1      44.559  25.151  36.263  1.00  0.00    -0.200 F 
ATOM     93  C   UNL A   1      46.104  26.686  35.351  1.00  0.00     0.200 A 
ATOM     94  F   UNL A   1      47.610  28.253  34.430  1.00  0.00    -0.200 F 
ATOM     95  F   UNL A   1      47.127  25.954  35.815  1.00  0.00    -0.200 F 
ENDBRANCH  62  85
ENDBRANCH  36  37
ENDBRANCH  28  31
ENDBRANCH  26  27
ENDBRANCH  25  26
ENDBRANCH   1  25
TORSDOF 14
ENDMDL
