MODEL 1
REMARK VINA RESULT:     -10.5      0.000      0.000
REMARK SMILES C=CCN(CC(=O)NCCCCNC(=O)c1ccc(-c2c3nc(c(-c4c(F)c(F)c(F)c(F)c4F)c4ccc([nH]4)c(-c4c(F)c(F)c(F)c(F)c4F)c4nc(c(-c5c(F)c(F)c(F)c(F)c5F)c5ccc2[nH]5)C=C4)C=C3)cc1)C(=O)CSc1cccs1
REMARK SMILES IDX 9 1 8 2 6 3 7 4 5 6 4 7 3 8 2 9 1 10 79 11 80 12 81 13 82 14
REMARK SMILES IDX 83 15 84 16 87 17 85 18 86 19 10 20 11 21 12 22 13 23 14 24
REMARK SMILES IDX 15 26 16 27 17 28 78 29 18 30 77 31 19 32 20 33 21 34 71 35
REMARK SMILES IDX 22 36 76 37 70 38 72 39 23 40 75 41 69 42 68 43 24 45 56 46
REMARK SMILES IDX 36 47 55 48 37 49 40 50 54 51 73 52 38 53 39 54 53 56 74 57
REMARK SMILES IDX 41 58 25 59 26 60 34 61 27 62 28 63 32 64 35 65 29 66 30 67
REMARK SMILES IDX 33 68 31 69 57 70 58 71 66 72 59 73 60 74 64 75 67 76 61 77
REMARK SMILES IDX 62 78 65 79 63 80 42 81 43 82 51 83 44 84 45 85 49 86 52 87
REMARK SMILES IDX 46 88 47 89 50 90 48 91
REMARK H PARENT 8 5 13 25 72 44 40 55
REMARK Flexibility Score: inf
ROOT
ATOM      1  C   UNL A   1      31.595  30.071  25.162  1.00  0.00     0.116 C 
ENDROOT
BRANCH   1   2
ATOM      2  N   UNL A   1      32.893  29.602  24.735  1.00  0.00    -0.355 N 
ATOM      3  C   UNL A   1      33.233  28.890  23.625  1.00  0.00     0.239 C 
ATOM      4  O   UNL A   1      34.434  28.706  23.412  1.00  0.00    -0.273 OA
ATOM      5  H   UNL A   1      33.641  29.830  25.334  1.00  0.00     0.163 HD
BRANCH   3   6
ATOM      6  C   UNL A   1      32.167  28.387  22.637  1.00  0.00     0.219 C 
BRANCH   6   7
ATOM      7  N   UNL A   1      31.838  26.958  22.744  1.00  0.00    -0.329 N 
BRANCH   7   8
ATOM      8  C   UNL A   1      30.503  26.605  23.226  1.00  0.00     0.147 C 
BRANCH   8   9
ATOM      9  C   UNL A   1      30.339  26.916  24.682  1.00  0.00    -0.014 C 
ATOM     10  C   UNL A   1      30.310  25.965  25.627  1.00  0.00     0.006 C 
ENDBRANCH   8   9
ENDBRANCH   7   8
BRANCH   7  11
ATOM     11  C   UNL A   1      32.716  25.919  22.433  1.00  0.00     0.233 C 
ATOM     12  O   UNL A   1      33.608  26.080  21.591  1.00  0.00    -0.274 OA
BRANCH  11  13
ATOM     13  C   UNL A   1      32.528  24.524  23.019  1.00  0.00     0.175 C 
BRANCH  13  14
ATOM     14  S   UNL A   1      33.705  23.276  22.447  1.00  0.00    -0.105 SA
BRANCH  14  15
ATOM     15  C   UNL A   1      34.985  23.384  23.633  1.00  0.00     0.060 A 
ATOM     16  C   UNL A   1      36.291  22.997  23.427  1.00  0.00     0.027 A 
ATOM     17  S   UNL A   1      34.761  24.080  25.176  1.00  0.00    -0.137 S 
ATOM     18  C   UNL A   1      37.120  23.281  24.552  1.00  0.00     0.013 A 
ATOM     19  C   UNL A   1      36.414  23.877  25.572  1.00  0.00     0.066 A 
ENDBRANCH  14  15
ENDBRANCH  13  14
ENDBRANCH  11  13
ENDBRANCH   7  11
ENDBRANCH   6   7
ENDBRANCH   3   6
ENDBRANCH   1   2
BRANCH   1  20
ATOM     20  C   UNL A   1      31.615  30.606  26.591  1.00  0.00     0.023 C 
BRANCH  20  21
ATOM     21  C   UNL A   1      31.458  32.123  26.711  1.00  0.00     0.023 C 
BRANCH  21  22
ATOM     22  C   UNL A   1      32.697  32.874  27.186  1.00  0.00     0.116 C 
BRANCH  22  23
ATOM     23  N   UNL A   1      32.417  34.229  27.635  1.00  0.00    -0.352 N 
ATOM     24  C   UNL A   1      33.033  34.950  28.629  1.00  0.00     0.251 C 
ATOM     25  H   UNL A   1      31.687  34.691  27.162  1.00  0.00     0.163 HD
ATOM     26  O   UNL A   1      32.604  36.055  28.949  1.00  0.00    -0.269 OA
BRANCH  24  27
ATOM     27  C   UNL A   1      34.191  34.372  29.340  1.00  0.00     0.039 A 
ATOM     28  C   UNL A   1      33.961  33.581  30.469  1.00  0.00     0.014 A 
ATOM     29  C   UNL A   1      35.494  34.585  28.882  1.00  0.00     0.014 A 
ATOM     30  C   UNL A   1      35.033  32.942  31.095  1.00  0.00     0.010 A 
ATOM     31  C   UNL A   1      36.552  33.892  29.464  1.00  0.00     0.010 A 
ATOM     32  C   UNL A   1      36.332  33.062  30.574  1.00  0.00    -0.014 A 
BRANCH  32  33
ATOM     33  C   UNL A   1      37.471  32.320  31.170  1.00  0.00     0.031 A 
ATOM     34  C   UNL A   1      37.991  32.698  32.528  1.00  0.00     0.074 A 
ATOM     35  C   UNL A   1      38.080  31.351  30.458  1.00  0.00     0.049 A 
ATOM     36  N   UNL A   1      39.019  32.220  33.184  1.00  0.00    -0.248 NA
ATOM     37  C   UNL A   1      37.279  33.775  33.231  1.00  0.00     0.031 C 
ATOM     38  C   UNL A   1      37.700  30.927  29.110  1.00  0.00     0.029 A 
ATOM     39  N   UNL A   1      39.157  30.558  30.764  1.00  0.00    -0.354 N 
ATOM     40  C   UNL A   1      39.083  32.947  34.365  1.00  0.00     0.074 A 
ATOM     41  C   UNL A   1      38.025  33.933  34.314  1.00  0.00     0.031 C 
ATOM     42  C   UNL A   1      38.516  29.937  28.714  1.00  0.00     0.029 A 
ATOM     43  C   UNL A   1      39.499  29.682  29.762  1.00  0.00     0.049 A 
ATOM     44  H   UNL A   1      39.638  30.610  31.623  1.00  0.00     0.167 HD
ATOM     45  C   UNL A   1      39.934  32.789  35.408  1.00  0.00     0.037 A 
ATOM     46  C   UNL A   1      40.499  28.783  29.695  1.00  0.00     0.037 A 
ATOM     47  C   UNL A   1      40.967  31.790  35.467  1.00  0.00     0.049 A 
ATOM     48  C   UNL A   1      41.432  28.632  30.866  1.00  0.00     0.074 A 
ATOM     49  C   UNL A   1      41.838  31.509  36.504  1.00  0.00     0.029 A 
ATOM     50  N   UNL A   1      41.272  30.909  34.440  1.00  0.00    -0.354 N 
ATOM     51  N   UNL A   1      41.440  29.276  32.008  1.00  0.00    -0.248 NA
ATOM     52  C   UNL A   1      42.493  27.623  30.741  1.00  0.00     0.031 C 
ATOM     53  C   UNL A   1      42.700  30.489  36.089  1.00  0.00     0.029 A 
ATOM     54  C   UNL A   1      42.333  30.098  34.811  1.00  0.00     0.049 A 
ATOM     55  H   UNL A   1      40.804  30.865  33.575  1.00  0.00     0.167 HD
ATOM     56  C   UNL A   1      42.481  28.733  32.746  1.00  0.00     0.074 A 
ATOM     57  C   UNL A   1      43.076  27.696  31.929  1.00  0.00     0.031 C 
ATOM     58  C   UNL A   1      42.909  29.064  33.989  1.00  0.00     0.037 A 
BRANCH  45  59
ATOM     59  C   UNL A   1      39.776  33.719  36.577  1.00  0.00     0.064 A 
ATOM     60  C   UNL A   1      40.437  34.956  36.626  1.00  0.00     0.173 A 
ATOM     61  C   UNL A   1      38.927  33.386  37.643  1.00  0.00     0.173 A 
ATOM     62  F   UNL A   1      41.269  35.318  35.637  1.00  0.00    -0.203 F 
ATOM     63  C   UNL A   1      40.277  35.811  37.713  1.00  0.00     0.198 A 
ATOM     64  C   UNL A   1      38.745  34.259  38.713  1.00  0.00     0.198 A 
ATOM     65  F   UNL A   1      38.267  32.219  37.643  1.00  0.00    -0.203 F 
ATOM     66  F   UNL A   1      40.958  36.965  37.761  1.00  0.00    -0.200 F 
ATOM     67  C   UNL A   1      39.426  35.466  38.752  1.00  0.00     0.200 A 
ATOM     68  F   UNL A   1      37.913  33.928  39.710  1.00  0.00    -0.200 F 
ATOM     69  F   UNL A   1      39.267  36.293  39.793  1.00  0.00    -0.200 F 
ENDBRANCH  45  59
BRANCH  46  70
ATOM     70  C   UNL A   1      40.656  27.936  28.483  1.00  0.00     0.064 A 
ATOM     71  C   UNL A   1      41.421  28.376  27.394  1.00  0.00     0.173 A 
ATOM     72  C   UNL A   1      40.044  26.679  28.385  1.00  0.00     0.173 A 
ATOM     73  F   UNL A   1      42.009  29.582  27.433  1.00  0.00    -0.203 F 
ATOM     74  C   UNL A   1      41.550  27.601  26.244  1.00  0.00     0.198 A 
ATOM     75  C   UNL A   1      40.198  25.891  27.246  1.00  0.00     0.198 A 
ATOM     76  F   UNL A   1      39.305  26.210  29.401  1.00  0.00    -0.203 F 
ATOM     77  F   UNL A   1      42.249  28.067  25.200  1.00  0.00    -0.200 F 
ATOM     78  C   UNL A   1      40.944  26.356  26.173  1.00  0.00     0.200 A 
ATOM     79  F   UNL A   1      39.621  24.683  27.187  1.00  0.00    -0.200 F 
ATOM     80  F   UNL A   1      41.069  25.609  25.068  1.00  0.00    -0.200 F 
ENDBRANCH  46  70
BRANCH  58  81
ATOM     81  C   UNL A   1      44.051  28.274  34.558  1.00  0.00     0.064 A 
ATOM     82  C   UNL A   1      43.843  27.074  35.252  1.00  0.00     0.173 A 
ATOM     83  C   UNL A   1      45.373  28.704  34.370  1.00  0.00     0.173 A 
ATOM     84  F   UNL A   1      42.597  26.627  35.472  1.00  0.00    -0.203 F 
ATOM     85  C   UNL A   1      44.917  26.346  35.760  1.00  0.00     0.198 A 
ATOM     86  C   UNL A   1      46.446  27.959  34.852  1.00  0.00     0.198 A 
ATOM     87  F   UNL A   1      45.627  29.842  33.707  1.00  0.00    -0.203 F 
ATOM     88  F   UNL A   1      44.692  25.226  36.462  1.00  0.00    -0.200 F 
ATOM     89  C   UNL A   1      46.215  26.784  35.553  1.00  0.00     0.200 A 
ATOM     90  F   UNL A   1      47.701  28.377  34.639  1.00  0.00    -0.200 F 
ATOM     91  F   UNL A   1      47.248  26.079  36.036  1.00  0.00    -0.200 F 
ENDBRANCH  58  81
ENDBRANCH  32  33
ENDBRANCH  24  27
ENDBRANCH  22  23
ENDBRANCH  21  22
ENDBRANCH  20  21
ENDBRANCH   1  20
TORSDOF 18
ENDMDL
MODEL 2
REMARK VINA RESULT:     -10.4      2.039      8.023
REMARK SMILES C=CCN(CC(=O)NCCCCNC(=O)c1ccc(-c2c3nc(c(-c4c(F)c(F)c(F)c(F)c4F)c4ccc([nH]4)c(-c4c(F)c(F)c(F)c(F)c4F)c4nc(c(-c5c(F)c(F)c(F)c(F)c5F)c5ccc2[nH]5)C=C4)C=C3)cc1)C(=O)CSc1cccs1
REMARK SMILES IDX 9 1 8 2 6 3 7 4 5 6 4 7 3 8 2 9 1 10 79 11 80 12 81 13 82 14
REMARK SMILES IDX 83 15 84 16 87 17 85 18 86 19 10 20 11 21 12 22 13 23 14 24
REMARK SMILES IDX 15 26 16 27 17 28 78 29 18 30 77 31 19 32 20 33 21 34 71 35
REMARK SMILES IDX 22 36 76 37 70 38 72 39 23 40 75 41 69 42 68 43 24 45 56 46
REMARK SMILES IDX 36 47 55 48 37 49 40 50 54 51 73 52 38 53 39 54 53 56 74 57
REMARK SMILES IDX 41 58 25 59 26 60 34 61 27 62 28 63 32 64 35 65 29 66 30 67
REMARK SMILES IDX 33 68 31 69 57 70 58 71 66 72 59 73 60 74 64 75 67 76 61 77
REMARK SMILES IDX 62 78 65 79 63 80 42 81 43 82 51 83 44 84 45 85 49 86 52 87
REMARK SMILES IDX 46 88 47 89 50 90 48 91
REMARK H PARENT 8 5 13 25 72 44 40 55
REMARK Flexibility Score: inf
ROOT
ATOM      1  C   UNL A   1      32.118  29.624  25.979  1.00  0.00     0.116 C 
ENDROOT
BRANCH   1   2
ATOM      2  N   UNL A   1      31.388  28.513  26.545  1.00  0.00    -0.355 N 
ATOM      3  C   UNL A   1      31.394  27.200  26.182  1.00  0.00     0.239 C 
ATOM      4  O   UNL A   1      30.773  26.410  26.897  1.00  0.00    -0.273 OA
ATOM      5  H   UNL A   1      30.801  28.737  27.303  1.00  0.00     0.163 HD
BRANCH   3   6
ATOM      6  C   UNL A   1      32.194  26.708  24.965  1.00  0.00     0.219 C 
BRANCH   6   7
ATOM      7  N   UNL A   1      31.493  26.799  23.675  1.00  0.00    -0.329 N 
BRANCH   7   8
ATOM      8  C   UNL A   1      32.282  26.596  22.460  1.00  0.00     0.147 C 
BRANCH   8   9
ATOM      9  C   UNL A   1      33.638  27.224  22.569  1.00  0.00    -0.014 C 
ATOM     10  C   UNL A   1      33.846  28.536  22.389  1.00  0.00     0.006 C 
ENDBRANCH   8   9
ENDBRANCH   7   8
BRANCH   7  11
ATOM     11  C   UNL A   1      30.134  27.080  23.532  1.00  0.00     0.233 C 
ATOM     12  O   UNL A   1      29.280  26.296  23.963  1.00  0.00    -0.274 OA
BRANCH  11  13
ATOM     13  C   UNL A   1      29.658  28.289  22.734  1.00  0.00     0.175 C 
BRANCH  13  14
ATOM     14  S   UNL A   1      27.979  28.851  23.102  1.00  0.00    -0.105 SA
BRANCH  14  15
ATOM     15  C   UNL A   1      28.028  30.535  22.633  1.00  0.00     0.060 A 
ATOM     16  C   UNL A   1      28.121  31.599  23.504  1.00  0.00     0.027 A 
ATOM     17  S   UNL A   1      28.057  31.041  21.003  1.00  0.00    -0.137 S 
ATOM     18  C   UNL A   1      28.222  32.846  22.822  1.00  0.00     0.013 A 
ATOM     19  C   UNL A   1      28.205  32.686  21.455  1.00  0.00     0.066 A 
ENDBRANCH  14  15
ENDBRANCH  13  14
ENDBRANCH  11  13
ENDBRANCH   7  11
ENDBRANCH   6   7
ENDBRANCH   3   6
ENDBRANCH   1   2
BRANCH   1  20
ATOM     20  C   UNL A   1      31.191  30.681  25.385  1.00  0.00     0.023 C 
BRANCH  20  21
ATOM     21  C   UNL A   1      31.056  31.958  26.217  1.00  0.00     0.023 C 
BRANCH  21  22
ATOM     22  C   UNL A   1      32.339  32.446  26.881  1.00  0.00     0.116 C 
BRANCH  22  23
ATOM     23  N   UNL A   1      32.238  33.797  27.410  1.00  0.00    -0.352 N 
ATOM     24  C   UNL A   1      33.032  34.415  28.346  1.00  0.00     0.251 C 
ATOM     25  H   UNL A   1      31.502  34.342  27.050  1.00  0.00     0.163 HD
ATOM     26  O   UNL A   1      32.748  35.536  28.758  1.00  0.00    -0.269 OA
BRANCH  24  27
ATOM     27  C   UNL A   1      34.211  33.707  28.886  1.00  0.00     0.039 A 
ATOM     28  C   UNL A   1      35.481  34.239  28.651  1.00  0.00     0.014 A 
ATOM     29  C   UNL A   1      34.063  32.542  29.644  1.00  0.00     0.014 A 
ATOM     30  C   UNL A   1      36.599  33.643  29.238  1.00  0.00     0.010 A 
ATOM     31  C   UNL A   1      35.170  31.991  30.285  1.00  0.00     0.010 A 
ATOM     32  C   UNL A   1      36.448  32.537  30.090  1.00  0.00    -0.014 A 
BRANCH  32  33
ATOM     33  C   UNL A   1      37.611  31.944  30.796  1.00  0.00     0.031 A 
ATOM     34  C   UNL A   1      38.434  30.876  30.131  1.00  0.00     0.074 A 
ATOM     35  C   UNL A   1      37.885  32.319  32.061  1.00  0.00     0.049 A 
ATOM     36  N   UNL A   1      39.439  30.187  30.609  1.00  0.00    -0.248 NA
ATOM     37  C   UNL A   1      38.058  30.515  28.756  1.00  0.00     0.031 C 
ATOM     38  C   UNL A   1      37.131  33.309  32.831  1.00  0.00     0.029 A 
ATOM     39  N   UNL A   1      38.865  31.900  32.927  1.00  0.00    -0.354 N 
ATOM     40  C   UNL A   1      39.804  29.305  29.602  1.00  0.00     0.074 A 
ATOM     41  C   UNL A   1      38.881  29.507  28.506  1.00  0.00     0.031 C 
ATOM     42  C   UNL A   1      37.688  33.437  34.046  1.00  0.00     0.029 A 
ATOM     43  C   UNL A   1      38.813  32.513  34.155  1.00  0.00     0.049 A 
ATOM     44  H   UNL A   1      39.541  31.225  32.689  1.00  0.00     0.167 HD
ATOM     45  C   UNL A   1      40.832  28.421  29.583  1.00  0.00     0.037 A 
ATOM     46  C   UNL A   1      39.581  32.342  35.247  1.00  0.00     0.037 A 
ATOM     47  C   UNL A   1      41.764  28.241  30.665  1.00  0.00     0.049 A 
ATOM     48  C   UNL A   1      40.713  31.351  35.201  1.00  0.00     0.074 A 
ATOM     49  C   UNL A   1      42.875  27.419  30.718  1.00  0.00     0.029 A 
ATOM     50  N   UNL A   1      41.690  28.894  31.887  1.00  0.00    -0.354 N 
ATOM     51  N   UNL A   1      41.094  30.573  34.218  1.00  0.00    -0.248 NA
ATOM     52  C   UNL A   1      41.527  31.219  36.418  1.00  0.00     0.031 C 
ATOM     53  C   UNL A   1      43.447  27.538  31.989  1.00  0.00     0.029 A 
ATOM     54  C   UNL A   1      42.724  28.475  32.709  1.00  0.00     0.049 A 
ATOM     55  H   UNL A   1      41.005  29.556  32.134  1.00  0.00     0.167 HD
ATOM     56  C   UNL A   1      42.204  29.884  34.683  1.00  0.00     0.074 A 
ATOM     57  C   UNL A   1      42.446  30.345  36.035  1.00  0.00     0.031 C 
ATOM     58  C   UNL A   1      42.956  28.951  34.050  1.00  0.00     0.037 A 
BRANCH  45  59
ATOM     59  C   UNL A   1      41.004  27.584  28.349  1.00  0.00     0.064 A 
ATOM     60  C   UNL A   1      41.840  27.990  27.297  1.00  0.00     0.173 A 
ATOM     61  C   UNL A   1      40.356  26.346  28.231  1.00  0.00     0.173 A 
ATOM     62  F   UNL A   1      42.475  29.170  27.355  1.00  0.00    -0.203 F 
ATOM     63  C   UNL A   1      41.996  27.200  26.161  1.00  0.00     0.198 A 
ATOM     64  C   UNL A   1      40.539  25.545  27.107  1.00  0.00     0.198 A 
ATOM     65  F   UNL A   1      39.550  25.908  29.210  1.00  0.00    -0.203 F 
ATOM     66  F   UNL A   1      42.759  27.632  25.147  1.00  0.00    -0.200 F 
ATOM     67  C   UNL A   1      41.352  25.976  26.070  1.00  0.00     0.200 A 
ATOM     68  F   UNL A   1      39.925  24.356  27.026  1.00  0.00    -0.200 F 
ATOM     69  F   UNL A   1      41.509  25.214  24.979  1.00  0.00    -0.200 F 
ENDBRANCH  45  59
BRANCH  46  70
ATOM     70  C   UNL A   1      39.322  33.144  36.471  1.00  0.00     0.064 A 
ATOM     71  C   UNL A   1      39.954  34.380  36.667  1.00  0.00     0.173 A 
ATOM     72  C   UNL A   1      38.447  32.694  37.469  1.00  0.00     0.173 A 
ATOM     73  F   UNL A   1      40.816  34.843  35.750  1.00  0.00    -0.203 F 
ATOM     74  C   UNL A   1      39.738  35.124  37.825  1.00  0.00     0.198 A 
ATOM     75  C   UNL A   1      38.209  33.453  38.614  1.00  0.00     0.198 A 
ATOM     76  F   UNL A   1      37.813  31.520  37.329  1.00  0.00    -0.203 F 
ATOM     77  F   UNL A   1      40.391  36.280  38.006  1.00  0.00    -0.200 F 
ATOM     78  C   UNL A   1      38.861  34.663  38.794  1.00  0.00     0.200 A 
ATOM     79  F   UNL A   1      37.351  33.009  39.542  1.00  0.00    -0.200 F 
ATOM     80  F   UNL A   1      38.651  35.380  39.907  1.00  0.00    -0.200 F 
ENDBRANCH  46  70
BRANCH  58  81
ATOM     81  C   UNL A   1      44.134  28.393  34.795  1.00  0.00     0.064 A 
ATOM     82  C   UNL A   1      44.035  27.221  35.558  1.00  0.00     0.173 A 
ATOM     83  C   UNL A   1      45.387  29.019  34.710  1.00  0.00     0.173 A 
ATOM     84  F   UNL A   1      42.856  26.594  35.683  1.00  0.00    -0.203 F 
ATOM     85  C   UNL A   1      45.143  26.710  36.230  1.00  0.00     0.198 A 
ATOM     86  C   UNL A   1      46.499  28.488  35.359  1.00  0.00     0.198 A 
ATOM     87  F   UNL A   1      45.537  30.139  33.988  1.00  0.00    -0.203 F 
ATOM     88  F   UNL A   1      45.014  25.614  36.992  1.00  0.00    -0.200 F 
ATOM     89  C   UNL A   1      46.373  27.339  36.124  1.00  0.00     0.200 A 
ATOM     90  F   UNL A   1      47.691  29.090  35.243  1.00  0.00    -0.200 F 
ATOM     91  F   UNL A   1      47.440  26.841  36.766  1.00  0.00    -0.200 F 
ENDBRANCH  58  81
ENDBRANCH  32  33
ENDBRANCH  24  27
ENDBRANCH  22  23
ENDBRANCH  21  22
ENDBRANCH  20  21
ENDBRANCH   1  20
TORSDOF 18
ENDMDL
MODEL 3
REMARK VINA RESULT:     -10.4      5.768     10.083
REMARK SMILES C=CCN(CC(=O)NCCCCNC(=O)c1ccc(-c2c3nc(c(-c4c(F)c(F)c(F)c(F)c4F)c4ccc([nH]4)c(-c4c(F)c(F)c(F)c(F)c4F)c4nc(c(-c5c(F)c(F)c(F)c(F)c5F)c5ccc2[nH]5)C=C4)C=C3)cc1)C(=O)CSc1cccs1
REMARK SMILES IDX 9 1 8 2 6 3 7 4 5 6 4 7 3 8 2 9 1 10 79 11 80 12 81 13 82 14
REMARK SMILES IDX 83 15 84 16 87 17 85 18 86 19 10 20 11 21 12 22 13 23 14 24
REMARK SMILES IDX 15 26 16 27 17 28 78 29 18 30 77 31 19 32 20 33 21 34 71 35
REMARK SMILES IDX 22 36 76 37 70 38 72 39 23 40 75 41 69 42 68 43 24 45 56 46
REMARK SMILES IDX 36 47 55 48 37 49 40 50 54 51 73 52 38 53 39 54 53 56 74 57
REMARK SMILES IDX 41 58 25 59 26 60 34 61 27 62 28 63 32 64 35 65 29 66 30 67
REMARK SMILES IDX 33 68 31 69 57 70 58 71 66 72 59 73 60 74 64 75 67 76 61 77
REMARK SMILES IDX 62 78 65 79 63 80 42 81 43 82 51 83 44 84 45 85 49 86 52 87
REMARK SMILES IDX 46 88 47 89 50 90 48 91
REMARK H PARENT 8 5 13 25 72 44 40 55
REMARK Flexibility Score: inf
ROOT
ATOM      1  C   UNL A   1      35.894  20.826  25.194  1.00  0.00     0.116 C 
ENDROOT
BRANCH   1   2
ATOM      2  N   UNL A   1      35.432  21.470  26.402  1.00  0.00    -0.355 N 
ATOM      3  C   UNL A   1      34.447  22.397  26.564  1.00  0.00     0.239 C 
ATOM      4  O   UNL A   1      34.150  22.716  27.718  1.00  0.00    -0.273 OA
ATOM      5  H   UNL A   1      35.896  21.201  27.227  1.00  0.00     0.163 HD
BRANCH   3   6
ATOM      6  C   UNL A   1      33.688  22.980  25.361  1.00  0.00     0.219 C 
BRANCH   6   7
ATOM      7  N   UNL A   1      32.316  22.480  25.183  1.00  0.00    -0.329 N 
BRANCH   7   8
ATOM      8  C   UNL A   1      32.120  21.031  25.166  1.00  0.00     0.147 C 
BRANCH   8   9
ATOM      9  C   UNL A   1      32.523  20.434  23.852  1.00  0.00    -0.014 C 
ATOM     10  C   UNL A   1      32.494  19.114  23.616  1.00  0.00     0.006 C 
ENDBRANCH   8   9
ENDBRANCH   7   8
BRANCH   7  11
ATOM     11  C   UNL A   1      31.195  23.293  25.014  1.00  0.00     0.233 C 
ATOM     12  O   UNL A   1      30.695  23.452  23.894  1.00  0.00    -0.274 OA
BRANCH  11  13
ATOM     13  C   UNL A   1      30.631  24.110  26.172  1.00  0.00     0.175 C 
BRANCH  13  14
ATOM     14  S   UNL A   1      30.159  25.808  25.767  1.00  0.00    -0.105 SA
BRANCH  14  15
ATOM     15  C   UNL A   1      31.702  26.569  25.449  1.00  0.00     0.060 A 
ATOM     16  C   UNL A   1      32.610  26.953  26.412  1.00  0.00     0.027 A 
ATOM     17  S   UNL A   1      32.294  26.836  23.871  1.00  0.00    -0.137 S 
ATOM     18  C   UNL A   1      33.810  27.471  25.844  1.00  0.00     0.013 A 
ATOM     19  C   UNL A   1      33.773  27.458  24.468  1.00  0.00     0.066 A 
ENDBRANCH  14  15
ENDBRANCH  13  14
ENDBRANCH  11  13
ENDBRANCH   7  11
ENDBRANCH   6   7
ENDBRANCH   3   6
ENDBRANCH   1   2
BRANCH   1  20
ATOM     20  C   UNL A   1      37.344  21.177  24.870  1.00  0.00     0.023 C 
BRANCH  20  21
ATOM     21  C   UNL A   1      38.324  20.005  24.954  1.00  0.00     0.023 C 
BRANCH  21  22
ATOM     22  C   UNL A   1      39.404  20.130  26.021  1.00  0.00     0.116 C 
BRANCH  22  23
ATOM     23  N   UNL A   1      40.399  19.070  25.965  1.00  0.00    -0.352 N 
ATOM     24  C   UNL A   1      41.763  19.164  26.100  1.00  0.00     0.251 C 
ATOM     25  H   UNL A   1      40.048  18.164  25.807  1.00  0.00     0.163 HD
ATOM     26  O   UNL A   1      42.473  18.177  25.925  1.00  0.00    -0.269 OA
BRANCH  24  27
ATOM     27  C   UNL A   1      42.378  20.468  26.419  1.00  0.00     0.039 A 
ATOM     28  C   UNL A   1      42.777  21.298  25.369  1.00  0.00     0.014 A 
ATOM     29  C   UNL A   1      42.534  20.884  27.745  1.00  0.00     0.014 A 
ATOM     30  C   UNL A   1      43.265  22.577  25.646  1.00  0.00     0.010 A 
ATOM     31  C   UNL A   1      42.955  22.183  28.016  1.00  0.00     0.010 A 
ATOM     32  C   UNL A   1      43.322  23.043  26.970  1.00  0.00    -0.014 A 
BRANCH  32  33
ATOM     33  C   UNL A   1      43.752  24.429  27.280  1.00  0.00     0.031 A 
ATOM     34  C   UNL A   1      42.743  25.453  27.718  1.00  0.00     0.074 A 
ATOM     35  C   UNL A   1      45.039  24.783  27.099  1.00  0.00     0.049 A 
ATOM     36  N   UNL A   1      42.909  26.728  27.963  1.00  0.00    -0.248 NA
ATOM     37  C   UNL A   1      41.356  24.987  27.875  1.00  0.00     0.031 C 
ATOM     38  C   UNL A   1      46.103  23.895  26.631  1.00  0.00     0.029 A 
ATOM     39  N   UNL A   1      45.669  25.990  27.276  1.00  0.00    -0.354 N 
ATOM     40  C   UNL A   1      41.651  27.217  28.287  1.00  0.00     0.074 A 
ATOM     41  C   UNL A   1      40.722  26.115  28.157  1.00  0.00     0.031 C 
ATOM     42  C   UNL A   1      47.257  24.579  26.578  1.00  0.00     0.029 A 
ATOM     43  C   UNL A   1      47.008  25.963  26.971  1.00  0.00     0.049 A 
ATOM     44  H   UNL A   1      45.204  26.799  27.593  1.00  0.00     0.167 HD
ATOM     45  C   UNL A   1      41.306  28.467  28.681  1.00  0.00     0.037 A 
ATOM     46  C   UNL A   1      47.929  26.945  26.998  1.00  0.00     0.037 A 
ATOM     47  C   UNL A   1      42.237  29.553  28.835  1.00  0.00     0.049 A 
ATOM     48  C   UNL A   1      47.517  28.325  27.435  1.00  0.00     0.074 A 
ATOM     49  C   UNL A   1      41.996  30.838  29.289  1.00  0.00     0.029 A 
ATOM     50  N   UNL A   1      43.589  29.482  28.534  1.00  0.00    -0.354 N 
ATOM     51  N   UNL A   1      46.339  28.759  27.808  1.00  0.00    -0.248 NA
ATOM     52  C   UNL A   1      48.569  29.352  27.459  1.00  0.00     0.031 C 
ATOM     53  C   UNL A   1      43.193  31.558  29.219  1.00  0.00     0.029 A 
ATOM     54  C   UNL A   1      44.191  30.708  28.772  1.00  0.00     0.049 A 
ATOM     55  H   UNL A   1      44.053  28.680  28.201  1.00  0.00     0.167 HD
ATOM     56  C   UNL A   1      46.510  30.095  28.140  1.00  0.00     0.074 A 
ATOM     57  C   UNL A   1      47.912  30.400  27.936  1.00  0.00     0.031 C 
ATOM     58  C   UNL A   1      45.590  30.992  28.573  1.00  0.00     0.037 A 
BRANCH  45  59
ATOM     59  C   UNL A   1      39.857  28.724  28.980  1.00  0.00     0.064 A 
ATOM     60  C   UNL A   1      39.322  28.518  30.260  1.00  0.00     0.173 A 
ATOM     61  C   UNL A   1      39.001  29.218  27.983  1.00  0.00     0.173 A 
ATOM     62  F   UNL A   1      40.095  28.037  31.246  1.00  0.00    -0.203 F 
ATOM     63  C   UNL A   1      37.978  28.767  30.525  1.00  0.00     0.198 A 
ATOM     64  C   UNL A   1      37.665  29.495  28.260  1.00  0.00     0.198 A 
ATOM     65  F   UNL A   1      39.462  29.438  26.743  1.00  0.00    -0.203 F 
ATOM     66  F   UNL A   1      37.478  28.514  31.742  1.00  0.00    -0.200 F 
ATOM     67  C   UNL A   1      37.152  29.263  29.527  1.00  0.00     0.200 A 
ATOM     68  F   UNL A   1      36.871  29.986  27.297  1.00  0.00    -0.200 F 
ATOM     69  F   UNL A   1      35.861  29.509  29.784  1.00  0.00    -0.200 F 
ENDBRANCH  45  59
BRANCH  46  70
ATOM     70  C   UNL A   1      49.337  26.655  26.622  1.00  0.00     0.064 A 
ATOM     71  C   UNL A   1      50.262  26.222  27.583  1.00  0.00     0.173 A 
ATOM     72  C   UNL A   1      49.789  26.807  25.304  1.00  0.00     0.173 A 
ATOM     73  F   UNL A   1      49.882  26.081  28.861  1.00  0.00    -0.203 F 
ATOM     74  C   UNL A   1      51.590  25.975  27.243  1.00  0.00     0.198 A 
ATOM     75  C   UNL A   1      51.111  26.532  24.960  1.00  0.00     0.198 A 
ATOM     76  F   UNL A   1      48.942  27.214  24.346  1.00  0.00    -0.203 F 
ATOM     77  F   UNL A   1      52.464  25.608  28.191  1.00  0.00    -0.200 F 
ATOM     78  C   UNL A   1      52.012  26.124  25.931  1.00  0.00     0.200 A 
ATOM     79  F   UNL A   1      51.511  26.665  23.688  1.00  0.00    -0.200 F 
ATOM     80  F   UNL A   1      53.289  25.885  25.604  1.00  0.00    -0.200 F 
ENDBRANCH  46  70
BRANCH  58  81
ATOM     81  C   UNL A   1      46.074  32.376  28.891  1.00  0.00     0.064 A 
ATOM     82  C   UNL A   1      46.070  33.398  27.931  1.00  0.00     0.173 A 
ATOM     83  C   UNL A   1      46.509  32.694  30.187  1.00  0.00     0.173 A 
ATOM     84  F   UNL A   1      45.678  33.142  26.674  1.00  0.00    -0.203 F 
ATOM     85  C   UNL A   1      46.508  34.681  28.250  1.00  0.00     0.198 A 
ATOM     86  C   UNL A   1      46.918  33.985  30.511  1.00  0.00     0.198 A 
ATOM     87  F   UNL A   1      46.527  31.755  31.145  1.00  0.00    -0.203 F 
ATOM     88  F   UNL A   1      46.541  35.630  27.303  1.00  0.00    -0.200 F 
ATOM     89  C   UNL A   1      46.924  34.975  29.539  1.00  0.00     0.200 A 
ATOM     90  F   UNL A   1      47.306  34.271  31.761  1.00  0.00    -0.200 F 
ATOM     91  F   UNL A   1      47.339  36.212  29.846  1.00  0.00    -0.200 F 
ENDBRANCH  58  81
ENDBRANCH  32  33
ENDBRANCH  24  27
ENDBRANCH  22  23
ENDBRANCH  21  22
ENDBRANCH  20  21
ENDBRANCH   1  20
TORSDOF 18
ENDMDL
