MODEL 1
REMARK VINA RESULT:     -13.1      0.000      0.000
REMARK SMILES O=C(CC[NH+]1CCC(n2nccc2NC(=O)c2ccccc2Cl)CC1)NCCCCNC(=O)c1ccc(-c2c3nc(c(-c4c(F)c(F)c(F)c(F)c4F)c4ccc([nH]4)c(-c4c(F)c(F)c(F)c(F)c4F)c4nc(c(-c5c(F)c(F)c(F)c(F)c5F)c5ccc2[nH]5)C=C4)C=C3)cc1
REMARK SMILES IDX 27 1 26 2 1 3 2 4 3 6 4 7 5 8 6 9 25 10 7 12 24 13 8 14 9 15
REMARK SMILES IDX 10 16 13 17 11 18 12 19 14 20 15 21 16 23 17 24 18 25 22 26
REMARK SMILES IDX 19 27 21 28 23 29 20 30 28 31 29 32 30 33 31 34 32 35 33 37
REMARK SMILES IDX 34 38 35 39 96 40 36 41 95 42 37 43 38 44 39 45 89 46 40 47
REMARK SMILES IDX 94 48 88 49 90 50 41 51 93 52 87 53 86 54 42 56 74 57 54 58
REMARK SMILES IDX 73 59 55 60 58 61 72 62 91 63 56 64 57 65 71 67 92 68 59 69
REMARK SMILES IDX 43 70 44 71 52 72 45 73 46 74 50 75 53 76 47 77 48 78 51 79
REMARK SMILES IDX 49 80 75 81 76 82 84 83 77 84 78 85 82 86 85 87 79 88 80 89
REMARK SMILES IDX 83 90 81 91 60 92 61 93 69 94 62 95 63 96 67 97 70 98 64 99
REMARK SMILES IDX 65 100 68 101 66 102
REMARK H PARENT 26 5 5 11 14 22 31 36 90 55 58 66
REMARK Flexibility Score: inf
ROOT
ATOM      1  C   UNL A   1      39.941  22.013  26.487  1.00  0.00     0.116 C 
ENDROOT
BRANCH   1   2
ATOM      2  N   UNL A   1      38.811  21.410  25.778  1.00  0.00    -0.356 N 
ATOM      3  O   UNL A   1      37.553  23.336  25.775  1.00  0.00    -0.275 OA
ATOM      4  C   UNL A   1      37.696  22.167  25.430  1.00  0.00     0.225 C 
ATOM      5  H   UNL A   1      38.840  20.454  25.543  1.00  0.00     0.163 HD
BRANCH   4   6
ATOM      6  C   UNL A   1      36.665  21.479  24.543  1.00  0.00     0.161 C 
BRANCH   6   7
ATOM      7  C   UNL A   1      35.544  20.739  25.309  1.00  0.00     0.272 C 
BRANCH   7   8
ATOM      8  N   UNL A   1      34.242  21.421  25.463  1.00  0.00    -0.334 N 
ATOM      9  C   UNL A   1      34.242  22.257  26.655  1.00  0.00     0.264 C 
ATOM     10  C   UNL A   1      33.702  21.930  24.208  1.00  0.00     0.264 C 
ATOM     11  H   UNL A   1      33.503  20.750  25.675  1.00  0.00     0.348 HD
ATOM     12  C   UNL A   1      33.164  23.312  26.692  1.00  0.00     0.089 C 
ATOM     13  C   UNL A   1      32.596  22.971  24.327  1.00  0.00     0.089 C 
ATOM     14  C   UNL A   1      33.028  24.024  25.327  1.00  0.00     0.121 C 
BRANCH  14  15
ATOM     15  N   UNL A   1      32.153  25.177  25.442  1.00  0.00    -0.246 N 
ATOM     16  N   UNL A   1      31.339  25.133  26.504  1.00  0.00    -0.179 NA
ATOM     17  C   UNL A   1      31.697  26.099  24.521  1.00  0.00     0.131 A 
ATOM     18  C   UNL A   1      30.184  25.494  25.972  1.00  0.00     0.137 A 
ATOM     19  C   UNL A   1      30.339  26.099  24.728  1.00  0.00     0.069 A 
BRANCH  17  20
ATOM     20  N   UNL A   1      32.392  26.806  23.562  1.00  0.00    -0.307 N 
ATOM     21  C   UNL A   1      32.764  28.190  23.627  1.00  0.00     0.258 C 
ATOM     22  H   UNL A   1      32.660  26.313  22.753  1.00  0.00     0.171 HD
ATOM     23  O   UNL A   1      33.073  28.698  22.557  1.00  0.00    -0.269 OA
BRANCH  21  24
ATOM     24  C   UNL A   1      32.782  28.979  24.873  1.00  0.00     0.058 A 
ATOM     25  C   UNL A   1      33.867  28.810  25.747  1.00  0.00     0.015 A 
ATOM     26  C   UNL A   1      31.734  29.840  25.224  1.00  0.00     0.053 A 
ATOM     27  C   UNL A   1      33.919  29.524  26.947  1.00  0.00     0.001 A 
ATOM     28  C   UNL A   1      31.792  30.550  26.428  1.00  0.00     0.021 A 
ATOM     29  Cl  UNL A   1      30.342  30.049  24.226  1.00  0.00    -0.083 Cl
ATOM     30  C   UNL A   1      32.884  30.394  27.286  1.00  0.00     0.002 A 
ENDBRANCH  21  24
ENDBRANCH  17  20
ENDBRANCH  14  15
ENDBRANCH   7   8
ENDBRANCH   6   7
ENDBRANCH   4   6
ENDBRANCH   1   2
BRANCH   1  31
ATOM     31  C   UNL A   1      40.989  21.025  27.042  1.00  0.00     0.023 C 
BRANCH  31  32
ATOM     32  C   UNL A   1      41.344  19.773  26.211  1.00  0.00     0.023 C 
BRANCH  32  33
ATOM     33  C   UNL A   1      42.688  19.090  26.513  1.00  0.00     0.116 C 
BRANCH  33  34
ATOM     34  N   UNL A   1      43.671  19.038  25.424  1.00  0.00    -0.352 N 
ATOM     35  C   UNL A   1      44.227  20.093  24.689  1.00  0.00     0.251 C 
ATOM     36  H   UNL A   1      43.983  18.138  25.176  1.00  0.00     0.163 HD
ATOM     37  O   UNL A   1      44.765  19.859  23.610  1.00  0.00    -0.269 OA
BRANCH  35  38
ATOM     38  C   UNL A   1      44.175  21.504  25.184  1.00  0.00     0.039 A 
ATOM     39  C   UNL A   1      43.429  22.535  24.576  1.00  0.00     0.014 A 
ATOM     40  C   UNL A   1      44.918  21.828  26.295  1.00  0.00     0.014 A 
ATOM     41  C   UNL A   1      43.348  23.827  25.172  1.00  0.00     0.010 A 
ATOM     42  C   UNL A   1      44.717  23.026  26.946  1.00  0.00     0.010 A 
ATOM     43  C   UNL A   1      43.976  24.078  26.400  1.00  0.00    -0.014 A 
BRANCH  43  44
ATOM     44  C   UNL A   1      43.857  25.311  27.238  1.00  0.00     0.031 A 
ATOM     45  C   UNL A   1      44.825  26.441  26.964  1.00  0.00     0.074 A 
ATOM     46  C   UNL A   1      42.683  25.661  27.834  1.00  0.00     0.049 A 
ATOM     47  N   UNL A   1      46.070  26.624  27.300  1.00  0.00    -0.248 NA
ATOM     48  C   UNL A   1      44.366  27.449  25.979  1.00  0.00     0.031 C 
ATOM     49  C   UNL A   1      41.400  24.937  27.846  1.00  0.00     0.029 A 
ATOM     50  N   UNL A   1      42.354  26.834  28.465  1.00  0.00    -0.354 N 
ATOM     51  C   UNL A   1      46.411  27.829  26.660  1.00  0.00     0.074 A 
ATOM     52  C   UNL A   1      45.549  27.878  25.530  1.00  0.00     0.031 C 
ATOM     53  C   UNL A   1      40.404  25.756  28.253  1.00  0.00     0.029 A 
ATOM     54  C   UNL A   1      40.995  26.984  28.741  1.00  0.00     0.049 A 
ATOM     55  H   UNL A   1      43.024  27.515  28.703  1.00  0.00     0.167 HD
ATOM     56  C   UNL A   1      46.800  28.975  27.312  1.00  0.00     0.037 A 
ATOM     57  C   UNL A   1      40.396  28.017  29.382  1.00  0.00     0.037 A 
ATOM     58  C   UNL A   1      46.914  28.705  28.718  1.00  0.00     0.049 A 
ATOM     59  C   UNL A   1      41.451  28.751  30.116  1.00  0.00     0.074 A 
ATOM     60  C   UNL A   1      47.751  28.003  29.552  1.00  0.00     0.029 A 
ATOM     61  N   UNL A   1      45.764  28.968  29.413  1.00  0.00    -0.354 N 
ATOM     62  N   UNL A   1      42.122  28.242  31.108  1.00  0.00    -0.248 NA
ATOM     63  C   UNL A   1      41.994  29.987  29.560  1.00  0.00     0.031 C 
ATOM     64  C   UNL A   1      46.994  27.721  30.726  1.00  0.00     0.029 A 
ATOM     65  C   UNL A   1      45.733  28.297  30.602  1.00  0.00     0.049 A 
ATOM     66  H   UNL A   1      45.049  29.566  29.095  1.00  0.00     0.167 HD
ATOM     67  C   UNL A   1      43.361  28.833  31.018  1.00  0.00     0.074 A 
ATOM     68  C   UNL A   1      43.170  30.014  30.190  1.00  0.00     0.031 C 
ATOM     69  C   UNL A   1      44.483  28.114  31.300  1.00  0.00     0.037 A 
BRANCH  56  70
ATOM     70  C   UNL A   1      46.577  30.450  26.871  1.00  0.00     0.064 A 
ATOM     71  C   UNL A   1      47.715  31.288  26.792  1.00  0.00     0.173 A 
ATOM     72  C   UNL A   1      45.348  31.148  26.750  1.00  0.00     0.173 A 
ATOM     73  F   UNL A   1      48.948  30.768  26.876  1.00  0.00    -0.203 F 
ATOM     74  C   UNL A   1      47.627  32.686  26.689  1.00  0.00     0.198 A 
ATOM     75  C   UNL A   1      45.266  32.536  26.599  1.00  0.00     0.198 A 
ATOM     76  F   UNL A   1      44.150  30.571  26.858  1.00  0.00    -0.203 F 
ATOM     77  F   UNL A   1      48.741  33.429  26.728  1.00  0.00    -0.200 F 
ATOM     78  C   UNL A   1      46.400  33.309  26.599  1.00  0.00     0.200 A 
ATOM     79  F   UNL A   1      44.057  33.112  26.520  1.00  0.00    -0.200 F 
ATOM     80  F   UNL A   1      46.303  34.644  26.547  1.00  0.00    -0.200 F 
ENDBRANCH  56  70
BRANCH  57  81
ATOM     81  C   UNL A   1      38.998  28.502  29.398  1.00  0.00     0.064 A 
ATOM     82  C   UNL A   1      38.264  28.525  30.597  1.00  0.00     0.173 A 
ATOM     83  C   UNL A   1      38.465  29.228  28.319  1.00  0.00     0.173 A 
ATOM     84  F   UNL A   1      38.717  27.872  31.677  1.00  0.00    -0.203 F 
ATOM     85  C   UNL A   1      37.101  29.286  30.734  1.00  0.00     0.198 A 
ATOM     86  C   UNL A   1      37.297  29.982  28.454  1.00  0.00     0.198 A 
ATOM     87  F   UNL A   1      39.127  29.300  27.154  1.00  0.00    -0.203 F 
ATOM     88  F   UNL A   1      36.484  29.352  31.921  1.00  0.00    -0.200 F 
ATOM     89  C   UNL A   1      36.628  30.030  29.667  1.00  0.00     0.200 A 
ATOM     90  F   UNL A   1      36.864  30.728  27.427  1.00  0.00    -0.200 F 
ATOM     91  F   UNL A   1      35.563  30.827  29.821  1.00  0.00    -0.200 F 
ENDBRANCH  57  81
BRANCH  69  92
ATOM     92  C   UNL A   1      44.360  26.955  32.240  1.00  0.00     0.064 A 
ATOM     93  C   UNL A   1      44.339  25.605  31.856  1.00  0.00     0.173 A 
ATOM     94  C   UNL A   1      44.356  27.235  33.612  1.00  0.00     0.173 A 
ATOM     95  F   UNL A   1      44.411  25.251  30.569  1.00  0.00    -0.203 F 
ATOM     96  C   UNL A   1      44.289  24.586  32.805  1.00  0.00     0.198 A 
ATOM     97  C   UNL A   1      44.348  26.217  34.558  1.00  0.00     0.198 A 
ATOM     98  F   UNL A   1      44.406  28.508  34.036  1.00  0.00    -0.203 F 
ATOM     99  F   UNL A   1      44.256  23.304  32.410  1.00  0.00    -0.200 F 
ATOM    100  C   UNL A   1      44.306  24.892  34.155  1.00  0.00     0.200 A 
ATOM    101  F   UNL A   1      44.409  26.522  35.862  1.00  0.00    -0.200 F 
ATOM    102  F   UNL A   1      44.304  23.912  35.068  1.00  0.00    -0.200 F 
ENDBRANCH  69  92
ENDBRANCH  43  44
ENDBRANCH  35  38
ENDBRANCH  33  34
ENDBRANCH  32  33
ENDBRANCH  31  32
ENDBRANCH   1  31
TORSDOF 16
ENDMDL
MODEL 2
REMARK VINA RESULT:     -13.1      1.079      1.399
REMARK SMILES O=C(CC[NH+]1CCC(n2nccc2NC(=O)c2ccccc2Cl)CC1)NCCCCNC(=O)c1ccc(-c2c3nc(c(-c4c(F)c(F)c(F)c(F)c4F)c4ccc([nH]4)c(-c4c(F)c(F)c(F)c(F)c4F)c4nc(c(-c5c(F)c(F)c(F)c(F)c5F)c5ccc2[nH]5)C=C4)C=C3)cc1
REMARK SMILES IDX 27 1 26 2 1 3 2 4 3 6 4 7 5 8 6 9 25 10 7 12 24 13 8 14 9 15
REMARK SMILES IDX 10 16 13 17 11 18 12 19 14 20 15 21 16 23 17 24 18 25 22 26
REMARK SMILES IDX 19 27 21 28 23 29 20 30 28 31 29 32 30 33 31 34 32 35 33 37
REMARK SMILES IDX 34 38 35 39 96 40 36 41 95 42 37 43 38 44 39 45 89 46 40 47
REMARK SMILES IDX 94 48 88 49 90 50 41 51 93 52 87 53 86 54 42 56 74 57 54 58
REMARK SMILES IDX 73 59 55 60 58 61 72 62 91 63 56 64 57 65 71 67 92 68 59 69
REMARK SMILES IDX 43 70 44 71 52 72 45 73 46 74 50 75 53 76 47 77 48 78 51 79
REMARK SMILES IDX 49 80 75 81 76 82 84 83 77 84 78 85 82 86 85 87 79 88 80 89
REMARK SMILES IDX 83 90 81 91 60 92 61 93 69 94 62 95 63 96 67 97 70 98 64 99
REMARK SMILES IDX 65 100 68 101 66 102
REMARK H PARENT 26 5 5 11 14 22 31 36 90 55 58 66
REMARK Flexibility Score: inf
ROOT
ATOM      1  C   UNL A   1      40.774  21.861  26.486  1.00  0.00     0.116 C 
ENDROOT
BRANCH   1   2
ATOM      2  N   UNL A   1      39.455  21.450  25.999  1.00  0.00    -0.356 N 
ATOM      3  O   UNL A   1      38.497  23.519  26.308  1.00  0.00    -0.275 OA
ATOM      4  C   UNL A   1      38.408  22.362  25.906  1.00  0.00     0.225 C 
ATOM      5  H   UNL A   1      39.307  20.513  25.734  1.00  0.00     0.163 HD
BRANCH   4   6
ATOM      6  C   UNL A   1      37.140  21.864  25.223  1.00  0.00     0.161 C 
BRANCH   6   7
ATOM      7  C   UNL A   1      35.876  21.884  26.113  1.00  0.00     0.272 C 
BRANCH   7   8
ATOM      8  N   UNL A   1      34.791  22.821  25.755  1.00  0.00    -0.334 N 
ATOM      9  C   UNL A   1      35.318  23.947  24.996  1.00  0.00     0.264 C 
ATOM     10  C   UNL A   1      33.567  22.155  25.327  1.00  0.00     0.264 C 
ATOM     11  H   UNL A   1      34.420  23.282  26.586  1.00  0.00     0.348 HD
ATOM     12  C   UNL A   1      34.287  24.729  24.219  1.00  0.00     0.089 C 
ATOM     13  C   UNL A   1      32.562  23.017  24.573  1.00  0.00     0.089 C 
ATOM     14  C   UNL A   1      33.297  23.787  23.495  1.00  0.00     0.121 C 
BRANCH  14  15
ATOM     15  N   UNL A   1      32.459  24.542  22.580  1.00  0.00    -0.246 N 
ATOM     16  N   UNL A   1      32.932  24.587  21.328  1.00  0.00    -0.179 NA
ATOM     17  C   UNL A   1      31.517  25.531  22.777  1.00  0.00     0.131 A 
ATOM     18  C   UNL A   1      32.780  25.864  21.029  1.00  0.00     0.137 A 
ATOM     19  C   UNL A   1      31.912  26.514  21.902  1.00  0.00     0.069 A 
BRANCH  17  20
ATOM     20  N   UNL A   1      30.472  25.588  23.676  1.00  0.00    -0.307 N 
ATOM     21  C   UNL A   1      30.479  26.249  24.949  1.00  0.00     0.258 C 
ATOM     22  H   UNL A   1      29.639  25.130  23.419  1.00  0.00     0.171 HD
ATOM     23  O   UNL A   1      29.593  25.906  25.720  1.00  0.00    -0.269 OA
BRANCH  21  24
ATOM     24  C   UNL A   1      31.469  27.269  25.341  1.00  0.00     0.058 A 
ATOM     25  C   UNL A   1      32.458  26.908  26.270  1.00  0.00     0.015 A 
ATOM     26  C   UNL A   1      31.417  28.582  24.857  1.00  0.00     0.053 A 
ATOM     27  C   UNL A   1      33.407  27.845  26.684  1.00  0.00     0.001 A 
ATOM     28  C   UNL A   1      32.370  29.516  25.278  1.00  0.00     0.021 A 
ATOM     29  Cl  UNL A   1      30.193  29.111  23.761  1.00  0.00    -0.083 Cl
ATOM     30  C   UNL A   1      33.364  29.147  26.187  1.00  0.00     0.002 A 
ENDBRANCH  21  24
ENDBRANCH  17  20
ENDBRANCH  14  15
ENDBRANCH   7   8
ENDBRANCH   6   7
ENDBRANCH   4   6
ENDBRANCH   1   2
BRANCH   1  31
ATOM     31  C   UNL A   1      41.373  20.994  27.614  1.00  0.00     0.023 C 
BRANCH  31  32
ATOM     32  C   UNL A   1      42.233  19.770  27.234  1.00  0.00     0.023 C 
BRANCH  32  33
ATOM     33  C   UNL A   1      42.281  19.382  25.747  1.00  0.00     0.116 C 
BRANCH  33  34
ATOM     34  N   UNL A   1      43.607  19.204  25.146  1.00  0.00    -0.352 N 
ATOM     35  C   UNL A   1      44.528  20.180  24.740  1.00  0.00     0.251 C 
ATOM     36  H   UNL A   1      43.890  18.271  25.009  1.00  0.00     0.163 HD
ATOM     37  O   UNL A   1      45.428  19.873  23.961  1.00  0.00    -0.269 OA
BRANCH  35  38
ATOM     38  C   UNL A   1      44.439  21.591  25.228  1.00  0.00     0.039 A 
ATOM     39  C   UNL A   1      43.734  22.619  24.569  1.00  0.00     0.014 A 
ATOM     40  C   UNL A   1      45.103  21.919  26.386  1.00  0.00     0.014 A 
ATOM     41  C   UNL A   1      43.609  23.912  25.155  1.00  0.00     0.010 A 
ATOM     42  C   UNL A   1      44.856  23.117  27.020  1.00  0.00     0.010 A 
ATOM     43  C   UNL A   1      44.151  24.166  26.423  1.00  0.00    -0.014 A 
BRANCH  43  44
ATOM     44  C   UNL A   1      43.972  25.400  27.249  1.00  0.00     0.031 A 
ATOM     45  C   UNL A   1      44.902  26.563  26.982  1.00  0.00     0.074 A 
ATOM     46  C   UNL A   1      42.776  25.711  27.821  1.00  0.00     0.049 A 
ATOM     47  N   UNL A   1      46.134  26.796  27.338  1.00  0.00    -0.248 NA
ATOM     48  C   UNL A   1      44.423  27.546  25.981  1.00  0.00     0.031 C 
ATOM     49  C   UNL A   1      41.520  24.940  27.818  1.00  0.00     0.029 A 
ATOM     50  N   UNL A   1      42.393  26.875  28.437  1.00  0.00    -0.354 N 
ATOM     51  C   UNL A   1      46.440  28.007  26.693  1.00  0.00     0.074 A 
ATOM     52  C   UNL A   1      45.597  28.015  25.548  1.00  0.00     0.031 C 
ATOM     53  C   UNL A   1      40.488  25.724  28.202  1.00  0.00     0.029 A 
ATOM     54  C   UNL A   1      41.024  26.977  28.689  1.00  0.00     0.049 A 
ATOM     55  H   UNL A   1      43.033  27.583  28.681  1.00  0.00     0.167 HD
ATOM     56  C   UNL A   1      46.776  29.172  27.342  1.00  0.00     0.037 A 
ATOM     57  C   UNL A   1      40.377  27.992  29.311  1.00  0.00     0.037 A 
ATOM     58  C   UNL A   1      46.874  28.916  28.752  1.00  0.00     0.049 A 
ATOM     59  C   UNL A   1      41.391  28.770  30.057  1.00  0.00     0.074 A 
ATOM     60  C   UNL A   1      47.723  28.253  29.606  1.00  0.00     0.029 A 
ATOM     61  N   UNL A   1      45.704  29.142  29.425  1.00  0.00    -0.354 N 
ATOM     62  N   UNL A   1      42.063  28.293  31.065  1.00  0.00    -0.248 NA
ATOM     63  C   UNL A   1      41.896  30.021  29.500  1.00  0.00     0.031 C 
ATOM     64  C   UNL A   1      46.957  27.952  30.770  1.00  0.00     0.029 A 
ATOM     65  C   UNL A   1      45.678  28.479  30.619  1.00  0.00     0.049 A 
ATOM     66  H   UNL A   1      44.973  29.711  29.090  1.00  0.00     0.167 HD
ATOM     67  C   UNL A   1      43.280  28.929  30.991  1.00  0.00     0.074 A 
ATOM     68  C   UNL A   1      43.060  30.097  30.150  1.00  0.00     0.031 C 
ATOM     69  C   UNL A   1      44.423  28.255  31.297  1.00  0.00     0.037 A 
BRANCH  56  70
ATOM     70  C   UNL A   1      46.505  30.633  26.885  1.00  0.00     0.064 A 
ATOM     71  C   UNL A   1      47.614  31.511  26.811  1.00  0.00     0.173 A 
ATOM     72  C   UNL A   1      45.254  31.287  26.746  1.00  0.00     0.173 A 
ATOM     73  F   UNL A   1      48.864  31.035  26.911  1.00  0.00    -0.203 F 
ATOM     74  C   UNL A   1      47.479  32.903  26.694  1.00  0.00     0.198 A 
ATOM     75  C   UNL A   1      45.125  32.670  26.581  1.00  0.00     0.198 A 
ATOM     76  F   UNL A   1      44.076  30.669  26.847  1.00  0.00    -0.203 F 
ATOM     77  F   UNL A   1      48.565  33.686  26.737  1.00  0.00    -0.200 F 
ATOM     78  C   UNL A   1      46.231  33.483  26.585  1.00  0.00     0.200 A 
ATOM     79  F   UNL A   1      43.897  33.202  26.485  1.00  0.00    -0.200 F 
ATOM     80  F   UNL A   1      46.088  34.812  26.520  1.00  0.00    -0.200 F 
ENDBRANCH  56  70
BRANCH  57  81
ATOM     81  C   UNL A   1      38.961  28.424  29.299  1.00  0.00     0.064 A 
ATOM     82  C   UNL A   1      38.232  28.514  30.499  1.00  0.00     0.173 A 
ATOM     83  C   UNL A   1      38.397  29.042  28.171  1.00  0.00     0.173 A 
ATOM     84  F   UNL A   1      38.715  27.966  31.623  1.00  0.00    -0.203 F 
ATOM     85  C   UNL A   1      37.042  29.240  30.583  1.00  0.00     0.198 A 
ATOM     86  C   UNL A   1      37.201  29.762  28.255  1.00  0.00     0.198 A 
ATOM     87  F   UNL A   1      39.050  29.047  26.999  1.00  0.00    -0.203 F 
ATOM     88  F   UNL A   1      36.428  29.376  31.766  1.00  0.00    -0.200 F 
ATOM     89  C   UNL A   1      36.537  29.880  29.465  1.00  0.00     0.200 A 
ATOM     90  F   UNL A   1      36.736  30.407  27.176  1.00  0.00    -0.200 F 
ATOM     91  F   UNL A   1      35.443  30.647  29.564  1.00  0.00    -0.200 F 
ENDBRANCH  57  81
BRANCH  69  92
ATOM     92  C   UNL A   1      44.327  27.099  32.245  1.00  0.00     0.064 A 
ATOM     93  C   UNL A   1      44.329  25.747  31.868  1.00  0.00     0.173 A 
ATOM     94  C   UNL A   1      44.325  27.388  33.615  1.00  0.00     0.173 A 
ATOM     95  F   UNL A   1      44.401  25.387  30.583  1.00  0.00    -0.203 F 
ATOM     96  C   UNL A   1      44.304  24.733  32.824  1.00  0.00     0.198 A 
ATOM     97  C   UNL A   1      44.342  26.375  34.567  1.00  0.00     0.198 A 
ATOM     98  F   UNL A   1      44.354  28.663  34.032  1.00  0.00    -0.203 F 
ATOM     99  F   UNL A   1      44.292  23.448  32.436  1.00  0.00    -0.200 F 
ATOM    100  C   UNL A   1      44.322  25.047  34.172  1.00  0.00     0.200 A 
ATOM    101  F   UNL A   1      44.404  26.688  35.869  1.00  0.00    -0.200 F 
ATOM    102  F   UNL A   1      44.344  24.072  35.091  1.00  0.00    -0.200 F 
ENDBRANCH  69  92
ENDBRANCH  43  44
ENDBRANCH  35  38
ENDBRANCH  33  34
ENDBRANCH  32  33
ENDBRANCH  31  32
ENDBRANCH   1  31
TORSDOF 16
ENDMDL
MODEL 3
REMARK VINA RESULT:     -12.5      1.140      1.576
REMARK SMILES O=C(CC[NH+]1CCC(n2nccc2NC(=O)c2ccccc2Cl)CC1)NCCCCNC(=O)c1ccc(-c2c3nc(c(-c4c(F)c(F)c(F)c(F)c4F)c4ccc([nH]4)c(-c4c(F)c(F)c(F)c(F)c4F)c4nc(c(-c5c(F)c(F)c(F)c(F)c5F)c5ccc2[nH]5)C=C4)C=C3)cc1
REMARK SMILES IDX 27 1 26 2 1 3 2 4 3 6 4 7 5 8 6 9 25 10 7 12 24 13 8 14 9 15
REMARK SMILES IDX 10 16 13 17 11 18 12 19 14 20 15 21 16 23 17 24 18 25 22 26
REMARK SMILES IDX 19 27 21 28 23 29 20 30 28 31 29 32 30 33 31 34 32 35 33 37
REMARK SMILES IDX 34 38 35 39 96 40 36 41 95 42 37 43 38 44 39 45 89 46 40 47
REMARK SMILES IDX 94 48 88 49 90 50 41 51 93 52 87 53 86 54 42 56 74 57 54 58
REMARK SMILES IDX 73 59 55 60 58 61 72 62 91 63 56 64 57 65 71 67 92 68 59 69
REMARK SMILES IDX 43 70 44 71 52 72 45 73 46 74 50 75 53 76 47 77 48 78 51 79
REMARK SMILES IDX 49 80 75 81 76 82 84 83 77 84 78 85 82 86 85 87 79 88 80 89
REMARK SMILES IDX 83 90 81 91 60 92 61 93 69 94 62 95 63 96 67 97 70 98 64 99
REMARK SMILES IDX 65 100 68 101 66 102
REMARK H PARENT 26 5 5 11 14 22 31 36 90 55 58 66
REMARK Flexibility Score: inf
ROOT
ATOM      1  C   UNL A   1      41.947  19.363  26.548  1.00  0.00     0.116 C 
ENDROOT
BRANCH   1   2
ATOM      2  N   UNL A   1      40.917  20.306  26.110  1.00  0.00    -0.356 N 
ATOM      3  O   UNL A   1      40.802  21.399  28.131  1.00  0.00    -0.275 OA
ATOM      4  C   UNL A   1      40.454  21.308  26.957  1.00  0.00     0.225 C 
ATOM      5  H   UNL A   1      40.545  20.231  25.200  1.00  0.00     0.163 HD
BRANCH   4   6
ATOM      6  C   UNL A   1      39.514  22.334  26.336  1.00  0.00     0.161 C 
BRANCH   6   7
ATOM      7  C   UNL A   1      38.277  21.735  25.628  1.00  0.00     0.272 C 
BRANCH   7   8
ATOM      8  N   UNL A   1      36.944  22.246  26.009  1.00  0.00    -0.334 N 
ATOM      9  C   UNL A   1      36.870  23.685  25.799  1.00  0.00     0.264 C 
ATOM     10  C   UNL A   1      35.849  21.384  25.582  1.00  0.00     0.264 C 
ATOM     11  H   UNL A   1      36.801  22.172  27.016  1.00  0.00     0.348 HD
ATOM     12  C   UNL A   1      35.472  24.248  25.738  1.00  0.00     0.089 C 
ATOM     13  C   UNL A   1      34.462  22.015  25.574  1.00  0.00     0.089 C 
ATOM     14  C   UNL A   1      34.546  23.358  24.877  1.00  0.00     0.121 C 
BRANCH  14  15
ATOM     15  N   UNL A   1      33.277  24.025  24.644  1.00  0.00    -0.246 N 
ATOM     16  N   UNL A   1      32.267  23.534  25.373  1.00  0.00    -0.179 NA
ATOM     17  C   UNL A   1      32.793  24.766  23.584  1.00  0.00     0.131 A 
ATOM     18  C   UNL A   1      31.307  23.438  24.472  1.00  0.00     0.137 A 
ATOM     19  C   UNL A   1      31.577  24.180  23.326  1.00  0.00     0.069 A 
BRANCH  17  20
ATOM     20  N   UNL A   1      33.387  25.795  22.883  1.00  0.00    -0.307 N 
ATOM     21  C   UNL A   1      33.379  27.184  23.241  1.00  0.00     0.258 C 
ATOM     22  H   UNL A   1      33.863  25.552  22.056  1.00  0.00     0.171 HD
ATOM     23  O   UNL A   1      33.666  27.957  22.336  1.00  0.00    -0.269 OA
BRANCH  21  24
ATOM     24  C   UNL A   1      33.049  27.685  24.588  1.00  0.00     0.058 A 
ATOM     25  C   UNL A   1      34.078  27.741  25.542  1.00  0.00     0.015 A 
ATOM     26  C   UNL A   1      31.746  28.052  24.948  1.00  0.00     0.053 A 
ATOM     27  C   UNL A   1      33.811  28.193  26.836  1.00  0.00     0.001 A 
ATOM     28  C   UNL A   1      31.486  28.502  26.247  1.00  0.00     0.021 A 
ATOM     29  Cl  UNL A   1      30.424  27.950  23.845  1.00  0.00    -0.083 Cl
ATOM     30  C   UNL A   1      32.517  28.574  27.188  1.00  0.00     0.002 A 
ENDBRANCH  21  24
ENDBRANCH  17  20
ENDBRANCH  14  15
ENDBRANCH   7   8
ENDBRANCH   6   7
ENDBRANCH   4   6
ENDBRANCH   1   2
BRANCH   1  31
ATOM     31  C   UNL A   1      42.958  18.923  25.467  1.00  0.00     0.023 C 
BRANCH  31  32
ATOM     32  C   UNL A   1      44.341  18.402  25.910  1.00  0.00     0.023 C 
BRANCH  32  33
ATOM     33  C   UNL A   1      45.576  19.141  25.367  1.00  0.00     0.116 C 
BRANCH  33  34
ATOM     34  N   UNL A   1      45.429  19.827  24.078  1.00  0.00    -0.352 N 
ATOM     35  C   UNL A   1      44.875  21.087  23.809  1.00  0.00     0.251 C 
ATOM     36  H   UNL A   1      45.766  19.337  23.294  1.00  0.00     0.163 HD
ATOM     37  O   UNL A   1      44.528  21.361  22.663  1.00  0.00    -0.269 OA
BRANCH  35  38
ATOM     38  C   UNL A   1      44.689  22.106  24.889  1.00  0.00     0.039 A 
ATOM     39  C   UNL A   1      45.554  22.267  25.990  1.00  0.00     0.014 A 
ATOM     40  C   UNL A   1      43.592  22.931  24.817  1.00  0.00     0.014 A 
ATOM     41  C   UNL A   1      45.366  23.331  26.918  1.00  0.00     0.010 A 
ATOM     42  C   UNL A   1      43.500  24.044  25.625  1.00  0.00     0.010 A 
ATOM     43  C   UNL A   1      44.338  24.264  26.721  1.00  0.00    -0.014 A 
BRANCH  43  44
ATOM     44  C   UNL A   1      44.102  25.524  27.494  1.00  0.00     0.031 A 
ATOM     45  C   UNL A   1      44.998  26.706  27.196  1.00  0.00     0.074 A 
ATOM     46  C   UNL A   1      42.886  25.816  28.033  1.00  0.00     0.049 A 
ATOM     47  N   UNL A   1      46.214  26.994  27.563  1.00  0.00    -0.248 NA
ATOM     48  C   UNL A   1      44.504  27.631  26.148  1.00  0.00     0.031 C 
ATOM     49  C   UNL A   1      41.657  25.003  28.040  1.00  0.00     0.029 A 
ATOM     50  N   UNL A   1      42.453  26.990  28.594  1.00  0.00    -0.354 N 
ATOM     51  C   UNL A   1      46.491  28.189  26.875  1.00  0.00     0.074 A 
ATOM     52  C   UNL A   1      45.669  28.122  25.716  1.00  0.00     0.031 C 
ATOM     53  C   UNL A   1      40.593  25.766  28.374  1.00  0.00     0.029 A 
ATOM     54  C   UNL A   1      41.077  27.055  28.819  1.00  0.00     0.049 A 
ATOM     55  H   UNL A   1      43.064  27.728  28.821  1.00  0.00     0.167 HD
ATOM     56  C   UNL A   1      46.776  29.389  27.482  1.00  0.00     0.037 A 
ATOM     57  C   UNL A   1      40.385  28.071  29.388  1.00  0.00     0.037 A 
ATOM     58  C   UNL A   1      46.858  29.194  28.903  1.00  0.00     0.049 A 
ATOM     59  C   UNL A   1      41.359  28.913  30.119  1.00  0.00     0.074 A 
ATOM     60  C   UNL A   1      47.712  28.594  29.797  1.00  0.00     0.029 A 
ATOM     61  N   UNL A   1      45.668  29.406  29.546  1.00  0.00    -0.354 N 
ATOM     62  N   UNL A   1      42.028  28.500  31.157  1.00  0.00    -0.248 NA
ATOM     63  C   UNL A   1      41.833  30.157  29.520  1.00  0.00     0.031 C 
ATOM     64  C   UNL A   1      46.935  28.314  30.959  1.00  0.00     0.029 A 
ATOM     65  C   UNL A   1      45.642  28.791  30.765  1.00  0.00     0.049 A 
ATOM     66  H   UNL A   1      44.925  29.936  29.176  1.00  0.00     0.167 HD
ATOM     67  C   UNL A   1      43.225  29.173  31.077  1.00  0.00     0.074 A 
ATOM     68  C   UNL A   1      42.981  30.298  30.186  1.00  0.00     0.031 C 
ATOM     69  C   UNL A   1      44.384  28.551  31.430  1.00  0.00     0.037 A 
BRANCH  56  70
ATOM     70  C   UNL A   1      46.466  30.821  26.962  1.00  0.00     0.064 A 
ATOM     71  C   UNL A   1      47.551  31.722  26.839  1.00  0.00     0.173 A 
ATOM     72  C   UNL A   1      45.197  31.436  26.803  1.00  0.00     0.173 A 
ATOM     73  F   UNL A   1      48.813  31.284  26.951  1.00  0.00    -0.203 F 
ATOM     74  C   UNL A   1      47.379  33.104  26.661  1.00  0.00     0.198 A 
ATOM     75  C   UNL A   1      45.031  32.807  26.577  1.00  0.00     0.198 A 
ATOM     76  F   UNL A   1      44.036  30.794  26.940  1.00  0.00    -0.203 F 
ATOM     77  F   UNL A   1      48.445  33.915  26.660  1.00  0.00    -0.200 F 
ATOM     78  C   UNL A   1      46.117  33.647  26.536  1.00  0.00     0.200 A 
ATOM     79  F   UNL A   1      43.790  33.303  26.466  1.00  0.00    -0.200 F 
ATOM     80  F   UNL A   1      45.939  34.968  26.412  1.00  0.00    -0.200 F 
ENDBRANCH  56  70
BRANCH  57  81
ATOM     81  C   UNL A   1      38.956  28.454  29.335  1.00  0.00     0.064 A 
ATOM     82  C   UNL A   1      38.208  28.583  30.518  1.00  0.00     0.173 A 
ATOM     83  C   UNL A   1      38.389  28.992  28.168  1.00  0.00     0.173 A 
ATOM     84  F   UNL A   1      38.691  28.112  31.677  1.00  0.00    -0.203 F 
ATOM     85  C   UNL A   1      36.993  29.271  30.549  1.00  0.00     0.198 A 
ATOM     86  C   UNL A   1      37.169  29.674  28.198  1.00  0.00     0.198 A 
ATOM     87  F   UNL A   1      39.059  28.957  27.006  1.00  0.00    -0.203 F 
ATOM     88  F   UNL A   1      36.357  29.450  31.714  1.00  0.00    -0.200 F 
ATOM     89  C   UNL A   1      36.484  29.833  29.391  1.00  0.00     0.200 A 
ATOM     90  F   UNL A   1      36.699  30.245  27.080  1.00  0.00    -0.200 F 
ATOM     91  F   UNL A   1      35.363  30.567  29.435  1.00  0.00    -0.200 F 
ENDBRANCH  57  81
BRANCH  69  92
ATOM     92  C   UNL A   1      44.309  27.432  32.422  1.00  0.00     0.064 A 
ATOM     93  C   UNL A   1      44.340  26.066  32.099  1.00  0.00     0.173 A 
ATOM     94  C   UNL A   1      44.298  27.773  33.781  1.00  0.00     0.173 A 
ATOM     95  F   UNL A   1      44.422  25.658  30.829  1.00  0.00    -0.203 F 
ATOM     96  C   UNL A   1      44.333  25.090  33.093  1.00  0.00     0.198 A 
ATOM     97  C   UNL A   1      44.333  26.799  34.771  1.00  0.00     0.198 A 
ATOM     98  F   UNL A   1      44.299  29.065  34.147  1.00  0.00    -0.203 F 
ATOM     99  F   UNL A   1      44.349  23.791  32.756  1.00  0.00    -0.200 F 
ATOM    100  C   UNL A   1      44.341  25.457  34.428  1.00  0.00     0.200 A 
ATOM    101  F   UNL A   1      44.385  27.164  36.059  1.00  0.00    -0.200 F 
ATOM    102  F   UNL A   1      44.381  24.519  35.384  1.00  0.00    -0.200 F 
ENDBRANCH  69  92
ENDBRANCH  43  44
ENDBRANCH  35  38
ENDBRANCH  33  34
ENDBRANCH  32  33
ENDBRANCH  31  32
ENDBRANCH   1  31
TORSDOF 16
ENDMDL
