MODEL 1
REMARK VINA RESULT:     -12.0      0.000      0.000
REMARK SMILES Cc1ccc(OCCC[N@H+]2CCCC[C@@H]2C(=O)NCCCCNC(=O)c2ccc(-c3c4nc(c(-c5c(F)c(F)c(F)c(F)c5F)c5ccc([nH]5)c(-c5c(F)c(F)c(F)c(F)c5F)c5nc(c(-c6c(F)c(F)c(F)c(F)c6F)c6ccc3[nH]6)C=C5)C=C4)cc2)cc1C
REMARK SMILES IDX 19 1 18 2 16 3 17 4 15 6 10 7 11 8 12 10 14 11 13 12 9 13
REMARK SMILES IDX 8 14 7 15 6 16 5 17 1 18 2 19 3 20 90 21 4 22 89 23 91 24
REMARK SMILES IDX 20 25 21 26 22 27 23 28 24 29 25 31 26 32 27 33 88 34 28 35
REMARK SMILES IDX 87 36 29 37 30 38 31 39 81 40 32 41 86 42 80 43 82 44 33 45
REMARK SMILES IDX 85 46 79 47 78 48 34 50 66 51 46 52 65 53 47 54 50 55 64 56
REMARK SMILES IDX 83 57 48 58 49 59 63 61 84 62 51 63 35 64 36 65 44 66 37 67
REMARK SMILES IDX 38 68 42 69 45 70 39 71 40 72 43 73 41 74 67 75 68 76 76 77
REMARK SMILES IDX 69 78 70 79 74 80 77 81 71 82 72 83 75 84 73 85 52 86 53 87
REMARK SMILES IDX 61 88 54 89 55 90 59 91 62 92 56 93 57 94 60 95 58 96
REMARK H PARENT 18 5 10 9 23 30 82 49 50 60
REMARK Flexibility Score: inf
ROOT
ATOM      1  C   UNL A   1      31.424  30.059  25.254  1.00  0.00     0.116 C 
ENDROOT
BRANCH   1   2
ATOM      2  N   UNL A   1      32.679  29.710  24.610  1.00  0.00    -0.351 N 
ATOM      3  C   UNL A   1      33.190  28.483  24.297  1.00  0.00     0.278 C 
ATOM      4  O   UNL A   1      34.361  28.430  23.904  1.00  0.00    -0.268 OA
ATOM      5  H   UNL A   1      33.248  30.474  24.365  1.00  0.00     0.163 HD
BRANCH   3   6
ATOM      6  C   UNL A   1      32.392  27.179  24.500  1.00  0.00     0.274 C 
ATOM      7  N   UNL A   1      31.005  27.259  23.926  1.00  0.00    -0.325 N 
ATOM      8  C   UNL A   1      30.220  26.067  24.328  1.00  0.00     0.262 C 
ATOM      9  H   UNL A   1      30.559  28.107  24.275  1.00  0.00     0.348 HD
ATOM     10  C   UNL A   1      30.241  25.787  25.831  1.00  0.00     0.062 C 
ATOM     11  C   UNL A   1      32.485  26.821  25.992  1.00  0.00     0.076 C 
ATOM     12  C   UNL A   1      31.666  25.590  26.324  1.00  0.00     0.012 C 
BRANCH   7  13
ATOM     13  C   UNL A   1      31.073  27.288  22.435  1.00  0.00     0.266 C 
BRANCH  13  14
ATOM     14  C   UNL A   1      31.391  25.948  21.738  1.00  0.00     0.103 C 
BRANCH  14  15
ATOM     15  C   UNL A   1      32.855  25.745  21.329  1.00  0.00     0.235 C 
BRANCH  15  16
ATOM     16  O   UNL A   1      33.248  24.358  21.228  1.00  0.00    -0.493 OA
BRANCH  16  17
ATOM     17  C   UNL A   1      33.411  23.785  22.462  1.00  0.00     0.119 A 
ATOM     18  C   UNL A   1      33.501  22.154  26.439  1.00  0.00     0.044 C 
ATOM     19  C   UNL A   1      33.576  22.700  25.040  1.00  0.00    -0.048 A 
ATOM     20  C   UNL A   1      32.748  22.126  24.067  1.00  0.00     0.007 A 
ATOM     21  C   UNL A   1      34.455  23.734  24.662  1.00  0.00    -0.045 A 
ATOM     22  C   UNL A   1      32.709  22.634  22.775  1.00  0.00     0.047 A 
ATOM     23  C   UNL A   1      34.337  24.295  23.371  1.00  0.00     0.050 A 
ATOM     24  C   UNL A   1      35.591  24.171  25.547  1.00  0.00     0.045 C 
ENDBRANCH  16  17
ENDBRANCH  15  16
ENDBRANCH  14  15
ENDBRANCH  13  14
ENDBRANCH   7  13
ENDBRANCH   3   6
ENDBRANCH   1   2
BRANCH   1  25
ATOM     25  C   UNL A   1      31.647  30.576  26.673  1.00  0.00     0.023 C 
BRANCH  25  26
ATOM     26  C   UNL A   1      31.447  32.087  26.839  1.00  0.00     0.023 C 
BRANCH  26  27
ATOM     27  C   UNL A   1      32.711  32.900  27.120  1.00  0.00     0.116 C 
BRANCH  27  28
ATOM     28  N   UNL A   1      32.426  34.245  27.597  1.00  0.00    -0.352 N 
ATOM     29  C   UNL A   1      32.993  34.960  28.625  1.00  0.00     0.251 C 
ATOM     30  H   UNL A   1      31.716  34.717  27.105  1.00  0.00     0.163 HD
ATOM     31  O   UNL A   1      32.509  36.030  28.967  1.00  0.00    -0.269 OA
BRANCH  29  32
ATOM     32  C   UNL A   1      34.176  34.430  29.339  1.00  0.00     0.039 A 
ATOM     33  C   UNL A   1      33.983  33.754  30.547  1.00  0.00     0.014 A 
ATOM     34  C   UNL A   1      35.468  34.621  28.842  1.00  0.00     0.014 A 
ATOM     35  C   UNL A   1      35.077  33.208  31.222  1.00  0.00     0.010 A 
ATOM     36  C   UNL A   1      36.553  34.027  29.484  1.00  0.00     0.010 A 
ATOM     37  C   UNL A   1      36.368  33.312  30.678  1.00  0.00    -0.014 A 
BRANCH  37  38
ATOM     38  C   UNL A   1      37.531  32.662  31.333  1.00  0.00     0.031 A 
ATOM     39  C   UNL A   1      38.222  31.501  30.678  1.00  0.00     0.074 A 
ATOM     40  C   UNL A   1      37.915  33.069  32.558  1.00  0.00     0.049 A 
ATOM     41  N   UNL A   1      39.201  30.756  31.129  1.00  0.00    -0.248 NA
ATOM     42  C   UNL A   1      37.729  31.103  29.350  1.00  0.00     0.031 C 
ATOM     43  C   UNL A   1      37.289  34.148  33.323  1.00  0.00     0.029 A 
ATOM     44  N   UNL A   1      38.912  32.611  33.383  1.00  0.00    -0.354 N 
ATOM     45  C   UNL A   1      39.425  29.794  30.155  1.00  0.00     0.074 A 
ATOM     46  C   UNL A   1      38.454  30.022  29.105  1.00  0.00     0.031 C 
ATOM     47  C   UNL A   1      37.920  34.274  34.502  1.00  0.00     0.029 A 
ATOM     48  C   UNL A   1      38.974  33.266  34.588  1.00  0.00     0.049 A 
ATOM     49  H   UNL A   1      39.524  31.880  33.135  1.00  0.00     0.167 HD
ATOM     50  C   UNL A   1      40.365  28.820  30.131  1.00  0.00     0.037 A 
ATOM     51  C   UNL A   1      39.782  33.072  35.647  1.00  0.00     0.037 A 
ATOM     52  C   UNL A   1      41.350  28.615  31.160  1.00  0.00     0.049 A 
ATOM     53  C   UNL A   1      40.834  32.000  35.585  1.00  0.00     0.074 A 
ATOM     54  C   UNL A   1      42.398  27.712  31.186  1.00  0.00     0.029 A 
ATOM     55  N   UNL A   1      41.406  29.325  32.352  1.00  0.00    -0.354 N 
ATOM     56  N   UNL A   1      41.090  31.149  34.624  1.00  0.00    -0.248 NA
ATOM     57  C   UNL A   1      41.716  31.870  36.753  1.00  0.00     0.031 C 
ATOM     58  C   UNL A   1      43.062  27.845  32.411  1.00  0.00     0.029 A 
ATOM     59  C   UNL A   1      42.456  28.862  33.130  1.00  0.00     0.049 A 
ATOM     60  H   UNL A   1      40.792  30.050  32.606  1.00  0.00     0.167 HD
ATOM     61  C   UNL A   1      42.171  30.396  35.058  1.00  0.00     0.074 A 
ATOM     62  C   UNL A   1      42.535  30.901  36.366  1.00  0.00     0.031 C 
ATOM     63  C   UNL A   1      42.806  29.375  34.429  1.00  0.00     0.037 A 
BRANCH  50  64
ATOM     64  C   UNL A   1      40.375  27.893  28.949  1.00  0.00     0.064 A 
ATOM     65  C   UNL A   1      41.140  28.167  27.806  1.00  0.00     0.173 A 
ATOM     66  C   UNL A   1      39.634  26.702  28.975  1.00  0.00     0.173 A 
ATOM     67  F   UNL A   1      41.857  29.297  27.728  1.00  0.00    -0.203 F 
ATOM     68  C   UNL A   1      41.139  27.296  26.719  1.00  0.00     0.198 A 
ATOM     69  C   UNL A   1      39.659  25.819  27.898  1.00  0.00     0.198 A 
ATOM     70  F   UNL A   1      38.892  26.389  30.047  1.00  0.00    -0.203 F 
ATOM     71  F   UNL A   1      41.840  27.601  25.617  1.00  0.00    -0.200 F 
ATOM     72  C   UNL A   1      40.404  26.121  26.768  1.00  0.00     0.200 A 
ATOM     73  F   UNL A   1      38.958  24.678  27.951  1.00  0.00    -0.200 F 
ATOM     74  F   UNL A   1      40.409  25.282  25.722  1.00  0.00    -0.200 F 
ENDBRANCH  50  64
BRANCH  51  75
ATOM     75  C   UNL A   1      39.637  33.933  36.849  1.00  0.00     0.064 A 
ATOM     76  C   UNL A   1      40.272  35.181  36.921  1.00  0.00     0.173 A 
ATOM     77  C   UNL A   1      38.852  33.535  37.940  1.00  0.00     0.173 A 
ATOM     78  F   UNL A   1      41.050  35.594  35.910  1.00  0.00    -0.203 F 
ATOM     79  C   UNL A   1      40.139  35.992  38.045  1.00  0.00     0.198 A 
ATOM     80  C   UNL A   1      38.698  34.358  39.054  1.00  0.00     0.198 A 
ATOM     81  F   UNL A   1      38.219  32.352  37.916  1.00  0.00    -0.203 F 
ATOM     82  F   UNL A   1      40.785  37.164  38.104  1.00  0.00    -0.200 F 
ATOM     83  C   UNL A   1      39.346  35.583  39.107  1.00  0.00     0.200 A 
ATOM     84  F   UNL A   1      37.921  33.966  40.072  1.00  0.00    -0.200 F 
ATOM     85  F   UNL A   1      39.211  36.368  40.185  1.00  0.00    -0.200 F 
ENDBRANCH  51  75
BRANCH  63  86
ATOM     86  C   UNL A   1      43.972  28.752  35.137  1.00  0.00     0.064 A 
ATOM     87  C   UNL A   1      43.807  27.657  35.997  1.00  0.00     0.173 A 
ATOM     88  C   UNL A   1      45.273  29.229  34.920  1.00  0.00     0.173 A 
ATOM     89  F   UNL A   1      42.582  27.175  36.250  1.00  0.00    -0.203 F 
ATOM     90  C   UNL A   1      44.902  27.076  36.632  1.00  0.00     0.198 A 
ATOM     91  C   UNL A   1      46.368  28.628  35.535  1.00  0.00     0.198 A 
ATOM     92  F   UNL A   1      45.483  30.271  34.101  1.00  0.00    -0.203 F 
ATOM     93  F   UNL A   1      44.718  26.057  37.482  1.00  0.00    -0.200 F 
ATOM     94  C   UNL A   1      46.181  27.557  36.394  1.00  0.00     0.200 A 
ATOM     95  F   UNL A   1      47.604  29.088  35.296  1.00  0.00    -0.200 F 
ATOM     96  F   UNL A   1      47.234  26.992  37.001  1.00  0.00    -0.200 F 
ENDBRANCH  63  86
ENDBRANCH  37  38
ENDBRANCH  29  32
ENDBRANCH  27  28
ENDBRANCH  26  27
ENDBRANCH  25  26
ENDBRANCH   1  25
TORSDOF 16
ENDMDL
MODEL 2
REMARK VINA RESULT:     -11.8      1.555      3.501
REMARK SMILES Cc1ccc(OCCC[N@H+]2CCCC[C@@H]2C(=O)NCCCCNC(=O)c2ccc(-c3c4nc(c(-c5c(F)c(F)c(F)c(F)c5F)c5ccc([nH]5)c(-c5c(F)c(F)c(F)c(F)c5F)c5nc(c(-c6c(F)c(F)c(F)c(F)c6F)c6ccc3[nH]6)C=C5)C=C4)cc2)cc1C
REMARK SMILES IDX 19 1 18 2 16 3 17 4 15 6 10 7 11 8 12 10 14 11 13 12 9 13
REMARK SMILES IDX 8 14 7 15 6 16 5 17 1 18 2 19 3 20 90 21 4 22 89 23 91 24
REMARK SMILES IDX 20 25 21 26 22 27 23 28 24 29 25 31 26 32 27 33 88 34 28 35
REMARK SMILES IDX 87 36 29 37 30 38 31 39 81 40 32 41 86 42 80 43 82 44 33 45
REMARK SMILES IDX 85 46 79 47 78 48 34 50 66 51 46 52 65 53 47 54 50 55 64 56
REMARK SMILES IDX 83 57 48 58 49 59 63 61 84 62 51 63 35 64 36 65 44 66 37 67
REMARK SMILES IDX 38 68 42 69 45 70 39 71 40 72 43 73 41 74 67 75 68 76 76 77
REMARK SMILES IDX 69 78 70 79 74 80 77 81 71 82 72 83 75 84 73 85 52 86 53 87
REMARK SMILES IDX 61 88 54 89 55 90 59 91 62 92 56 93 57 94 60 95 58 96
REMARK H PARENT 18 5 10 9 23 30 82 49 50 60
REMARK Flexibility Score: inf
ROOT
ATOM      1  C   UNL A   1      32.267  30.068  25.376  1.00  0.00     0.116 C 
ENDROOT
BRANCH   1   2
ATOM      2  N   UNL A   1      33.119  29.013  25.899  1.00  0.00    -0.351 N 
ATOM      3  C   UNL A   1      33.309  27.738  25.449  1.00  0.00     0.278 C 
ATOM      4  O   UNL A   1      33.958  26.966  26.164  1.00  0.00    -0.268 OA
ATOM      5  H   UNL A   1      33.635  29.255  26.701  1.00  0.00     0.163 HD
BRANCH   3   6
ATOM      6  C   UNL A   1      32.674  27.218  24.143  1.00  0.00     0.274 C 
ATOM      7  N   UNL A   1      31.810  26.008  24.367  1.00  0.00    -0.325 N 
ATOM      8  C   UNL A   1      31.397  25.432  23.065  1.00  0.00     0.262 C 
ATOM      9  H   UNL A   1      32.346  25.323  24.900  1.00  0.00     0.348 HD
ATOM     10  C   UNL A   1      32.556  25.182  22.100  1.00  0.00     0.062 C 
ATOM     11  C   UNL A   1      33.812  27.055  23.122  1.00  0.00     0.076 C 
ATOM     12  C   UNL A   1      33.312  26.470  21.817  1.00  0.00     0.012 C 
BRANCH   7  13
ATOM     13  C   UNL A   1      30.578  26.395  25.115  1.00  0.00     0.266 C 
BRANCH  13  14
ATOM     14  C   UNL A   1      29.239  26.216  24.367  1.00  0.00     0.103 C 
BRANCH  14  15
ATOM     15  C   UNL A   1      28.778  27.420  23.536  1.00  0.00     0.235 C 
BRANCH  15  16
ATOM     16  O   UNL A   1      29.428  28.661  23.893  1.00  0.00    -0.493 OA
BRANCH  16  17
ATOM     17  C   UNL A   1      28.982  29.706  23.128  1.00  0.00     0.119 A 
ATOM     18  C   UNL A   1      27.892  32.853  20.408  1.00  0.00     0.044 C 
ATOM     19  C   UNL A   1      28.213  31.803  21.435  1.00  0.00    -0.048 A 
ATOM     20  C   UNL A   1      27.849  30.480  21.157  1.00  0.00     0.007 A 
ATOM     21  C   UNL A   1      28.833  32.093  22.667  1.00  0.00    -0.045 A 
ATOM     22  C   UNL A   1      28.185  29.450  22.025  1.00  0.00     0.047 A 
ATOM     23  C   UNL A   1      29.247  31.025  23.494  1.00  0.00     0.050 A 
ATOM     24  C   UNL A   1      28.954  33.503  23.179  1.00  0.00     0.045 C 
ENDBRANCH  16  17
ENDBRANCH  15  16
ENDBRANCH  14  15
ENDBRANCH  13  14
ENDBRANCH   7  13
ENDBRANCH   3   6
ENDBRANCH   1   2
BRANCH   1  25
ATOM     25  C   UNL A   1      31.384  30.668  26.467  1.00  0.00     0.023 C 
BRANCH  25  26
ATOM     26  C   UNL A   1      31.401  32.200  26.529  1.00  0.00     0.023 C 
BRANCH  26  27
ATOM     27  C   UNL A   1      32.604  32.824  27.237  1.00  0.00     0.116 C 
BRANCH  27  28
ATOM     28  N   UNL A   1      32.371  34.202  27.642  1.00  0.00    -0.352 N 
ATOM     29  C   UNL A   1      32.986  34.957  28.613  1.00  0.00     0.251 C 
ATOM     30  H   UNL A   1      31.662  34.667  27.142  1.00  0.00     0.163 HD
ATOM     31  O   UNL A   1      32.542  36.059  28.904  1.00  0.00    -0.269 OA
BRANCH  29  32
ATOM     32  C   UNL A   1      34.172  34.434  29.325  1.00  0.00     0.039 A 
ATOM     33  C   UNL A   1      33.990  33.821  30.569  1.00  0.00     0.014 A 
ATOM     34  C   UNL A   1      35.456  34.569  28.792  1.00  0.00     0.014 A 
ATOM     35  C   UNL A   1      35.087  33.281  31.246  1.00  0.00     0.010 A 
ATOM     36  C   UNL A   1      36.541  33.980  29.439  1.00  0.00     0.010 A 
ATOM     37  C   UNL A   1      36.367  33.328  30.669  1.00  0.00    -0.014 A 
BRANCH  37  38
ATOM     38  C   UNL A   1      37.529  32.681  31.330  1.00  0.00     0.031 A 
ATOM     39  C   UNL A   1      38.236  31.532  30.671  1.00  0.00     0.074 A 
ATOM     40  C   UNL A   1      37.897  33.080  32.562  1.00  0.00     0.049 A 
ATOM     41  N   UNL A   1      39.217  30.792  31.125  1.00  0.00    -0.248 NA
ATOM     42  C   UNL A   1      37.760  31.143  29.334  1.00  0.00     0.031 C 
ATOM     43  C   UNL A   1      37.255  34.146  33.331  1.00  0.00     0.029 A 
ATOM     44  N   UNL A   1      38.890  32.623  33.393  1.00  0.00    -0.354 N 
ATOM     45  C   UNL A   1      39.459  29.840  30.144  1.00  0.00     0.074 A 
ATOM     46  C   UNL A   1      38.497  30.070  29.086  1.00  0.00     0.031 C 
ATOM     47  C   UNL A   1      37.873  34.266  34.517  1.00  0.00     0.029 A 
ATOM     48  C   UNL A   1      38.934  33.267  34.605  1.00  0.00     0.049 A 
ATOM     49  H   UNL A   1      39.510  31.899  33.144  1.00  0.00     0.167 HD
ATOM     50  C   UNL A   1      40.408  28.874  30.120  1.00  0.00     0.037 A 
ATOM     51  C   UNL A   1      39.733  33.070  35.670  1.00  0.00     0.037 A 
ATOM     52  C   UNL A   1      41.384  28.668  31.157  1.00  0.00     0.049 A 
ATOM     53  C   UNL A   1      40.795  32.008  35.608  1.00  0.00     0.074 A 
ATOM     54  C   UNL A   1      42.440  27.774  31.185  1.00  0.00     0.029 A 
ATOM     55  N   UNL A   1      41.423  29.368  32.356  1.00  0.00    -0.354 N 
ATOM     56  N   UNL A   1      41.068  31.168  34.641  1.00  0.00    -0.248 NA
ATOM     57  C   UNL A   1      41.667  31.874  36.784  1.00  0.00     0.031 C 
ATOM     58  C   UNL A   1      43.091  27.901  32.418  1.00  0.00     0.029 A 
ATOM     59  C   UNL A   1      42.468  28.907  33.140  1.00  0.00     0.049 A 
ATOM     60  H   UNL A   1      40.799  30.085  32.610  1.00  0.00     0.167 HD
ATOM     61  C   UNL A   1      42.151  30.419  35.079  1.00  0.00     0.074 A 
ATOM     62  C   UNL A   1      42.497  30.916  36.396  1.00  0.00     0.031 C 
ATOM     63  C   UNL A   1      42.801  29.410  34.447  1.00  0.00     0.037 A 
BRANCH  50  64
ATOM     64  C   UNL A   1      40.437  27.960  28.930  1.00  0.00     0.064 A 
ATOM     65  C   UNL A   1      41.197  28.259  27.790  1.00  0.00     0.173 A 
ATOM     66  C   UNL A   1      39.720  26.753  28.944  1.00  0.00     0.173 A 
ATOM     67  F   UNL A   1      41.892  29.404  27.723  1.00  0.00    -0.203 F 
ATOM     68  C   UNL A   1      41.215  27.398  26.695  1.00  0.00     0.198 A 
ATOM     69  C   UNL A   1      39.764  25.881  27.858  1.00  0.00     0.198 A 
ATOM     70  F   UNL A   1      38.983  26.416  30.012  1.00  0.00    -0.203 F 
ATOM     71  F   UNL A   1      41.911  27.727  25.597  1.00  0.00    -0.200 F 
ATOM     72  C   UNL A   1      40.504  26.208  26.732  1.00  0.00     0.200 A 
ATOM     73  F   UNL A   1      39.086  24.726  27.900  1.00  0.00    -0.200 F 
ATOM     74  F   UNL A   1      40.527  25.379  25.679  1.00  0.00    -0.200 F 
ENDBRANCH  50  64
BRANCH  51  75
ATOM     75  C   UNL A   1      39.569  33.918  36.878  1.00  0.00     0.064 A 
ATOM     76  C   UNL A   1      40.173  35.180  36.958  1.00  0.00     0.173 A 
ATOM     77  C   UNL A   1      38.796  33.492  37.968  1.00  0.00     0.173 A 
ATOM     78  F   UNL A   1      40.939  35.621  35.948  1.00  0.00    -0.203 F 
ATOM     79  C   UNL A   1      40.022  35.980  38.088  1.00  0.00     0.198 A 
ATOM     80  C   UNL A   1      38.624  34.303  39.088  1.00  0.00     0.198 A 
ATOM     81  F   UNL A   1      38.194  32.294  37.936  1.00  0.00    -0.203 F 
ATOM     82  F   UNL A   1      40.639  37.167  38.155  1.00  0.00    -0.200 F 
ATOM     83  C   UNL A   1      39.241  35.543  39.149  1.00  0.00     0.200 A 
ATOM     84  F   UNL A   1      37.859  33.884  40.105  1.00  0.00    -0.200 F 
ATOM     85  F   UNL A   1      39.089  36.317  40.232  1.00  0.00    -0.200 F 
ENDBRANCH  51  75
BRANCH  63  86
ATOM     86  C   UNL A   1      43.966  28.790  35.161  1.00  0.00     0.064 A 
ATOM     87  C   UNL A   1      45.266  29.293  35.014  1.00  0.00     0.173 A 
ATOM     88  C   UNL A   1      43.772  27.708  36.031  1.00  0.00     0.173 A 
ATOM     89  F   UNL A   1      45.506  30.316  34.180  1.00  0.00    -0.203 F 
ATOM     90  C   UNL A   1      46.336  28.720  35.698  1.00  0.00     0.198 A 
ATOM     91  C   UNL A   1      44.839  27.155  36.735  1.00  0.00     0.198 A 
ATOM     92  F   UNL A   1      42.546  27.195  36.209  1.00  0.00    -0.203 F 
ATOM     93  F   UNL A   1      47.577  29.190  35.512  1.00  0.00    -0.200 F 
ATOM     94  C   UNL A   1      46.120  27.658  36.563  1.00  0.00     0.200 A 
ATOM     95  F   UNL A   1      44.627  26.135  37.578  1.00  0.00    -0.200 F 
ATOM     96  F   UNL A   1      47.149  27.111  37.226  1.00  0.00    -0.200 F 
ENDBRANCH  63  86
ENDBRANCH  37  38
ENDBRANCH  29  32
ENDBRANCH  27  28
ENDBRANCH  26  27
ENDBRANCH  25  26
ENDBRANCH   1  25
TORSDOF 16
ENDMDL
MODEL 3
REMARK VINA RESULT:     -11.7      1.585      3.699
REMARK SMILES Cc1ccc(OCCC[N@H+]2CCCC[C@@H]2C(=O)NCCCCNC(=O)c2ccc(-c3c4nc(c(-c5c(F)c(F)c(F)c(F)c5F)c5ccc([nH]5)c(-c5c(F)c(F)c(F)c(F)c5F)c5nc(c(-c6c(F)c(F)c(F)c(F)c6F)c6ccc3[nH]6)C=C5)C=C4)cc2)cc1C
REMARK SMILES IDX 19 1 18 2 16 3 17 4 15 6 10 7 11 8 12 10 14 11 13 12 9 13
REMARK SMILES IDX 8 14 7 15 6 16 5 17 1 18 2 19 3 20 90 21 4 22 89 23 91 24
REMARK SMILES IDX 20 25 21 26 22 27 23 28 24 29 25 31 26 32 27 33 88 34 28 35
REMARK SMILES IDX 87 36 29 37 30 38 31 39 81 40 32 41 86 42 80 43 82 44 33 45
REMARK SMILES IDX 85 46 79 47 78 48 34 50 66 51 46 52 65 53 47 54 50 55 64 56
REMARK SMILES IDX 83 57 48 58 49 59 63 61 84 62 51 63 35 64 36 65 44 66 37 67
REMARK SMILES IDX 38 68 42 69 45 70 39 71 40 72 43 73 41 74 67 75 68 76 76 77
REMARK SMILES IDX 69 78 70 79 74 80 77 81 71 82 72 83 75 84 73 85 52 86 53 87
REMARK SMILES IDX 61 88 54 89 55 90 59 91 62 92 56 93 57 94 60 95 58 96
REMARK H PARENT 18 5 10 9 23 30 82 49 50 60
REMARK Flexibility Score: inf
ROOT
ATOM      1  C   UNL A   1      32.279  29.915  25.700  1.00  0.00     0.116 C 
ENDROOT
BRANCH   1   2
ATOM      2  N   UNL A   1      32.843  28.684  26.225  1.00  0.00    -0.351 N 
ATOM      3  C   UNL A   1      32.913  27.443  25.659  1.00  0.00     0.278 C 
ATOM      4  O   UNL A   1      33.288  26.505  26.372  1.00  0.00    -0.268 OA
ATOM      5  H   UNL A   1      33.232  28.754  27.126  1.00  0.00     0.163 HD
BRANCH   3   6
ATOM      6  C   UNL A   1      32.461  27.167  24.210  1.00  0.00     0.274 C 
ATOM      7  N   UNL A   1      31.612  25.930  24.100  1.00  0.00    -0.325 N 
ATOM      8  C   UNL A   1      31.381  25.601  22.673  1.00  0.00     0.262 C 
ATOM      9  H   UNL A   1      32.097  25.163  24.563  1.00  0.00     0.348 HD
ATOM     10  C   UNL A   1      32.658  25.539  21.834  1.00  0.00     0.062 C 
ATOM     11  C   UNL A   1      33.720  27.201  23.330  1.00  0.00     0.076 C 
ATOM     12  C   UNL A   1      33.404  26.862  21.888  1.00  0.00     0.012 C 
BRANCH   7  13
ATOM     13  C   UNL A   1      30.285  26.166  24.742  1.00  0.00     0.266 C 
BRANCH  13  14
ATOM     14  C   UNL A   1      29.061  26.175  23.801  1.00  0.00     0.103 C 
BRANCH  14  15
ATOM     15  C   UNL A   1      28.262  27.484  23.765  1.00  0.00     0.235 C 
BRANCH  15  16
ATOM     16  O   UNL A   1      28.219  28.107  22.462  1.00  0.00    -0.493 OA
BRANCH  16  17
ATOM     17  C   UNL A   1      28.458  29.454  22.535  1.00  0.00     0.119 A 
ATOM     18  C   UNL A   1      28.908  33.689  23.122  1.00  0.00     0.044 C 
ATOM     19  C   UNL A   1      28.805  32.219  22.823  1.00  0.00    -0.048 A 
ATOM     20  C   UNL A   1      29.364  31.323  23.741  1.00  0.00     0.007 A 
ATOM     21  C   UNL A   1      28.201  31.710  21.656  1.00  0.00    -0.045 A 
ATOM     22  C   UNL A   1      29.236  29.951  23.567  1.00  0.00     0.047 A 
ATOM     23  C   UNL A   1      28.001  30.317  21.540  1.00  0.00     0.050 A 
ATOM     24  C   UNL A   1      27.878  32.595  20.482  1.00  0.00     0.045 C 
ENDBRANCH  16  17
ENDBRANCH  15  16
ENDBRANCH  14  15
ENDBRANCH  13  14
ENDBRANCH   7  13
ENDBRANCH   3   6
ENDBRANCH   1   2
BRANCH   1  25
ATOM     25  C   UNL A   1      31.428  30.632  26.745  1.00  0.00     0.023 C 
BRANCH  25  26
ATOM     26  C   UNL A   1      31.437  32.162  26.634  1.00  0.00     0.023 C 
BRANCH  26  27
ATOM     27  C   UNL A   1      32.679  32.861  27.187  1.00  0.00     0.116 C 
BRANCH  27  28
ATOM     28  N   UNL A   1      32.414  34.225  27.621  1.00  0.00    -0.352 N 
ATOM     29  C   UNL A   1      32.996  34.965  28.624  1.00  0.00     0.251 C 
ATOM     30  H   UNL A   1      31.708  34.691  27.118  1.00  0.00     0.163 HD
ATOM     31  O   UNL A   1      32.529  36.052  28.933  1.00  0.00    -0.269 OA
BRANCH  29  32
ATOM     32  C   UNL A   1      34.176  34.443  29.348  1.00  0.00     0.039 A 
ATOM     33  C   UNL A   1      33.980  33.809  30.579  1.00  0.00     0.014 A 
ATOM     34  C   UNL A   1      35.468  34.599  28.839  1.00  0.00     0.014 A 
ATOM     35  C   UNL A   1      35.071  33.270  31.266  1.00  0.00     0.010 A 
ATOM     36  C   UNL A   1      36.548  34.011  29.494  1.00  0.00     0.010 A 
ATOM     37  C   UNL A   1      36.360  33.339  30.712  1.00  0.00    -0.014 A 
BRANCH  37  38
ATOM     38  C   UNL A   1      37.518  32.694  31.382  1.00  0.00     0.031 A 
ATOM     39  C   UNL A   1      38.224  31.537  30.735  1.00  0.00     0.074 A 
ATOM     40  C   UNL A   1      37.883  33.102  32.612  1.00  0.00     0.049 A 
ATOM     41  N   UNL A   1      39.200  30.798  31.199  1.00  0.00    -0.248 NA
ATOM     42  C   UNL A   1      37.751  31.139  29.400  1.00  0.00     0.031 C 
ATOM     43  C   UNL A   1      37.241  34.177  33.370  1.00  0.00     0.029 A 
ATOM     44  N   UNL A   1      38.871  32.649  33.451  1.00  0.00    -0.354 N 
ATOM     45  C   UNL A   1      39.443  29.838  30.226  1.00  0.00     0.074 A 
ATOM     46  C   UNL A   1      38.485  30.062  29.164  1.00  0.00     0.031 C 
ATOM     47  C   UNL A   1      37.855  34.305  34.557  1.00  0.00     0.029 A 
ATOM     48  C   UNL A   1      38.912  33.303  34.657  1.00  0.00     0.049 A 
ATOM     49  H   UNL A   1      39.490  31.921  33.210  1.00  0.00     0.167 HD
ATOM     50  C   UNL A   1      40.389  28.869  30.214  1.00  0.00     0.037 A 
ATOM     51  C   UNL A   1      39.707  33.112  35.727  1.00  0.00     0.037 A 
ATOM     52  C   UNL A   1      41.361  28.668  31.257  1.00  0.00     0.049 A 
ATOM     53  C   UNL A   1      40.766  32.046  35.677  1.00  0.00     0.074 A 
ATOM     54  C   UNL A   1      42.413  27.771  31.295  1.00  0.00     0.029 A 
ATOM     55  N   UNL A   1      41.397  29.378  32.449  1.00  0.00    -0.354 N 
ATOM     56  N   UNL A   1      41.040  31.197  34.719  1.00  0.00    -0.248 NA
ATOM     57  C   UNL A   1      41.633  31.919  36.857  1.00  0.00     0.031 C 
ATOM     58  C   UNL A   1      43.060  27.906  32.529  1.00  0.00     0.029 A 
ATOM     59  C   UNL A   1      42.438  28.920  33.241  1.00  0.00     0.049 A 
ATOM     60  H   UNL A   1      40.775  30.099  32.696  1.00  0.00     0.167 HD
ATOM     61  C   UNL A   1      42.119  30.449  35.167  1.00  0.00     0.074 A 
ATOM     62  C   UNL A   1      42.462  30.955  36.480  1.00  0.00     0.031 C 
ATOM     63  C   UNL A   1      42.768  29.433  34.546  1.00  0.00     0.037 A 
BRANCH  50  64
ATOM     64  C   UNL A   1      40.419  27.944  29.032  1.00  0.00     0.064 A 
ATOM     65  C   UNL A   1      39.673  26.756  29.007  1.00  0.00     0.173 A 
ATOM     66  C   UNL A   1      41.179  28.266  27.897  1.00  0.00     0.173 A 
ATOM     67  F   UNL A   1      38.939  26.398  30.070  1.00  0.00    -0.203 F 
ATOM     68  C   UNL A   1      39.711  25.910  27.902  1.00  0.00     0.198 A 
ATOM     69  C   UNL A   1      41.191  27.431  26.782  1.00  0.00     0.198 A 
ATOM     70  F   UNL A   1      41.905  29.393  27.866  1.00  0.00    -0.203 F 
ATOM     71  F   UNL A   1      39.027  24.757  27.919  1.00  0.00    -0.200 F 
ATOM     72  C   UNL A   1      40.464  26.251  26.788  1.00  0.00     0.200 A 
ATOM     73  F   UNL A   1      41.910  27.768  25.702  1.00  0.00    -0.200 F 
ATOM     74  F   UNL A   1      40.494  25.437  25.724  1.00  0.00    -0.200 F 
ENDBRANCH  50  64
BRANCH  51  75
ATOM     75  C   UNL A   1      39.542  33.971  36.927  1.00  0.00     0.064 A 
ATOM     76  C   UNL A   1      38.780  33.538  38.021  1.00  0.00     0.173 A 
ATOM     77  C   UNL A   1      40.152  35.231  37.011  1.00  0.00     0.173 A 
ATOM     78  F   UNL A   1      38.162  32.349  37.978  1.00  0.00    -0.203 F 
ATOM     79  C   UNL A   1      38.623  34.339  39.150  1.00  0.00     0.198 A 
ATOM     80  C   UNL A   1      40.014  36.021  38.150  1.00  0.00     0.198 A 
ATOM     81  F   UNL A   1      40.895  35.686  35.992  1.00  0.00    -0.203 F 
ATOM     82  F   UNL A   1      37.860  33.918  40.167  1.00  0.00    -0.200 F 
ATOM     83  C   UNL A   1      39.246  35.577  39.216  1.00  0.00     0.200 A 
ATOM     84  F   UNL A   1      40.628  37.210  38.217  1.00  0.00    -0.200 F 
ATOM     85  F   UNL A   1      39.101  36.343  40.305  1.00  0.00    -0.200 F 
ENDBRANCH  51  75
BRANCH  63  86
ATOM     86  C   UNL A   1      43.928  28.815  35.268  1.00  0.00     0.064 A 
ATOM     87  C   UNL A   1      43.749  27.765  36.179  1.00  0.00     0.173 A 
ATOM     88  C   UNL A   1      45.237  29.252  35.016  1.00  0.00     0.173 A 
ATOM     89  F   UNL A   1      42.515  27.322  36.466  1.00  0.00    -0.203 F 
ATOM     90  C   UNL A   1      44.837  27.187  36.828  1.00  0.00     0.198 A 
ATOM     91  C   UNL A   1      46.325  28.655  35.646  1.00  0.00     0.198 A 
ATOM     92  F   UNL A   1      45.461  30.251  34.149  1.00  0.00    -0.203 F 
ATOM     93  F   UNL A   1      44.640  26.212  37.725  1.00  0.00    -0.200 F 
ATOM     94  C   UNL A   1      46.124  27.627  36.555  1.00  0.00     0.200 A 
ATOM     95  F   UNL A   1      47.569  29.074  35.374  1.00  0.00    -0.200 F 
ATOM     96  F   UNL A   1      47.171  27.066  37.175  1.00  0.00    -0.200 F 
ENDBRANCH  63  86
ENDBRANCH  37  38
ENDBRANCH  29  32
ENDBRANCH  27  28
ENDBRANCH  26  27
ENDBRANCH  25  26
ENDBRANCH   1  25
TORSDOF 16
ENDMDL
