MODEL 1
REMARK VINA RESULT:     -14.8      0.000      0.000
REMARK SMILES COc1ccc(-c2[nH]nc3nc(-c4ccc(C(F)(F)F)cc4)cc(C(=O)NCCCCNC(=O)c4ccc(-c5c6nc(c(-c7c(F)c(F)c(F)c(F)c7F)c7ccc([nH]7)c(-c7c(F)c(F)c(F)c(F)c7F)c7nc(c(-c8c(F)c(F)c(F)c(F)c8F)c8ccc5[nH]8)C=C7)C=C6)cc4)c23)cc1
REMARK SMILES IDX 29 1 28 2 27 3 25 4 26 5 24 7 7 8 8 9 98 10 9 11 10 13 11 14
REMARK SMILES IDX 23 15 12 16 6 17 3 18 4 19 100 20 5 21 99 22 2 23 1 24 13 25
REMARK SMILES IDX 14 26 22 27 15 28 21 29 16 30 17 31 18 32 19 33 20 34 30 35
REMARK SMILES IDX 31 36 32 37 33 38 34 40 35 41 36 42 97 43 37 44 96 45 38 46
REMARK SMILES IDX 39 47 40 48 90 49 41 50 95 51 89 52 91 53 42 54 94 55 88 56
REMARK SMILES IDX 87 57 43 59 75 60 55 61 74 62 56 63 59 64 73 65 92 66 57 67
REMARK SMILES IDX 58 68 72 70 93 71 60 72 44 73 45 74 53 75 46 76 47 77 51 78
REMARK SMILES IDX 54 79 48 80 49 81 52 82 50 83 76 84 77 85 85 86 78 87 79 88
REMARK SMILES IDX 83 89 86 90 80 91 81 92 84 93 82 94 61 95 62 96 70 97 63 98
REMARK SMILES IDX 64 99 68 100 71 101 65 102 66 103 69 104 67 105
REMARK H PARENT 27 6 8 12 32 39 91 58 59 69
REMARK Flexibility Score: inf
ROOT
ATOM      1  C   UNL A   1      33.476  29.083  24.734  1.00  0.00     0.023 C 
ENDROOT
BRANCH   1   2
ATOM      2  C   UNL A   1      34.379  28.705  23.560  1.00  0.00     0.116 C 
BRANCH   2   3
ATOM      3  N   UNL A   1      33.748  27.812  22.611  1.00  0.00    -0.352 N 
ATOM      4  C   UNL A   1      33.160  26.573  22.668  1.00  0.00     0.252 C 
ATOM      5  O   UNL A   1      32.468  26.316  21.687  1.00  0.00    -0.269 OA
ATOM      6  H   UNL A   1      33.736  28.185  21.700  1.00  0.00     0.163 HD
BRANCH   4   7
ATOM      7  C   UNL A   1      33.260  25.624  23.802  1.00  0.00     0.055 A 
ATOM      8  C   UNL A   1      31.123  26.040  25.139  1.00  0.00     0.075 A 
ATOM      9  N   UNL A   1      30.753  25.540  26.369  1.00  0.00    -0.275 N 
ATOM     10  C   UNL A   1      32.376  25.491  24.898  1.00  0.00     0.059 A 
ATOM     11  N   UNL A   1      31.641  24.727  26.949  1.00  0.00    -0.154 NA
ATOM     12  H   UNL A   1      29.892  25.767  26.790  1.00  0.00     0.190 HD
ATOM     13  C   UNL A   1      32.638  24.676  26.069  1.00  0.00     0.182 A 
ATOM     14  N   UNL A   1      33.780  23.963  26.241  1.00  0.00    -0.226 NA
ATOM     15  C   UNL A   1      34.347  24.759  23.984  1.00  0.00     0.043 A 
ATOM     16  C   UNL A   1      34.609  24.048  25.178  1.00  0.00     0.074 A 
BRANCH   8  17
ATOM     17  C   UNL A   1      30.194  26.913  24.426  1.00  0.00     0.001 A 
ATOM     18  C   UNL A   1      28.357  28.595  23.112  1.00  0.00     0.118 A 
ATOM     19  C   UNL A   1      27.994  27.296  23.471  1.00  0.00     0.047 A 
ATOM     20  C   UNL A   1      29.644  29.049  23.399  1.00  0.00     0.047 A 
ATOM     21  C   UNL A   1      28.906  26.457  24.116  1.00  0.00     0.014 A 
ATOM     22  C   UNL A   1      30.564  28.205  24.033  1.00  0.00     0.014 A 
BRANCH  18  23
ATOM     23  O   UNL A   1      27.362  29.338  22.540  1.00  0.00    -0.497 OA
ATOM     24  C   UNL A   1      27.712  30.670  22.184  1.00  0.00     0.278 C 
ENDBRANCH  18  23
ENDBRANCH   8  17
BRANCH  16  25
ATOM     25  C   UNL A   1      35.943  23.437  25.318  1.00  0.00     0.000 A 
ATOM     26  C   UNL A   1      37.008  24.108  25.928  1.00  0.00     0.011 A 
ATOM     27  C   UNL A   1      36.138  22.099  24.920  1.00  0.00     0.011 A 
ATOM     28  C   UNL A   1      38.215  23.442  26.181  1.00  0.00     0.014 A 
ATOM     29  C   UNL A   1      37.339  21.434  25.169  1.00  0.00     0.014 A 
ATOM     30  C   UNL A   1      38.386  22.094  25.819  1.00  0.00     0.056 A 
BRANCH  30  31
ATOM     31  C   UNL A   1      39.676  21.375  26.135  1.00  0.00     0.416 C 
ATOM     32  F   UNL A   1      40.735  21.864  25.435  1.00  0.00    -0.166 F 
ATOM     33  F   UNL A   1      40.015  21.476  27.451  1.00  0.00    -0.166 F 
ATOM     34  F   UNL A   1      39.633  20.039  25.866  1.00  0.00    -0.166 F 
ENDBRANCH  30  31
ENDBRANCH  16  25
ENDBRANCH   4   7
ENDBRANCH   2   3
ENDBRANCH   1   2
BRANCH   1  35
ATOM     35  C   UNL A   1      33.919  28.535  26.102  1.00  0.00     0.023 C 
BRANCH  35  36
ATOM     36  C   UNL A   1      33.724  29.474  27.293  1.00  0.00     0.116 C 
BRANCH  36  37
ATOM     37  N   UNL A   1      34.155  30.851  27.036  1.00  0.00    -0.352 N 
ATOM     38  C   UNL A   1      35.228  31.537  27.589  1.00  0.00     0.251 C 
ATOM     39  H   UNL A   1      33.614  31.356  26.385  1.00  0.00     0.163 HD
ATOM     40  O   UNL A   1      35.258  32.754  27.621  1.00  0.00    -0.269 OA
BRANCH  38  41
ATOM     41  C   UNL A   1      36.364  30.752  28.107  1.00  0.00     0.039 A 
ATOM     42  C   UNL A   1      36.467  29.370  27.954  1.00  0.00     0.014 A 
ATOM     43  C   UNL A   1      37.365  31.469  28.745  1.00  0.00     0.014 A 
ATOM     44  C   UNL A   1      37.640  28.739  28.372  1.00  0.00     0.010 A 
ATOM     45  C   UNL A   1      38.585  30.894  28.967  1.00  0.00     0.010 A 
ATOM     46  C   UNL A   1      38.704  29.518  28.859  1.00  0.00    -0.014 A 
BRANCH  46  47
ATOM     47  C   UNL A   1      40.008  28.938  29.161  1.00  0.00     0.031 A 
ATOM     48  C   UNL A   1      40.288  28.809  30.616  1.00  0.00     0.074 A 
ATOM     49  C   UNL A   1      40.771  28.340  28.218  1.00  0.00     0.049 A 
ATOM     50  N   UNL A   1      41.181  29.438  31.306  1.00  0.00    -0.248 NA
ATOM     51  C   UNL A   1      39.367  28.000  31.433  1.00  0.00     0.031 C 
ATOM     52  C   UNL A   1      40.451  28.101  26.804  1.00  0.00     0.029 A 
ATOM     53  N   UNL A   1      41.974  27.718  28.352  1.00  0.00    -0.354 N 
ATOM     54  C   UNL A   1      41.079  28.940  32.603  1.00  0.00     0.074 A 
ATOM     55  C   UNL A   1      39.830  28.231  32.663  1.00  0.00     0.031 C 
ATOM     56  C   UNL A   1      41.310  27.196  26.284  1.00  0.00     0.029 A 
ATOM     57  C   UNL A   1      42.346  26.936  27.262  1.00  0.00     0.049 A 
ATOM     58  H   UNL A   1      42.536  27.815  29.154  1.00  0.00     0.167 HD
ATOM     59  C   UNL A   1      42.170  28.917  33.420  1.00  0.00     0.037 A 
ATOM     60  C   UNL A   1      43.427  26.121  27.177  1.00  0.00     0.037 A 
ATOM     61  C   UNL A   1      43.193  29.807  32.923  1.00  0.00     0.049 A 
ATOM     62  C   UNL A   1      44.376  26.549  28.233  1.00  0.00     0.074 A 
ATOM     63  C   UNL A   1      43.272  31.163  32.672  1.00  0.00     0.029 A 
ATOM     64  N   UNL A   1      44.237  29.240  32.234  1.00  0.00    -0.354 N 
ATOM     65  N   UNL A   1      44.991  27.700  28.231  1.00  0.00    -0.248 NA
ATOM     66  C   UNL A   1      44.281  25.891  29.526  1.00  0.00     0.031 C 
ATOM     67  C   UNL A   1      44.054  31.273  31.481  1.00  0.00     0.029 A 
ATOM     68  C   UNL A   1      44.471  29.993  31.115  1.00  0.00     0.049 A 
ATOM     69  H   UNL A   1      44.731  28.432  32.499  1.00  0.00     0.167 HD
ATOM     70  C   UNL A   1      44.966  28.113  29.555  1.00  0.00     0.074 A 
ATOM     71  C   UNL A   1      44.603  26.919  30.316  1.00  0.00     0.031 C 
ATOM     72  C   UNL A   1      44.954  29.441  29.870  1.00  0.00     0.037 A 
BRANCH  59  73
ATOM     73  C   UNL A   1      42.495  27.795  34.389  1.00  0.00     0.064 A 
ATOM     74  C   UNL A   1      43.053  26.604  33.876  1.00  0.00     0.173 A 
ATOM     75  C   UNL A   1      41.997  27.702  35.708  1.00  0.00     0.173 A 
ATOM     76  F   UNL A   1      43.562  26.566  32.634  1.00  0.00    -0.203 F 
ATOM     77  C   UNL A   1      43.002  25.397  34.578  1.00  0.00     0.198 A 
ATOM     78  C   UNL A   1      41.996  26.507  36.425  1.00  0.00     0.198 A 
ATOM     79  F   UNL A   1      41.394  28.721  36.325  1.00  0.00    -0.203 F 
ATOM     80  F   UNL A   1      43.410  24.266  33.987  1.00  0.00    -0.200 F 
ATOM     81  C   UNL A   1      42.461  25.347  35.848  1.00  0.00     0.200 A 
ATOM     82  F   UNL A   1      41.455  26.479  37.652  1.00  0.00    -0.200 F 
ATOM     83  F   UNL A   1      42.343  24.180  36.494  1.00  0.00    -0.200 F 
ENDBRANCH  59  73
BRANCH  60  84
ATOM     84  C   UNL A   1      43.558  24.824  26.471  1.00  0.00     0.064 A 
ATOM     85  C   UNL A   1      44.423  24.676  25.373  1.00  0.00     0.173 A 
ATOM     86  C   UNL A   1      43.057  23.635  27.037  1.00  0.00     0.173 A 
ATOM     87  F   UNL A   1      44.981  25.755  24.807  1.00  0.00    -0.203 F 
ATOM     88  C   UNL A   1      44.784  23.414  24.888  1.00  0.00     0.198 A 
ATOM     89  C   UNL A   1      43.417  22.377  26.550  1.00  0.00     0.198 A 
ATOM     90  F   UNL A   1      42.289  23.671  28.135  1.00  0.00    -0.203 F 
ATOM     91  F   UNL A   1      45.660  23.311  23.877  1.00  0.00    -0.200 F 
ATOM     92  C   UNL A   1      44.289  22.265  25.483  1.00  0.00     0.200 A 
ATOM     93  F   UNL A   1      42.962  21.272  27.160  1.00  0.00    -0.200 F 
ATOM     94  F   UNL A   1      44.685  21.057  25.060  1.00  0.00    -0.200 F 
ENDBRANCH  60  84
BRANCH  72  95
ATOM     95  C   UNL A   1      45.265  30.424  28.773  1.00  0.00     0.064 A 
ATOM     96  C   UNL A   1      44.304  30.988  27.914  1.00  0.00     0.173 A 
ATOM     97  C   UNL A   1      46.571  30.922  28.688  1.00  0.00     0.173 A 
ATOM     98  F   UNL A   1      43.016  30.634  27.990  1.00  0.00    -0.203 F 
ATOM     99  C   UNL A   1      44.647  31.978  26.993  1.00  0.00     0.198 A 
ATOM    100  C   UNL A   1      46.904  31.935  27.794  1.00  0.00     0.198 A 
ATOM    101  F   UNL A   1      47.520  30.458  29.516  1.00  0.00    -0.203 F 
ATOM    102  F   UNL A   1      43.712  32.493  26.180  1.00  0.00    -0.200 F 
ATOM    103  C   UNL A   1      45.945  32.456  26.941  1.00  0.00     0.200 A 
ATOM    104  F   UNL A   1      48.150  32.429  27.782  1.00  0.00    -0.200 F 
ATOM    105  F   UNL A   1      46.266  33.440  26.087  1.00  0.00    -0.200 F 
ENDBRANCH  72  95
ENDBRANCH  46  47
ENDBRANCH  38  41
ENDBRANCH  36  37
ENDBRANCH  35  36
ENDBRANCH   1  35
TORSDOF 15
ENDMDL
MODEL 2
REMARK VINA RESULT:     -14.7      1.481      2.218
REMARK SMILES COc1ccc(-c2[nH]nc3nc(-c4ccc(C(F)(F)F)cc4)cc(C(=O)NCCCCNC(=O)c4ccc(-c5c6nc(c(-c7c(F)c(F)c(F)c(F)c7F)c7ccc([nH]7)c(-c7c(F)c(F)c(F)c(F)c7F)c7nc(c(-c8c(F)c(F)c(F)c(F)c8F)c8ccc5[nH]8)C=C7)C=C6)cc4)c23)cc1
REMARK SMILES IDX 29 1 28 2 27 3 25 4 26 5 24 7 7 8 8 9 98 10 9 11 10 13 11 14
REMARK SMILES IDX 23 15 12 16 6 17 3 18 4 19 100 20 5 21 99 22 2 23 1 24 13 25
REMARK SMILES IDX 14 26 22 27 15 28 21 29 16 30 17 31 18 32 19 33 20 34 30 35
REMARK SMILES IDX 31 36 32 37 33 38 34 40 35 41 36 42 97 43 37 44 96 45 38 46
REMARK SMILES IDX 39 47 40 48 90 49 41 50 95 51 89 52 91 53 42 54 94 55 88 56
REMARK SMILES IDX 87 57 43 59 75 60 55 61 74 62 56 63 59 64 73 65 92 66 57 67
REMARK SMILES IDX 58 68 72 70 93 71 60 72 44 73 45 74 53 75 46 76 47 77 51 78
REMARK SMILES IDX 54 79 48 80 49 81 52 82 50 83 76 84 77 85 85 86 78 87 79 88
REMARK SMILES IDX 83 89 86 90 80 91 81 92 84 93 82 94 61 95 62 96 70 97 63 98
REMARK SMILES IDX 64 99 68 100 71 101 65 102 66 103 69 104 67 105
REMARK H PARENT 27 6 8 12 32 39 91 58 59 69
REMARK Flexibility Score: inf
ROOT
ATOM      1  C   UNL A   1      32.115  30.345  26.680  1.00  0.00     0.023 C 
ENDROOT
BRANCH   1   2
ATOM      2  C   UNL A   1      32.423  29.186  25.732  1.00  0.00     0.116 C 
BRANCH   2   3
ATOM      3  N   UNL A   1      31.731  27.961  26.074  1.00  0.00    -0.352 N 
ATOM      4  C   UNL A   1      31.891  26.629  25.785  1.00  0.00     0.252 C 
ATOM      5  O   UNL A   1      31.267  25.888  26.538  1.00  0.00    -0.269 OA
ATOM      6  H   UNL A   1      30.955  28.123  26.656  1.00  0.00     0.163 HD
BRANCH   4   7
ATOM      7  C   UNL A   1      32.770  26.077  24.727  1.00  0.00     0.055 A 
ATOM      8  C   UNL A   1      31.543  26.639  22.558  1.00  0.00     0.075 A 
ATOM      9  N   UNL A   1      31.827  26.244  21.268  1.00  0.00    -0.275 N 
ATOM     10  C   UNL A   1      32.528  26.040  23.334  1.00  0.00     0.059 A 
ATOM     11  N   UNL A   1      32.892  25.448  21.133  1.00  0.00    -0.154 NA
ATOM     12  H   UNL A   1      31.282  26.530  20.499  1.00  0.00     0.190 HD
ATOM     13  C   UNL A   1      33.341  25.313  22.378  1.00  0.00     0.182 A 
ATOM     14  N   UNL A   1      34.421  24.571  22.731  1.00  0.00    -0.226 NA
ATOM     15  C   UNL A   1      33.971  25.409  24.999  1.00  0.00     0.043 A 
ATOM     16  C   UNL A   1      34.688  24.638  24.053  1.00  0.00     0.074 A 
BRANCH   8  17
ATOM     17  C   UNL A   1      30.412  27.534  22.785  1.00  0.00     0.001 A 
ATOM     18  C   UNL A   1      28.228  29.273  23.152  1.00  0.00     0.118 A 
ATOM     19  C   UNL A   1      29.434  29.753  22.641  1.00  0.00     0.047 A 
ATOM     20  C   UNL A   1      28.116  27.925  23.491  1.00  0.00     0.047 A 
ATOM     21  C   UNL A   1      30.522  28.894  22.465  1.00  0.00     0.014 A 
ATOM     22  C   UNL A   1      29.211  27.065  23.330  1.00  0.00     0.014 A 
BRANCH  18  23
ATOM     23  O   UNL A   1      27.221  30.196  23.222  1.00  0.00    -0.497 OA
ATOM     24  C   UNL A   1      27.621  31.557  23.114  1.00  0.00     0.278 C 
ENDBRANCH  18  23
ENDBRANCH   8  17
BRANCH  16  25
ATOM     25  C   UNL A   1      35.745  23.753  24.570  1.00  0.00     0.000 A 
ATOM     26  C   UNL A   1      36.159  22.607  23.882  1.00  0.00     0.011 A 
ATOM     27  C   UNL A   1      36.440  24.113  25.742  1.00  0.00     0.011 A 
ATOM     28  C   UNL A   1      37.269  21.875  24.325  1.00  0.00     0.014 A 
ATOM     29  C   UNL A   1      37.544  23.386  26.186  1.00  0.00     0.014 A 
ATOM     30  C   UNL A   1      37.982  22.267  25.471  1.00  0.00     0.056 A 
BRANCH  30  31
ATOM     31  C   UNL A   1      39.202  21.494  25.913  1.00  0.00     0.416 C 
ATOM     32  F   UNL A   1      40.330  21.869  25.252  1.00  0.00    -0.166 F 
ATOM     33  F   UNL A   1      39.468  21.663  27.238  1.00  0.00    -0.166 F 
ATOM     34  F   UNL A   1      39.089  20.148  25.728  1.00  0.00    -0.166 F 
ENDBRANCH  30  31
ENDBRANCH  16  25
ENDBRANCH   4   7
ENDBRANCH   2   3
ENDBRANCH   1   2
BRANCH   1  35
ATOM     35  C   UNL A   1      33.273  31.332  26.903  1.00  0.00     0.023 C 
BRANCH  35  36
ATOM     36  C   UNL A   1      34.349  30.887  27.895  1.00  0.00     0.116 C 
BRANCH  36  37
ATOM     37  N   UNL A   1      34.412  31.711  29.106  1.00  0.00    -0.352 N 
ATOM     38  C   UNL A   1      35.292  31.607  30.175  1.00  0.00     0.251 C 
ATOM     39  H   UNL A   1      33.744  32.432  29.169  1.00  0.00     0.163 HD
ATOM     40  O   UNL A   1      35.015  32.054  31.274  1.00  0.00    -0.269 OA
BRANCH  38  41
ATOM     41  C   UNL A   1      36.602  30.973  29.940  1.00  0.00     0.039 A 
ATOM     42  C   UNL A   1      37.721  31.679  29.496  1.00  0.00     0.014 A 
ATOM     43  C   UNL A   1      36.686  29.617  30.214  1.00  0.00     0.014 A 
ATOM     44  C   UNL A   1      38.944  31.011  29.424  1.00  0.00     0.010 A 
ATOM     45  C   UNL A   1      37.907  29.017  30.340  1.00  0.00     0.010 A 
ATOM     46  C   UNL A   1      39.030  29.681  29.870  1.00  0.00    -0.014 A 
BRANCH  46  47
ATOM     47  C   UNL A   1      40.306  28.983  29.969  1.00  0.00     0.031 A 
ATOM     48  C   UNL A   1      40.810  28.842  31.361  1.00  0.00     0.074 A 
ATOM     49  C   UNL A   1      40.844  28.306  28.929  1.00  0.00     0.049 A 
ATOM     50  N   UNL A   1      41.859  29.389  31.879  1.00  0.00    -0.248 NA
ATOM     51  C   UNL A   1      39.967  28.132  32.338  1.00  0.00     0.031 C 
ATOM     52  C   UNL A   1      40.274  28.085  27.593  1.00  0.00     0.029 A 
ATOM     53  N   UNL A   1      41.991  27.575  28.879  1.00  0.00    -0.354 N 
ATOM     54  C   UNL A   1      41.928  28.916  33.188  1.00  0.00     0.074 A 
ATOM     55  C   UNL A   1      40.646  28.329  33.469  1.00  0.00     0.031 C 
ATOM     56  C   UNL A   1      40.948  27.098  26.962  1.00  0.00     0.029 A 
ATOM     57  C   UNL A   1      42.104  26.750  27.763  1.00  0.00     0.049 A 
ATOM     58  H   UNL A   1      42.684  27.625  29.575  1.00  0.00     0.167 HD
ATOM     59  C   UNL A   1      43.132  28.797  33.815  1.00  0.00     0.037 A 
ATOM     60  C   UNL A   1      43.076  25.835  27.522  1.00  0.00     0.037 A 
ATOM     61  C   UNL A   1      44.136  29.582  33.134  1.00  0.00     0.049 A 
ATOM     62  C   UNL A   1      44.222  26.182  28.397  1.00  0.00     0.074 A 
ATOM     63  C   UNL A   1      44.297  30.921  32.840  1.00  0.00     0.029 A 
ATOM     64  N   UNL A   1      44.995  28.912  32.298  1.00  0.00    -0.354 N 
ATOM     65  N   UNL A   1      44.932  27.269  28.265  1.00  0.00    -0.248 NA
ATOM     66  C   UNL A   1      44.282  25.548  29.704  1.00  0.00     0.031 C 
ATOM     67  C   UNL A   1      44.878  30.946  31.535  1.00  0.00     0.029 A 
ATOM     68  C   UNL A   1      45.109  29.629  31.137  1.00  0.00     0.049 A 
ATOM     69  H   UNL A   1      45.450  28.063  32.499  1.00  0.00     0.167 HD
ATOM     70  C   UNL A   1      45.164  27.695  29.565  1.00  0.00     0.074 A 
ATOM     71  C   UNL A   1      44.823  26.549  30.404  1.00  0.00     0.031 C 
ATOM     72  C   UNL A   1      45.326  29.022  29.844  1.00  0.00     0.037 A 
BRANCH  59  73
ATOM     73  C   UNL A   1      43.509  27.659  34.745  1.00  0.00     0.064 A 
ATOM     74  C   UNL A   1      43.908  27.971  36.063  1.00  0.00     0.173 A 
ATOM     75  C   UNL A   1      43.808  26.344  34.325  1.00  0.00     0.173 A 
ATOM     76  F   UNL A   1      43.676  29.188  36.578  1.00  0.00    -0.203 F 
ATOM     77  C   UNL A   1      44.651  27.082  36.844  1.00  0.00     0.198 A 
ATOM     78  C   UNL A   1      44.505  25.442  35.128  1.00  0.00     0.198 A 
ATOM     79  F   UNL A   1      43.543  25.901  33.093  1.00  0.00    -0.203 F 
ATOM     80  F   UNL A   1      45.133  27.481  38.028  1.00  0.00    -0.200 F 
ATOM     81  C   UNL A   1      44.961  25.823  36.370  1.00  0.00     0.200 A 
ATOM     82  F   UNL A   1      44.804  24.228  34.643  1.00  0.00    -0.200 F 
ATOM     83  F   UNL A   1      45.735  24.995  37.084  1.00  0.00    -0.200 F 
ENDBRANCH  59  73
BRANCH  60  84
ATOM     84  C   UNL A   1      42.969  24.525  26.837  1.00  0.00     0.064 A 
ATOM     85  C   UNL A   1      43.507  24.328  25.554  1.00  0.00     0.173 A 
ATOM     86  C   UNL A   1      42.592  23.366  27.542  1.00  0.00     0.173 A 
ATOM     87  F   UNL A   1      43.934  25.376  24.835  1.00  0.00    -0.203 F 
ATOM     88  C   UNL A   1      43.681  23.046  25.019  1.00  0.00     0.198 A 
ATOM     89  C   UNL A   1      42.764  22.087  27.007  1.00  0.00     0.198 A 
ATOM     90  F   UNL A   1      42.143  23.447  28.802  1.00  0.00    -0.203 F 
ATOM     91  F   UNL A   1      44.255  22.894  23.817  1.00  0.00    -0.200 F 
ATOM     92  C   UNL A   1      43.319  21.926  25.751  1.00  0.00     0.200 A 
ATOM     93  F   UNL A   1      42.447  21.011  27.740  1.00  0.00    -0.200 F 
ATOM     94  F   UNL A   1      43.545  20.697  25.266  1.00  0.00    -0.200 F 
ENDBRANCH  60  84
BRANCH  72  95
ATOM     95  C   UNL A   1      45.540  29.960  28.687  1.00  0.00     0.064 A 
ATOM     96  C   UNL A   1      44.508  30.628  28.003  1.00  0.00     0.173 A 
ATOM     97  C   UNL A   1      46.856  30.306  28.356  1.00  0.00     0.173 A 
ATOM     98  F   UNL A   1      43.225  30.424  28.318  1.00  0.00    -0.203 F 
ATOM     99  C   UNL A   1      44.787  31.570  27.012  1.00  0.00     0.198 A 
ATOM    100  C   UNL A   1      47.132  31.273  27.393  1.00  0.00     0.198 A 
ATOM    101  F   UNL A   1      47.882  29.738  29.010  1.00  0.00    -0.203 F 
ATOM    102  F   UNL A   1      43.783  32.187  26.370  1.00  0.00    -0.200 F 
ATOM    103  C   UNL A   1      46.098  31.898  26.716  1.00  0.00     0.200 A 
ATOM    104  F   UNL A   1      48.402  31.621  27.145  1.00  0.00    -0.200 F 
ATOM    105  F   UNL A   1      46.367  32.836  25.796  1.00  0.00    -0.200 F 
ENDBRANCH  72  95
ENDBRANCH  46  47
ENDBRANCH  38  41
ENDBRANCH  36  37
ENDBRANCH  35  36
ENDBRANCH   1  35
TORSDOF 15
ENDMDL
MODEL 3
REMARK VINA RESULT:     -14.7      4.212      9.372
REMARK SMILES COc1ccc(-c2[nH]nc3nc(-c4ccc(C(F)(F)F)cc4)cc(C(=O)NCCCCNC(=O)c4ccc(-c5c6nc(c(-c7c(F)c(F)c(F)c(F)c7F)c7ccc([nH]7)c(-c7c(F)c(F)c(F)c(F)c7F)c7nc(c(-c8c(F)c(F)c(F)c(F)c8F)c8ccc5[nH]8)C=C7)C=C6)cc4)c23)cc1
REMARK SMILES IDX 29 1 28 2 27 3 25 4 26 5 24 7 7 8 8 9 98 10 9 11 10 13 11 14
REMARK SMILES IDX 23 15 12 16 6 17 3 18 4 19 100 20 5 21 99 22 2 23 1 24 13 25
REMARK SMILES IDX 14 26 22 27 15 28 21 29 16 30 17 31 18 32 19 33 20 34 30 35
REMARK SMILES IDX 31 36 32 37 33 38 34 40 35 41 36 42 97 43 37 44 96 45 38 46
REMARK SMILES IDX 39 47 40 48 90 49 41 50 95 51 89 52 91 53 42 54 94 55 88 56
REMARK SMILES IDX 87 57 43 59 75 60 55 61 74 62 56 63 59 64 73 65 92 66 57 67
REMARK SMILES IDX 58 68 72 70 93 71 60 72 44 73 45 74 53 75 46 76 47 77 51 78
REMARK SMILES IDX 54 79 48 80 49 81 52 82 50 83 76 84 77 85 85 86 78 87 79 88
REMARK SMILES IDX 83 89 86 90 80 91 81 92 84 93 82 94 61 95 62 96 70 97 63 98
REMARK SMILES IDX 64 99 68 100 71 101 65 102 66 103 69 104 67 105
REMARK H PARENT 27 6 8 12 32 39 91 58 59 69
REMARK Flexibility Score: inf
ROOT
ATOM      1  C   UNL A   1      36.797  22.590  23.482  1.00  0.00     0.023 C 
ENDROOT
BRANCH   1   2
ATOM      2  C   UNL A   1      35.500  23.351  23.756  1.00  0.00     0.116 C 
BRANCH   2   3
ATOM      3  N   UNL A   1      34.447  23.060  22.806  1.00  0.00    -0.352 N 
ATOM      4  C   UNL A   1      33.131  23.420  22.657  1.00  0.00     0.252 C 
ATOM      5  O   UNL A   1      32.689  23.199  21.534  1.00  0.00    -0.269 OA
ATOM      6  H   UNL A   1      34.748  22.455  22.090  1.00  0.00     0.163 HD
BRANCH   4   7
ATOM      7  C   UNL A   1      32.295  24.075  23.691  1.00  0.00     0.055 A 
ATOM      8  C   UNL A   1      31.806  22.203  25.360  1.00  0.00     0.075 A 
ATOM      9  N   UNL A   1      30.959  22.203  26.446  1.00  0.00    -0.275 N 
ATOM     10  C   UNL A   1      31.677  23.473  24.811  1.00  0.00     0.059 A 
ATOM     11  N   UNL A   1      30.291  23.342  26.653  1.00  0.00    -0.154 NA
ATOM     12  H   UNL A   1      30.853  21.418  27.030  1.00  0.00     0.190 HD
ATOM     13  C   UNL A   1      30.716  24.136  25.673  1.00  0.00     0.182 A 
ATOM     14  N   UNL A   1      30.295  25.411  25.478  1.00  0.00    -0.226 NA
ATOM     15  C   UNL A   1      31.922  25.424  23.633  1.00  0.00     0.043 A 
ATOM     16  C   UNL A   1      30.916  26.009  24.438  1.00  0.00     0.074 A 
BRANCH   8  17
ATOM     17  C   UNL A   1      32.595  21.005  25.083  1.00  0.00     0.001 A 
ATOM     18  C   UNL A   1      34.121  18.717  24.480  1.00  0.00     0.118 A 
ATOM     19  C   UNL A   1      32.873  18.910  23.886  1.00  0.00     0.047 A 
ATOM     20  C   UNL A   1      34.601  19.662  25.386  1.00  0.00     0.047 A 
ATOM     21  C   UNL A   1      32.110  20.041  24.190  1.00  0.00     0.014 A 
ATOM     22  C   UNL A   1      33.831  20.789  25.703  1.00  0.00     0.014 A 
BRANCH  18  23
ATOM     23  O   UNL A   1      34.796  17.605  24.060  1.00  0.00    -0.497 OA
ATOM     24  C   UNL A   1      34.204  16.357  24.400  1.00  0.00     0.278 C 
ENDBRANCH  18  23
ENDBRANCH   8  17
BRANCH  16  25
ATOM     25  C   UNL A   1      30.428  27.341  24.042  1.00  0.00     0.000 A 
ATOM     26  C   UNL A   1      29.231  27.518  23.342  1.00  0.00     0.011 A 
ATOM     27  C   UNL A   1      31.129  28.489  24.463  1.00  0.00     0.011 A 
ATOM     28  C   UNL A   1      28.722  28.805  23.117  1.00  0.00     0.014 A 
ATOM     29  C   UNL A   1      30.627  29.772  24.240  1.00  0.00     0.014 A 
ATOM     30  C   UNL A   1      29.407  29.942  23.579  1.00  0.00     0.056 A 
BRANCH  30  31
ATOM     31  C   UNL A   1      28.827  31.321  23.368  1.00  0.00     0.416 C 
ATOM     32  F   UNL A   1      27.475  31.351  23.517  1.00  0.00    -0.166 F 
ATOM     33  F   UNL A   1      29.324  32.231  24.251  1.00  0.00    -0.166 F 
ATOM     34  F   UNL A   1      29.079  31.832  22.129  1.00  0.00    -0.166 F 
ENDBRANCH  30  31
ENDBRANCH  16  25
ENDBRANCH   4   7
ENDBRANCH   2   3
ENDBRANCH   1   2
BRANCH   1  35
ATOM     35  C   UNL A   1      37.378  21.833  24.688  1.00  0.00     0.023 C 
BRANCH  35  36
ATOM     36  C   UNL A   1      38.061  22.694  25.751  1.00  0.00     0.116 C 
BRANCH  36  37
ATOM     37  N   UNL A   1      39.102  21.987  26.503  1.00  0.00    -0.352 N 
ATOM     38  C   UNL A   1      40.306  22.483  26.984  1.00  0.00     0.251 C 
ATOM     39  H   UNL A   1      38.923  21.037  26.693  1.00  0.00     0.163 HD
ATOM     40  O   UNL A   1      41.246  21.748  27.228  1.00  0.00    -0.269 OA
BRANCH  38  41
ATOM     41  C   UNL A   1      40.412  23.932  27.237  1.00  0.00     0.039 A 
ATOM     42  C   UNL A   1      39.456  24.852  26.807  1.00  0.00     0.014 A 
ATOM     43  C   UNL A   1      41.516  24.349  27.965  1.00  0.00     0.014 A 
ATOM     44  C   UNL A   1      39.587  26.183  27.205  1.00  0.00     0.010 A 
ATOM     45  C   UNL A   1      41.539  25.597  28.521  1.00  0.00     0.010 A 
ATOM     46  C   UNL A   1      40.625  26.541  28.083  1.00  0.00    -0.014 A 
BRANCH  46  47
ATOM     47  C   UNL A   1      40.720  27.877  28.658  1.00  0.00     0.031 A 
ATOM     48  C   UNL A   1      41.834  28.693  28.107  1.00  0.00     0.074 A 
ATOM     49  C   UNL A   1      39.739  28.409  29.422  1.00  0.00     0.049 A 
ATOM     50  N   UNL A   1      42.891  29.106  28.724  1.00  0.00    -0.248 NA
ATOM     51  C   UNL A   1      41.855  28.954  26.657  1.00  0.00     0.031 C 
ATOM     52  C   UNL A   1      38.432  27.829  29.760  1.00  0.00     0.029 A 
ATOM     53  N   UNL A   1      39.662  29.645  29.986  1.00  0.00    -0.354 N 
ATOM     54  C   UNL A   1      43.603  29.864  27.797  1.00  0.00     0.074 A 
ATOM     55  C   UNL A   1      43.033  29.561  26.512  1.00  0.00     0.031 C 
ATOM     56  C   UNL A   1      37.617  28.787  30.255  1.00  0.00     0.029 A 
ATOM     57  C   UNL A   1      38.395  29.994  30.445  1.00  0.00     0.049 A 
ATOM     58  H   UNL A   1      40.439  30.244  30.063  1.00  0.00     0.167 HD
ATOM     59  C   UNL A   1      44.403  30.887  28.211  1.00  0.00     0.037 A 
ATOM     60  C   UNL A   1      38.011  31.199  30.935  1.00  0.00     0.037 A 
ATOM     61  C   UNL A   1      44.698  30.758  29.619  1.00  0.00     0.049 A 
ATOM     62  C   UNL A   1      39.246  31.919  31.329  1.00  0.00     0.074 A 
ATOM     63  C   UNL A   1      45.319  29.807  30.406  1.00  0.00     0.029 A 
ATOM     64  N   UNL A   1      43.980  31.544  30.486  1.00  0.00    -0.354 N 
ATOM     65  N   UNL A   1      40.024  31.543  32.306  1.00  0.00    -0.248 NA
ATOM     66  C   UNL A   1      39.859  32.788  30.337  1.00  0.00     0.031 C 
ATOM     67  C   UNL A   1      44.567  29.783  31.620  1.00  0.00     0.029 A 
ATOM     68  C   UNL A   1      43.581  30.767  31.540  1.00  0.00     0.049 A 
ATOM     69  H   UNL A   1      43.785  32.502  30.369  1.00  0.00     0.167 HD
ATOM     70  C   UNL A   1      41.310  31.752  31.830  1.00  0.00     0.074 A 
ATOM     71  C   UNL A   1      41.143  32.605  30.655  1.00  0.00     0.031 C 
ATOM     72  C   UNL A   1      42.347  30.975  32.261  1.00  0.00     0.037 A 
BRANCH  59  73
ATOM     73  C   UNL A   1      44.550  32.211  27.486  1.00  0.00     0.064 A 
ATOM     74  C   UNL A   1      45.718  32.436  26.727  1.00  0.00     0.173 A 
ATOM     75  C   UNL A   1      43.780  33.365  27.756  1.00  0.00     0.173 A 
ATOM     76  F   UNL A   1      46.531  31.418  26.403  1.00  0.00    -0.203 F 
ATOM     77  C   UNL A   1      46.141  33.722  26.378  1.00  0.00     0.198 A 
ATOM     78  C   UNL A   1      44.180  34.641  27.360  1.00  0.00     0.198 A 
ATOM     79  F   UNL A   1      42.672  33.337  28.501  1.00  0.00    -0.203 F 
ATOM     80  F   UNL A   1      47.332  33.892  25.788  1.00  0.00    -0.200 F 
ATOM     81  C   UNL A   1      45.378  34.824  26.707  1.00  0.00     0.200 A 
ATOM     82  F   UNL A   1      43.429  35.698  27.701  1.00  0.00    -0.200 F 
ATOM     83  F   UNL A   1      45.815  36.062  26.440  1.00  0.00    -0.200 F 
ENDBRANCH  59  73
BRANCH  60  84
ATOM     84  C   UNL A   1      36.703  31.883  30.798  1.00  0.00     0.064 A 
ATOM     85  C   UNL A   1      35.883  32.121  31.914  1.00  0.00     0.173 A 
ATOM     86  C   UNL A   1      36.364  32.571  29.616  1.00  0.00     0.173 A 
ATOM     87  F   UNL A   1      36.165  31.543  33.090  1.00  0.00    -0.203 F 
ATOM     88  C   UNL A   1      34.806  33.012  31.859  1.00  0.00     0.198 A 
ATOM     89  C   UNL A   1      35.287  33.458  29.561  1.00  0.00     0.198 A 
ATOM     90  F   UNL A   1      37.131  32.470  28.522  1.00  0.00    -0.203 F 
ATOM     91  F   UNL A   1      34.084  33.260  32.961  1.00  0.00    -0.200 F 
ATOM     92  C   UNL A   1      34.515  33.689  30.685  1.00  0.00     0.200 A 
ATOM     93  F   UNL A   1      35.040  34.136  28.430  1.00  0.00    -0.200 F 
ATOM     94  F   UNL A   1      33.523  34.590  30.649  1.00  0.00    -0.200 F 
ENDBRANCH  60  84
BRANCH  72  95
ATOM     95  C   UNL A   1      42.114  30.102  33.465  1.00  0.00     0.064 A 
ATOM     96  C   UNL A   1      41.672  28.768  33.406  1.00  0.00     0.173 A 
ATOM     97  C   UNL A   1      42.496  30.596  34.718  1.00  0.00     0.173 A 
ATOM     98  F   UNL A   1      41.372  28.189  32.239  1.00  0.00    -0.203 F 
ATOM     99  C   UNL A   1      41.586  27.982  34.556  1.00  0.00     0.198 A 
ATOM    100  C   UNL A   1      42.445  29.799  35.858  1.00  0.00     0.198 A 
ATOM    101  F   UNL A   1      42.974  31.846  34.828  1.00  0.00    -0.203 F 
ATOM    102  F   UNL A   1      41.153  26.714  34.474  1.00  0.00    -0.200 F 
ATOM    103  C   UNL A   1      41.982  28.497  35.779  1.00  0.00     0.200 A 
ATOM    104  F   UNL A   1      42.875  30.287  37.030  1.00  0.00    -0.200 F 
ATOM    105  F   UNL A   1      41.943  27.728  36.877  1.00  0.00    -0.200 F 
ENDBRANCH  72  95
ENDBRANCH  46  47
ENDBRANCH  38  41
ENDBRANCH  36  37
ENDBRANCH  35  36
ENDBRANCH   1  35
TORSDOF 15
ENDMDL
