MODEL 1
REMARK VINA RESULT:     -12.8      0.000      0.000
REMARK SMILES C[N@H+]1CCO[C@@H](CNc2cccc(F)c2C(=O)NCCCCNC(=O)c2ccc(-c3c4nc(c(-c5c(F)c(F)c(F)c(F)c5F)c5ccc([nH]5)c(-c5c(F)c(F)c(F)c(F)c5F)c5nc(c(-c6c(F)c(F)c(F)c(F)c6F)c6ccc3[nH]6)C=C5)C=C4)cc2)C1
REMARK SMILES IDX 20 1 19 2 18 3 16 4 17 5 15 7 9 8 10 9 11 10 13 11 12 12
REMARK SMILES IDX 14 13 8 14 7 16 6 17 1 18 2 19 3 20 89 21 4 23 5 24 21 25
REMARK SMILES IDX 22 26 23 27 24 28 25 30 26 31 27 32 88 33 28 34 87 35 29 36
REMARK SMILES IDX 30 37 31 38 81 39 32 40 86 41 80 42 82 43 33 44 85 45 79 46
REMARK SMILES IDX 78 47 34 49 66 50 46 51 65 52 47 53 50 54 64 55 83 56 48 57
REMARK SMILES IDX 49 58 63 60 84 61 51 62 35 63 36 64 44 65 37 66 38 67 42 68
REMARK SMILES IDX 45 69 39 70 40 71 43 72 41 73 67 74 68 75 76 76 69 77 70 78
REMARK SMILES IDX 74 79 77 80 71 81 72 82 75 83 73 84 52 85 53 86 61 87 54 88
REMARK SMILES IDX 55 89 59 90 62 91 56 92 57 93 60 94 58 95
REMARK H PARENT 18 6 8 15 2 22 23 29 82 48 50 59
REMARK Flexibility Score: inf
ROOT
ATOM      1  C   UNL A   1      31.888  30.435  26.602  1.00  0.00     0.023 C 
ENDROOT
BRANCH   1   2
ATOM      2  C   UNL A   1      33.319  29.905  26.560  1.00  0.00     0.116 C 
BRANCH   2   3
ATOM      3  N   UNL A   1      33.772  29.508  25.240  1.00  0.00    -0.352 N 
ATOM      4  C   UNL A   1      33.277  28.574  24.356  1.00  0.00     0.256 C 
ATOM      5  O   UNL A   1      33.863  28.465  23.275  1.00  0.00    -0.269 OA
ATOM      6  H   UNL A   1      34.569  29.988  24.920  1.00  0.00     0.163 HD
BRANCH   4   7
ATOM      7  C   UNL A   1      32.153  27.646  24.683  1.00  0.00     0.098 A 
ATOM      8  C   UNL A   1      30.936  27.737  23.959  1.00  0.00     0.050 A 
ATOM      9  C   UNL A   1      29.938  26.771  24.182  1.00  0.00     0.027 A 
ATOM     10  C   UNL A   1      30.092  25.782  25.151  1.00  0.00     0.005 A 
ATOM     11  C   UNL A   1      32.234  26.724  25.727  1.00  0.00     0.138 A 
ATOM     12  C   UNL A   1      31.229  25.783  25.950  1.00  0.00     0.040 A 
ATOM     13  F   UNL A   1      33.261  26.735  26.590  1.00  0.00    -0.206 F 
BRANCH   8  14
ATOM     14  N   UNL A   1      30.671  28.811  23.094  1.00  0.00    -0.381 N 
ATOM     15  H   UNL A   1      30.992  28.805  22.163  1.00  0.00     0.160 HD
BRANCH  14  16
ATOM     16  C   UNL A   1      29.901  29.941  23.623  1.00  0.00     0.151 C 
BRANCH  16  17
ATOM     17  C   UNL A   1      28.454  29.982  23.084  1.00  0.00     0.192 C 
ATOM     18  C   UNL A   1      29.098  33.164  23.134  1.00  0.00     0.332 C 
ATOM     19  N   UNL A   1      27.900  32.462  22.692  1.00  0.00    -0.333 N 
ATOM     20  C   UNL A   1      27.927  32.140  21.255  1.00  0.00     0.290 C 
ATOM     21  C   UNL A   1      27.624  31.233  23.457  1.00  0.00     0.296 C 
ATOM     22  H   UNL A   1      27.143  33.123  22.869  1.00  0.00     0.348 HD
ATOM     23  C   UNL A   1      28.790  30.916  20.902  1.00  0.00     0.222 C 
ATOM     24  O   UNL A   1      28.422  29.755  21.657  1.00  0.00    -0.365 OA
ENDBRANCH  16  17
ENDBRANCH  14  16
ENDBRANCH   8  14
ENDBRANCH   4   7
ENDBRANCH   2   3
ENDBRANCH   1   2
BRANCH   1  25
ATOM     25  C   UNL A   1      31.713  31.951  26.646  1.00  0.00     0.023 C 
BRANCH  25  26
ATOM     26  C   UNL A   1      32.765  32.733  27.423  1.00  0.00     0.116 C 
BRANCH  26  27
ATOM     27  N   UNL A   1      32.381  34.107  27.716  1.00  0.00    -0.352 N 
ATOM     28  C   UNL A   1      32.955  35.024  28.569  1.00  0.00     0.251 C 
ATOM     29  H   UNL A   1      31.589  34.429  27.229  1.00  0.00     0.163 HD
ATOM     30  O   UNL A   1      32.439  36.118  28.739  1.00  0.00    -0.269 OA
BRANCH  28  31
ATOM     31  C   UNL A   1      34.176  34.663  29.322  1.00  0.00     0.039 A 
ATOM     32  C   UNL A   1      34.046  34.203  30.637  1.00  0.00     0.014 A 
ATOM     33  C   UNL A   1      35.437  34.740  28.728  1.00  0.00     0.014 A 
ATOM     34  C   UNL A   1      35.165  33.715  31.315  1.00  0.00     0.010 A 
ATOM     35  C   UNL A   1      36.538  34.189  29.377  1.00  0.00     0.010 A 
ATOM     36  C   UNL A   1      36.410  33.650  30.668  1.00  0.00    -0.014 A 
BRANCH  36  37
ATOM     37  C   UNL A   1      37.589  32.996  31.294  1.00  0.00     0.031 A 
ATOM     38  C   UNL A   1      38.238  31.821  30.620  1.00  0.00     0.074 A 
ATOM     39  C   UNL A   1      37.995  33.379  32.521  1.00  0.00     0.049 A 
ATOM     40  N   UNL A   1      39.133  30.990  31.088  1.00  0.00    -0.248 NA
ATOM     41  C   UNL A   1      37.798  31.520  29.248  1.00  0.00     0.031 C 
ATOM     42  C   UNL A   1      37.420  34.479  33.299  1.00  0.00     0.029 A 
ATOM     43  N   UNL A   1      38.967  32.866  33.346  1.00  0.00    -0.354 N 
ATOM     44  C   UNL A   1      39.336  30.050  30.087  1.00  0.00     0.074 A 
ATOM     45  C   UNL A   1      38.455  30.397  28.993  1.00  0.00     0.031 C 
ATOM     46  C   UNL A   1      38.049  34.558  34.482  1.00  0.00     0.029 A 
ATOM     47  C   UNL A   1      39.038  33.487  34.569  1.00  0.00     0.049 A 
ATOM     48  H   UNL A   1      39.557  32.122  33.083  1.00  0.00     0.167 HD
ATOM     49  C   UNL A   1      40.190  29.003  30.081  1.00  0.00     0.037 A 
ATOM     50  C   UNL A   1      39.795  33.212  35.650  1.00  0.00     0.037 A 
ATOM     51  C   UNL A   1      41.108  28.696  31.145  1.00  0.00     0.049 A 
ATOM     52  C   UNL A   1      40.757  32.056  35.602  1.00  0.00     0.074 A 
ATOM     53  C   UNL A   1      42.069  27.701  31.189  1.00  0.00     0.029 A 
ATOM     54  N   UNL A   1      41.187  29.386  32.344  1.00  0.00    -0.354 N 
ATOM     55  N   UNL A   1      40.972  31.203  34.631  1.00  0.00    -0.248 NA
ATOM     56  C   UNL A   1      41.581  31.821  36.798  1.00  0.00     0.031 C 
ATOM     57  C   UNL A   1      42.708  27.767  32.428  1.00  0.00     0.029 A 
ATOM     58  C   UNL A   1      42.172  28.828  33.140  1.00  0.00     0.049 A 
ATOM     59  H   UNL A   1      40.625  30.155  32.592  1.00  0.00     0.167 HD
ATOM     60  C   UNL A   1      41.966  30.349  35.086  1.00  0.00     0.074 A 
ATOM     61  C   UNL A   1      42.322  30.787  36.419  1.00  0.00     0.031 C 
ATOM     62  C   UNL A   1      42.531  29.293  34.455  1.00  0.00     0.037 A 
BRANCH  49  63
ATOM     63  C   UNL A   1      40.200  28.105  28.881  1.00  0.00     0.064 A 
ATOM     64  C   UNL A   1      39.525  26.875  28.912  1.00  0.00     0.173 A 
ATOM     65  C   UNL A   1      40.962  28.411  27.746  1.00  0.00     0.173 A 
ATOM     66  F   UNL A   1      38.789  26.534  29.980  1.00  0.00    -0.203 F 
ATOM     67  C   UNL A   1      39.630  25.975  27.855  1.00  0.00     0.198 A 
ATOM     68  C   UNL A   1      41.046  27.519  26.680  1.00  0.00     0.198 A 
ATOM     69  F   UNL A   1      41.618  29.578  27.669  1.00  0.00    -0.203 F 
ATOM     70  F   UNL A   1      39.007  24.790  27.920  1.00  0.00    -0.200 F 
ATOM     71  C   UNL A   1      40.389  26.298  26.740  1.00  0.00     0.200 A 
ATOM     72  F   UNL A   1      41.766  27.838  25.597  1.00  0.00    -0.200 F 
ATOM     73  F   UNL A   1      40.492  25.430  25.725  1.00  0.00    -0.200 F 
ENDBRANCH  49  63
BRANCH  50  74
ATOM     74  C   UNL A   1      39.673  34.049  36.872  1.00  0.00     0.064 A 
ATOM     75  C   UNL A   1      40.371  35.258  37.002  1.00  0.00     0.173 A 
ATOM     76  C   UNL A   1      38.852  33.651  37.936  1.00  0.00     0.173 A 
ATOM     77  F   UNL A   1      41.172  35.682  36.014  1.00  0.00    -0.203 F 
ATOM     78  C   UNL A   1      40.262  36.031  38.157  1.00  0.00     0.198 A 
ATOM     79  C   UNL A   1      38.723  34.438  39.079  1.00  0.00     0.198 A 
ATOM     80  F   UNL A   1      38.147  32.513  37.849  1.00  0.00    -0.203 F 
ATOM     81  F   UNL A   1      40.958  37.170  38.267  1.00  0.00    -0.200 F 
ATOM     82  C   UNL A   1      39.432  35.624  39.191  1.00  0.00     0.200 A 
ATOM     83  F   UNL A   1      37.901  34.053  40.065  1.00  0.00    -0.200 F 
ATOM     84  F   UNL A   1      39.312  36.377  40.292  1.00  0.00    -0.200 F 
ENDBRANCH  50  74
BRANCH  62  85
ATOM     85  C   UNL A   1      43.618  28.547  35.165  1.00  0.00     0.064 A 
ATOM     86  C   UNL A   1      43.300  27.518  36.064  1.00  0.00     0.173 A 
ATOM     87  C   UNL A   1      44.961  28.928  35.046  1.00  0.00     0.173 A 
ATOM     88  F   UNL A   1      42.025  27.126  36.217  1.00  0.00    -0.203 F 
ATOM     89  C   UNL A   1      44.286  26.913  36.836  1.00  0.00     0.198 A 
ATOM     90  C   UNL A   1      45.949  28.305  35.803  1.00  0.00     0.198 A 
ATOM     91  F   UNL A   1      45.314  29.901  34.191  1.00  0.00    -0.203 F 
ATOM     92  F   UNL A   1      43.954  25.959  37.718  1.00  0.00    -0.200 F 
ATOM     93  C   UNL A   1      45.609  27.308  36.706  1.00  0.00     0.200 A 
ATOM     94  F   UNL A   1      47.230  28.675  35.666  1.00  0.00    -0.200 F 
ATOM     95  F   UNL A   1      46.558  26.727  37.454  1.00  0.00    -0.200 F 
ENDBRANCH  62  85
ENDBRANCH  36  37
ENDBRANCH  28  31
ENDBRANCH  26  27
ENDBRANCH  25  26
ENDBRANCH   1  25
TORSDOF 14
ENDMDL
MODEL 2
REMARK VINA RESULT:     -12.8      0.466      7.311
REMARK SMILES C[N@H+]1CCO[C@@H](CNc2cccc(F)c2C(=O)NCCCCNC(=O)c2ccc(-c3c4nc(c(-c5c(F)c(F)c(F)c(F)c5F)c5ccc([nH]5)c(-c5c(F)c(F)c(F)c(F)c5F)c5nc(c(-c6c(F)c(F)c(F)c(F)c6F)c6ccc3[nH]6)C=C5)C=C4)cc2)C1
REMARK SMILES IDX 20 1 19 2 18 3 16 4 17 5 15 7 9 8 10 9 11 10 13 11 12 12
REMARK SMILES IDX 14 13 8 14 7 16 6 17 1 18 2 19 3 20 89 21 4 23 5 24 21 25
REMARK SMILES IDX 22 26 23 27 24 28 25 30 26 31 27 32 88 33 28 34 87 35 29 36
REMARK SMILES IDX 30 37 31 38 81 39 32 40 86 41 80 42 82 43 33 44 85 45 79 46
REMARK SMILES IDX 78 47 34 49 66 50 46 51 65 52 47 53 50 54 64 55 83 56 48 57
REMARK SMILES IDX 49 58 63 60 84 61 51 62 35 63 36 64 44 65 37 66 38 67 42 68
REMARK SMILES IDX 45 69 39 70 40 71 43 72 41 73 67 74 68 75 76 76 69 77 70 78
REMARK SMILES IDX 74 79 77 80 71 81 72 82 75 83 73 84 52 85 53 86 61 87 54 88
REMARK SMILES IDX 55 89 59 90 62 91 56 92 57 93 60 94 58 95
REMARK H PARENT 18 6 8 15 2 22 23 29 82 48 50 59
REMARK Flexibility Score: inf
ROOT
ATOM      1  C   UNL A   1      31.679  30.752  26.525  1.00  0.00     0.023 C 
ENDROOT
BRANCH   1   2
ATOM      2  C   UNL A   1      33.079  30.146  26.571  1.00  0.00     0.116 C 
BRANCH   2   3
ATOM      3  N   UNL A   1      33.581  29.702  25.284  1.00  0.00    -0.352 N 
ATOM      4  C   UNL A   1      33.139  28.715  24.431  1.00  0.00     0.256 C 
ATOM      5  O   UNL A   1      33.761  28.574  23.374  1.00  0.00    -0.269 OA
ATOM      6  H   UNL A   1      34.375  30.190  24.966  1.00  0.00     0.163 HD
BRANCH   4   7
ATOM      7  C   UNL A   1      32.033  27.771  24.768  1.00  0.00     0.098 A 
ATOM      8  C   UNL A   1      30.830  27.804  24.016  1.00  0.00     0.050 A 
ATOM      9  C   UNL A   1      29.852  26.821  24.254  1.00  0.00     0.027 A 
ATOM     10  C   UNL A   1      30.010  25.871  25.262  1.00  0.00     0.005 A 
ATOM     11  C   UNL A   1      32.114  26.889  25.847  1.00  0.00     0.138 A 
ATOM     12  C   UNL A   1      31.129  25.931  26.083  1.00  0.00     0.040 A 
ATOM     13  F   UNL A   1      33.122  26.958  26.730  1.00  0.00    -0.206 F 
BRANCH   8  14
ATOM     14  N   UNL A   1      30.556  28.838  23.108  1.00  0.00    -0.381 N 
ATOM     15  H   UNL A   1      30.847  28.780  22.169  1.00  0.00     0.160 HD
BRANCH  14  16
ATOM     16  C   UNL A   1      29.824  30.008  23.603  1.00  0.00     0.151 C 
BRANCH  16  17
ATOM     17  C   UNL A   1      28.379  30.081  23.063  1.00  0.00     0.192 C 
ATOM     18  C   UNL A   1      29.107  33.245  23.076  1.00  0.00     0.332 C 
ATOM     19  N   UNL A   1      27.890  32.569  22.641  1.00  0.00    -0.333 N 
ATOM     20  C   UNL A   1      27.910  32.230  21.209  1.00  0.00     0.290 C 
ATOM     21  C   UNL A   1      27.582  31.358  23.421  1.00  0.00     0.296 C 
ATOM     22  H   UNL A   1      27.151  33.252  22.810  1.00  0.00     0.348 HD
ATOM     23  C   UNL A   1      28.740  30.980  20.870  1.00  0.00     0.222 C 
ATOM     24  O   UNL A   1      28.341  29.839  21.639  1.00  0.00    -0.365 OA
ENDBRANCH  16  17
ENDBRANCH  14  16
ENDBRANCH   8  14
ENDBRANCH   4   7
ENDBRANCH   2   3
ENDBRANCH   1   2
BRANCH   1  25
ATOM     25  C   UNL A   1      31.577  32.269  26.664  1.00  0.00     0.023 C 
BRANCH  25  26
ATOM     26  C   UNL A   1      32.759  32.971  27.323  1.00  0.00     0.116 C 
BRANCH  26  27
ATOM     27  N   UNL A   1      32.473  34.334  27.747  1.00  0.00    -0.352 N 
ATOM     28  C   UNL A   1      33.055  35.093  28.740  1.00  0.00     0.251 C 
ATOM     29  H   UNL A   1      31.754  34.782  27.247  1.00  0.00     0.163 HD
ATOM     30  O   UNL A   1      32.624  36.206  29.000  1.00  0.00    -0.269 OA
BRANCH  28  31
ATOM     31  C   UNL A   1      34.176  34.536  29.529  1.00  0.00     0.039 A 
ATOM     32  C   UNL A   1      33.897  33.922  30.755  1.00  0.00     0.014 A 
ATOM     33  C   UNL A   1      35.486  34.582  29.050  1.00  0.00     0.014 A 
ATOM     34  C   UNL A   1      34.915  33.258  31.446  1.00  0.00     0.010 A 
ATOM     35  C   UNL A   1      36.483  33.862  29.701  1.00  0.00     0.010 A 
ATOM     36  C   UNL A   1      36.203  33.173  30.893  1.00  0.00    -0.014 A 
BRANCH  36  37
ATOM     37  C   UNL A   1      37.271  32.347  31.513  1.00  0.00     0.031 A 
ATOM     38  C   UNL A   1      37.801  32.705  32.872  1.00  0.00     0.074 A 
ATOM     39  C   UNL A   1      37.847  31.354  30.804  1.00  0.00     0.049 A 
ATOM     40  N   UNL A   1      38.856  32.246  33.496  1.00  0.00    -0.248 NA
ATOM     41  C   UNL A   1      37.065  33.740  33.617  1.00  0.00     0.031 C 
ATOM     42  C   UNL A   1      37.452  30.935  29.458  1.00  0.00     0.029 A 
ATOM     43  N   UNL A   1      38.910  30.537  31.106  1.00  0.00    -0.354 N 
ATOM     44  C   UNL A   1      38.931  32.960  34.684  1.00  0.00     0.074 A 
ATOM     45  C   UNL A   1      37.830  33.899  34.687  1.00  0.00     0.031 C 
ATOM     46  C   UNL A   1      38.258  29.941  29.052  1.00  0.00     0.029 A 
ATOM     47  C   UNL A   1      39.256  29.683  30.086  1.00  0.00     0.049 A 
ATOM     48  H   UNL A   1      39.378  30.560  31.972  1.00  0.00     0.167 HD
ATOM     49  C   UNL A   1      39.831  32.832  35.684  1.00  0.00     0.037 A 
ATOM     50  C   UNL A   1      40.277  28.810  29.982  1.00  0.00     0.037 A 
ATOM     51  C   UNL A   1      40.888  31.856  35.705  1.00  0.00     0.049 A 
ATOM     52  C   UNL A   1      41.247  28.669  31.124  1.00  0.00     0.074 A 
ATOM     53  C   UNL A   1      41.798  31.599  36.716  1.00  0.00     0.029 A 
ATOM     54  N   UNL A   1      41.169  30.973  34.675  1.00  0.00    -0.354 N 
ATOM     55  N   UNL A   1      41.279  29.318  32.262  1.00  0.00    -0.248 NA
ATOM     56  C   UNL A   1      42.323  27.678  30.970  1.00  0.00     0.031 C 
ATOM     57  C   UNL A   1      42.652  30.582  36.285  1.00  0.00     0.029 A 
ATOM     58  C   UNL A   1      42.249  30.178  35.022  1.00  0.00     0.049 A 
ATOM     59  H   UNL A   1      40.677  30.920  33.825  1.00  0.00     0.167 HD
ATOM     60  C   UNL A   1      42.357  28.801  32.965  1.00  0.00     0.074 A 
ATOM     61  C   UNL A   1      42.953  27.778  32.133  1.00  0.00     0.031 C 
ATOM     62  C   UNL A   1      42.814  29.147  34.192  1.00  0.00     0.037 A 
BRANCH  49  63
ATOM     63  C   UNL A   1      39.718  33.752  36.862  1.00  0.00     0.064 A 
ATOM     64  C   UNL A   1      38.905  33.408  37.952  1.00  0.00     0.173 A 
ATOM     65  C   UNL A   1      40.325  35.014  36.863  1.00  0.00     0.173 A 
ATOM     66  F   UNL A   1      38.295  32.213  37.992  1.00  0.00    -0.203 F 
ATOM     67  C   UNL A   1      38.688  34.306  38.993  1.00  0.00     0.198 A 
ATOM     68  C   UNL A   1      40.126  35.901  37.918  1.00  0.00     0.198 A 
ATOM     69  F   UNL A   1      41.117  35.383  35.846  1.00  0.00    -0.203 F 
ATOM     70  F   UNL A   1      37.878  33.973  40.008  1.00  0.00    -0.200 F 
ATOM     71  C   UNL A   1      39.299  35.551  38.976  1.00  0.00     0.200 A 
ATOM     72  F   UNL A   1      40.729  37.097  37.907  1.00  0.00    -0.200 F 
ATOM     73  F   UNL A   1      39.088  36.416  39.977  1.00  0.00    -0.200 F 
ENDBRANCH  49  63
BRANCH  50  74
ATOM     74  C   UNL A   1      40.435  27.998  28.747  1.00  0.00     0.064 A 
ATOM     75  C   UNL A   1      39.820  26.744  28.614  1.00  0.00     0.173 A 
ATOM     76  C   UNL A   1      41.206  28.464  27.675  1.00  0.00     0.173 A 
ATOM     77  F   UNL A   1      39.073  26.252  29.613  1.00  0.00    -0.203 F 
ATOM     78  C   UNL A   1      39.982  25.983  27.457  1.00  0.00     0.198 A 
ATOM     79  C   UNL A   1      41.347  27.713  26.509  1.00  0.00     0.198 A 
ATOM     80  F   UNL A   1      41.796  29.667  27.746  1.00  0.00    -0.203 F 
ATOM     81  F   UNL A   1      39.405  24.778  27.365  1.00  0.00    -0.200 F 
ATOM     82  C   UNL A   1      40.740  26.472  26.403  1.00  0.00     0.200 A 
ATOM     83  F   UNL A   1      42.058  28.201  25.483  1.00  0.00    -0.200 F 
ATOM     84  F   UNL A   1      40.879  25.747  25.285  1.00  0.00    -0.200 F 
ENDBRANCH  50  74
BRANCH  62  85
ATOM     85  C   UNL A   1      43.991  28.402  34.741  1.00  0.00     0.064 A 
ATOM     86  C   UNL A   1      43.800  27.244  35.510  1.00  0.00     0.173 A 
ATOM     87  C   UNL A   1      45.295  28.898  34.606  1.00  0.00     0.173 A 
ATOM     88  F   UNL A   1      42.568  26.739  35.674  1.00  0.00    -0.203 F 
ATOM     89  C   UNL A   1      44.870  26.623  36.144  1.00  0.00     0.198 A 
ATOM     90  C   UNL A   1      46.367  28.260  35.223  1.00  0.00     0.198 A 
ATOM     91  F   UNL A   1      45.527  29.996  33.871  1.00  0.00    -0.203 F 
ATOM     92  F   UNL A   1      44.660  25.541  36.907  1.00  0.00    -0.200 F 
ATOM     93  C   UNL A   1      46.153  27.132  36.001  1.00  0.00     0.200 A 
ATOM     94  F   UNL A   1      47.609  28.742  35.072  1.00  0.00    -0.200 F 
ATOM     95  F   UNL A   1      47.183  26.534  36.617  1.00  0.00    -0.200 F 
ENDBRANCH  62  85
ENDBRANCH  36  37
ENDBRANCH  28  31
ENDBRANCH  26  27
ENDBRANCH  25  26
ENDBRANCH   1  25
TORSDOF 14
ENDMDL
MODEL 3
REMARK VINA RESULT:     -12.7      6.801     12.022
REMARK SMILES C[N@H+]1CCO[C@@H](CNc2cccc(F)c2C(=O)NCCCCNC(=O)c2ccc(-c3c4nc(c(-c5c(F)c(F)c(F)c(F)c5F)c5ccc([nH]5)c(-c5c(F)c(F)c(F)c(F)c5F)c5nc(c(-c6c(F)c(F)c(F)c(F)c6F)c6ccc3[nH]6)C=C5)C=C4)cc2)C1
REMARK SMILES IDX 20 1 19 2 18 3 16 4 17 5 15 7 9 8 10 9 11 10 13 11 12 12
REMARK SMILES IDX 14 13 8 14 7 16 6 17 1 18 2 19 3 20 89 21 4 23 5 24 21 25
REMARK SMILES IDX 22 26 23 27 24 28 25 30 26 31 27 32 88 33 28 34 87 35 29 36
REMARK SMILES IDX 30 37 31 38 81 39 32 40 86 41 80 42 82 43 33 44 85 45 79 46
REMARK SMILES IDX 78 47 34 49 66 50 46 51 65 52 47 53 50 54 64 55 83 56 48 57
REMARK SMILES IDX 49 58 63 60 84 61 51 62 35 63 36 64 44 65 37 66 38 67 42 68
REMARK SMILES IDX 45 69 39 70 40 71 43 72 41 73 67 74 68 75 76 76 69 77 70 78
REMARK SMILES IDX 74 79 77 80 71 81 72 82 75 83 73 84 52 85 53 86 61 87 54 88
REMARK SMILES IDX 55 89 59 90 62 91 56 92 57 93 60 94 58 95
REMARK H PARENT 18 6 8 15 2 22 23 29 82 48 50 59
REMARK Flexibility Score: inf
ROOT
ATOM      1  C   UNL A   1      37.260  21.237  24.573  1.00  0.00     0.023 C 
ENDROOT
BRANCH   1   2
ATOM      2  C   UNL A   1      37.240  22.500  25.431  1.00  0.00     0.116 C 
BRANCH   2   3
ATOM      3  N   UNL A   1      36.203  22.517  26.446  1.00  0.00    -0.352 N 
ATOM      4  C   UNL A   1      34.830  22.506  26.339  1.00  0.00     0.256 C 
ATOM      5  O   UNL A   1      34.189  22.502  27.393  1.00  0.00    -0.269 OA
ATOM      6  H   UNL A   1      36.539  22.541  27.371  1.00  0.00     0.163 HD
BRANCH   4   7
ATOM      7  C   UNL A   1      34.106  22.596  25.036  1.00  0.00     0.098 A 
ATOM      8  C   UNL A   1      33.318  21.502  24.594  1.00  0.00     0.050 A 
ATOM      9  C   UNL A   1      32.534  21.651  23.436  1.00  0.00     0.027 A 
ATOM     10  C   UNL A   1      32.580  22.818  22.677  1.00  0.00     0.005 A 
ATOM     11  C   UNL A   1      34.227  23.705  24.197  1.00  0.00     0.138 A 
ATOM     12  C   UNL A   1      33.457  23.832  23.040  1.00  0.00     0.040 A 
ATOM     13  F   UNL A   1      35.123  24.672  24.443  1.00  0.00    -0.206 F 
BRANCH   8  14
ATOM     14  N   UNL A   1      33.368  20.252  25.233  1.00  0.00    -0.381 N 
ATOM     15  H   UNL A   1      32.896  20.096  26.082  1.00  0.00     0.160 HD
BRANCH  14  16
ATOM     16  C   UNL A   1      34.149  19.188  24.593  1.00  0.00     0.151 C 
BRANCH  16  17
ATOM     17  C   UNL A   1      33.263  18.152  23.866  1.00  0.00     0.192 C 
ATOM     18  C   UNL A   1      35.358  16.141  25.318  1.00  0.00     0.332 C 
ATOM     19  N   UNL A   1      34.203  15.840  24.480  1.00  0.00    -0.333 N 
ATOM     20  C   UNL A   1      32.969  15.653  25.260  1.00  0.00     0.290 C 
ATOM     21  C   UNL A   1      33.963  16.845  23.429  1.00  0.00     0.296 C 
ATOM     22  H   UNL A   1      34.446  14.958  24.027  1.00  0.00     0.348 HD
ATOM     23  C   UNL A   1      32.310  16.965  25.718  1.00  0.00     0.222 C 
ATOM     24  O   UNL A   1      32.069  17.862  24.627  1.00  0.00    -0.365 OA
ENDBRANCH  16  17
ENDBRANCH  14  16
ENDBRANCH   8  14
ENDBRANCH   4   7
ENDBRANCH   2   3
ENDBRANCH   1   2
BRANCH   1  25
ATOM     25  C   UNL A   1      37.997  20.027  25.142  1.00  0.00     0.023 C 
BRANCH  25  26
ATOM     26  C   UNL A   1      39.321  20.306  25.844  1.00  0.00     0.116 C 
BRANCH  26  27
ATOM     27  N   UNL A   1      40.248  19.185  25.819  1.00  0.00    -0.352 N 
ATOM     28  C   UNL A   1      41.601  19.149  26.080  1.00  0.00     0.251 C 
ATOM     29  H   UNL A   1      39.847  18.319  25.580  1.00  0.00     0.163 HD
ATOM     30  O   UNL A   1      42.232  18.113  25.934  1.00  0.00    -0.269 OA
BRANCH  28  31
ATOM     31  C   UNL A   1      42.304  20.384  26.490  1.00  0.00     0.039 A 
ATOM     32  C   UNL A   1      43.009  21.111  25.525  1.00  0.00     0.014 A 
ATOM     33  C   UNL A   1      42.238  20.847  27.806  1.00  0.00     0.014 A 
ATOM     34  C   UNL A   1      43.553  22.355  25.853  1.00  0.00     0.010 A 
ATOM     35  C   UNL A   1      42.718  22.116  28.113  1.00  0.00     0.010 A 
ATOM     36  C   UNL A   1      43.360  22.893  27.136  1.00  0.00    -0.014 A 
BRANCH  36  37
ATOM     37  C   UNL A   1      43.783  24.276  27.480  1.00  0.00     0.031 A 
ATOM     38  C   UNL A   1      42.761  25.282  27.925  1.00  0.00     0.074 A 
ATOM     39  C   UNL A   1      45.060  24.657  27.274  1.00  0.00     0.049 A 
ATOM     40  N   UNL A   1      42.884  26.576  28.073  1.00  0.00    -0.248 NA
ATOM     41  C   UNL A   1      41.411  24.771  28.211  1.00  0.00     0.031 C 
ATOM     42  C   UNL A   1      46.139  23.785  26.805  1.00  0.00     0.029 A 
ATOM     43  N   UNL A   1      45.662  25.886  27.403  1.00  0.00    -0.354 N 
ATOM     44  C   UNL A   1      41.625  27.037  28.431  1.00  0.00     0.074 A 
ATOM     45  C   UNL A   1      40.743  25.889  28.457  1.00  0.00     0.031 C 
ATOM     46  C   UNL A   1      47.267  24.505  26.687  1.00  0.00     0.029 A 
ATOM     47  C   UNL A   1      46.983  25.896  27.026  1.00  0.00     0.049 A 
ATOM     48  H   UNL A   1      45.190  26.683  27.736  1.00  0.00     0.167 HD
ATOM     49  C   UNL A   1      41.245  28.301  28.724  1.00  0.00     0.037 A 
ATOM     50  C   UNL A   1      47.861  26.914  26.937  1.00  0.00     0.037 A 
ATOM     51  C   UNL A   1      42.137  29.429  28.757  1.00  0.00     0.049 A 
ATOM     52  C   UNL A   1      47.417  28.306  27.296  1.00  0.00     0.074 A 
ATOM     53  C   UNL A   1      41.856  30.734  29.123  1.00  0.00     0.029 A 
ATOM     54  N   UNL A   1      43.480  29.385  28.422  1.00  0.00    -0.354 N 
ATOM     55  N   UNL A   1      46.234  28.720  27.678  1.00  0.00    -0.248 NA
ATOM     56  C   UNL A   1      48.426  29.373  27.212  1.00  0.00     0.031 C 
ATOM     57  C   UNL A   1      43.022  31.487  28.979  1.00  0.00     0.029 A 
ATOM     58  C   UNL A   1      44.039  30.644  28.561  1.00  0.00     0.049 A 
ATOM     59  H   UNL A   1      43.964  28.580  28.128  1.00  0.00     0.167 HD
ATOM     60  C   UNL A   1      46.361  30.083  27.901  1.00  0.00     0.074 A 
ATOM     61  C   UNL A   1      47.737  30.432  27.620  1.00  0.00     0.031 C 
ATOM     62  C   UNL A   1      45.417  30.968  28.301  1.00  0.00     0.037 A 
BRANCH  49  63
ATOM     63  C   UNL A   1      39.805  28.549  29.054  1.00  0.00     0.064 A 
ATOM     64  C   UNL A   1      38.940  29.085  28.088  1.00  0.00     0.173 A 
ATOM     65  C   UNL A   1      39.310  28.358  30.351  1.00  0.00     0.173 A 
ATOM     66  F   UNL A   1      39.371  29.293  26.835  1.00  0.00    -0.203 F 
ATOM     67  C   UNL A   1      37.634  29.440  28.416  1.00  0.00     0.198 A 
ATOM     68  C   UNL A   1      37.996  28.693  30.670  1.00  0.00     0.198 A 
ATOM     69  F   UNL A   1      40.098  27.841  31.305  1.00  0.00    -0.203 F 
ATOM     70  F   UNL A   1      36.835  29.985  27.488  1.00  0.00    -0.200 F 
ATOM     71  C   UNL A   1      37.163  29.243  29.706  1.00  0.00     0.200 A 
ATOM     72  F   UNL A   1      37.537  28.487  31.911  1.00  0.00    -0.200 F 
ATOM     73  F   UNL A   1      35.908  29.588  30.021  1.00  0.00    -0.200 F 
ENDBRANCH  49  63
BRANCH  50  74
ATOM     74  C   UNL A   1      49.254  26.653  26.487  1.00  0.00     0.064 A 
ATOM     75  C   UNL A   1      50.246  26.233  27.385  1.00  0.00     0.173 A 
ATOM     76  C   UNL A   1      49.618  26.822  25.144  1.00  0.00     0.173 A 
ATOM     77  F   UNL A   1      49.949  26.060  28.681  1.00  0.00    -0.203 F 
ATOM     78  C   UNL A   1      51.552  26.002  26.958  1.00  0.00     0.198 A 
ATOM     79  C   UNL A   1      50.919  26.566  24.714  1.00  0.00     0.198 A 
ATOM     80  F   UNL A   1      48.699  27.201  24.244  1.00  0.00    -0.203 F 
ATOM     81  F   UNL A   1      52.487  25.625  27.841  1.00  0.00    -0.200 F 
ATOM     82  C   UNL A   1      51.886  26.162  25.621  1.00  0.00     0.200 A 
ATOM     83  F   UNL A   1      51.230  26.697  23.417  1.00  0.00    -0.200 F 
ATOM     84  F   UNL A   1      53.137  25.922  25.208  1.00  0.00    -0.200 F 
ENDBRANCH  50  74
BRANCH  62  85
ATOM     85  C   UNL A   1      45.828  32.395  28.498  1.00  0.00     0.064 A 
ATOM     86  C   UNL A   1      46.247  32.842  29.760  1.00  0.00     0.173 A 
ATOM     87  C   UNL A   1      45.696  33.340  27.472  1.00  0.00     0.173 A 
ATOM     88  F   UNL A   1      46.379  31.974  30.775  1.00  0.00    -0.203 F 
ATOM     89  C   UNL A   1      46.496  34.190  29.994  1.00  0.00     0.198 A 
ATOM     90  C   UNL A   1      45.968  34.685  27.704  1.00  0.00     0.198 A 
ATOM     91  F   UNL A   1      45.309  32.956  26.246  1.00  0.00    -0.203 F 
ATOM     92  F   UNL A   1      46.855  34.602  31.218  1.00  0.00    -0.200 F 
ATOM     93  C   UNL A   1      46.355  35.111  28.966  1.00  0.00     0.200 A 
ATOM     94  F   UNL A   1      45.848  35.573  26.707  1.00  0.00    -0.200 F 
ATOM     95  F   UNL A   1      46.590  36.411  29.194  1.00  0.00    -0.200 F 
ENDBRANCH  62  85
ENDBRANCH  36  37
ENDBRANCH  28  31
ENDBRANCH  26  27
ENDBRANCH  25  26
ENDBRANCH   1  25
TORSDOF 14
ENDMDL
