MODEL 1
REMARK VINA RESULT:     -13.2      0.000      0.000
REMARK SMILES O=C(NCCCCNC(=O)[C@H]1[NH2+]CC[C@H]1c1cccc(Oc2ccccc2)c1)c1ccc(-c2c3nc(c(-c4c(F)c(F)c(F)c(F)c4F)c4ccc([nH]4)c(-c4c(F)c(F)c(F)c(F)c4F)c4nc(c(-c5c(F)c(F)c(F)c(F)c5F)c5ccc2[nH]5)C=C4)C=C3)cc1
REMARK SMILES IDX 6 1 5 2 4 3 3 4 1 5 2 6 29 8 30 9 91 10 31 11 90 12 32 13
REMARK SMILES IDX 33 14 34 15 84 16 35 17 89 18 83 19 85 20 36 21 88 22 82 23
REMARK SMILES IDX 81 24 37 26 69 27 49 28 68 29 50 30 53 31 67 32 86 33 51 34
REMARK SMILES IDX 52 35 66 37 87 38 54 39 38 40 39 41 47 42 40 43 41 44 45 45
REMARK SMILES IDX 48 46 42 47 43 48 46 49 44 50 70 51 71 52 79 53 72 54 73 55
REMARK SMILES IDX 77 56 80 57 74 58 75 59 78 60 76 61 55 62 56 63 64 64 57 65
REMARK SMILES IDX 58 66 62 67 65 68 59 69 60 70 63 71 61 72 7 73 8 74 9 75
REMARK SMILES IDX 10 77 11 78 12 79 15 80 13 81 14 84 16 85 17 86 28 87 18 88
REMARK SMILES IDX 20 89 19 90 21 91 22 92 23 93 27 94 24 95 26 96 25 97
REMARK H PARENT 3 7 85 25 53 36 8 76 12 82 12 83
REMARK Flexibility Score: inf
ROOT
ATOM      1  C   UNL A   1      37.332  22.238  24.623  1.00  0.00     0.023 C 
ENDROOT
BRANCH   1   2
ATOM      2  C   UNL A   1      37.953  20.896  25.086  1.00  0.00     0.023 C 
BRANCH   2   3
ATOM      3  C   UNL A   1      39.149  20.944  26.082  1.00  0.00     0.116 C 
BRANCH   3   4
ATOM      4  N   UNL A   1      39.988  19.744  25.984  1.00  0.00    -0.352 N 
ATOM      5  O   UNL A   1      41.829  18.443  25.810  1.00  0.00    -0.269 OA
ATOM      6  C   UNL A   1      41.351  19.531  26.072  1.00  0.00     0.251 C 
ATOM      7  H   UNL A   1      39.474  18.920  25.822  1.00  0.00     0.163 HD
BRANCH   6   8
ATOM      8  C   UNL A   1      42.250  20.651  26.407  1.00  0.00     0.039 A 
ATOM      9  C   UNL A   1      42.452  21.031  27.727  1.00  0.00     0.014 A 
ATOM     10  C   UNL A   1      42.878  21.349  25.375  1.00  0.00     0.014 A 
ATOM     11  C   UNL A   1      43.032  22.257  28.012  1.00  0.00     0.010 A 
ATOM     12  C   UNL A   1      43.538  22.545  25.663  1.00  0.00     0.010 A 
ATOM     13  C   UNL A   1      43.513  23.056  26.971  1.00  0.00    -0.014 A 
BRANCH  13  14
ATOM     14  C   UNL A   1      43.809  24.482  27.242  1.00  0.00     0.031 A 
ATOM     15  C   UNL A   1      45.171  25.023  26.890  1.00  0.00     0.074 A 
ATOM     16  C   UNL A   1      42.843  25.301  27.694  1.00  0.00     0.049 A 
ATOM     17  N   UNL A   1      45.655  26.229  27.049  1.00  0.00    -0.248 NA
ATOM     18  C   UNL A   1      46.126  24.078  26.284  1.00  0.00     0.031 C 
ATOM     19  C   UNL A   1      41.475  24.895  28.013  1.00  0.00     0.029 A 
ATOM     20  N   UNL A   1      42.860  26.649  27.936  1.00  0.00    -0.354 N 
ATOM     21  C   UNL A   1      46.974  26.170  26.615  1.00  0.00     0.074 A 
ATOM     22  C   UNL A   1      47.226  24.810  26.198  1.00  0.00     0.031 C 
ATOM     23  C   UNL A   1      40.771  25.978  28.376  1.00  0.00     0.029 A 
ATOM     24  C   UNL A   1      41.654  27.140  28.369  1.00  0.00     0.049 A 
ATOM     25  H   UNL A   1      43.658  27.211  27.811  1.00  0.00     0.167 HD
ATOM     26  C   UNL A   1      47.889  27.166  26.565  1.00  0.00     0.037 A 
ATOM     27  C   UNL A   1      41.309  28.388  28.738  1.00  0.00     0.037 A 
ATOM     28  C   UNL A   1      47.611  28.528  26.932  1.00  0.00     0.049 A 
ATOM     29  C   UNL A   1      42.347  29.474  28.679  1.00  0.00     0.074 A 
ATOM     30  C   UNL A   1      48.453  29.624  26.891  1.00  0.00     0.029 A 
ATOM     31  N   UNL A   1      46.384  28.981  27.397  1.00  0.00    -0.354 N 
ATOM     32  N   UNL A   1      43.595  29.404  28.282  1.00  0.00    -0.248 NA
ATOM     33  C   UNL A   1      41.929  30.808  29.123  1.00  0.00     0.031 C 
ATOM     34  C   UNL A   1      47.748  30.733  27.372  1.00  0.00     0.029 A 
ATOM     35  C   UNL A   1      46.452  30.338  27.663  1.00  0.00     0.049 A 
ATOM     36  H   UNL A   1      45.585  28.420  27.520  1.00  0.00     0.167 HD
ATOM     37  C   UNL A   1      44.107  30.688  28.409  1.00  0.00     0.074 A 
ATOM     38  C   UNL A   1      43.026  31.519  28.902  1.00  0.00     0.031 C 
ATOM     39  C   UNL A   1      45.358  31.140  28.147  1.00  0.00     0.037 A 
BRANCH  26  40
ATOM     40  C   UNL A   1      49.284  26.813  26.132  1.00  0.00     0.064 A 
ATOM     41  C   UNL A   1      49.718  26.974  24.808  1.00  0.00     0.173 A 
ATOM     42  C   UNL A   1      50.210  26.332  27.071  1.00  0.00     0.173 A 
ATOM     43  F   UNL A   1      48.868  27.409  23.866  1.00  0.00    -0.203 F 
ATOM     44  C   UNL A   1      51.021  26.645  24.436  1.00  0.00     0.198 A 
ATOM     45  C   UNL A   1      51.519  26.033  26.702  1.00  0.00     0.198 A 
ATOM     46  F   UNL A   1      49.847  26.158  28.351  1.00  0.00    -0.203 F 
ATOM     47  F   UNL A   1      51.400  26.763  23.156  1.00  0.00    -0.200 F 
ATOM     48  C   UNL A   1      51.921  26.184  25.384  1.00  0.00     0.200 A 
ATOM     49  F   UNL A   1      52.391  25.595  27.622  1.00  0.00    -0.200 F 
ATOM     50  F   UNL A   1      53.176  25.876  25.025  1.00  0.00    -0.200 F 
ENDBRANCH  26  40
BRANCH  27  51
ATOM     51  C   UNL A   1      39.923  28.666  29.191  1.00  0.00     0.064 A 
ATOM     52  C   UNL A   1      38.945  29.114  28.293  1.00  0.00     0.173 A 
ATOM     53  C   UNL A   1      39.541  28.468  30.526  1.00  0.00     0.173 A 
ATOM     54  F   UNL A   1      39.267  29.337  27.010  1.00  0.00    -0.203 F 
ATOM     55  C   UNL A   1      37.641  29.363  28.715  1.00  0.00     0.198 A 
ATOM     56  C   UNL A   1      38.231  28.688  30.942  1.00  0.00     0.198 A 
ATOM     57  F   UNL A   1      40.440  28.037  31.425  1.00  0.00    -0.203 F 
ATOM     58  F   UNL A   1      36.733  29.824  27.844  1.00  0.00    -0.200 F 
ATOM     59  C   UNL A   1      37.283  29.141  30.037  1.00  0.00     0.200 A 
ATOM     60  F   UNL A   1      37.885  28.456  32.215  1.00  0.00    -0.200 F 
ATOM     61  F   UNL A   1      36.025  29.367  30.439  1.00  0.00    -0.200 F 
ENDBRANCH  27  51
BRANCH  39  62
ATOM     62  C   UNL A   1      45.605  32.605  28.349  1.00  0.00     0.064 A 
ATOM     63  C   UNL A   1      46.068  33.109  29.574  1.00  0.00     0.173 A 
ATOM     64  C   UNL A   1      45.396  33.510  27.299  1.00  0.00     0.173 A 
ATOM     65  F   UNL A   1      46.269  32.284  30.612  1.00  0.00    -0.203 F 
ATOM     66  C   UNL A   1      46.277  34.474  29.749  1.00  0.00     0.198 A 
ATOM     67  C   UNL A   1      45.635  34.870  27.469  1.00  0.00     0.198 A 
ATOM     68  F   UNL A   1      44.963  33.074  26.107  1.00  0.00    -0.203 F 
ATOM     69  F   UNL A   1      46.665  34.942  30.943  1.00  0.00    -0.200 F 
ATOM     70  C   UNL A   1      46.066  35.352  28.696  1.00  0.00     0.200 A 
ATOM     71  F   UNL A   1      45.443  35.716  26.447  1.00  0.00    -0.200 F 
ATOM     72  F   UNL A   1      46.267  36.666  28.866  1.00  0.00    -0.200 F 
ENDBRANCH  39  62
ENDBRANCH  13  14
ENDBRANCH   6   8
ENDBRANCH   3   4
ENDBRANCH   2   3
ENDBRANCH   1   2
BRANCH   1  73
ATOM     73  C   UNL A   1      36.993  23.254  25.736  1.00  0.00     0.116 C 
BRANCH  73  74
ATOM     74  N   UNL A   1      35.796  22.935  26.503  1.00  0.00    -0.351 N 
ATOM     75  C   UNL A   1      34.806  22.020  26.504  1.00  0.00     0.278 C 
ATOM     76  H   UNL A   1      35.673  23.580  27.238  1.00  0.00     0.163 HD
ATOM     77  O   UNL A   1      34.416  21.812  27.675  1.00  0.00    -0.268 OA
BRANCH  75  78
ATOM     78  C   UNL A   1      33.967  21.335  25.370  1.00  0.00     0.280 C 
ATOM     79  N   UNL A   1      33.306  20.123  25.946  1.00  0.00    -0.335 N 
ATOM     80  C   UNL A   1      33.084  21.772  24.189  1.00  0.00     0.093 C 
ATOM     81  C   UNL A   1      32.384  19.576  24.957  1.00  0.00     0.262 C 
ATOM     82  H   UNL A   1      32.793  20.380  26.788  1.00  0.00     0.346 HD
ATOM     83  H   UNL A   1      34.011  19.426  26.186  1.00  0.00     0.346 HD
ATOM     84  C   UNL A   1      32.529  20.418  23.704  1.00  0.00     0.076 C 
BRANCH  80  85
ATOM     85  C   UNL A   1      32.049  22.866  24.285  1.00  0.00    -0.034 A 
ATOM     86  C   UNL A   1      31.148  23.243  23.278  1.00  0.00     0.004 A 
ATOM     87  C   UNL A   1      32.166  23.701  25.403  1.00  0.00     0.051 A 
ATOM     88  C   UNL A   1      30.403  24.423  23.397  1.00  0.00     0.004 A 
ATOM     89  C   UNL A   1      31.388  24.842  25.566  1.00  0.00     0.127 A 
ATOM     90  C   UNL A   1      30.520  25.217  24.540  1.00  0.00     0.047 A 
BRANCH  89  91
ATOM     91  O   UNL A   1      31.407  25.638  26.689  1.00  0.00    -0.457 OA
BRANCH  91  92
ATOM     92  C   UNL A   1      32.021  26.866  26.630  1.00  0.00     0.127 A 
ATOM     93  C   UNL A   1      33.314  26.985  26.128  1.00  0.00     0.047 A 
ATOM     94  C   UNL A   1      31.406  27.976  27.189  1.00  0.00     0.047 A 
ATOM     95  C   UNL A   1      34.022  28.182  26.208  1.00  0.00     0.004 A 
ATOM     96  C   UNL A   1      32.098  29.188  27.251  1.00  0.00     0.004 A 
ATOM     97  C   UNL A   1      33.409  29.288  26.777  1.00  0.00     0.000 A 
ENDBRANCH  91  92
ENDBRANCH  89  91
ENDBRANCH  80  85
ENDBRANCH  75  78
ENDBRANCH  73  74
ENDBRANCH   1  73
TORSDOF 14
ENDMDL
MODEL 2
REMARK VINA RESULT:     -13.1      4.787      8.760
REMARK SMILES O=C(NCCCCNC(=O)[C@H]1[NH2+]CC[C@H]1c1cccc(Oc2ccccc2)c1)c1ccc(-c2c3nc(c(-c4c(F)c(F)c(F)c(F)c4F)c4ccc([nH]4)c(-c4c(F)c(F)c(F)c(F)c4F)c4nc(c(-c5c(F)c(F)c(F)c(F)c5F)c5ccc2[nH]5)C=C4)C=C3)cc1
REMARK SMILES IDX 6 1 5 2 4 3 3 4 1 5 2 6 29 8 30 9 91 10 31 11 90 12 32 13
REMARK SMILES IDX 33 14 34 15 84 16 35 17 89 18 83 19 85 20 36 21 88 22 82 23
REMARK SMILES IDX 81 24 37 26 69 27 49 28 68 29 50 30 53 31 67 32 86 33 51 34
REMARK SMILES IDX 52 35 66 37 87 38 54 39 38 40 39 41 47 42 40 43 41 44 45 45
REMARK SMILES IDX 48 46 42 47 43 48 46 49 44 50 70 51 71 52 79 53 72 54 73 55
REMARK SMILES IDX 77 56 80 57 74 58 75 59 78 60 76 61 55 62 56 63 64 64 57 65
REMARK SMILES IDX 58 66 62 67 65 68 59 69 60 70 63 71 61 72 7 73 8 74 9 75
REMARK SMILES IDX 10 77 11 78 12 79 15 80 13 81 14 84 16 85 17 86 28 87 18 88
REMARK SMILES IDX 20 89 19 90 21 91 22 92 23 93 27 94 24 95 26 96 25 97
REMARK H PARENT 3 7 85 25 53 36 8 76 12 82 12 83
REMARK Flexibility Score: inf
ROOT
ATOM      1  C   UNL A   1      31.827  29.093  24.240  1.00  0.00     0.023 C 
ENDROOT
BRANCH   1   2
ATOM      2  C   UNL A   1      31.459  30.108  25.352  1.00  0.00     0.023 C 
BRANCH   2   3
ATOM      3  C   UNL A   1      32.430  30.258  26.560  1.00  0.00     0.116 C 
BRANCH   3   4
ATOM      4  N   UNL A   1      32.520  31.649  27.017  1.00  0.00    -0.352 N 
ATOM      5  O   UNL A   1      33.289  33.502  28.062  1.00  0.00    -0.269 OA
ATOM      6  C   UNL A   1      33.510  32.377  27.652  1.00  0.00     0.251 C 
ATOM      7  H   UNL A   1      31.707  32.173  26.834  1.00  0.00     0.163 HD
BRANCH   6   8
ATOM      8  C   UNL A   1      34.825  31.762  27.908  1.00  0.00     0.039 A 
ATOM      9  C   UNL A   1      34.947  30.390  28.086  1.00  0.00     0.014 A 
ATOM     10  C   UNL A   1      35.950  32.581  28.001  1.00  0.00     0.014 A 
ATOM     11  C   UNL A   1      36.107  29.865  28.632  1.00  0.00     0.010 A 
ATOM     12  C   UNL A   1      37.150  32.043  28.471  1.00  0.00     0.010 A 
ATOM     13  C   UNL A   1      37.193  30.705  28.897  1.00  0.00    -0.014 A 
BRANCH  13  14
ATOM     14  C   UNL A   1      38.277  30.216  29.780  1.00  0.00     0.031 A 
ATOM     15  C   UNL A   1      39.318  29.288  29.208  1.00  0.00     0.074 A 
ATOM     16  C   UNL A   1      38.387  30.677  31.038  1.00  0.00     0.049 A 
ATOM     17  N   UNL A   1      40.346  28.728  29.794  1.00  0.00    -0.248 NA
ATOM     18  C   UNL A   1      39.185  28.935  27.784  1.00  0.00     0.031 C 
ATOM     19  C   UNL A   1      37.467  31.620  31.674  1.00  0.00     0.029 A 
ATOM     20  N   UNL A   1      39.337  30.436  31.995  1.00  0.00    -0.354 N 
ATOM     21  C   UNL A   1      40.941  27.922  28.831  1.00  0.00     0.074 A 
ATOM     22  C   UNL A   1      40.158  28.051  27.624  1.00  0.00     0.031 C 
ATOM     23  C   UNL A   1      37.917  31.906  32.905  1.00  0.00     0.029 A 
ATOM     24  C   UNL A   1      39.121  31.123  33.163  1.00  0.00     0.049 A 
ATOM     25  H   UNL A   1      40.099  29.829  31.859  1.00  0.00     0.167 HD
ATOM     26  C   UNL A   1      42.046  27.149  28.944  1.00  0.00     0.037 A 
ATOM     27  C   UNL A   1      39.811  31.105  34.318  1.00  0.00     0.037 A 
ATOM     28  C   UNL A   1      42.849  27.071  30.135  1.00  0.00     0.049 A 
ATOM     29  C   UNL A   1      41.031  30.232  34.420  1.00  0.00     0.074 A 
ATOM     30  C   UNL A   1      44.006  26.346  30.352  1.00  0.00     0.029 A 
ATOM     31  N   UNL A   1      42.580  27.759  31.310  1.00  0.00    -0.354 N 
ATOM     32  N   UNL A   1      41.576  29.462  33.508  1.00  0.00    -0.248 NA
ATOM     33  C   UNL A   1      41.728  30.224  35.711  1.00  0.00     0.031 C 
ATOM     34  C   UNL A   1      44.414  26.561  31.673  1.00  0.00     0.029 A 
ATOM     35  C   UNL A   1      43.540  27.461  32.262  1.00  0.00     0.049 A 
ATOM     36  H   UNL A   1      41.818  28.368  31.447  1.00  0.00     0.167 HD
ATOM     37  C   UNL A   1      42.691  28.893  34.108  1.00  0.00     0.074 A 
ATOM     38  C   UNL A   1      42.753  29.422  35.456  1.00  0.00     0.031 C 
ATOM     39  C   UNL A   1      43.580  28.009  33.594  1.00  0.00     0.037 A 
BRANCH  26  40
ATOM     40  C   UNL A   1      42.432  26.301  27.766  1.00  0.00     0.064 A 
ATOM     41  C   UNL A   1      41.849  25.048  27.525  1.00  0.00     0.173 A 
ATOM     42  C   UNL A   1      43.383  26.768  26.847  1.00  0.00     0.173 A 
ATOM     43  F   UNL A   1      40.949  24.544  28.384  1.00  0.00    -0.203 F 
ATOM     44  C   UNL A   1      42.220  24.286  26.419  1.00  0.00     0.198 A 
ATOM     45  C   UNL A   1      43.731  26.016  25.727  1.00  0.00     0.198 A 
ATOM     46  F   UNL A   1      43.974  27.959  27.030  1.00  0.00    -0.203 F 
ATOM     47  F   UNL A   1      41.684  23.072  26.234  1.00  0.00    -0.200 F 
ATOM     48  C   UNL A   1      43.154  24.774  25.517  1.00  0.00     0.200 A 
ATOM     49  F   UNL A   1      44.628  26.494  24.852  1.00  0.00    -0.200 F 
ATOM     50  F   UNL A   1      43.504  24.041  24.450  1.00  0.00    -0.200 F 
ENDBRANCH  26  40
BRANCH  27  51
ATOM     51  C   UNL A   1      39.359  31.940  35.460  1.00  0.00     0.064 A 
ATOM     52  C   UNL A   1      39.762  33.276  35.582  1.00  0.00     0.173 A 
ATOM     53  C   UNL A   1      38.497  31.425  36.439  1.00  0.00     0.173 A 
ATOM     54  F   UNL A   1      40.601  33.806  34.681  1.00  0.00    -0.203 F 
ATOM     55  C   UNL A   1      39.327  34.063  36.646  1.00  0.00     0.198 A 
ATOM     56  C   UNL A   1      38.039  32.221  37.486  1.00  0.00     0.198 A 
ATOM     57  F   UNL A   1      38.079  30.152  36.365  1.00  0.00    -0.203 F 
ATOM     58  F   UNL A   1      39.755  35.328  36.759  1.00  0.00    -0.200 F 
ATOM     59  C   UNL A   1      38.459  33.538  37.593  1.00  0.00     0.200 A 
ATOM     60  F   UNL A   1      37.187  31.714  38.388  1.00  0.00    -0.200 F 
ATOM     61  F   UNL A   1      38.031  34.300  38.608  1.00  0.00    -0.200 F 
ENDBRANCH  27  51
BRANCH  39  62
ATOM     62  C   UNL A   1      44.716  27.597  34.482  1.00  0.00     0.064 A 
ATOM     63  C   UNL A   1      45.914  28.325  34.528  1.00  0.00     0.173 A 
ATOM     64  C   UNL A   1      44.595  26.471  35.309  1.00  0.00     0.173 A 
ATOM     65  F   UNL A   1      46.082  29.400  33.744  1.00  0.00    -0.203 F 
ATOM     66  C   UNL A   1      46.964  27.918  35.347  1.00  0.00     0.198 A 
ATOM     67  C   UNL A   1      45.635  26.085  36.148  1.00  0.00     0.198 A 
ATOM     68  F   UNL A   1      43.465  25.748  35.306  1.00  0.00    -0.203 F 
ATOM     69  F   UNL A   1      48.120  28.595  35.335  1.00  0.00    -0.200 F 
ATOM     70  C   UNL A   1      46.821  26.803  36.159  1.00  0.00     0.200 A 
ATOM     71  F   UNL A   1      45.492  25.015  36.942  1.00  0.00    -0.200 F 
ATOM     72  F   UNL A   1      47.834  26.412  36.946  1.00  0.00    -0.200 F 
ENDBRANCH  39  62
ENDBRANCH  13  14
ENDBRANCH   6   8
ENDBRANCH   3   4
ENDBRANCH   2   3
ENDBRANCH   1   2
BRANCH   1  73
ATOM     73  C   UNL A   1      33.309  29.063  23.804  1.00  0.00     0.116 C 
BRANCH  73  74
ATOM     74  N   UNL A   1      33.698  27.869  23.064  1.00  0.00    -0.351 N 
ATOM     75  C   UNL A   1      33.188  26.665  22.741  1.00  0.00     0.278 C 
ATOM     76  H   UNL A   1      34.603  27.974  22.688  1.00  0.00     0.163 HD
ATOM     77  O   UNL A   1      33.623  26.299  21.626  1.00  0.00    -0.268 OA
BRANCH  75  78
ATOM     78  C   UNL A   1      32.342  25.604  23.528  1.00  0.00     0.280 C 
ATOM     79  N   UNL A   1      31.384  24.968  22.572  1.00  0.00    -0.335 N 
ATOM     80  C   UNL A   1      32.571  24.568  24.642  1.00  0.00     0.093 C 
ATOM     81  C   UNL A   1      30.716  23.860  23.244  1.00  0.00     0.262 C 
ATOM     82  H   UNL A   1      31.891  24.620  21.759  1.00  0.00     0.346 HD
ATOM     83  H   UNL A   1      30.694  25.654  22.265  1.00  0.00     0.346 HD
ATOM     84  C   UNL A   1      31.208  23.850  24.679  1.00  0.00     0.076 C 
BRANCH  80  85
ATOM     85  C   UNL A   1      33.760  23.640  24.682  1.00  0.00    -0.034 A 
ATOM     86  C   UNL A   1      35.031  23.900  24.148  1.00  0.00     0.004 A 
ATOM     87  C   UNL A   1      33.482  22.332  25.099  1.00  0.00     0.051 A 
ATOM     88  C   UNL A   1      35.978  22.873  24.034  1.00  0.00     0.004 A 
ATOM     89  C   UNL A   1      34.431  21.317  25.052  1.00  0.00     0.127 A 
ATOM     90  C   UNL A   1      35.679  21.587  24.490  1.00  0.00     0.047 A 
BRANCH  89  91
ATOM     91  O   UNL A   1      34.228  20.044  25.536  1.00  0.00    -0.457 OA
BRANCH  91  92
ATOM     92  C   UNL A   1      33.841  19.051  24.668  1.00  0.00     0.127 A 
ATOM     93  C   UNL A   1      34.678  17.964  24.424  1.00  0.00     0.047 A 
ATOM     94  C   UNL A   1      32.675  19.188  23.933  1.00  0.00     0.047 A 
ATOM     95  C   UNL A   1      34.390  17.030  23.431  1.00  0.00     0.004 A 
ATOM     96  C   UNL A   1      32.364  18.242  22.952  1.00  0.00     0.004 A 
ATOM     97  C   UNL A   1      33.228  17.175  22.688  1.00  0.00     0.000 A 
ENDBRANCH  91  92
ENDBRANCH  89  91
ENDBRANCH  80  85
ENDBRANCH  75  78
ENDBRANCH  73  74
ENDBRANCH   1  73
TORSDOF 14
ENDMDL
MODEL 3
REMARK VINA RESULT:     -13.1      5.578     11.004
REMARK SMILES O=C(NCCCCNC(=O)[C@H]1[NH2+]CC[C@H]1c1cccc(Oc2ccccc2)c1)c1ccc(-c2c3nc(c(-c4c(F)c(F)c(F)c(F)c4F)c4ccc([nH]4)c(-c4c(F)c(F)c(F)c(F)c4F)c4nc(c(-c5c(F)c(F)c(F)c(F)c5F)c5ccc2[nH]5)C=C4)C=C3)cc1
REMARK SMILES IDX 6 1 5 2 4 3 3 4 1 5 2 6 29 8 30 9 91 10 31 11 90 12 32 13
REMARK SMILES IDX 33 14 34 15 84 16 35 17 89 18 83 19 85 20 36 21 88 22 82 23
REMARK SMILES IDX 81 24 37 26 69 27 49 28 68 29 50 30 53 31 67 32 86 33 51 34
REMARK SMILES IDX 52 35 66 37 87 38 54 39 38 40 39 41 47 42 40 43 41 44 45 45
REMARK SMILES IDX 48 46 42 47 43 48 46 49 44 50 70 51 71 52 79 53 72 54 73 55
REMARK SMILES IDX 77 56 80 57 74 58 75 59 78 60 76 61 55 62 56 63 64 64 57 65
REMARK SMILES IDX 58 66 62 67 65 68 59 69 60 70 63 71 61 72 7 73 8 74 9 75
REMARK SMILES IDX 10 77 11 78 12 79 15 80 13 81 14 84 16 85 17 86 28 87 18 88
REMARK SMILES IDX 20 89 19 90 21 91 22 92 23 93 27 94 24 95 26 96 25 97
REMARK H PARENT 3 7 85 25 53 36 8 76 12 82 12 83
REMARK Flexibility Score: inf
ROOT
ATOM      1  C   UNL A   1      32.533  29.542  27.115  1.00  0.00     0.023 C 
ENDROOT
BRANCH   1   2
ATOM      2  C   UNL A   1      32.214  31.052  26.981  1.00  0.00     0.023 C 
BRANCH   2   3
ATOM      3  C   UNL A   1      33.344  32.073  27.302  1.00  0.00     0.116 C 
BRANCH   3   4
ATOM      4  N   UNL A   1      32.810  33.415  27.558  1.00  0.00    -0.352 N 
ATOM      5  O   UNL A   1      32.448  35.406  28.569  1.00  0.00    -0.269 OA
ATOM      6  C   UNL A   1      33.145  34.415  28.452  1.00  0.00     0.251 C 
ATOM      7  H   UNL A   1      32.055  33.653  26.972  1.00  0.00     0.163 HD
BRANCH   6   8
ATOM      8  C   UNL A   1      34.316  34.251  29.334  1.00  0.00     0.039 A 
ATOM      9  C   UNL A   1      35.587  34.606  28.904  1.00  0.00     0.014 A 
ATOM     10  C   UNL A   1      34.136  33.702  30.604  1.00  0.00     0.014 A 
ATOM     11  C   UNL A   1      36.701  34.163  29.599  1.00  0.00     0.010 A 
ATOM     12  C   UNL A   1      35.255  33.327  31.350  1.00  0.00     0.010 A 
ATOM     13  C   UNL A   1      36.537  33.453  30.793  1.00  0.00    -0.014 A 
BRANCH  13  14
ATOM     14  C   UNL A   1      37.689  32.698  31.339  1.00  0.00     0.031 A 
ATOM     15  C   UNL A   1      38.163  33.005  32.737  1.00  0.00     0.074 A 
ATOM     16  C   UNL A   1      38.229  31.685  30.640  1.00  0.00     0.049 A 
ATOM     17  N   UNL A   1      39.154  32.481  33.413  1.00  0.00    -0.248 NA
ATOM     18  C   UNL A   1      37.429  34.047  33.475  1.00  0.00     0.031 C 
ATOM     19  C   UNL A   1      37.810  31.267  29.301  1.00  0.00     0.029 A 
ATOM     20  N   UNL A   1      39.228  30.808  30.969  1.00  0.00    -0.354 N 
ATOM     21  C   UNL A   1      39.192  33.165  34.623  1.00  0.00     0.074 A 
ATOM     22  C   UNL A   1      38.137  34.150  34.589  1.00  0.00     0.031 C 
ATOM     23  C   UNL A   1      38.522  30.190  28.937  1.00  0.00     0.029 A 
ATOM     24  C   UNL A   1      39.484  29.881  29.990  1.00  0.00     0.049 A 
ATOM     25  H   UNL A   1      39.714  30.839  31.824  1.00  0.00     0.167 HD
ATOM     26  C   UNL A   1      40.031  32.980  35.669  1.00  0.00     0.037 A 
ATOM     27  C   UNL A   1      40.408  28.903  29.945  1.00  0.00     0.037 A 
ATOM     28  C   UNL A   1      41.043  31.958  35.712  1.00  0.00     0.049 A 
ATOM     29  C   UNL A   1      41.332  28.724  31.117  1.00  0.00     0.074 A 
ATOM     30  C   UNL A   1      41.927  31.660  36.732  1.00  0.00     0.029 A 
ATOM     31  N   UNL A   1      41.293  31.057  34.687  1.00  0.00    -0.354 N 
ATOM     32  N   UNL A   1      41.370  29.385  32.250  1.00  0.00    -0.248 NA
ATOM     33  C   UNL A   1      42.342  27.665  31.003  1.00  0.00     0.031 C 
ATOM     34  C   UNL A   1      42.742  30.605  36.308  1.00  0.00     0.029 A 
ATOM     35  C   UNL A   1      42.331  30.212  35.044  1.00  0.00     0.049 A 
ATOM     36  H   UNL A   1      40.806  31.024  33.832  1.00  0.00     0.167 HD
ATOM     37  C   UNL A   1      42.393  28.812  32.991  1.00  0.00     0.074 A 
ATOM     38  C   UNL A   1      42.936  27.736  32.186  1.00  0.00     0.031 C 
ATOM     39  C   UNL A   1      42.846  29.146  34.224  1.00  0.00     0.037 A 
BRANCH  26  40
ATOM     40  C   UNL A   1      39.915  33.920  36.834  1.00  0.00     0.064 A 
ATOM     41  C   UNL A   1      40.626  35.127  36.893  1.00  0.00     0.173 A 
ATOM     42  C   UNL A   1      39.051  33.616  37.897  1.00  0.00     0.173 A 
ATOM     43  F   UNL A   1      41.482  35.456  35.914  1.00  0.00    -0.203 F 
ATOM     44  C   UNL A   1      40.493  35.985  37.984  1.00  0.00     0.198 A 
ATOM     45  C   UNL A   1      38.898  34.489  38.972  1.00  0.00     0.198 A 
ATOM     46  F   UNL A   1      38.347  32.474  37.893  1.00  0.00    -0.203 F 
ATOM     47  F   UNL A   1      41.218  37.111  38.041  1.00  0.00    -0.200 F 
ATOM     48  C   UNL A   1      39.624  35.669  39.017  1.00  0.00     0.200 A 
ATOM     49  F   UNL A   1      38.050  34.186  39.966  1.00  0.00    -0.200 F 
ATOM     50  F   UNL A   1      39.492  36.499  40.062  1.00  0.00    -0.200 F 
ENDBRANCH  26  40
BRANCH  27  51
ATOM     51  C   UNL A   1      40.497  28.028  28.749  1.00  0.00     0.064 A 
ATOM     52  C   UNL A   1      39.790  26.820  28.684  1.00  0.00     0.173 A 
ATOM     53  C   UNL A   1      41.272  28.392  27.638  1.00  0.00     0.173 A 
ATOM     54  F   UNL A   1      39.051  26.420  29.729  1.00  0.00    -0.203 F 
ATOM     55  C   UNL A   1      39.862  26.005  27.556  1.00  0.00     0.198 A 
ATOM     56  C   UNL A   1      41.320  27.592  26.499  1.00  0.00     0.198 A 
ATOM     57  F   UNL A   1      41.965  29.541  27.649  1.00  0.00    -0.203 F 
ATOM     58  F   UNL A   1      39.204  24.838  27.532  1.00  0.00    -0.200 F 
ATOM     59  C   UNL A   1      40.620  26.395  26.462  1.00  0.00     0.200 A 
ATOM     60  F   UNL A   1      42.039  27.982  25.438  1.00  0.00    -0.200 F 
ATOM     61  F   UNL A   1      40.678  25.618  25.372  1.00  0.00    -0.200 F 
ENDBRANCH  27  51
BRANCH  39  62
ATOM     62  C   UNL A   1      43.956  28.310  34.788  1.00  0.00     0.064 A 
ATOM     63  C   UNL A   1      45.302  28.663  34.615  1.00  0.00     0.173 A 
ATOM     64  C   UNL A   1      43.666  27.153  35.526  1.00  0.00     0.173 A 
ATOM     65  F   UNL A   1      45.629  29.752  33.904  1.00  0.00    -0.203 F 
ATOM     66  C   UNL A   1      46.320  27.866  35.132  1.00  0.00     0.198 A 
ATOM     67  C   UNL A   1      44.685  26.375  36.066  1.00  0.00     0.198 A 
ATOM     68  F   UNL A   1      42.393  26.780  35.725  1.00  0.00    -0.203 F 
ATOM     69  F   UNL A   1      47.600  28.190  34.908  1.00  0.00    -0.200 F 
ATOM     70  C   UNL A   1      46.010  26.727  35.861  1.00  0.00     0.200 A 
ATOM     71  F   UNL A   1      44.385  25.282  36.781  1.00  0.00    -0.200 F 
ATOM     72  F   UNL A   1      46.992  25.961  36.357  1.00  0.00    -0.200 F 
ENDBRANCH  39  62
ENDBRANCH  13  14
ENDBRANCH   6   8
ENDBRANCH   3   4
ENDBRANCH   2   3
ENDBRANCH   1   2
BRANCH   1  73
ATOM     73  C   UNL A   1      33.927  29.090  26.624  1.00  0.00     0.116 C 
BRANCH  73  74
ATOM     74  N   UNL A   1      34.021  28.871  25.187  1.00  0.00    -0.351 N 
ATOM     75  C   UNL A   1      33.242  28.976  24.092  1.00  0.00     0.278 C 
ATOM     76  H   UNL A   1      34.920  28.551  24.943  1.00  0.00     0.163 HD
ATOM     77  O   UNL A   1      33.939  29.274  23.097  1.00  0.00    -0.268 OA
BRANCH  75  78
ATOM     78  C   UNL A   1      31.739  28.637  23.800  1.00  0.00     0.280 C 
ATOM     79  N   UNL A   1      31.347  29.315  22.526  1.00  0.00    -0.335 N 
ATOM     80  C   UNL A   1      30.801  27.425  23.935  1.00  0.00     0.093 C 
ATOM     81  C   UNL A   1      30.012  28.868  22.147  1.00  0.00     0.262 C 
ATOM     82  H   UNL A   1      32.010  29.073  21.790  1.00  0.00     0.346 HD
ATOM     83  H   UNL A   1      31.350  30.326  22.656  1.00  0.00     0.346 HD
ATOM     84  C   UNL A   1      29.522  27.950  23.250  1.00  0.00     0.076 C 
BRANCH  80  85
ATOM     85  C   UNL A   1      31.188  26.024  23.530  1.00  0.00    -0.034 A 
ATOM     86  C   UNL A   1      30.376  24.884  23.614  1.00  0.00     0.004 A 
ATOM     87  C   UNL A   1      32.550  25.838  23.257  1.00  0.00     0.051 A 
ATOM     88  C   UNL A   1      30.923  23.607  23.436  1.00  0.00     0.004 A 
ATOM     89  C   UNL A   1      33.095  24.582  23.015  1.00  0.00     0.127 A 
ATOM     90  C   UNL A   1      32.278  23.458  23.132  1.00  0.00     0.047 A 
BRANCH  89  91
ATOM     91  O   UNL A   1      34.406  24.365  22.654  1.00  0.00    -0.457 OA
BRANCH  91  92
ATOM     92  C   UNL A   1      35.293  23.900  23.596  1.00  0.00     0.127 A 
ATOM     93  C   UNL A   1      36.211  22.904  23.269  1.00  0.00     0.047 A 
ATOM     94  C   UNL A   1      35.196  24.328  24.910  1.00  0.00     0.047 A 
ATOM     95  C   UNL A   1      37.007  22.299  24.239  1.00  0.00     0.004 A 
ATOM     96  C   UNL A   1      36.008  23.745  25.886  1.00  0.00     0.004 A 
ATOM     97  C   UNL A   1      36.900  22.720  25.556  1.00  0.00     0.000 A 
ENDBRANCH  91  92
ENDBRANCH  89  91
ENDBRANCH  80  85
ENDBRANCH  75  78
ENDBRANCH  73  74
ENDBRANCH   1  73
TORSDOF 14
ENDMDL
