MODEL 1
REMARK VINA RESULT:     -11.9      0.000      0.000
REMARK SMILES CCC[NH2+][C@]1(C(=O)NCCCCNC(=O)c2ccc(-c3c4nc(c(-c5c(F)c(F)c(F)c(F)c5F)c5ccc([nH]5)c(-c5c(F)c(F)c(F)c(F)c5F)c5nc(c(-c6c(F)c(F)c(F)c(F)c6F)c6ccc3[nH]6)C=C5)C=C4)cc2)CCC[C@H](Sc2nnc(C)o2)C1
REMARK SMILES IDX 10 1 9 2 8 3 6 4 7 5 5 7 79 8 90 9 80 10 82 11 81 12 4 13
REMARK SMILES IDX 3 16 2 17 1 18 83 19 84 20 85 21 89 22 86 23 87 24 88 25
REMARK SMILES IDX 11 26 12 27 13 28 14 29 15 31 16 32 17 33 78 34 18 35 77 36
REMARK SMILES IDX 19 37 20 38 21 39 71 40 22 41 76 42 70 43 72 44 23 45 75 46
REMARK SMILES IDX 69 47 68 48 24 50 56 51 36 52 55 53 37 54 40 55 54 56 73 57
REMARK SMILES IDX 38 58 39 59 53 61 74 62 41 63 25 64 26 65 34 66 27 67 28 68
REMARK SMILES IDX 32 69 35 70 29 71 30 72 33 73 31 74 57 75 58 76 66 77 59 78
REMARK SMILES IDX 60 79 64 80 67 81 61 82 62 83 65 84 63 85 42 86 43 87 51 88
REMARK SMILES IDX 44 89 45 90 49 91 52 92 46 93 47 94 50 95 48 96
REMARK H PARENT 8 6 4 14 4 15 13 30 72 49 40 60
REMARK Flexibility Score: inf
ROOT
ATOM      1  C   UNL A   1      32.209  27.614  26.996  1.00  0.00     0.023 C 
ENDROOT
BRANCH   1   2
ATOM      2  C   UNL A   1      31.512  26.577  26.112  1.00  0.00     0.116 C 
BRANCH   2   3
ATOM      3  N   UNL A   1      31.165  25.404  26.886  1.00  0.00    -0.351 N 
ATOM      4  C   UNL A   1      31.062  24.088  26.568  1.00  0.00     0.281 C 
ATOM      5  O   UNL A   1      30.300  23.451  27.313  1.00  0.00    -0.268 OA
ATOM      6  H   UNL A   1      30.965  25.599  27.830  1.00  0.00     0.163 HD
BRANCH   4   7
ATOM      7  C   UNL A   1      31.923  23.335  25.480  1.00  0.00     0.176 C 
ATOM      8  C   UNL A   1      31.834  21.819  25.813  1.00  0.00     0.079 C 
ATOM      9  C   UNL A   1      31.480  23.507  24.003  1.00  0.00     0.094 C 
ATOM     10  C   UNL A   1      32.576  20.918  24.829  1.00  0.00     0.008 C 
ATOM     11  C   UNL A   1      32.147  22.587  22.952  1.00  0.00     0.063 C 
ATOM     12  C   UNL A   1      32.086  21.126  23.401  1.00  0.00     0.015 C 
BRANCH   7  13
ATOM     13  N   UNL A   1      33.313  23.856  25.560  1.00  0.00    -0.334 N 
ATOM     14  H   UNL A   1      33.739  23.724  24.644  1.00  0.00     0.347 HD
ATOM     15  H   UNL A   1      33.205  24.825  25.862  1.00  0.00     0.347 HD
BRANCH  13  16
ATOM     16  C   UNL A   1      34.211  23.265  26.546  1.00  0.00     0.261 C 
BRANCH  16  17
ATOM     17  C   UNL A   1      35.622  23.115  25.960  1.00  0.00     0.058 C 
ATOM     18  C   UNL A   1      36.100  21.674  25.847  1.00  0.00     0.010 C 
ENDBRANCH  16  17
ENDBRANCH  13  16
ENDBRANCH   7  13
BRANCH  11  19
ATOM     19  S   UNL A   1      33.846  23.165  22.582  1.00  0.00    -0.062 SA
BRANCH  19  20
ATOM     20  C   UNL A   1      33.647  24.851  22.261  1.00  0.00     0.276 A 
ATOM     21  N   UNL A   1      33.276  25.392  21.119  1.00  0.00    -0.101 NA
ATOM     22  O   UNL A   1      33.848  25.789  23.239  1.00  0.00    -0.416 OA
ATOM     23  N   UNL A   1      33.231  26.759  21.325  1.00  0.00    -0.112 NA
ATOM     24  C   UNL A   1      33.571  26.950  22.581  1.00  0.00     0.214 A 
ATOM     25  C   UNL A   1      33.692  28.199  23.350  1.00  0.00     0.113 C 
ENDBRANCH  19  20
ENDBRANCH  11  19
ENDBRANCH   4   7
ENDBRANCH   2   3
ENDBRANCH   1   2
BRANCH   1  26
ATOM     26  C   UNL A   1      31.735  29.050  26.756  1.00  0.00     0.023 C 
BRANCH  26  27
ATOM     27  C   UNL A   1      32.826  30.027  26.327  1.00  0.00     0.116 C 
BRANCH  27  28
ATOM     28  N   UNL A   1      32.557  31.408  26.702  1.00  0.00    -0.352 N 
ATOM     29  C   UNL A   1      33.348  32.251  27.447  1.00  0.00     0.251 C 
ATOM     30  H   UNL A   1      31.704  31.784  26.384  1.00  0.00     0.163 HD
ATOM     31  O   UNL A   1      32.967  33.372  27.754  1.00  0.00    -0.269 OA
BRANCH  29  32
ATOM     32  C   UNL A   1      34.652  31.750  27.913  1.00  0.00     0.039 A 
ATOM     33  C   UNL A   1      35.729  32.636  27.974  1.00  0.00     0.014 A 
ATOM     34  C   UNL A   1      34.772  30.439  28.380  1.00  0.00     0.014 A 
ATOM     35  C   UNL A   1      36.914  32.229  28.587  1.00  0.00     0.010 A 
ATOM     36  C   UNL A   1      35.932  30.054  29.040  1.00  0.00     0.010 A 
ATOM     37  C   UNL A   1      37.005  30.953  29.164  1.00  0.00    -0.014 A 
BRANCH  37  38
ATOM     38  C   UNL A   1      38.200  30.541  29.939  1.00  0.00     0.031 A 
ATOM     39  C   UNL A   1      39.165  29.552  29.357  1.00  0.00     0.074 A 
ATOM     40  C   UNL A   1      38.355  30.987  31.201  1.00  0.00     0.049 A 
ATOM     41  N   UNL A   1      40.199  28.980  29.917  1.00  0.00    -0.248 NA
ATOM     42  C   UNL A   1      38.914  29.126  27.972  1.00  0.00     0.031 C 
ATOM     43  C   UNL A   1      37.452  31.910  31.890  1.00  0.00     0.029 A 
ATOM     44  N   UNL A   1      39.319  30.706  32.136  1.00  0.00    -0.354 N 
ATOM     45  C   UNL A   1      40.710  28.113  28.961  1.00  0.00     0.074 A 
ATOM     46  C   UNL A   1      39.849  28.202  27.802  1.00  0.00     0.031 C 
ATOM     47  C   UNL A   1      37.909  32.127  33.133  1.00  0.00     0.029 A 
ATOM     48  C   UNL A   1      39.116  31.333  33.341  1.00  0.00     0.049 A 
ATOM     49  H   UNL A   1      40.084  30.111  31.959  1.00  0.00     0.167 HD
ATOM     50  C   UNL A   1      41.810  27.329  29.041  1.00  0.00     0.037 A 
ATOM     51  C   UNL A   1      39.820  31.263  34.486  1.00  0.00     0.037 A 
ATOM     52  C   UNL A   1      42.682  27.272  30.184  1.00  0.00     0.049 A 
ATOM     53  C   UNL A   1      41.041  30.389  34.545  1.00  0.00     0.074 A 
ATOM     54  C   UNL A   1      43.867  26.575  30.330  1.00  0.00     0.029 A 
ATOM     55  N   UNL A   1      42.460  27.942  31.378  1.00  0.00    -0.354 N 
ATOM     56  N   UNL A   1      41.557  29.628  33.611  1.00  0.00    -0.248 NA
ATOM     57  C   UNL A   1      41.778  30.363  35.816  1.00  0.00     0.031 C 
ATOM     58  C   UNL A   1      44.345  26.794  31.627  1.00  0.00     0.029 A 
ATOM     59  C   UNL A   1      43.475  27.656  32.276  1.00  0.00     0.049 A 
ATOM     60  H   UNL A   1      41.694  28.533  31.561  1.00  0.00     0.167 HD
ATOM     61  C   UNL A   1      42.687  29.049  34.171  1.00  0.00     0.074 A 
ATOM     62  C   UNL A   1      42.789  29.557  35.524  1.00  0.00     0.031 C 
ATOM     63  C   UNL A   1      43.560  28.173  33.617  1.00  0.00     0.037 A 
BRANCH  50  64
ATOM     64  C   UNL A   1      42.137  26.474  27.855  1.00  0.00     0.064 A 
ATOM     65  C   UNL A   1      43.081  26.876  26.899  1.00  0.00     0.173 A 
ATOM     66  C   UNL A   1      41.525  25.222  27.689  1.00  0.00     0.173 A 
ATOM     67  F   UNL A   1      43.684  28.069  27.006  1.00  0.00    -0.203 F 
ATOM     68  C   UNL A   1      43.382  26.068  25.806  1.00  0.00     0.198 A 
ATOM     69  C   UNL A   1      41.847  24.405  26.610  1.00  0.00     0.198 A 
ATOM     70  F   UNL A   1      40.617  24.790  28.578  1.00  0.00    -0.203 F 
ATOM     71  F   UNL A   1      44.254  26.492  24.882  1.00  0.00    -0.200 F 
ATOM     72  C   UNL A   1      42.769  24.831  25.665  1.00  0.00     0.200 A 
ATOM     73  F   UNL A   1      41.261  23.207  26.478  1.00  0.00    -0.200 F 
ATOM     74  F   UNL A   1      43.064  24.052  24.615  1.00  0.00    -0.200 F 
ENDBRANCH  50  64
BRANCH  51  75
ATOM     75  C   UNL A   1      39.393  32.056  35.667  1.00  0.00     0.064 A 
ATOM     76  C   UNL A   1      39.908  33.341  35.890  1.00  0.00     0.173 A 
ATOM     77  C   UNL A   1      38.466  31.552  36.591  1.00  0.00     0.173 A 
ATOM     78  F   UNL A   1      40.811  33.855  35.045  1.00  0.00    -0.203 F 
ATOM     79  C   UNL A   1      39.524  34.085  37.004  1.00  0.00     0.198 A 
ATOM     80  C   UNL A   1      38.066  32.307  37.691  1.00  0.00     0.198 A 
ATOM     81  F   UNL A   1      37.942  30.330  36.418  1.00  0.00    -0.203 F 
ATOM     82  F   UNL A   1      40.060  35.295  37.215  1.00  0.00    -0.200 F 
ATOM     83  C   UNL A   1      38.599  33.570  37.901  1.00  0.00     0.200 A 
ATOM     84  F   UNL A   1      37.164  31.811  38.549  1.00  0.00    -0.200 F 
ATOM     85  F   UNL A   1      38.228  34.288  38.969  1.00  0.00    -0.200 F 
ENDBRANCH  51  75
BRANCH  63  86
ATOM     86  C   UNL A   1      44.711  27.723  34.463  1.00  0.00     0.064 A 
ATOM     87  C   UNL A   1      44.634  26.557  35.238  1.00  0.00     0.173 A 
ATOM     88  C   UNL A   1      45.920  28.434  34.456  1.00  0.00     0.173 A 
ATOM     89  F   UNL A   1      43.493  25.854  35.288  1.00  0.00    -0.203 F 
ATOM     90  C   UNL A   1      45.724  26.126  35.988  1.00  0.00     0.198 A 
ATOM     91  C   UNL A   1      47.016  27.987  35.189  1.00  0.00     0.198 A 
ATOM     92  F   UNL A   1      46.042  29.553  33.727  1.00  0.00    -0.203 F 
ATOM     93  F   UNL A   1      45.620  25.027  36.748  1.00  0.00    -0.200 F 
ATOM     94  C   UNL A   1      46.916  26.836  35.957  1.00  0.00     0.200 A 
ATOM     95  F   UNL A   1      48.169  28.668  35.150  1.00  0.00    -0.200 F 
ATOM     96  F   UNL A   1      47.968  26.413  36.671  1.00  0.00    -0.200 F 
ENDBRANCH  63  86
ENDBRANCH  37  38
ENDBRANCH  29  32
ENDBRANCH  27  28
ENDBRANCH  26  27
ENDBRANCH   1  26
TORSDOF 16
ENDMDL
MODEL 2
REMARK VINA RESULT:     -11.8      0.386      7.361
REMARK SMILES CCC[NH2+][C@]1(C(=O)NCCCCNC(=O)c2ccc(-c3c4nc(c(-c5c(F)c(F)c(F)c(F)c5F)c5ccc([nH]5)c(-c5c(F)c(F)c(F)c(F)c5F)c5nc(c(-c6c(F)c(F)c(F)c(F)c6F)c6ccc3[nH]6)C=C5)C=C4)cc2)CCC[C@H](Sc2nnc(C)o2)C1
REMARK SMILES IDX 10 1 9 2 8 3 6 4 7 5 5 7 79 8 90 9 80 10 82 11 81 12 4 13
REMARK SMILES IDX 3 16 2 17 1 18 83 19 84 20 85 21 89 22 86 23 87 24 88 25
REMARK SMILES IDX 11 26 12 27 13 28 14 29 15 31 16 32 17 33 78 34 18 35 77 36
REMARK SMILES IDX 19 37 20 38 21 39 71 40 22 41 76 42 70 43 72 44 23 45 75 46
REMARK SMILES IDX 69 47 68 48 24 50 56 51 36 52 55 53 37 54 40 55 54 56 73 57
REMARK SMILES IDX 38 58 39 59 53 61 74 62 41 63 25 64 26 65 34 66 27 67 28 68
REMARK SMILES IDX 32 69 35 70 29 71 30 72 33 73 31 74 57 75 58 76 66 77 59 78
REMARK SMILES IDX 60 79 64 80 67 81 61 82 62 83 65 84 63 85 42 86 43 87 51 88
REMARK SMILES IDX 44 89 45 90 49 91 52 92 46 93 47 94 50 95 48 96
REMARK H PARENT 8 6 4 14 4 15 13 30 72 49 40 60
REMARK Flexibility Score: inf
ROOT
ATOM      1  C   UNL A   1      32.251  27.643  26.970  1.00  0.00     0.023 C 
ENDROOT
BRANCH   1   2
ATOM      2  C   UNL A   1      31.647  26.573  26.058  1.00  0.00     0.116 C 
BRANCH   2   3
ATOM      3  N   UNL A   1      31.232  25.423  26.833  1.00  0.00    -0.351 N 
ATOM      4  C   UNL A   1      31.093  24.108  26.526  1.00  0.00     0.281 C 
ATOM      5  O   UNL A   1      30.285  23.507  27.252  1.00  0.00    -0.268 OA
ATOM      6  H   UNL A   1      31.007  25.636  27.767  1.00  0.00     0.163 HD
BRANCH   4   7
ATOM      7  C   UNL A   1      31.964  23.310  25.478  1.00  0.00     0.176 C 
ATOM      8  C   UNL A   1      31.889  21.812  25.884  1.00  0.00     0.079 C 
ATOM      9  C   UNL A   1      31.522  23.406  23.993  1.00  0.00     0.094 C 
ATOM     10  C   UNL A   1      32.642  20.871  24.946  1.00  0.00     0.008 C 
ATOM     11  C   UNL A   1      32.200  22.442  22.989  1.00  0.00     0.063 C 
ATOM     12  C   UNL A   1      32.152  21.005  23.509  1.00  0.00     0.015 C 
BRANCH   7  13
ATOM     13  N   UNL A   1      33.349  23.849  25.534  1.00  0.00    -0.334 N 
ATOM     14  H   UNL A   1      33.819  23.566  24.675  1.00  0.00     0.347 HD
ATOM     15  H   UNL A   1      33.226  24.854  25.660  1.00  0.00     0.347 HD
BRANCH  13  16
ATOM     16  C   UNL A   1      34.197  23.442  26.648  1.00  0.00     0.261 C 
BRANCH  16  17
ATOM     17  C   UNL A   1      35.494  22.807  26.126  1.00  0.00     0.058 C 
ATOM     18  C   UNL A   1      36.424  23.782  25.417  1.00  0.00     0.010 C 
ENDBRANCH  16  17
ENDBRANCH  13  16
ENDBRANCH   7  13
BRANCH  11  19
ATOM     19  S   UNL A   1      33.893  23.019  22.594  1.00  0.00    -0.062 SA
BRANCH  19  20
ATOM     20  C   UNL A   1      33.685  24.694  22.230  1.00  0.00     0.276 A 
ATOM     21  N   UNL A   1      33.279  25.202  21.084  1.00  0.00    -0.101 NA
ATOM     22  O   UNL A   1      33.916  25.660  23.173  1.00  0.00    -0.416 OA
ATOM     23  N   UNL A   1      33.240  26.574  21.251  1.00  0.00    -0.112 NA
ATOM     24  C   UNL A   1      33.619  26.802  22.490  1.00  0.00     0.214 A 
ATOM     25  C   UNL A   1      33.763  28.073  23.218  1.00  0.00     0.113 C 
ENDBRANCH  19  20
ENDBRANCH  11  19
ENDBRANCH   4   7
ENDBRANCH   2   3
ENDBRANCH   1   2
BRANCH   1  26
ATOM     26  C   UNL A   1      31.779  29.064  26.653  1.00  0.00     0.023 C 
BRANCH  26  27
ATOM     27  C   UNL A   1      32.879  30.028  26.218  1.00  0.00     0.116 C 
BRANCH  27  28
ATOM     28  N   UNL A   1      32.675  31.396  26.676  1.00  0.00    -0.352 N 
ATOM     29  C   UNL A   1      33.488  32.143  27.494  1.00  0.00     0.251 C 
ATOM     30  H   UNL A   1      31.854  31.839  26.361  1.00  0.00     0.163 HD
ATOM     31  O   UNL A   1      33.161  33.262  27.864  1.00  0.00    -0.269 OA
BRANCH  29  32
ATOM     32  C   UNL A   1      34.749  31.540  27.960  1.00  0.00     0.039 A 
ATOM     33  C   UNL A   1      35.863  32.362  28.132  1.00  0.00     0.014 A 
ATOM     34  C   UNL A   1      34.788  30.190  28.318  1.00  0.00     0.014 A 
ATOM     35  C   UNL A   1      37.004  31.847  28.749  1.00  0.00     0.010 A 
ATOM     36  C   UNL A   1      35.903  29.694  28.982  1.00  0.00     0.010 A 
ATOM     37  C   UNL A   1      37.012  30.524  29.218  1.00  0.00    -0.014 A 
BRANCH  37  38
ATOM     38  C   UNL A   1      38.156  29.990  29.996  1.00  0.00     0.031 A 
ATOM     39  C   UNL A   1      38.389  30.458  31.401  1.00  0.00     0.074 A 
ATOM     40  C   UNL A   1      39.032  29.160  29.396  1.00  0.00     0.049 A 
ATOM     41  N   UNL A   1      39.392  30.202  32.201  1.00  0.00    -0.248 NA
ATOM     42  C   UNL A   1      37.376  31.359  31.971  1.00  0.00     0.031 C 
ATOM     43  C   UNL A   1      38.936  28.679  28.017  1.00  0.00     0.029 A 
ATOM     44  N   UNL A   1      40.189  28.592  29.866  1.00  0.00    -0.354 N 
ATOM     45  C   UNL A   1      39.142  30.925  33.358  1.00  0.00     0.074 A 
ATOM     46  C   UNL A   1      37.916  31.662  33.142  1.00  0.00     0.031 C 
ATOM     47  C   UNL A   1      39.982  27.881  27.756  1.00  0.00     0.029 A 
ATOM     48  C   UNL A   1      40.841  27.823  28.934  1.00  0.00     0.049 A 
ATOM     49  H   UNL A   1      40.521  28.724  30.784  1.00  0.00     0.167 HD
ATOM     50  C   UNL A   1      39.862  30.954  34.503  1.00  0.00     0.037 A 
ATOM     51  C   UNL A   1      42.008  27.156  29.021  1.00  0.00     0.037 A 
ATOM     52  C   UNL A   1      41.061  30.190  34.724  1.00  0.00     0.049 A 
ATOM     53  C   UNL A   1      42.785  27.199  30.307  1.00  0.00     0.074 A 
ATOM     54  C   UNL A   1      41.816  30.084  35.878  1.00  0.00     0.029 A 
ATOM     55  N   UNL A   1      41.679  29.399  33.766  1.00  0.00    -0.354 N 
ATOM     56  N   UNL A   1      42.502  27.828  31.421  1.00  0.00    -0.248 NA
ATOM     57  C   UNL A   1      44.043  26.441  30.349  1.00  0.00     0.031 C 
ATOM     58  C   UNL A   1      42.912  29.258  35.608  1.00  0.00     0.029 A 
ATOM     59  C   UNL A   1      42.820  28.820  34.296  1.00  0.00     0.049 A 
ATOM     60  H   UNL A   1      41.355  29.269  32.846  1.00  0.00     0.167 HD
ATOM     61  C   UNL A   1      43.532  27.528  32.301  1.00  0.00     0.074 A 
ATOM     62  C   UNL A   1      44.441  26.649  31.595  1.00  0.00     0.031 C 
ATOM     63  C   UNL A   1      43.710  27.946  33.578  1.00  0.00     0.037 A 
BRANCH  50  64
ATOM     64  C   UNL A   1      39.368  31.835  35.610  1.00  0.00     0.064 A 
ATOM     65  C   UNL A   1      39.776  33.172  35.720  1.00  0.00     0.173 A 
ATOM     66  C   UNL A   1      38.449  31.348  36.551  1.00  0.00     0.173 A 
ATOM     67  F   UNL A   1      40.663  33.681  34.852  1.00  0.00    -0.203 F 
ATOM     68  C   UNL A   1      39.302  33.983  36.748  1.00  0.00     0.198 A 
ATOM     69  C   UNL A   1      37.957  32.168  37.562  1.00  0.00     0.198 A 
ATOM     70  F   UNL A   1      38.024  30.077  36.487  1.00  0.00    -0.203 F 
ATOM     71  F   UNL A   1      39.740  35.244  36.860  1.00  0.00    -0.200 F 
ATOM     72  C   UNL A   1      38.389  33.482  37.664  1.00  0.00     0.200 A 
ATOM     73  F   UNL A   1      37.068  31.687  38.442  1.00  0.00    -0.200 F 
ATOM     74  F   UNL A   1      37.930  34.265  38.650  1.00  0.00    -0.200 F 
ENDBRANCH  50  64
BRANCH  51  75
ATOM     75  C   UNL A   1      42.504  26.377  27.858  1.00  0.00     0.064 A 
ATOM     76  C   UNL A   1      42.062  25.065  27.633  1.00  0.00     0.173 A 
ATOM     77  C   UNL A   1      43.422  26.923  26.949  1.00  0.00     0.173 A 
ATOM     78  F   UNL A   1      41.200  24.495  28.486  1.00  0.00    -0.203 F 
ATOM     79  C   UNL A   1      42.533  24.324  26.552  1.00  0.00     0.198 A 
ATOM     80  C   UNL A   1      43.875  26.188  25.856  1.00  0.00     0.198 A 
ATOM     81  F   UNL A   1      43.870  28.175  27.119  1.00  0.00    -0.203 F 
ATOM     82  F   UNL A   1      42.125  23.059  26.382  1.00  0.00    -0.200 F 
ATOM     83  C   UNL A   1      43.435  24.886  25.661  1.00  0.00     0.200 A 
ATOM     84  F   UNL A   1      44.737  26.739  24.991  1.00  0.00    -0.200 F 
ATOM     85  F   UNL A   1      43.886  24.173  24.620  1.00  0.00    -0.200 F 
ENDBRANCH  51  75
BRANCH  63  86
ATOM     86  C   UNL A   1      44.922  27.443  34.301  1.00  0.00     0.064 A 
ATOM     87  C   UNL A   1      46.120  28.171  34.311  1.00  0.00     0.173 A 
ATOM     88  C   UNL A   1      44.868  26.249  35.035  1.00  0.00     0.173 A 
ATOM     89  F   UNL A   1      46.223  29.311  33.610  1.00  0.00    -0.203 F 
ATOM     90  C   UNL A   1      47.226  27.715  35.021  1.00  0.00     0.198 A 
ATOM     91  C   UNL A   1      45.970  25.807  35.763  1.00  0.00     0.198 A 
ATOM     92  F   UNL A   1      43.743  25.520  35.058  1.00  0.00    -0.203 F 
ATOM     93  F   UNL A   1      48.372  28.409  34.991  1.00  0.00    -0.200 F 
ATOM     94  C   UNL A   1      47.148  26.538  35.751  1.00  0.00     0.200 A 
ATOM     95  F   UNL A   1      45.890  24.676  36.476  1.00  0.00    -0.200 F 
ATOM     96  F   UNL A   1      48.212  26.106  36.443  1.00  0.00    -0.200 F 
ENDBRANCH  63  86
ENDBRANCH  37  38
ENDBRANCH  29  32
ENDBRANCH  27  28
ENDBRANCH  26  27
ENDBRANCH   1  26
TORSDOF 16
ENDMDL
MODEL 3
REMARK VINA RESULT:     -11.7      2.157      7.831
REMARK SMILES CCC[NH2+][C@]1(C(=O)NCCCCNC(=O)c2ccc(-c3c4nc(c(-c5c(F)c(F)c(F)c(F)c5F)c5ccc([nH]5)c(-c5c(F)c(F)c(F)c(F)c5F)c5nc(c(-c6c(F)c(F)c(F)c(F)c6F)c6ccc3[nH]6)C=C5)C=C4)cc2)CCC[C@H](Sc2nnc(C)o2)C1
REMARK SMILES IDX 10 1 9 2 8 3 6 4 7 5 5 7 79 8 90 9 80 10 82 11 81 12 4 13
REMARK SMILES IDX 3 16 2 17 1 18 83 19 84 20 85 21 89 22 86 23 87 24 88 25
REMARK SMILES IDX 11 26 12 27 13 28 14 29 15 31 16 32 17 33 78 34 18 35 77 36
REMARK SMILES IDX 19 37 20 38 21 39 71 40 22 41 76 42 70 43 72 44 23 45 75 46
REMARK SMILES IDX 69 47 68 48 24 50 56 51 36 52 55 53 37 54 40 55 54 56 73 57
REMARK SMILES IDX 38 58 39 59 53 61 74 62 41 63 25 64 26 65 34 66 27 67 28 68
REMARK SMILES IDX 32 69 35 70 29 71 30 72 33 73 31 74 57 75 58 76 66 77 59 78
REMARK SMILES IDX 60 79 64 80 67 81 61 82 62 83 65 84 63 85 42 86 43 87 51 88
REMARK SMILES IDX 44 89 45 90 49 91 52 92 46 93 47 94 50 95 48 96
REMARK H PARENT 8 6 4 14 4 15 13 30 72 49 40 60
REMARK Flexibility Score: inf
ROOT
ATOM      1  C   UNL A   1      31.815  30.671  26.694  1.00  0.00     0.023 C 
ENDROOT
BRANCH   1   2
ATOM      2  C   UNL A   1      32.372  30.130  25.376  1.00  0.00     0.116 C 
BRANCH   2   3
ATOM      3  N   UNL A   1      33.498  29.255  25.624  1.00  0.00    -0.351 N 
ATOM      4  C   UNL A   1      33.589  27.935  25.928  1.00  0.00     0.281 C 
ATOM      5  O   UNL A   1      34.630  27.631  26.532  1.00  0.00    -0.268 OA
ATOM      6  H   UNL A   1      34.371  29.706  25.558  1.00  0.00     0.163 HD
BRANCH   4   7
ATOM      7  C   UNL A   1      32.593  26.809  25.446  1.00  0.00     0.176 C 
ATOM      8  C   UNL A   1      32.978  25.514  26.213  1.00  0.00     0.079 C 
ATOM      9  C   UNL A   1      31.083  27.062  25.702  1.00  0.00     0.094 C 
ATOM     10  C   UNL A   1      32.083  24.316  25.908  1.00  0.00     0.008 C 
ATOM     11  C   UNL A   1      30.117  25.876  25.469  1.00  0.00     0.063 C 
ATOM     12  C   UNL A   1      30.618  24.625  26.193  1.00  0.00     0.015 C 
BRANCH   7  13
ATOM     13  N   UNL A   1      32.746  26.667  23.974  1.00  0.00    -0.334 N 
ATOM     14  H   UNL A   1      31.886  26.250  23.619  1.00  0.00     0.347 HD
ATOM     15  H   UNL A   1      32.947  27.613  23.646  1.00  0.00     0.347 HD
BRANCH  13  16
ATOM     16  C   UNL A   1      33.856  25.864  23.475  1.00  0.00     0.261 C 
BRANCH  16  17
ATOM     17  C   UNL A   1      33.358  24.856  22.429  1.00  0.00     0.058 C 
ATOM     18  C   UNL A   1      33.777  23.418  22.701  1.00  0.00     0.010 C 
ENDBRANCH  16  17
ENDBRANCH  13  16
ENDBRANCH   7  13
BRANCH  11  19
ATOM     19  S   UNL A   1      29.840  25.619  23.676  1.00  0.00    -0.062 SA
BRANCH  19  20
ATOM     20  C   UNL A   1      29.580  27.214  23.067  1.00  0.00     0.276 A 
ATOM     21  N   UNL A   1      30.358  27.868  22.228  1.00  0.00    -0.101 NA
ATOM     22  O   UNL A   1      28.470  27.936  23.415  1.00  0.00    -0.416 OA
ATOM     23  N   UNL A   1      29.755  29.092  22.002  1.00  0.00    -0.112 NA
ATOM     24  C   UNL A   1      28.650  29.092  22.715  1.00  0.00     0.214 A 
ATOM     25  C   UNL A   1      27.614  30.128  22.859  1.00  0.00     0.113 C 
ENDBRANCH  19  20
ENDBRANCH  11  19
ENDBRANCH   4   7
ENDBRANCH   2   3
ENDBRANCH   1   2
BRANCH   1  26
ATOM     26  C   UNL A   1      31.672  32.195  26.727  1.00  0.00     0.023 C 
BRANCH  26  27
ATOM     27  C   UNL A   1      32.741  32.926  27.534  1.00  0.00     0.116 C 
BRANCH  27  28
ATOM     28  N   UNL A   1      32.420  34.321  27.803  1.00  0.00    -0.352 N 
ATOM     29  C   UNL A   1      33.029  35.172  28.695  1.00  0.00     0.251 C 
ATOM     30  H   UNL A   1      31.676  34.702  27.282  1.00  0.00     0.163 HD
ATOM     31  O   UNL A   1      32.611  36.306  28.877  1.00  0.00    -0.269 OA
BRANCH  29  32
ATOM     32  C   UNL A   1      34.174  34.662  29.471  1.00  0.00     0.039 A 
ATOM     33  C   UNL A   1      33.938  34.109  30.730  1.00  0.00     0.014 A 
ATOM     34  C   UNL A   1      35.451  34.645  28.904  1.00  0.00     0.014 A 
ATOM     35  C   UNL A   1      34.976  33.455  31.394  1.00  0.00     0.010 A 
ATOM     36  C   UNL A   1      36.468  33.945  29.541  1.00  0.00     0.010 A 
ATOM     37  C   UNL A   1      36.233  33.329  30.782  1.00  0.00    -0.014 A 
BRANCH  37  38
ATOM     38  C   UNL A   1      37.314  32.526  31.400  1.00  0.00     0.031 A 
ATOM     39  C   UNL A   1      37.827  32.885  32.763  1.00  0.00     0.074 A 
ATOM     40  C   UNL A   1      37.893  31.539  30.690  1.00  0.00     0.049 A 
ATOM     41  N   UNL A   1      38.838  32.383  33.423  1.00  0.00    -0.248 NA
ATOM     42  C   UNL A   1      37.128  33.974  33.463  1.00  0.00     0.031 C 
ATOM     43  C   UNL A   1      37.514  31.136  29.335  1.00  0.00     0.029 A 
ATOM     44  N   UNL A   1      38.940  30.709  31.002  1.00  0.00    -0.354 N 
ATOM     45  C   UNL A   1      38.911  33.108  34.604  1.00  0.00     0.074 A 
ATOM     46  C   UNL A   1      37.869  34.110  34.553  1.00  0.00     0.031 C 
ATOM     47  C   UNL A   1      38.308  30.129  28.936  1.00  0.00     0.029 A 
ATOM     48  C   UNL A   1      39.274  29.841  29.991  1.00  0.00     0.049 A 
ATOM     49  H   UNL A   1      39.408  30.733  31.869  1.00  0.00     0.167 HD
ATOM     50  C   UNL A   1      39.759  32.936  35.644  1.00  0.00     0.037 A 
ATOM     51  C   UNL A   1      40.259  28.925  29.922  1.00  0.00     0.037 A 
ATOM     52  C   UNL A   1      40.770  31.914  35.704  1.00  0.00     0.049 A 
ATOM     53  C   UNL A   1      41.183  28.751  31.094  1.00  0.00     0.074 A 
ATOM     54  C   UNL A   1      41.622  31.604  36.748  1.00  0.00     0.029 A 
ATOM     55  N   UNL A   1      41.063  31.034  34.672  1.00  0.00    -0.354 N 
ATOM     56  N   UNL A   1      41.197  29.392  32.237  1.00  0.00    -0.248 NA
ATOM     57  C   UNL A   1      42.229  27.726  30.969  1.00  0.00     0.031 C 
ATOM     58  C   UNL A   1      42.456  30.559  36.335  1.00  0.00     0.029 A 
ATOM     59  C   UNL A   1      42.099  30.196  35.046  1.00  0.00     0.049 A 
ATOM     60  H   UNL A   1      40.602  31.010  33.802  1.00  0.00     0.167 HD
ATOM     61  C   UNL A   1      42.234  28.839  32.973  1.00  0.00     0.074 A 
ATOM     62  C   UNL A   1      42.820  27.800  32.152  1.00  0.00     0.031 C 
ATOM     63  C   UNL A   1      42.666  29.165  34.215  1.00  0.00     0.037 A 
BRANCH  50  64
ATOM     64  C   UNL A   1      39.626  33.872  36.808  1.00  0.00     0.064 A 
ATOM     65  C   UNL A   1      40.254  35.125  36.816  1.00  0.00     0.173 A 
ATOM     66  C   UNL A   1      38.832  33.525  37.911  1.00  0.00     0.173 A 
ATOM     67  F   UNL A   1      41.033  35.497  35.790  1.00  0.00    -0.203 F 
ATOM     68  C   UNL A   1      40.114  35.989  37.900  1.00  0.00     0.198 A 
ATOM     69  C   UNL A   1      38.674  34.400  38.982  1.00  0.00     0.198 A 
ATOM     70  F   UNL A   1      38.208  32.338  37.950  1.00  0.00    -0.203 F 
ATOM     71  F   UNL A   1      40.760  37.163  37.906  1.00  0.00    -0.200 F 
ATOM     72  C   UNL A   1      39.320  35.628  38.979  1.00  0.00     0.200 A 
ATOM     73  F   UNL A   1      37.899  34.056  40.020  1.00  0.00    -0.200 F 
ATOM     74  F   UNL A   1      39.183  36.462  40.018  1.00  0.00    -0.200 F 
ENDBRANCH  50  64
BRANCH  51  75
ATOM     75  C   UNL A   1      40.410  28.091  28.703  1.00  0.00     0.064 A 
ATOM     76  C   UNL A   1      41.186  28.537  27.623  1.00  0.00     0.173 A 
ATOM     77  C   UNL A   1      39.789  26.839  28.589  1.00  0.00     0.173 A 
ATOM     78  F   UNL A   1      41.782  29.736  27.678  1.00  0.00    -0.203 F 
ATOM     79  C   UNL A   1      41.320  27.767  26.469  1.00  0.00     0.198 A 
ATOM     80  C   UNL A   1      39.943  26.061  27.445  1.00  0.00     0.198 A 
ATOM     81  F   UNL A   1      39.040  26.368  29.597  1.00  0.00    -0.203 F 
ATOM     82  F   UNL A   1      42.035  28.232  25.436  1.00  0.00    -0.200 F 
ATOM     83  C   UNL A   1      40.703  26.528  26.382  1.00  0.00     0.200 A 
ATOM     84  F   UNL A   1      39.355  24.859  27.369  1.00  0.00    -0.200 F 
ATOM     85  F   UNL A   1      40.836  25.787  25.274  1.00  0.00    -0.200 F 
ENDBRANCH  51  75
BRANCH  63  86
ATOM     86  C   UNL A   1      43.813  28.379  34.772  1.00  0.00     0.064 A 
ATOM     87  C   UNL A   1      45.136  28.823  34.638  1.00  0.00     0.173 A 
ATOM     88  C   UNL A   1      43.583  27.197  35.492  1.00  0.00     0.173 A 
ATOM     89  F   UNL A   1      45.406  29.939  33.943  1.00  0.00    -0.203 F 
ATOM     90  C   UNL A   1      46.190  28.106  35.195  1.00  0.00     0.198 A 
ATOM     91  C   UNL A   1      44.638  26.494  36.068  1.00  0.00     0.198 A 
ATOM     92  F   UNL A   1      42.334  26.734  35.650  1.00  0.00    -0.203 F 
ATOM     93  F   UNL A   1      47.450  28.530  35.027  1.00  0.00    -0.200 F 
ATOM     94  C   UNL A   1      45.940  26.946  35.915  1.00  0.00     0.200 A 
ATOM     95  F   UNL A   1      44.394  25.381  36.772  1.00  0.00    -0.200 F 
ATOM     96  F   UNL A   1      46.955  26.263  36.460  1.00  0.00    -0.200 F 
ENDBRANCH  63  86
ENDBRANCH  37  38
ENDBRANCH  29  32
ENDBRANCH  27  28
ENDBRANCH  26  27
ENDBRANCH   1  26
TORSDOF 16
ENDMDL
