MODEL 1
REMARK VINA RESULT:     -13.3      0.000      0.000
REMARK SMILES O=C(NCCCCNC(=O)c1cc(=O)[nH]c2ccc(C(F)(F)F)cc12)c1ccc(-c2c3nc(c(-c4c(F)c(F)c(F)c(F)c4F)c4ccc([nH]4)c(-c4c(F)c(F)c(F)c(F)c4F)c4nc(c(-c5c(F)c(F)c(F)c(F)c5F)c5ccc2[nH]5)C=C4)C=C3)cc1
REMARK SMILES IDX 5 1 4 2 3 3 1 4 2 5 26 7 27 8 88 9 28 10 87 11 29 12 30 13
REMARK SMILES IDX 31 14 81 15 32 16 86 17 80 18 82 19 33 20 85 21 79 22 78 23
REMARK SMILES IDX 34 25 66 26 46 27 65 28 47 29 50 30 64 31 83 32 48 33 49 34
REMARK SMILES IDX 63 36 84 37 51 38 35 39 36 40 44 41 37 42 38 43 42 44 45 45
REMARK SMILES IDX 39 46 40 47 43 48 41 49 67 50 68 51 76 52 69 53 70 54 74 55
REMARK SMILES IDX 77 56 71 57 72 58 75 59 73 60 52 61 53 62 61 63 54 64 55 65
REMARK SMILES IDX 59 66 62 67 56 68 57 69 60 70 58 71 6 72 7 73 8 74 9 75
REMARK SMILES IDX 10 77 11 78 12 79 25 80 13 81 16 82 24 83 14 84 15 85 17 86
REMARK SMILES IDX 19 87 18 89 20 90 21 91 22 92 23 93
REMARK H PARENT 3 6 82 24 50 35 8 76 15 88
REMARK Flexibility Score: inf
ROOT
ATOM      1  C   UNL A   1      31.344  32.001  26.946  1.00  0.00     0.023 C 
ENDROOT
BRANCH   1   2
ATOM      2  C   UNL A   1      32.622  32.814  27.113  1.00  0.00     0.116 C 
BRANCH   2   3
ATOM      3  N   UNL A   1      32.374  34.171  27.576  1.00  0.00    -0.352 N 
ATOM      4  O   UNL A   1      32.541  35.974  28.918  1.00  0.00    -0.269 OA
ATOM      5  C   UNL A   1      32.995  34.887  28.569  1.00  0.00     0.251 C 
ATOM      6  H   UNL A   1      31.651  34.647  27.106  1.00  0.00     0.163 HD
BRANCH   5   7
ATOM      7  C   UNL A   1      34.191  34.342  29.244  1.00  0.00     0.039 A 
ATOM      8  C   UNL A   1      35.475  34.598  28.756  1.00  0.00     0.014 A 
ATOM      9  C   UNL A   1      34.021  33.569  30.396  1.00  0.00     0.014 A 
ATOM     10  C   UNL A   1      36.573  33.962  29.328  1.00  0.00     0.010 A 
ATOM     11  C   UNL A   1      35.133  32.998  31.019  1.00  0.00     0.010 A 
ATOM     12  C   UNL A   1      36.415  33.162  30.469  1.00  0.00    -0.014 A 
BRANCH  12  13
ATOM     13  C   UNL A   1      37.596  32.528  31.106  1.00  0.00     0.031 A 
ATOM     14  C   UNL A   1      38.336  31.417  30.417  1.00  0.00     0.074 A 
ATOM     15  C   UNL A   1      37.987  32.945  32.324  1.00  0.00     0.049 A 
ATOM     16  N   UNL A   1      39.337  30.693  30.853  1.00  0.00    -0.248 NA
ATOM     17  C   UNL A   1      37.886  31.065  29.062  1.00  0.00     0.031 C 
ATOM     18  C   UNL A   1      37.349  34.016  33.091  1.00  0.00     0.029 A 
ATOM     19  N   UNL A   1      39.005  32.516  33.135  1.00  0.00    -0.354 N 
ATOM     20  C   UNL A   1      39.622  29.788  29.838  1.00  0.00     0.074 A 
ATOM     21  C   UNL A   1      38.669  30.035  28.777  1.00  0.00     0.031 C 
ATOM     22  C   UNL A   1      37.997  34.170  34.254  1.00  0.00     0.029 A 
ATOM     23  C   UNL A   1      39.054  33.168  34.342  1.00  0.00     0.049 A 
ATOM     24  H   UNL A   1      39.641  31.809  32.877  1.00  0.00     0.167 HD
ATOM     25  C   UNL A   1      40.592  28.842  29.800  1.00  0.00     0.037 A 
ATOM     26  C   UNL A   1      39.837  32.961  35.417  1.00  0.00     0.037 A 
ATOM     27  C   UNL A   1      41.537  28.609  30.862  1.00  0.00     0.049 A 
ATOM     28  C   UNL A   1      40.875  31.876  35.368  1.00  0.00     0.074 A 
ATOM     29  C   UNL A   1      42.580  27.699  30.905  1.00  0.00     0.029 A 
ATOM     30  N   UNL A   1      41.548  29.284  32.075  1.00  0.00    -0.354 N 
ATOM     31  N   UNL A   1      41.157  31.045  34.395  1.00  0.00    -0.248 NA
ATOM     32  C   UNL A   1      41.705  31.700  36.568  1.00  0.00     0.031 C 
ATOM     33  C   UNL A   1      43.182  27.783  32.165  1.00  0.00     0.029 A 
ATOM     34  C   UNL A   1      42.561  28.792  32.883  1.00  0.00     0.049 A 
ATOM     35  H   UNL A   1      40.927  30.008  32.324  1.00  0.00     0.167 HD
ATOM     36  C   UNL A   1      42.214  30.270  34.847  1.00  0.00     0.074 A 
ATOM     37  C   UNL A   1      42.526  30.732  36.184  1.00  0.00     0.031 C 
ATOM     38  C   UNL A   1      42.869  29.269  34.210  1.00  0.00     0.037 A 
BRANCH  25  39
ATOM     39  C   UNL A   1      40.657  27.964  28.581  1.00  0.00     0.064 A 
ATOM     40  C   UNL A   1      41.413  28.314  27.452  1.00  0.00     0.173 A 
ATOM     41  C   UNL A   1      39.968  26.741  28.552  1.00  0.00     0.173 A 
ATOM     42  F   UNL A   1      42.084  29.476  27.422  1.00  0.00    -0.203 F 
ATOM     43  C   UNL A   1      41.444  27.494  26.326  1.00  0.00     0.198 A 
ATOM     44  C   UNL A   1      40.029  25.907  27.437  1.00  0.00     0.198 A 
ATOM     45  F   UNL A   1      39.238  26.349  29.606  1.00  0.00    -0.203 F 
ATOM     46  F   UNL A   1      42.124  27.880  25.237  1.00  0.00    -0.200 F 
ATOM     47  C   UNL A   1      40.757  26.289  26.322  1.00  0.00     0.200 A 
ATOM     48  F   UNL A   1      39.378  24.736  27.442  1.00  0.00    -0.200 F 
ATOM     49  F   UNL A   1      40.789  25.502  25.238  1.00  0.00    -0.200 F 
ENDBRANCH  25  39
BRANCH  26  50
ATOM     50  C   UNL A   1      39.652  33.803  36.626  1.00  0.00     0.064 A 
ATOM     51  C   UNL A   1      40.265  35.059  36.730  1.00  0.00     0.173 A 
ATOM     52  C   UNL A   1      38.825  33.389  37.681  1.00  0.00     0.173 A 
ATOM     53  F   UNL A   1      41.076  35.490  35.753  1.00  0.00    -0.203 F 
ATOM     54  C   UNL A   1      40.064  35.865  37.848  1.00  0.00     0.198 A 
ATOM     55  C   UNL A   1      38.601  34.208  38.784  1.00  0.00     0.198 A 
ATOM     56  F   UNL A   1      38.209  32.199  37.623  1.00  0.00    -0.203 F 
ATOM     57  F   UNL A   1      40.687  37.048  37.939  1.00  0.00    -0.200 F 
ATOM     58  C   UNL A   1      39.226  35.443  38.870  1.00  0.00     0.200 A 
ATOM     59  F   UNL A   1      37.775  33.805  39.758  1.00  0.00    -0.200 F 
ATOM     60  F   UNL A   1      39.021  36.226  39.937  1.00  0.00    -0.200 F 
ENDBRANCH  26  50
BRANCH  38  61
ATOM     61  C   UNL A   1      44.029  28.636  34.923  1.00  0.00     0.064 A 
ATOM     62  C   UNL A   1      45.327  29.157  34.835  1.00  0.00     0.173 A 
ATOM     63  C   UNL A   1      43.822  27.523  35.753  1.00  0.00     0.173 A 
ATOM     64  F   UNL A   1      45.581  30.209  34.042  1.00  0.00    -0.203 F 
ATOM     65  C   UNL A   1      46.381  28.576  35.537  1.00  0.00     0.198 A 
ATOM     66  C   UNL A   1      44.870  26.964  36.479  1.00  0.00     0.198 A 
ATOM     67  F   UNL A   1      42.598  26.989  35.876  1.00  0.00    -0.203 F 
ATOM     68  F   UNL A   1      47.622  29.063  35.406  1.00  0.00    -0.200 F 
ATOM     69  C   UNL A   1      46.149  27.487  36.366  1.00  0.00     0.200 A 
ATOM     70  F   UNL A   1      44.640  25.922  37.289  1.00  0.00    -0.200 F 
ATOM     71  F   UNL A   1      47.161  26.938  37.052  1.00  0.00    -0.200 F 
ENDBRANCH  38  61
ENDBRANCH  12  13
ENDBRANCH   5   7
ENDBRANCH   2   3
ENDBRANCH   1   2
BRANCH   1  72
ATOM     72  C   UNL A   1      31.370  30.963  25.825  1.00  0.00     0.023 C 
BRANCH  72  73
ATOM     73  C   UNL A   1      32.501  29.941  25.902  1.00  0.00     0.116 C 
BRANCH  73  74
ATOM     74  N   UNL A   1      33.114  29.680  24.609  1.00  0.00    -0.352 N 
ATOM     75  C   UNL A   1      32.801  28.739  23.669  1.00  0.00     0.252 C 
ATOM     76  H   UNL A   1      33.867  30.269  24.377  1.00  0.00     0.163 HD
ATOM     77  O   UNL A   1      33.490  28.642  22.657  1.00  0.00    -0.269 OA
BRANCH  75  78
ATOM     78  C   UNL A   1      31.651  27.830  23.908  1.00  0.00     0.054 A 
ATOM     79  C   UNL A   1      31.920  26.674  24.538  1.00  0.00     0.086 A 
ATOM     80  C   UNL A   1      30.259  28.180  23.571  1.00  0.00     0.012 A 
ATOM     81  C   UNL A   1      30.870  25.664  24.767  1.00  0.00     0.249 A 
ATOM     82  C   UNL A   1      29.259  27.227  23.819  1.00  0.00     0.049 A 
ATOM     83  C   UNL A   1      29.885  29.415  23.022  1.00  0.00     0.024 A 
ATOM     84  O   UNL A   1      31.150  24.576  25.256  1.00  0.00    -0.270 OA
ATOM     85  N   UNL A   1      29.602  25.995  24.388  1.00  0.00    -0.322 N 
ATOM     86  C   UNL A   1      27.922  27.489  23.520  1.00  0.00     0.027 A 
ATOM     87  C   UNL A   1      28.537  29.703  22.733  1.00  0.00     0.056 A 
ATOM     88  H   UNL A   1      28.888  25.329  24.521  1.00  0.00     0.170 HD
ATOM     89  C   UNL A   1      27.563  28.725  22.982  1.00  0.00     0.015 A 
BRANCH  87  90
ATOM     90  C   UNL A   1      28.160  31.054  22.169  1.00  0.00     0.416 C 
ATOM     91  F   UNL A   1      27.566  30.964  20.948  1.00  0.00    -0.166 F 
ATOM     92  F   UNL A   1      27.284  31.722  22.968  1.00  0.00    -0.166 F 
ATOM     93  F   UNL A   1      29.226  31.887  22.005  1.00  0.00    -0.166 F 
ENDBRANCH  87  90
ENDBRANCH  75  78
ENDBRANCH  73  74
ENDBRANCH  72  73
ENDBRANCH   1  72
TORSDOF 12
ENDMDL
MODEL 2
REMARK VINA RESULT:     -13.3      0.105      1.964
REMARK SMILES O=C(NCCCCNC(=O)c1cc(=O)[nH]c2ccc(C(F)(F)F)cc12)c1ccc(-c2c3nc(c(-c4c(F)c(F)c(F)c(F)c4F)c4ccc([nH]4)c(-c4c(F)c(F)c(F)c(F)c4F)c4nc(c(-c5c(F)c(F)c(F)c(F)c5F)c5ccc2[nH]5)C=C4)C=C3)cc1
REMARK SMILES IDX 5 1 4 2 3 3 1 4 2 5 26 7 27 8 88 9 28 10 87 11 29 12 30 13
REMARK SMILES IDX 31 14 81 15 32 16 86 17 80 18 82 19 33 20 85 21 79 22 78 23
REMARK SMILES IDX 34 25 66 26 46 27 65 28 47 29 50 30 64 31 83 32 48 33 49 34
REMARK SMILES IDX 63 36 84 37 51 38 35 39 36 40 44 41 37 42 38 43 42 44 45 45
REMARK SMILES IDX 39 46 40 47 43 48 41 49 67 50 68 51 76 52 69 53 70 54 74 55
REMARK SMILES IDX 77 56 71 57 72 58 75 59 73 60 52 61 53 62 61 63 54 64 55 65
REMARK SMILES IDX 59 66 62 67 56 68 57 69 60 70 58 71 6 72 7 73 8 74 9 75
REMARK SMILES IDX 10 77 11 78 12 79 25 80 13 81 16 82 24 83 14 84 15 85 17 86
REMARK SMILES IDX 19 87 18 89 20 90 21 91 22 92 23 93
REMARK H PARENT 3 6 82 24 50 35 8 76 15 88
REMARK Flexibility Score: inf
ROOT
ATOM      1  C   UNL A   1      31.310  32.045  26.920  1.00  0.00     0.023 C 
ENDROOT
BRANCH   1   2
ATOM      2  C   UNL A   1      32.592  32.841  27.135  1.00  0.00     0.116 C 
BRANCH   2   3
ATOM      3  N   UNL A   1      32.346  34.202  27.584  1.00  0.00    -0.352 N 
ATOM      4  O   UNL A   1      32.516  36.019  28.908  1.00  0.00    -0.269 OA
ATOM      5  C   UNL A   1      32.968  34.928  28.569  1.00  0.00     0.251 C 
ATOM      6  H   UNL A   1      31.621  34.673  27.111  1.00  0.00     0.163 HD
BRANCH   5   7
ATOM      7  C   UNL A   1      34.166  34.390  29.247  1.00  0.00     0.039 A 
ATOM      8  C   UNL A   1      35.446  34.603  28.729  1.00  0.00     0.014 A 
ATOM      9  C   UNL A   1      34.001  33.667  30.432  1.00  0.00     0.014 A 
ATOM     10  C   UNL A   1      36.542  33.973  29.309  1.00  0.00     0.010 A 
ATOM     11  C   UNL A   1      35.113  33.102  31.060  1.00  0.00     0.010 A 
ATOM     12  C   UNL A   1      36.389  33.222  30.484  1.00  0.00    -0.014 A 
BRANCH  12  13
ATOM     13  C   UNL A   1      37.569  32.593  31.129  1.00  0.00     0.031 A 
ATOM     14  C   UNL A   1      38.306  31.471  30.453  1.00  0.00     0.074 A 
ATOM     15  C   UNL A   1      37.963  33.026  32.341  1.00  0.00     0.049 A 
ATOM     16  N   UNL A   1      39.306  30.751  30.897  1.00  0.00    -0.248 NA
ATOM     17  C   UNL A   1      37.853  31.102  29.104  1.00  0.00     0.031 C 
ATOM     18  C   UNL A   1      37.328  34.108  33.094  1.00  0.00     0.029 A 
ATOM     19  N   UNL A   1      38.981  32.604  33.156  1.00  0.00    -0.354 N 
ATOM     20  C   UNL A   1      39.587  29.831  29.895  1.00  0.00     0.074 A 
ATOM     21  C   UNL A   1      38.634  30.066  28.831  1.00  0.00     0.031 C 
ATOM     22  C   UNL A   1      37.979  34.276  34.253  1.00  0.00     0.029 A 
ATOM     23  C   UNL A   1      39.033  33.272  34.354  1.00  0.00     0.049 A 
ATOM     24  H   UNL A   1      39.615  31.893  32.906  1.00  0.00     0.167 HD
ATOM     25  C   UNL A   1      40.554  28.883  29.868  1.00  0.00     0.037 A 
ATOM     26  C   UNL A   1      39.817  33.077  35.430  1.00  0.00     0.037 A 
ATOM     27  C   UNL A   1      41.501  28.661  30.931  1.00  0.00     0.049 A 
ATOM     28  C   UNL A   1      40.852  31.989  35.395  1.00  0.00     0.074 A 
ATOM     29  C   UNL A   1      42.541  27.750  30.986  1.00  0.00     0.029 A 
ATOM     30  N   UNL A   1      41.515  29.353  32.135  1.00  0.00    -0.354 N 
ATOM     31  N   UNL A   1      41.130  31.145  34.432  1.00  0.00    -0.248 NA
ATOM     32  C   UNL A   1      41.683  31.827  36.595  1.00  0.00     0.031 C 
ATOM     33  C   UNL A   1      43.145  27.849  32.244  1.00  0.00     0.029 A 
ATOM     34  C   UNL A   1      42.527  28.869  32.949  1.00  0.00     0.049 A 
ATOM     35  H   UNL A   1      40.896  30.081  32.375  1.00  0.00     0.167 HD
ATOM     36  C   UNL A   1      42.186  30.373  34.894  1.00  0.00     0.074 A 
ATOM     37  C   UNL A   1      42.501  30.853  36.224  1.00  0.00     0.031 C 
ATOM     38  C   UNL A   1      42.838  29.362  34.269  1.00  0.00     0.037 A 
BRANCH  25  39
ATOM     39  C   UNL A   1      40.616  27.988  28.660  1.00  0.00     0.064 A 
ATOM     40  C   UNL A   1      39.923  26.770  28.601  1.00  0.00     0.173 A 
ATOM     41  C   UNL A   1      41.367  28.367  27.536  1.00  0.00     0.173 A 
ATOM     42  F   UNL A   1      39.197  26.355  29.651  1.00  0.00    -0.203 F 
ATOM     43  C   UNL A   1      40.010  25.948  27.480  1.00  0.00     0.198 A 
ATOM     44  C   UNL A   1      41.424  27.559  26.402  1.00  0.00     0.198 A 
ATOM     45  F   UNL A   1      42.042  29.526  27.531  1.00  0.00    -0.203 F 
ATOM     46  F   UNL A   1      39.387  24.761  27.472  1.00  0.00    -0.200 F 
ATOM     47  C   UNL A   1      40.755  26.345  26.380  1.00  0.00     0.200 A 
ATOM     48  F   UNL A   1      42.132  27.952  25.335  1.00  0.00    -0.200 F 
ATOM     49  F   UNL A   1      40.837  25.552  25.303  1.00  0.00    -0.200 F 
ENDBRANCH  25  39
BRANCH  26  50
ATOM     50  C   UNL A   1      39.635  33.936  36.628  1.00  0.00     0.064 A 
ATOM     51  C   UNL A   1      38.834  33.520  37.699  1.00  0.00     0.173 A 
ATOM     52  C   UNL A   1      40.293  35.170  36.743  1.00  0.00     0.173 A 
ATOM     53  F   UNL A   1      38.173  32.356  37.627  1.00  0.00    -0.203 F 
ATOM     54  C   UNL A   1      38.691  34.310  38.837  1.00  0.00     0.198 A 
ATOM     55  C   UNL A   1      40.174  35.945  37.894  1.00  0.00     0.198 A 
ATOM     56  F   UNL A   1      41.079  35.607  35.748  1.00  0.00    -0.203 F 
ATOM     57  F   UNL A   1      37.894  33.905  39.835  1.00  0.00    -0.200 F 
ATOM     58  C   UNL A   1      39.367  35.517  38.938  1.00  0.00     0.200 A 
ATOM     59  F   UNL A   1      40.845  37.099  37.994  1.00  0.00    -0.200 F 
ATOM     60  F   UNL A   1      39.242  36.268  40.041  1.00  0.00    -0.200 F 
ENDBRANCH  26  50
BRANCH  38  61
ATOM     61  C   UNL A   1      43.998  28.736  34.989  1.00  0.00     0.064 A 
ATOM     62  C   UNL A   1      43.840  27.609  35.808  1.00  0.00     0.173 A 
ATOM     63  C   UNL A   1      45.294  29.242  34.808  1.00  0.00     0.173 A 
ATOM     64  F   UNL A   1      42.619  27.097  36.027  1.00  0.00    -0.203 F 
ATOM     65  C   UNL A   1      44.937  27.022  36.435  1.00  0.00     0.198 A 
ATOM     66  C   UNL A   1      46.392  28.634  35.411  1.00  0.00     0.198 A 
ATOM     67  F   UNL A   1      45.499  30.316  34.031  1.00  0.00    -0.203 F 
ATOM     68  F   UNL A   1      44.759  25.971  37.247  1.00  0.00    -0.200 F 
ATOM     69  C   UNL A   1      46.212  27.529  36.228  1.00  0.00     0.200 A 
ATOM     70  F   UNL A   1      47.624  29.117  35.197  1.00  0.00    -0.200 F 
ATOM     71  F   UNL A   1      47.268  26.954  36.821  1.00  0.00    -0.200 F 
ENDBRANCH  38  61
ENDBRANCH  12  13
ENDBRANCH   5   7
ENDBRANCH   2   3
ENDBRANCH   1   2
BRANCH   1  72
ATOM     72  C   UNL A   1      31.354  31.029  25.780  1.00  0.00     0.023 C 
BRANCH  72  73
ATOM     73  C   UNL A   1      32.435  29.958  25.896  1.00  0.00     0.116 C 
BRANCH  73  74
ATOM     74  N   UNL A   1      33.081  29.669  24.625  1.00  0.00    -0.352 N 
ATOM     75  C   UNL A   1      32.792  28.709  23.696  1.00  0.00     0.252 C 
ATOM     76  H   UNL A   1      33.841  30.252  24.400  1.00  0.00     0.163 HD
ATOM     77  O   UNL A   1      33.506  28.590  22.705  1.00  0.00    -0.269 OA
BRANCH  75  78
ATOM     78  C   UNL A   1      31.635  27.806  23.925  1.00  0.00     0.054 A 
ATOM     79  C   UNL A   1      31.893  26.645  24.550  1.00  0.00     0.086 A 
ATOM     80  C   UNL A   1      30.247  28.166  23.582  1.00  0.00     0.012 A 
ATOM     81  C   UNL A   1      30.836  25.641  24.768  1.00  0.00     0.249 A 
ATOM     82  C   UNL A   1      29.239  27.218  23.819  1.00  0.00     0.049 A 
ATOM     83  C   UNL A   1      29.884  29.407  23.036  1.00  0.00     0.024 A 
ATOM     84  O   UNL A   1      31.106  24.548  25.253  1.00  0.00    -0.270 OA
ATOM     85  N   UNL A   1      29.572  25.981  24.383  1.00  0.00    -0.322 N 
ATOM     86  C   UNL A   1      27.906  27.490  23.513  1.00  0.00     0.027 A 
ATOM     87  C   UNL A   1      28.539  29.704  22.741  1.00  0.00     0.056 A 
ATOM     88  H   UNL A   1      28.853  25.320  24.509  1.00  0.00     0.170 HD
ATOM     89  C   UNL A   1      27.558  28.731  22.980  1.00  0.00     0.015 A 
BRANCH  87  90
ATOM     90  C   UNL A   1      28.174  31.061  22.182  1.00  0.00     0.416 C 
ATOM     91  F   UNL A   1      27.586  30.981  20.958  1.00  0.00    -0.166 F 
ATOM     92  F   UNL A   1      27.298  31.730  22.980  1.00  0.00    -0.166 F 
ATOM     93  F   UNL A   1      29.246  31.888  22.028  1.00  0.00    -0.166 F 
ENDBRANCH  87  90
ENDBRANCH  75  78
ENDBRANCH  73  74
ENDBRANCH  72  73
ENDBRANCH   1  72
TORSDOF 12
ENDMDL
MODEL 3
REMARK VINA RESULT:     -13.1      6.344     11.709
REMARK SMILES O=C(NCCCCNC(=O)c1cc(=O)[nH]c2ccc(C(F)(F)F)cc12)c1ccc(-c2c3nc(c(-c4c(F)c(F)c(F)c(F)c4F)c4ccc([nH]4)c(-c4c(F)c(F)c(F)c(F)c4F)c4nc(c(-c5c(F)c(F)c(F)c(F)c5F)c5ccc2[nH]5)C=C4)C=C3)cc1
REMARK SMILES IDX 5 1 4 2 3 3 1 4 2 5 26 7 27 8 88 9 28 10 87 11 29 12 30 13
REMARK SMILES IDX 31 14 81 15 32 16 86 17 80 18 82 19 33 20 85 21 79 22 78 23
REMARK SMILES IDX 34 25 66 26 46 27 65 28 47 29 50 30 64 31 83 32 48 33 49 34
REMARK SMILES IDX 63 36 84 37 51 38 35 39 36 40 44 41 37 42 38 43 42 44 45 45
REMARK SMILES IDX 39 46 40 47 43 48 41 49 67 50 68 51 76 52 69 53 70 54 74 55
REMARK SMILES IDX 77 56 71 57 72 58 75 59 73 60 52 61 53 62 61 63 54 64 55 65
REMARK SMILES IDX 59 66 62 67 56 68 57 69 60 70 58 71 6 72 7 73 8 74 9 75
REMARK SMILES IDX 10 77 11 78 12 79 25 80 13 81 16 82 24 83 14 84 15 85 17 86
REMARK SMILES IDX 19 87 18 89 20 90 21 91 22 92 23 93
REMARK H PARENT 3 6 82 24 50 35 8 76 15 88
REMARK Flexibility Score: inf
ROOT
ATOM      1  C   UNL A   1      37.844  19.720  25.001  1.00  0.00     0.023 C 
ENDROOT
BRANCH   1   2
ATOM      2  C   UNL A   1      39.065  20.212  25.769  1.00  0.00     0.116 C 
BRANCH   2   3
ATOM      3  N   UNL A   1      40.108  19.205  25.882  1.00  0.00    -0.352 N 
ATOM      4  O   UNL A   1      42.204  18.387  26.017  1.00  0.00    -0.269 OA
ATOM      5  C   UNL A   1      41.454  19.355  26.106  1.00  0.00     0.251 C 
ATOM      6  H   UNL A   1      39.803  18.274  25.781  1.00  0.00     0.163 HD
BRANCH   5   7
ATOM      7  C   UNL A   1      42.012  20.687  26.423  1.00  0.00     0.039 A 
ATOM      8  C   UNL A   1      42.283  21.060  27.742  1.00  0.00     0.014 A 
ATOM      9  C   UNL A   1      42.280  21.572  25.375  1.00  0.00     0.014 A 
ATOM     10  C   UNL A   1      42.678  22.364  28.026  1.00  0.00     0.010 A 
ATOM     11  C   UNL A   1      42.755  22.855  25.656  1.00  0.00     0.010 A 
ATOM     12  C   UNL A   1      42.925  23.272  26.986  1.00  0.00    -0.014 A 
BRANCH  12  13
ATOM     13  C   UNL A   1      43.396  24.647  27.291  1.00  0.00     0.031 A 
ATOM     14  C   UNL A   1      42.457  25.671  27.862  1.00  0.00     0.074 A 
ATOM     15  C   UNL A   1      44.675  24.975  27.030  1.00  0.00     0.049 A 
ATOM     16  N   UNL A   1      42.669  26.938  28.118  1.00  0.00    -0.248 NA
ATOM     17  C   UNL A   1      41.096  25.214  28.180  1.00  0.00     0.031 C 
ATOM     18  C   UNL A   1      45.680  24.066  26.477  1.00  0.00     0.029 A 
ATOM     19  N   UNL A   1      45.345  26.161  27.184  1.00  0.00    -0.354 N 
ATOM     20  C   UNL A   1      41.465  27.435  28.603  1.00  0.00     0.074 A 
ATOM     21  C   UNL A   1      40.520  26.339  28.580  1.00  0.00     0.031 C 
ATOM     22  C   UNL A   1      46.842  24.722  26.351  1.00  0.00     0.029 A 
ATOM     23  C   UNL A   1      46.647  26.111  26.751  1.00  0.00     0.049 A 
ATOM     24  H   UNL A   1      44.934  26.969  27.568  1.00  0.00     0.167 HD
ATOM     25  C   UNL A   1      41.182  28.689  29.031  1.00  0.00     0.037 A 
ATOM     26  C   UNL A   1      47.574  27.083  26.654  1.00  0.00     0.037 A 
ATOM     27  C   UNL A   1      42.133  29.771  29.053  1.00  0.00     0.049 A 
ATOM     28  C   UNL A   1      47.222  28.476  27.091  1.00  0.00     0.074 A 
ATOM     29  C   UNL A   1      41.955  31.069  29.500  1.00  0.00     0.029 A 
ATOM     30  N   UNL A   1      43.442  29.684  28.598  1.00  0.00    -0.354 N 
ATOM     31  N   UNL A   1      46.092  28.929  27.576  1.00  0.00    -0.248 NA
ATOM     32  C   UNL A   1      48.275  29.493  26.968  1.00  0.00     0.031 C 
ATOM     33  C   UNL A   1      43.135  31.781  29.260  1.00  0.00     0.029 A 
ATOM     34  C   UNL A   1      44.072  30.912  28.727  1.00  0.00     0.049 A 
ATOM     35  H   UNL A   1      43.861  28.869  28.236  1.00  0.00     0.167 HD
ATOM     36  C   UNL A   1      46.304  30.274  27.846  1.00  0.00     0.074 A 
ATOM     37  C   UNL A   1      47.674  30.562  27.473  1.00  0.00     0.031 C 
ATOM     38  C   UNL A   1      45.441  31.184  28.361  1.00  0.00     0.037 A 
BRANCH  25  39
ATOM     39  C   UNL A   1      39.773  28.969  29.478  1.00  0.00     0.064 A 
ATOM     40  C   UNL A   1      38.795  29.449  28.595  1.00  0.00     0.173 A 
ATOM     41  C   UNL A   1      39.394  28.732  30.809  1.00  0.00     0.173 A 
ATOM     42  F   UNL A   1      39.105  29.700  27.314  1.00  0.00    -0.203 F 
ATOM     43  C   UNL A   1      37.501  29.719  29.037  1.00  0.00     0.198 A 
ATOM     44  C   UNL A   1      38.090  28.971  31.238  1.00  0.00     0.198 A 
ATOM     45  F   UNL A   1      40.284  28.264  31.695  1.00  0.00    -0.203 F 
ATOM     46  F   UNL A   1      36.600  30.235  28.187  1.00  0.00    -0.200 F 
ATOM     47  C   UNL A   1      37.148  29.475  30.355  1.00  0.00     0.200 A 
ATOM     48  F   UNL A   1      37.747  28.719  32.509  1.00  0.00    -0.200 F 
ATOM     49  F   UNL A   1      35.903  29.736  30.776  1.00  0.00    -0.200 F 
ENDBRANCH  25  39
BRANCH  26  50
ATOM     50  C   UNL A   1      48.916  26.756  26.111  1.00  0.00     0.064 A 
ATOM     51  C   UNL A   1      49.224  26.982  24.763  1.00  0.00     0.173 A 
ATOM     52  C   UNL A   1      49.931  26.251  26.938  1.00  0.00     0.173 A 
ATOM     53  F   UNL A   1      48.282  27.449  23.931  1.00  0.00    -0.203 F 
ATOM     54  C   UNL A   1      50.494  26.708  24.261  1.00  0.00     0.198 A 
ATOM     55  C   UNL A   1      51.209  26.006  26.442  1.00  0.00     0.198 A 
ATOM     56  F   UNL A   1      49.688  26.026  28.237  1.00  0.00    -0.203 F 
ATOM     57  F   UNL A   1      50.754  26.904  22.961  1.00  0.00    -0.200 F 
ATOM     58  C   UNL A   1      51.487  26.228  25.102  1.00  0.00     0.200 A 
ATOM     59  F   UNL A   1      52.170  25.563  27.262  1.00  0.00    -0.200 F 
ATOM     60  F   UNL A   1      52.714  25.981  24.621  1.00  0.00    -0.200 F 
ENDBRANCH  26  50
BRANCH  38  61
ATOM     61  C   UNL A   1      45.964  32.570  28.608  1.00  0.00     0.064 A 
ATOM     62  C   UNL A   1      46.606  32.918  29.804  1.00  0.00     0.173 A 
ATOM     63  C   UNL A   1      45.868  33.546  27.604  1.00  0.00     0.173 A 
ATOM     64  F   UNL A   1      46.709  32.027  30.801  1.00  0.00    -0.203 F 
ATOM     65  C   UNL A   1      47.117  34.200  29.994  1.00  0.00     0.198 A 
ATOM     66  C   UNL A   1      46.408  34.817  27.785  1.00  0.00     0.198 A 
ATOM     67  F   UNL A   1      45.267  33.263  26.439  1.00  0.00    -0.203 F 
ATOM     68  F   UNL A   1      47.690  34.526  31.161  1.00  0.00    -0.200 F 
ATOM     69  C   UNL A   1      47.026  35.144  28.981  1.00  0.00     0.200 A 
ATOM     70  F   UNL A   1      46.331  35.721  26.799  1.00  0.00    -0.200 F 
ATOM     71  F   UNL A   1      47.531  36.373  29.160  1.00  0.00    -0.200 F 
ENDBRANCH  38  61
ENDBRANCH  12  13
ENDBRANCH   5   7
ENDBRANCH   2   3
ENDBRANCH   1   2
BRANCH   1  72
ATOM     72  C   UNL A   1      36.962  20.815  24.403  1.00  0.00     0.023 C 
BRANCH  72  73
ATOM     73  C   UNL A   1      36.730  22.032  25.295  1.00  0.00     0.116 C 
BRANCH  73  74
ATOM     74  N   UNL A   1      35.893  21.734  26.447  1.00  0.00    -0.352 N 
ATOM     75  C   UNL A   1      34.535  21.611  26.533  1.00  0.00     0.252 C 
ATOM     76  H   UNL A   1      36.379  21.602  27.293  1.00  0.00     0.163 HD
ATOM     77  O   UNL A   1      34.012  21.415  27.626  1.00  0.00    -0.269 OA
BRANCH  75  78
ATOM     78  C   UNL A   1      33.717  21.751  25.301  1.00  0.00     0.054 A 
ATOM     79  C   UNL A   1      33.387  23.002  24.937  1.00  0.00     0.086 A 
ATOM     80  C   UNL A   1      33.343  20.611  24.444  1.00  0.00     0.012 A 
ATOM     81  C   UNL A   1      32.520  23.258  23.773  1.00  0.00     0.249 A 
ATOM     82  C   UNL A   1      32.542  20.863  23.319  1.00  0.00     0.049 A 
ATOM     83  C   UNL A   1      33.750  19.292  24.693  1.00  0.00     0.024 A 
ATOM     84  O   UNL A   1      32.150  24.396  23.510  1.00  0.00    -0.270 OA
ATOM     85  N   UNL A   1      32.140  22.174  23.035  1.00  0.00    -0.322 N 
ATOM     86  C   UNL A   1      32.146  19.832  22.469  1.00  0.00     0.027 A 
ATOM     87  C   UNL A   1      33.376  18.242  23.833  1.00  0.00     0.056 A 
ATOM     88  H   UNL A   1      31.551  22.322  22.260  1.00  0.00     0.170 HD
ATOM     89  C   UNL A   1      32.566  18.526  22.724  1.00  0.00     0.015 A 
BRANCH  87  90
ATOM     90  C   UNL A   1      33.855  16.835  24.110  1.00  0.00     0.416 C 
ATOM     91  F   UNL A   1      34.298  16.203  22.990  1.00  0.00    -0.166 F 
ATOM     92  F   UNL A   1      34.888  16.806  24.995  1.00  0.00    -0.166 F 
ATOM     93  F   UNL A   1      32.889  16.030  24.635  1.00  0.00    -0.166 F 
ENDBRANCH  87  90
ENDBRANCH  75  78
ENDBRANCH  73  74
ENDBRANCH  72  73
ENDBRANCH   1  72
TORSDOF 12
ENDMDL
