MODEL 1
REMARK VINA RESULT:     -11.7      0.000      0.000
REMARK SMILES C[C@H](NC(=O)c1cc(S(=O)(=O)N(C)C)cs1)C(=O)NCCCCNC(=O)c1ccc(-c2c3nc(c(-c4c(F)c(F)c(F)c(F)c4F)c4ccc([nH]4)c(-c4c(F)c(F)c(F)c(F)c4F)c4nc(c(-c5c(F)c(F)c(F)c(F)c5F)c5ccc2[nH]5)C=C4)C=C3)cc1
REMARK SMILES IDX 20 1 19 2 17 3 18 4 2 6 1 7 3 8 4 9 5 11 6 12 7 13 16 14
REMARK SMILES IDX 8 15 15 16 9 17 10 18 11 19 12 20 13 21 14 22 21 23 22 24
REMARK SMILES IDX 23 25 24 26 25 27 26 29 27 30 28 31 89 32 29 33 88 34 30 35
REMARK SMILES IDX 31 36 32 37 82 38 33 39 87 40 81 41 83 42 34 43 86 44 80 45
REMARK SMILES IDX 79 46 35 48 67 49 47 50 66 51 48 52 51 53 65 54 84 55 49 56
REMARK SMILES IDX 50 57 64 59 85 60 52 61 36 62 37 63 45 64 38 65 39 66 43 67
REMARK SMILES IDX 46 68 40 69 41 70 44 71 42 72 68 73 69 74 77 75 70 76 71 77
REMARK SMILES IDX 75 78 78 79 72 80 73 81 76 82 74 83 53 84 54 85 62 86 55 87
REMARK SMILES IDX 56 88 60 89 63 90 57 91 58 92 61 93 59 94
REMARK H PARENT 19 5 3 10 24 28 83 47 51 58
REMARK Flexibility Score: inf
ROOT
ATOM      1  C   UNL A   1      31.928  29.668  27.274  1.00  0.00     0.116 C 
ENDROOT
BRANCH   1   2
ATOM      2  N   UNL A   1      33.322  29.275  27.313  1.00  0.00    -0.354 N 
ATOM      3  C   UNL A   1      34.015  28.372  26.562  1.00  0.00     0.242 C 
ATOM      4  O   UNL A   1      35.234  28.318  26.744  1.00  0.00    -0.273 OA
ATOM      5  H   UNL A   1      33.859  29.737  27.997  1.00  0.00     0.163 HD
BRANCH   3   6
ATOM      6  C   UNL A   1      33.335  27.482  25.505  1.00  0.00     0.168 C 
ATOM      7  C   UNL A   1      33.298  26.013  25.908  1.00  0.00     0.041 C 
BRANCH   6   8
ATOM      8  N   UNL A   1      33.930  27.662  24.180  1.00  0.00    -0.340 N 
ATOM      9  C   UNL A   1      33.289  27.952  23.000  1.00  0.00     0.262 C 
ATOM     10  H   UNL A   1      34.908  27.563  24.129  1.00  0.00     0.164 HD
ATOM     11  O   UNL A   1      33.966  27.986  21.973  1.00  0.00    -0.268 OA
BRANCH   9  12
ATOM     12  C   UNL A   1      31.864  28.192  23.030  1.00  0.00     0.093 A 
ATOM     13  C   UNL A   1      31.188  29.395  23.068  1.00  0.00     0.047 A 
ATOM     14  S   UNL A   1      30.791  26.860  23.016  1.00  0.00    -0.137 S 
ATOM     15  C   UNL A   1      29.775  29.212  23.095  1.00  0.00     0.094 A 
ATOM     16  C   UNL A   1      29.420  27.880  23.110  1.00  0.00     0.087 A 
BRANCH  15  17
ATOM     17  S   UNL A   1      28.625  30.506  23.142  1.00  0.00     0.243 S 
ATOM     18  O   UNL A   1      27.342  29.842  23.183  1.00  0.00    -0.207 OA
ATOM     19  O   UNL A   1      29.095  31.329  24.236  1.00  0.00    -0.207 OA
BRANCH  17  20
ATOM     20  N   UNL A   1      28.715  31.404  21.693  1.00  0.00    -0.204 NA
ATOM     21  C   UNL A   1      27.962  30.834  20.555  1.00  0.00     0.124 C 
ATOM     22  C   UNL A   1      28.402  32.838  21.882  1.00  0.00     0.124 C 
ENDBRANCH  17  20
ENDBRANCH  15  17
ENDBRANCH   9  12
ENDBRANCH   6   8
ENDBRANCH   3   6
ENDBRANCH   1   2
BRANCH   1  23
ATOM     23  C   UNL A   1      31.661  30.765  26.247  1.00  0.00     0.023 C 
BRANCH  23  24
ATOM     24  C   UNL A   1      31.414  32.162  26.823  1.00  0.00     0.023 C 
BRANCH  24  25
ATOM     25  C   UNL A   1      32.651  32.903  27.323  1.00  0.00     0.116 C 
BRANCH  25  26
ATOM     26  N   UNL A   1      32.381  34.283  27.691  1.00  0.00    -0.352 N 
ATOM     27  C   UNL A   1      32.998  35.074  28.630  1.00  0.00     0.251 C 
ATOM     28  H   UNL A   1      31.649  34.715  27.196  1.00  0.00     0.163 HD
ATOM     29  O   UNL A   1      32.555  36.189  28.880  1.00  0.00    -0.269 OA
BRANCH  27  30
ATOM     30  C   UNL A   1      34.178  34.571  29.368  1.00  0.00     0.039 A 
ATOM     31  C   UNL A   1      33.985  33.986  30.622  1.00  0.00     0.014 A 
ATOM     32  C   UNL A   1      35.464  34.669  28.831  1.00  0.00     0.014 A 
ATOM     33  C   UNL A   1      35.070  33.433  31.305  1.00  0.00     0.010 A 
ATOM     34  C   UNL A   1      36.535  34.061  29.482  1.00  0.00     0.010 A 
ATOM     35  C   UNL A   1      36.348  33.433  30.723  1.00  0.00    -0.014 A 
BRANCH  35  36
ATOM     36  C   UNL A   1      37.497  32.770  31.390  1.00  0.00     0.031 A 
ATOM     37  C   UNL A   1      38.196  31.617  30.724  1.00  0.00     0.074 A 
ATOM     38  C   UNL A   1      37.864  33.156  32.626  1.00  0.00     0.049 A 
ATOM     39  N   UNL A   1      39.159  30.857  31.181  1.00  0.00    -0.248 NA
ATOM     40  C   UNL A   1      37.733  31.257  29.376  1.00  0.00     0.031 C 
ATOM     41  C   UNL A   1      37.233  34.229  33.398  1.00  0.00     0.029 A 
ATOM     42  N   UNL A   1      38.847  32.682  33.459  1.00  0.00    -0.354 N 
ATOM     43  C   UNL A   1      39.404  29.920  30.188  1.00  0.00     0.074 A 
ATOM     44  C   UNL A   1      38.459  30.178  29.122  1.00  0.00     0.031 C 
ATOM     45  C   UNL A   1      37.852  34.339  34.584  1.00  0.00     0.029 A 
ATOM     46  C   UNL A   1      38.900  33.326  34.670  1.00  0.00     0.049 A 
ATOM     47  H   UNL A   1      39.455  31.950  33.210  1.00  0.00     0.167 HD
ATOM     48  C   UNL A   1      40.347  28.949  30.156  1.00  0.00     0.037 A 
ATOM     49  C   UNL A   1      39.700  33.118  35.734  1.00  0.00     0.037 A 
ATOM     50  C   UNL A   1      41.304  28.711  31.205  1.00  0.00     0.049 A 
ATOM     51  C   UNL A   1      40.745  32.039  35.670  1.00  0.00     0.074 A 
ATOM     52  C   UNL A   1      42.334  27.786  31.241  1.00  0.00     0.029 A 
ATOM     53  N   UNL A   1      41.348  29.405  32.404  1.00  0.00    -0.354 N 
ATOM     54  N   UNL A   1      41.007  31.198  34.699  1.00  0.00    -0.248 NA
ATOM     55  C   UNL A   1      41.609  31.884  36.849  1.00  0.00     0.031 C 
ATOM     56  C   UNL A   1      42.980  27.898  32.477  1.00  0.00     0.029 A 
ATOM     57  C   UNL A   1      42.378  28.921  33.194  1.00  0.00     0.049 A 
ATOM     58  H   UNL A   1      40.737  30.136  32.657  1.00  0.00     0.167 HD
ATOM     59  C   UNL A   1      42.079  30.433  35.137  1.00  0.00     0.074 A 
ATOM     60  C   UNL A   1      42.428  30.918  36.457  1.00  0.00     0.031 C 
ATOM     61  C   UNL A   1      42.717  29.418  34.503  1.00  0.00     0.037 A 
BRANCH  48  62
ATOM     62  C   UNL A   1      40.393  28.069  28.940  1.00  0.00     0.064 A 
ATOM     63  C   UNL A   1      41.156  28.417  27.814  1.00  0.00     0.173 A 
ATOM     64  C   UNL A   1      39.694  26.854  28.911  1.00  0.00     0.173 A 
ATOM     65  F   UNL A   1      41.832  29.574  27.788  1.00  0.00    -0.203 F 
ATOM     66  C   UNL A   1      41.192  27.593  26.693  1.00  0.00     0.198 A 
ATOM     67  C   UNL A   1      39.756  26.019  27.797  1.00  0.00     0.198 A 
ATOM     68  F   UNL A   1      38.955  26.473  29.963  1.00  0.00    -0.203 F 
ATOM     69  F   UNL A   1      41.889  27.967  25.610  1.00  0.00    -0.200 F 
ATOM     70  C   UNL A   1      40.498  26.392  26.687  1.00  0.00     0.200 A 
ATOM     71  F   UNL A   1      39.093  24.854  27.799  1.00  0.00    -0.200 F 
ATOM     72  F   UNL A   1      40.538  25.598  25.609  1.00  0.00    -0.200 F 
ENDBRANCH  48  62
BRANCH  49  73
ATOM     73  C   UNL A   1      39.556  33.969  36.942  1.00  0.00     0.064 A 
ATOM     74  C   UNL A   1      40.189  35.218  37.020  1.00  0.00     0.173 A 
ATOM     75  C   UNL A   1      38.787  33.557  38.039  1.00  0.00     0.173 A 
ATOM     76  F   UNL A   1      40.952  35.645  36.004  1.00  0.00    -0.203 F 
ATOM     77  C   UNL A   1      40.070  36.014  38.157  1.00  0.00     0.198 A 
ATOM     78  C   UNL A   1      38.648  34.366  39.165  1.00  0.00     0.198 A 
ATOM     79  F   UNL A   1      38.157  32.372  38.010  1.00  0.00    -0.203 F 
ATOM     80  F   UNL A   1      40.717  37.187  38.221  1.00  0.00    -0.200 F 
ATOM     81  C   UNL A   1      39.295  35.591  39.226  1.00  0.00     0.200 A 
ATOM     82  F   UNL A   1      37.888  33.958  40.190  1.00  0.00    -0.200 F 
ATOM     83  F   UNL A   1      39.176  36.359  40.317  1.00  0.00    -0.200 F 
ENDBRANCH  49  73
BRANCH  61  84
ATOM     84  C   UNL A   1      43.876  28.785  35.213  1.00  0.00     0.064 A 
ATOM     85  C   UNL A   1      45.182  29.273  35.066  1.00  0.00     0.173 A 
ATOM     86  C   UNL A   1      43.671  27.702  36.081  1.00  0.00     0.173 A 
ATOM     87  F   UNL A   1      45.430  30.296  34.234  1.00  0.00    -0.203 F 
ATOM     88  C   UNL A   1      46.245  28.686  35.747  1.00  0.00     0.198 A 
ATOM     89  C   UNL A   1      44.731  27.135  36.780  1.00  0.00     0.198 A 
ATOM     90  F   UNL A   1      42.439  27.202  36.259  1.00  0.00    -0.203 F 
ATOM     91  F   UNL A   1      47.492  29.143  35.559  1.00  0.00    -0.200 F 
ATOM     92  C   UNL A   1      46.018  27.624  36.608  1.00  0.00     0.200 A 
ATOM     93  F   UNL A   1      44.510  26.115  37.620  1.00  0.00    -0.200 F 
ATOM     94  F   UNL A   1      47.042  27.064  37.268  1.00  0.00    -0.200 F 
ENDBRANCH  61  84
ENDBRANCH  35  36
ENDBRANCH  27  30
ENDBRANCH  25  26
ENDBRANCH  24  25
ENDBRANCH  23  24
ENDBRANCH   1  23
TORSDOF 15
ENDMDL
MODEL 2
REMARK VINA RESULT:     -11.7      1.810      3.922
REMARK SMILES C[C@H](NC(=O)c1cc(S(=O)(=O)N(C)C)cs1)C(=O)NCCCCNC(=O)c1ccc(-c2c3nc(c(-c4c(F)c(F)c(F)c(F)c4F)c4ccc([nH]4)c(-c4c(F)c(F)c(F)c(F)c4F)c4nc(c(-c5c(F)c(F)c(F)c(F)c5F)c5ccc2[nH]5)C=C4)C=C3)cc1
REMARK SMILES IDX 20 1 19 2 17 3 18 4 2 6 1 7 3 8 4 9 5 11 6 12 7 13 16 14
REMARK SMILES IDX 8 15 15 16 9 17 10 18 11 19 12 20 13 21 14 22 21 23 22 24
REMARK SMILES IDX 23 25 24 26 25 27 26 29 27 30 28 31 89 32 29 33 88 34 30 35
REMARK SMILES IDX 31 36 32 37 82 38 33 39 87 40 81 41 83 42 34 43 86 44 80 45
REMARK SMILES IDX 79 46 35 48 67 49 47 50 66 51 48 52 51 53 65 54 84 55 49 56
REMARK SMILES IDX 50 57 64 59 85 60 52 61 36 62 37 63 45 64 38 65 39 66 43 67
REMARK SMILES IDX 46 68 40 69 41 70 44 71 42 72 68 73 69 74 77 75 70 76 71 77
REMARK SMILES IDX 75 78 78 79 72 80 73 81 76 82 74 83 53 84 54 85 62 86 55 87
REMARK SMILES IDX 56 88 60 89 63 90 57 91 58 92 61 93 59 94
REMARK H PARENT 19 5 3 10 24 28 83 47 51 58
REMARK Flexibility Score: inf
ROOT
ATOM      1  C   UNL A   1      32.261  29.860  25.369  1.00  0.00     0.116 C 
ENDROOT
BRANCH   1   2
ATOM      2  N   UNL A   1      31.439  29.631  24.198  1.00  0.00    -0.354 N 
ATOM      3  C   UNL A   1      31.632  28.824  23.117  1.00  0.00     0.242 C 
ATOM      4  O   UNL A   1      30.702  28.745  22.309  1.00  0.00    -0.273 OA
ATOM      5  H   UNL A   1      30.599  30.145  24.180  1.00  0.00     0.163 HD
BRANCH   3   6
ATOM      6  C   UNL A   1      32.924  28.011  22.912  1.00  0.00     0.168 C 
ATOM      7  C   UNL A   1      34.178  28.874  22.970  1.00  0.00     0.041 C 
BRANCH   6   8
ATOM      8  N   UNL A   1      32.875  27.213  21.687  1.00  0.00    -0.340 N 
ATOM      9  C   UNL A   1      33.015  25.851  21.560  1.00  0.00     0.262 C 
ATOM     10  H   UNL A   1      32.724  27.712  20.853  1.00  0.00     0.164 HD
ATOM     11  O   UNL A   1      33.021  25.379  20.425  1.00  0.00    -0.268 OA
BRANCH   9  12
ATOM     12  C   UNL A   1      33.154  25.058  22.761  1.00  0.00     0.093 A 
ATOM     13  C   UNL A   1      34.306  24.604  23.372  1.00  0.00     0.047 A 
ATOM     14  S   UNL A   1      31.750  24.573  23.609  1.00  0.00    -0.137 S 
ATOM     15  C   UNL A   1      34.024  23.843  24.543  1.00  0.00     0.094 A 
ATOM     16  C   UNL A   1      32.671  23.713  24.769  1.00  0.00     0.087 A 
BRANCH  15  17
ATOM     17  S   UNL A   1      35.233  23.126  25.554  1.00  0.00     0.243 S 
ATOM     18  O   UNL A   1      36.313  24.086  25.555  1.00  0.00    -0.207 OA
ATOM     19  O   UNL A   1      34.504  22.795  26.761  1.00  0.00    -0.207 OA
BRANCH  17  20
ATOM     20  N   UNL A   1      35.801  21.685  24.835  1.00  0.00    -0.204 NA
ATOM     21  C   UNL A   1      37.159  21.273  25.249  1.00  0.00     0.124 C 
ATOM     22  C   UNL A   1      34.839  20.566  24.947  1.00  0.00     0.124 C 
ENDBRANCH  17  20
ENDBRANCH  15  17
ENDBRANCH   9  12
ENDBRANCH   6   8
ENDBRANCH   3   6
ENDBRANCH   1   2
BRANCH   1  23
ATOM     23  C   UNL A   1      31.481  30.506  26.510  1.00  0.00     0.023 C 
BRANCH  23  24
ATOM     24  C   UNL A   1      31.478  32.037  26.524  1.00  0.00     0.023 C 
BRANCH  24  25
ATOM     25  C   UNL A   1      32.613  32.696  27.304  1.00  0.00     0.116 C 
BRANCH  25  26
ATOM     26  N   UNL A   1      32.347  34.085  27.638  1.00  0.00    -0.352 N 
ATOM     27  C   UNL A   1      32.975  34.901  28.547  1.00  0.00     0.251 C 
ATOM     28  H   UNL A   1      31.606  34.503  27.141  1.00  0.00     0.163 HD
ATOM     29  O   UNL A   1      32.533  36.023  28.773  1.00  0.00    -0.269 OA
BRANCH  27  30
ATOM     30  C   UNL A   1      34.165  34.420  29.282  1.00  0.00     0.039 A 
ATOM     31  C   UNL A   1      33.981  33.780  30.510  1.00  0.00     0.014 A 
ATOM     32  C   UNL A   1      35.453  34.592  28.767  1.00  0.00     0.014 A 
ATOM     33  C   UNL A   1      35.080  33.247  31.187  1.00  0.00     0.010 A 
ATOM     34  C   UNL A   1      36.539  34.005  29.410  1.00  0.00     0.010 A 
ATOM     35  C   UNL A   1      36.363  33.322  30.623  1.00  0.00    -0.014 A 
BRANCH  35  36
ATOM     36  C   UNL A   1      37.531  32.682  31.281  1.00  0.00     0.031 A 
ATOM     37  C   UNL A   1      38.252  31.549  30.607  1.00  0.00     0.074 A 
ATOM     38  C   UNL A   1      37.896  33.072  32.517  1.00  0.00     0.049 A 
ATOM     39  N   UNL A   1      39.234  30.809  31.055  1.00  0.00    -0.248 NA
ATOM     40  C   UNL A   1      37.791  31.184  29.259  1.00  0.00     0.031 C 
ATOM     41  C   UNL A   1      37.245  34.126  33.298  1.00  0.00     0.029 A 
ATOM     42  N   UNL A   1      38.894  32.616  33.342  1.00  0.00    -0.354 N 
ATOM     43  C   UNL A   1      39.496  29.882  30.056  1.00  0.00     0.074 A 
ATOM     44  C   UNL A   1      38.539  30.122  28.996  1.00  0.00     0.031 C 
ATOM     45  C   UNL A   1      37.869  34.245  34.480  1.00  0.00     0.029 A 
ATOM     46  C   UNL A   1      38.940  33.256  34.556  1.00  0.00     0.049 A 
ATOM     47  H   UNL A   1      39.518  31.899  33.087  1.00  0.00     0.167 HD
ATOM     48  C   UNL A   1      40.460  28.932  30.014  1.00  0.00     0.037 A 
ATOM     49  C   UNL A   1      39.750  33.061  35.615  1.00  0.00     0.037 A 
ATOM     50  C   UNL A   1      41.427  28.711  31.057  1.00  0.00     0.049 A 
ATOM     51  C   UNL A   1      40.819  32.006  35.540  1.00  0.00     0.074 A 
ATOM     52  C   UNL A   1      42.478  27.810  31.084  1.00  0.00     0.029 A 
ATOM     53  N   UNL A   1      41.463  29.401  32.259  1.00  0.00    -0.354 N 
ATOM     54  N   UNL A   1      41.095  31.176  34.564  1.00  0.00    -0.248 NA
ATOM     55  C   UNL A   1      41.693  31.865  36.713  1.00  0.00     0.031 C 
ATOM     56  C   UNL A   1      43.128  27.931  32.317  1.00  0.00     0.029 A 
ATOM     57  C   UNL A   1      42.508  28.937  33.041  1.00  0.00     0.049 A 
ATOM     58  H   UNL A   1      40.837  30.116  32.519  1.00  0.00     0.167 HD
ATOM     59  C   UNL A   1      42.186  30.434  34.993  1.00  0.00     0.074 A 
ATOM     60  C   UNL A   1      42.531  30.920  36.312  1.00  0.00     0.031 C 
ATOM     61  C   UNL A   1      42.842  29.436  34.350  1.00  0.00     0.037 A 
BRANCH  48  62
ATOM     62  C   UNL A   1      40.519  28.059  28.794  1.00  0.00     0.064 A 
ATOM     63  C   UNL A   1      41.274  28.425  27.669  1.00  0.00     0.173 A 
ATOM     64  C   UNL A   1      39.840  26.832  28.761  1.00  0.00     0.173 A 
ATOM     65  F   UNL A   1      41.931  29.593  27.648  1.00  0.00    -0.203 F 
ATOM     66  C   UNL A   1      41.323  27.607  26.544  1.00  0.00     0.198 A 
ATOM     67  C   UNL A   1      39.914  26.004  27.643  1.00  0.00     0.198 A 
ATOM     68  F   UNL A   1      39.109  26.435  29.811  1.00  0.00    -0.203 F 
ATOM     69  F   UNL A   1      42.012  27.998  25.462  1.00  0.00    -0.200 F 
ATOM     70  C   UNL A   1      40.649  26.395  26.534  1.00  0.00     0.200 A 
ATOM     71  F   UNL A   1      39.272  24.828  27.640  1.00  0.00    -0.200 F 
ATOM     72  F   UNL A   1      40.701  25.607  25.452  1.00  0.00    -0.200 F 
ENDBRANCH  48  62
BRANCH  49  73
ATOM     73  C   UNL A   1      39.594  33.903  36.827  1.00  0.00     0.064 A 
ATOM     74  C   UNL A   1      38.828  33.461  37.915  1.00  0.00     0.173 A 
ATOM     75  C   UNL A   1      40.205  35.162  36.927  1.00  0.00     0.173 A 
ATOM     76  F   UNL A   1      38.208  32.273  37.857  1.00  0.00    -0.203 F 
ATOM     77  C   UNL A   1      38.666  34.253  39.050  1.00  0.00     0.198 A 
ATOM     78  C   UNL A   1      40.063  35.941  38.073  1.00  0.00     0.198 A 
ATOM     79  F   UNL A   1      40.952  35.627  35.915  1.00  0.00    -0.203 F 
ATOM     80  F   UNL A   1      37.898  33.823  40.060  1.00  0.00    -0.200 F 
ATOM     81  C   UNL A   1      39.289  35.490  39.131  1.00  0.00     0.200 A 
ATOM     82  F   UNL A   1      40.677  37.130  38.151  1.00  0.00    -0.200 F 
ATOM     83  F   UNL A   1      39.138  36.249  40.224  1.00  0.00    -0.200 F 
ENDBRANCH  49  73
BRANCH  61  84
ATOM     84  C   UNL A   1      44.019  28.826  35.051  1.00  0.00     0.064 A 
ATOM     85  C   UNL A   1      43.878  27.706  35.883  1.00  0.00     0.173 A 
ATOM     86  C   UNL A   1      45.309  29.343  34.856  1.00  0.00     0.173 A 
ATOM     87  F   UNL A   1      42.663  27.186  36.114  1.00  0.00    -0.203 F 
ATOM     88  C   UNL A   1      44.983  27.139  36.512  1.00  0.00     0.198 A 
ATOM     89  C   UNL A   1      46.414  28.757  35.464  1.00  0.00     0.198 A 
ATOM     90  F   UNL A   1      45.497  30.410  34.064  1.00  0.00    -0.203 F 
ATOM     91  F   UNL A   1      44.819  26.095  37.337  1.00  0.00    -0.200 F 
ATOM     92  C   UNL A   1      46.250  27.660  36.296  1.00  0.00     0.200 A 
ATOM     93  F   UNL A   1      47.640  29.255  35.247  1.00  0.00    -0.200 F 
ATOM     94  F   UNL A   1      47.313  27.109  36.897  1.00  0.00    -0.200 F 
ENDBRANCH  61  84
ENDBRANCH  35  36
ENDBRANCH  27  30
ENDBRANCH  25  26
ENDBRANCH  24  25
ENDBRANCH  23  24
ENDBRANCH   1  23
TORSDOF 15
ENDMDL
MODEL 3
REMARK VINA RESULT:     -11.7      1.782      3.663
REMARK SMILES C[C@H](NC(=O)c1cc(S(=O)(=O)N(C)C)cs1)C(=O)NCCCCNC(=O)c1ccc(-c2c3nc(c(-c4c(F)c(F)c(F)c(F)c4F)c4ccc([nH]4)c(-c4c(F)c(F)c(F)c(F)c4F)c4nc(c(-c5c(F)c(F)c(F)c(F)c5F)c5ccc2[nH]5)C=C4)C=C3)cc1
REMARK SMILES IDX 20 1 19 2 17 3 18 4 2 6 1 7 3 8 4 9 5 11 6 12 7 13 16 14
REMARK SMILES IDX 8 15 15 16 9 17 10 18 11 19 12 20 13 21 14 22 21 23 22 24
REMARK SMILES IDX 23 25 24 26 25 27 26 29 27 30 28 31 89 32 29 33 88 34 30 35
REMARK SMILES IDX 31 36 32 37 82 38 33 39 87 40 81 41 83 42 34 43 86 44 80 45
REMARK SMILES IDX 79 46 35 48 67 49 47 50 66 51 48 52 51 53 65 54 84 55 49 56
REMARK SMILES IDX 50 57 64 59 85 60 52 61 36 62 37 63 45 64 38 65 39 66 43 67
REMARK SMILES IDX 46 68 40 69 41 70 44 71 42 72 68 73 69 74 77 75 70 76 71 77
REMARK SMILES IDX 75 78 78 79 72 80 73 81 76 82 74 83 53 84 54 85 62 86 55 87
REMARK SMILES IDX 56 88 60 89 63 90 57 91 58 92 61 93 59 94
REMARK H PARENT 19 5 3 10 24 28 83 47 51 58
REMARK Flexibility Score: inf
ROOT
ATOM      1  C   UNL A   1      32.209  29.905  25.382  1.00  0.00     0.116 C 
ENDROOT
BRANCH   1   2
ATOM      2  N   UNL A   1      31.386  29.702  24.207  1.00  0.00    -0.354 N 
ATOM      3  C   UNL A   1      31.575  28.915  23.110  1.00  0.00     0.242 C 
ATOM      4  O   UNL A   1      30.645  28.856  22.302  1.00  0.00    -0.273 OA
ATOM      5  H   UNL A   1      30.548  30.220  24.199  1.00  0.00     0.163 HD
BRANCH   3   6
ATOM      6  C   UNL A   1      32.864  28.100  22.890  1.00  0.00     0.168 C 
ATOM      7  C   UNL A   1      34.124  28.947  23.016  1.00  0.00     0.041 C 
BRANCH   6   8
ATOM      8  N   UNL A   1      32.832  27.365  21.626  1.00  0.00    -0.340 N 
ATOM      9  C   UNL A   1      32.864  26.004  21.440  1.00  0.00     0.262 C 
ATOM     10  H   UNL A   1      32.781  27.913  20.810  1.00  0.00     0.164 HD
ATOM     11  O   UNL A   1      32.907  25.584  20.284  1.00  0.00    -0.268 OA
BRANCH   9  12
ATOM     12  C   UNL A   1      32.852  25.149  22.605  1.00  0.00     0.093 A 
ATOM     13  C   UNL A   1      33.918  24.667  23.338  1.00  0.00     0.047 A 
ATOM     14  S   UNL A   1      31.353  24.614  23.234  1.00  0.00    -0.137 S 
ATOM     15  C   UNL A   1      33.491  23.844  24.421  1.00  0.00     0.094 A 
ATOM     16  C   UNL A   1      32.121  23.698  24.459  1.00  0.00     0.087 A 
BRANCH  15  17
ATOM     17  S   UNL A   1      34.564  23.079  25.544  1.00  0.00     0.243 S 
ATOM     18  O   UNL A   1      35.760  23.888  25.504  1.00  0.00    -0.207 OA
ATOM     19  O   UNL A   1      33.761  22.961  26.743  1.00  0.00    -0.207 OA
BRANCH  17  20
ATOM     20  N   UNL A   1      34.959  21.514  24.984  1.00  0.00    -0.204 NA
ATOM     21  C   UNL A   1      36.344  21.081  25.266  1.00  0.00     0.124 C 
ATOM     22  C   UNL A   1      33.977  20.488  25.399  1.00  0.00     0.124 C 
ENDBRANCH  17  20
ENDBRANCH  15  17
ENDBRANCH   9  12
ENDBRANCH   6   8
ENDBRANCH   3   6
ENDBRANCH   1   2
BRANCH   1  23
ATOM     23  C   UNL A   1      31.432  30.536  26.534  1.00  0.00     0.023 C 
BRANCH  23  24
ATOM     24  C   UNL A   1      31.408  32.066  26.554  1.00  0.00     0.023 C 
BRANCH  24  25
ATOM     25  C   UNL A   1      32.587  32.741  27.251  1.00  0.00     0.116 C 
BRANCH  25  26
ATOM     26  N   UNL A   1      32.331  34.131  27.592  1.00  0.00    -0.352 N 
ATOM     27  C   UNL A   1      32.954  34.933  28.517  1.00  0.00     0.251 C 
ATOM     28  H   UNL A   1      31.604  34.561  27.086  1.00  0.00     0.163 HD
ATOM     29  O   UNL A   1      32.522  36.058  28.744  1.00  0.00    -0.269 OA
BRANCH  27  30
ATOM     30  C   UNL A   1      34.127  34.432  29.267  1.00  0.00     0.039 A 
ATOM     31  C   UNL A   1      33.918  33.814  30.503  1.00  0.00     0.014 A 
ATOM     32  C   UNL A   1      35.423  34.565  28.759  1.00  0.00     0.014 A 
ATOM     33  C   UNL A   1      34.999  33.263  31.195  1.00  0.00     0.010 A 
ATOM     34  C   UNL A   1      36.489  33.959  29.418  1.00  0.00     0.010 A 
ATOM     35  C   UNL A   1      36.287  33.298  30.639  1.00  0.00    -0.014 A 
BRANCH  35  36
ATOM     36  C   UNL A   1      37.434  32.638  31.314  1.00  0.00     0.031 A 
ATOM     37  C   UNL A   1      38.140  31.487  30.654  1.00  0.00     0.074 A 
ATOM     38  C   UNL A   1      37.792  33.026  32.553  1.00  0.00     0.049 A 
ATOM     39  N   UNL A   1      39.101  30.729  31.118  1.00  0.00    -0.248 NA
ATOM     40  C   UNL A   1      37.687  31.124  29.303  1.00  0.00     0.031 C 
ATOM     41  C   UNL A   1      37.153  34.098  33.320  1.00  0.00     0.029 A 
ATOM     42  N   UNL A   1      38.770  32.555  33.392  1.00  0.00    -0.354 N 
ATOM     43  C   UNL A   1      39.356  29.792  30.127  1.00  0.00     0.074 A 
ATOM     44  C   UNL A   1      38.417  30.046  29.055  1.00  0.00     0.031 C 
ATOM     45  C   UNL A   1      37.764  34.210  34.510  1.00  0.00     0.029 A 
ATOM     46  C   UNL A   1      38.814  33.200  34.603  1.00  0.00     0.049 A 
ATOM     47  H   UNL A   1      39.382  31.824  33.148  1.00  0.00     0.167 HD
ATOM     48  C   UNL A   1      40.301  28.823  30.102  1.00  0.00     0.037 A 
ATOM     49  C   UNL A   1      39.607  32.995  35.673  1.00  0.00     0.037 A 
ATOM     50  C   UNL A   1      41.251  28.588  31.157  1.00  0.00     0.049 A 
ATOM     51  C   UNL A   1      40.656  31.918  35.617  1.00  0.00     0.074 A 
ATOM     52  C   UNL A   1      42.283  27.666  31.202  1.00  0.00     0.029 A 
ATOM     53  N   UNL A   1      41.287  29.283  32.356  1.00  0.00    -0.354 N 
ATOM     54  N   UNL A   1      40.926  31.077  34.648  1.00  0.00    -0.248 NA
ATOM     55  C   UNL A   1      41.512  31.765  36.801  1.00  0.00     0.031 C 
ATOM     56  C   UNL A   1      42.921  27.780  32.442  1.00  0.00     0.029 A 
ATOM     57  C   UNL A   1      42.312  28.802  33.154  1.00  0.00     0.049 A 
ATOM     58  H   UNL A   1      40.672  30.012  32.605  1.00  0.00     0.167 HD
ATOM     59  C   UNL A   1      41.997  30.315  35.094  1.00  0.00     0.074 A 
ATOM     60  C   UNL A   1      42.336  30.802  36.415  1.00  0.00     0.031 C 
ATOM     61  C   UNL A   1      42.641  29.301  34.464  1.00  0.00     0.037 A 
BRANCH  48  62
ATOM     62  C   UNL A   1      40.358  27.943  28.887  1.00  0.00     0.064 A 
ATOM     63  C   UNL A   1      39.649  26.733  28.827  1.00  0.00     0.173 A 
ATOM     64  C   UNL A   1      41.102  28.326  27.762  1.00  0.00     0.173 A 
ATOM     65  F   UNL A   1      38.934  26.316  29.881  1.00  0.00    -0.203 F 
ATOM     66  C   UNL A   1      39.708  25.925  27.694  1.00  0.00     0.198 A 
ATOM     67  C   UNL A   1      41.135  27.529  26.620  1.00  0.00     0.198 A 
ATOM     68  F   UNL A   1      41.792  29.476  27.767  1.00  0.00    -0.203 F 
ATOM     69  F   UNL A   1      39.062  24.751  27.677  1.00  0.00    -0.200 F 
ATOM     70  C   UNL A   1      40.445  26.326  26.590  1.00  0.00     0.200 A 
ATOM     71  F   UNL A   1      41.838  27.924  25.550  1.00  0.00    -0.200 F 
ATOM     72  F   UNL A   1      40.496  25.550  25.499  1.00  0.00    -0.200 F 
ENDBRANCH  48  62
BRANCH  49  73
ATOM     73  C   UNL A   1      39.454  33.846  36.879  1.00  0.00     0.064 A 
ATOM     74  C   UNL A   1      40.070  35.103  36.955  1.00  0.00     0.173 A 
ATOM     75  C   UNL A   1      38.690  33.426  37.978  1.00  0.00     0.173 A 
ATOM     76  F   UNL A   1      40.828  35.538  35.937  1.00  0.00    -0.203 F 
ATOM     77  C   UNL A   1      39.942  35.900  38.090  1.00  0.00     0.198 A 
ATOM     78  C   UNL A   1      38.541  34.235  39.102  1.00  0.00     0.198 A 
ATOM     79  F   UNL A   1      38.076  32.234  37.952  1.00  0.00    -0.203 F 
ATOM     80  F   UNL A   1      40.574  37.081  38.151  1.00  0.00    -0.200 F 
ATOM     81  C   UNL A   1      39.173  35.469  39.160  1.00  0.00     0.200 A 
ATOM     82  F   UNL A   1      37.787  33.820  40.129  1.00  0.00    -0.200 F 
ATOM     83  F   UNL A   1      39.046  36.238  40.250  1.00  0.00    -0.200 F 
ENDBRANCH  49  73
BRANCH  61  84
ATOM     84  C   UNL A   1      43.797  28.671  35.182  1.00  0.00     0.064 A 
ATOM     85  C   UNL A   1      45.106  29.148  35.026  1.00  0.00     0.173 A 
ATOM     86  C   UNL A   1      43.586  27.603  36.068  1.00  0.00     0.173 A 
ATOM     87  F   UNL A   1      45.360  30.156  34.178  1.00  0.00    -0.203 F 
ATOM     88  C   UNL A   1      46.166  28.564  35.714  1.00  0.00     0.198 A 
ATOM     89  C   UNL A   1      44.644  27.040  36.774  1.00  0.00     0.198 A 
ATOM     90  F   UNL A   1      42.351  27.115  36.256  1.00  0.00    -0.203 F 
ATOM     91  F   UNL A   1      47.416  29.009  35.517  1.00  0.00    -0.200 F 
ATOM     92  C   UNL A   1      45.933  27.517  36.593  1.00  0.00     0.200 A 
ATOM     93  F   UNL A   1      44.416  26.035  37.631  1.00  0.00    -0.200 F 
ATOM     94  F   UNL A   1      46.954  26.961  37.259  1.00  0.00    -0.200 F 
ENDBRANCH  61  84
ENDBRANCH  35  36
ENDBRANCH  27  30
ENDBRANCH  25  26
ENDBRANCH  24  25
ENDBRANCH  23  24
ENDBRANCH   1  23
TORSDOF 15
ENDMDL
