MODEL 1
REMARK VINA RESULT:     -12.6      0.000      0.000
REMARK SMILES COc1c(C(=O)NCCCCNC(=O)c2ccc(-c3c4nc(c(-c5c(F)c(F)c(F)c(F)c5F)c5ccc([nH]5)c(-c5c(F)c(F)c(F)c(F)c5F)c5nc(c(-c6c(F)c(F)c(F)c(F)c6F)c6ccc3[nH]6)C=C5)C=C4)cc2)cccc1-c1cc(C)ccc1C
REMARK SMILES IDX 10 1 9 2 8 3 7 4 5 5 6 6 4 8 3 9 81 10 78 11 80 12 79 13
REMARK SMILES IDX 2 14 1 15 82 16 83 17 88 18 84 19 87 20 89 21 85 22 86 23
REMARK SMILES IDX 11 24 12 25 13 26 14 28 15 29 16 30 77 31 17 32 76 33 18 34
REMARK SMILES IDX 19 35 20 36 70 37 21 38 75 39 69 40 71 41 22 42 74 43 68 44
REMARK SMILES IDX 67 45 23 47 55 48 35 49 54 50 36 51 39 52 53 53 72 54 37 55
REMARK SMILES IDX 38 56 52 58 73 59 40 60 24 61 25 62 33 63 26 64 27 65 31 66
REMARK SMILES IDX 34 67 28 68 29 69 32 70 30 71 56 72 57 73 65 74 58 75 59 76
REMARK SMILES IDX 63 77 66 78 60 79 61 80 64 81 62 82 41 83 42 84 50 85 43 86
REMARK SMILES IDX 44 87 48 88 51 89 45 90 46 91 49 92 47 93
REMARK H PARENT 7 7 12 27 71 46 39 57
REMARK Flexibility Score: inf
ROOT
ATOM      1  C   UNL A   1      31.366  31.775  26.874  1.00  0.00     0.023 C 
ENDROOT
BRANCH   1   2
ATOM      2  C   UNL A   1      31.879  30.339  26.848  1.00  0.00     0.023 C 
BRANCH   2   3
ATOM      3  C   UNL A   1      32.429  29.846  25.521  1.00  0.00     0.116 C 
BRANCH   3   4
ATOM      4  N   UNL A   1      31.498  29.566  24.467  1.00  0.00    -0.352 N 
ATOM      5  C   UNL A   1      30.951  28.339  24.150  1.00  0.00     0.255 C 
ATOM      6  O   UNL A   1      30.032  28.317  23.328  1.00  0.00    -0.269 OA
ATOM      7  H   UNL A   1      31.218  30.329  23.910  1.00  0.00     0.163 HD
BRANCH   5   8
ATOM      8  C   UNL A   1      31.513  27.039  24.641  1.00  0.00     0.082 A 
ATOM      9  C   UNL A   1      32.764  26.463  24.312  1.00  0.00     0.139 A 
ATOM     10  C   UNL A   1      33.124  25.200  24.864  1.00  0.00     0.025 A 
ATOM     11  C   UNL A   1      30.657  26.369  25.539  1.00  0.00     0.018 A 
ATOM     12  C   UNL A   1      32.226  24.566  25.751  1.00  0.00     0.012 A 
ATOM     13  C   UNL A   1      31.010  25.144  26.093  1.00  0.00     0.002 A 
BRANCH   9  14
ATOM     14  O   UNL A   1      33.644  27.210  23.559  1.00  0.00    -0.495 OA
ATOM     15  C   UNL A   1      33.511  27.104  22.135  1.00  0.00     0.278 C 
ENDBRANCH   9  14
BRANCH  10  16
ATOM     16  C   UNL A   1      34.361  24.467  24.518  1.00  0.00    -0.011 A 
ATOM     17  C   UNL A   1      35.443  24.554  25.422  1.00  0.00     0.012 A 
ATOM     18  C   UNL A   1      34.494  23.632  23.388  1.00  0.00    -0.043 A 
ATOM     19  C   UNL A   1      36.603  23.787  25.270  1.00  0.00    -0.050 A 
ATOM     20  C   UNL A   1      35.652  22.844  23.255  1.00  0.00     0.004 A 
ATOM     21  C   UNL A   1      33.393  23.447  22.377  1.00  0.00     0.045 C 
ATOM     22  C   UNL A   1      37.712  23.907  26.273  1.00  0.00     0.044 C 
ATOM     23  C   UNL A   1      36.691  22.916  24.186  1.00  0.00     0.004 A 
ENDBRANCH  10  16
ENDBRANCH   5   8
ENDBRANCH   3   4
ENDBRANCH   2   3
ENDBRANCH   1   2
BRANCH   1  24
ATOM     24  C   UNL A   1      32.375  32.878  26.564  1.00  0.00     0.116 C 
BRANCH  24  25
ATOM     25  N   UNL A   1      32.322  34.023  27.466  1.00  0.00    -0.352 N 
ATOM     26  C   UNL A   1      33.152  34.396  28.503  1.00  0.00     0.251 C 
ATOM     27  H   UNL A   1      31.566  34.633  27.308  1.00  0.00     0.163 HD
ATOM     28  O   UNL A   1      32.886  35.383  29.176  1.00  0.00    -0.269 OA
BRANCH  26  29
ATOM     29  C   UNL A   1      34.334  33.573  28.845  1.00  0.00     0.039 A 
ATOM     30  C   UNL A   1      35.597  34.171  28.831  1.00  0.00     0.014 A 
ATOM     31  C   UNL A   1      34.201  32.235  29.215  1.00  0.00     0.014 A 
ATOM     32  C   UNL A   1      36.703  33.465  29.313  1.00  0.00     0.010 A 
ATOM     33  C   UNL A   1      35.279  31.571  29.791  1.00  0.00     0.010 A 
ATOM     34  C   UNL A   1      36.540  32.183  29.863  1.00  0.00    -0.014 A 
BRANCH  34  35
ATOM     35  C   UNL A   1      37.659  31.473  30.538  1.00  0.00     0.031 A 
ATOM     36  C   UNL A   1      38.024  31.813  31.957  1.00  0.00     0.074 A 
ATOM     37  C   UNL A   1      38.411  30.595  29.843  1.00  0.00     0.049 A 
ATOM     38  N   UNL A   1      39.036  31.396  32.677  1.00  0.00    -0.248 NA
ATOM     39  C   UNL A   1      37.158  32.779  32.651  1.00  0.00     0.031 C 
ATOM     40  C   UNL A   1      38.204  30.222  28.443  1.00  0.00     0.029 A 
ATOM     41  N   UNL A   1      39.513  29.865  30.217  1.00  0.00    -0.354 N 
ATOM     42  C   UNL A   1      38.943  32.068  33.888  1.00  0.00     0.074 A 
ATOM     43  C   UNL A   1      37.806  32.958  33.792  1.00  0.00     0.031 C 
ATOM     44  C   UNL A   1      39.129  29.317  28.084  1.00  0.00     0.029 A 
ATOM     45  C   UNL A   1      40.021  29.075  29.214  1.00  0.00     0.049 A 
ATOM     46  H   UNL A   1      39.903  29.904  31.121  1.00  0.00     0.167 HD
ATOM     47  C   UNL A   1      39.718  31.937  34.990  1.00  0.00     0.037 A 
ATOM     48  C   UNL A   1      41.091  28.257  29.201  1.00  0.00     0.037 A 
ATOM     49  C   UNL A   1      40.818  31.017  35.103  1.00  0.00     0.049 A 
ATOM     50  C   UNL A   1      41.922  28.116  30.449  1.00  0.00     0.074 A 
ATOM     51  C   UNL A   1      41.613  30.753  36.205  1.00  0.00     0.029 A 
ATOM     52  N   UNL A   1      41.275  30.204  34.076  1.00  0.00    -0.354 N 
ATOM     53  N   UNL A   1      41.776  28.701  31.612  1.00  0.00    -0.248 NA
ATOM     54  C   UNL A   1      43.066  27.195  30.381  1.00  0.00     0.031 C 
ATOM     55  C   UNL A   1      42.576  29.810  35.835  1.00  0.00     0.029 A 
ATOM     56  C   UNL A   1      42.352  29.452  34.515  1.00  0.00     0.049 A 
ATOM     57  H   UNL A   1      40.891  30.168  33.171  1.00  0.00     0.167 HD
ATOM     58  C   UNL A   1      42.784  28.197  32.422  1.00  0.00     0.074 A 
ATOM     59  C   UNL A   1      43.529  27.247  31.622  1.00  0.00     0.031 C 
ATOM     60  C   UNL A   1      43.069  28.496  33.712  1.00  0.00     0.037 A 
BRANCH  47  61
ATOM     61  C   UNL A   1      39.395  32.800  36.176  1.00  0.00     0.064 A 
ATOM     62  C   UNL A   1      38.495  32.380  37.167  1.00  0.00     0.173 A 
ATOM     63  C   UNL A   1      40.031  34.039  36.348  1.00  0.00     0.173 A 
ATOM     64  F   UNL A   1      37.853  31.209  37.042  1.00  0.00    -0.203 F 
ATOM     65  C   UNL A   1      38.224  33.180  38.274  1.00  0.00     0.198 A 
ATOM     66  C   UNL A   1      39.779  34.823  37.472  1.00  0.00     0.198 A 
ATOM     67  F   UNL A   1      40.905  34.484  35.433  1.00  0.00    -0.203 F 
ATOM     68  F   UNL A   1      37.327  32.777  39.185  1.00  0.00    -0.200 F 
ATOM     69  C   UNL A   1      38.873  34.395  38.429  1.00  0.00     0.200 A 
ATOM     70  F   UNL A   1      40.417  35.991  37.627  1.00  0.00    -0.200 F 
ATOM     71  F   UNL A   1      38.619  35.159  39.502  1.00  0.00    -0.200 F 
ENDBRANCH  47  61
BRANCH  48  72
ATOM     72  C   UNL A   1      41.429  27.482  27.978  1.00  0.00     0.064 A 
ATOM     73  C   UNL A   1      40.988  26.159  27.823  1.00  0.00     0.173 A 
ATOM     74  C   UNL A   1      42.215  28.030  26.955  1.00  0.00     0.173 A 
ATOM     75  F   UNL A   1      40.251  25.583  28.784  1.00  0.00    -0.203 F 
ATOM     76  C   UNL A   1      41.343  25.408  26.706  1.00  0.00     0.198 A 
ATOM     77  C   UNL A   1      42.547  27.286  25.824  1.00  0.00     0.198 A 
ATOM     78  F   UNL A   1      42.659  29.293  27.053  1.00  0.00    -0.203 F 
ATOM     79  F   UNL A   1      40.953  24.129  26.610  1.00  0.00    -0.200 F 
ATOM     80  C   UNL A   1      42.119  25.973  25.705  1.00  0.00     0.200 A 
ATOM     81  F   UNL A   1      43.286  27.840  24.854  1.00  0.00    -0.200 F 
ATOM     82  F   UNL A   1      42.464  25.249  24.632  1.00  0.00    -0.200 F 
ENDBRANCH  48  72
BRANCH  60  83
ATOM     83  C   UNL A   1      44.205  27.756  34.356  1.00  0.00     0.064 A 
ATOM     84  C   UNL A   1      45.506  28.277  34.375  1.00  0.00     0.173 A 
ATOM     85  C   UNL A   1      43.976  26.532  35.002  1.00  0.00     0.173 A 
ATOM     86  F   UNL A   1      45.779  29.438  33.759  1.00  0.00    -0.203 F 
ATOM     87  C   UNL A   1      46.543  27.586  34.996  1.00  0.00     0.198 A 
ATOM     88  C   UNL A   1      45.009  25.858  35.646  1.00  0.00     0.198 A 
ATOM     89  F   UNL A   1      42.747  25.994  35.017  1.00  0.00    -0.203 F 
ATOM     90  F   UNL A   1      47.789  28.079  34.963  1.00  0.00    -0.200 F 
ATOM     91  C   UNL A   1      46.292  26.382  35.637  1.00  0.00     0.200 A 
ATOM     92  F   UNL A   1      44.762  24.701  36.275  1.00  0.00    -0.200 F 
ATOM     93  F   UNL A   1      47.290  25.723  36.241  1.00  0.00    -0.200 F 
ENDBRANCH  60  83
ENDBRANCH  34  35
ENDBRANCH  26  29
ENDBRANCH  24  25
ENDBRANCH   1  24
TORSDOF 13
ENDMDL
MODEL 2
REMARK VINA RESULT:     -12.4      3.369      4.817
REMARK SMILES COc1c(C(=O)NCCCCNC(=O)c2ccc(-c3c4nc(c(-c5c(F)c(F)c(F)c(F)c5F)c5ccc([nH]5)c(-c5c(F)c(F)c(F)c(F)c5F)c5nc(c(-c6c(F)c(F)c(F)c(F)c6F)c6ccc3[nH]6)C=C5)C=C4)cc2)cccc1-c1cc(C)ccc1C
REMARK SMILES IDX 10 1 9 2 8 3 7 4 5 5 6 6 4 8 3 9 81 10 78 11 80 12 79 13
REMARK SMILES IDX 2 14 1 15 82 16 83 17 88 18 84 19 87 20 89 21 85 22 86 23
REMARK SMILES IDX 11 24 12 25 13 26 14 28 15 29 16 30 77 31 17 32 76 33 18 34
REMARK SMILES IDX 19 35 20 36 70 37 21 38 75 39 69 40 71 41 22 42 74 43 68 44
REMARK SMILES IDX 67 45 23 47 55 48 35 49 54 50 36 51 39 52 53 53 72 54 37 55
REMARK SMILES IDX 38 56 52 58 73 59 40 60 24 61 25 62 33 63 26 64 27 65 31 66
REMARK SMILES IDX 34 67 28 68 29 69 32 70 30 71 56 72 57 73 65 74 58 75 59 76
REMARK SMILES IDX 63 77 66 78 60 79 61 80 64 81 62 82 41 83 42 84 50 85 43 86
REMARK SMILES IDX 44 87 48 88 51 89 45 90 46 91 49 92 47 93
REMARK H PARENT 7 7 12 27 71 46 39 57
REMARK Flexibility Score: inf
ROOT
ATOM      1  C   UNL A   1      33.864  28.696  25.980  1.00  0.00     0.023 C 
ENDROOT
BRANCH   1   2
ATOM      2  C   UNL A   1      33.183  29.669  25.025  1.00  0.00     0.023 C 
BRANCH   2   3
ATOM      3  C   UNL A   1      31.664  29.650  25.016  1.00  0.00     0.116 C 
BRANCH   3   4
ATOM      4  N   UNL A   1      31.001  29.247  23.809  1.00  0.00    -0.352 N 
ATOM      5  C   UNL A   1      30.673  27.960  23.435  1.00  0.00     0.255 C 
ATOM      6  O   UNL A   1      29.946  27.818  22.449  1.00  0.00    -0.269 OA
ATOM      7  H   UNL A   1      30.753  29.964  23.182  1.00  0.00     0.163 HD
BRANCH   5   8
ATOM      8  C   UNL A   1      31.270  26.742  24.075  1.00  0.00     0.082 A 
ATOM      9  C   UNL A   1      32.555  26.191  23.845  1.00  0.00     0.139 A 
ATOM     10  C   UNL A   1      32.947  25.008  24.534  1.00  0.00     0.025 A 
ATOM     11  C   UNL A   1      30.413  26.130  25.011  1.00  0.00     0.018 A 
ATOM     12  C   UNL A   1      32.046  24.428  25.454  1.00  0.00     0.012 A 
ATOM     13  C   UNL A   1      30.796  24.984  25.698  1.00  0.00     0.002 A 
BRANCH   9  14
ATOM     14  O   UNL A   1      33.429  26.897  23.045  1.00  0.00    -0.495 OA
ATOM     15  C   UNL A   1      33.359  26.631  21.637  1.00  0.00     0.278 C 
ENDBRANCH   9  14
BRANCH  10  16
ATOM     16  C   UNL A   1      34.224  24.299  24.302  1.00  0.00    -0.011 A 
ATOM     17  C   UNL A   1      35.256  24.493  25.248  1.00  0.00     0.012 A 
ATOM     18  C   UNL A   1      34.442  23.390  23.245  1.00  0.00    -0.043 A 
ATOM     19  C   UNL A   1      36.447  23.761  25.209  1.00  0.00    -0.050 A 
ATOM     20  C   UNL A   1      35.632  22.639  23.226  1.00  0.00     0.004 A 
ATOM     21  C   UNL A   1      33.400  23.090  22.199  1.00  0.00     0.045 C 
ATOM     22  C   UNL A   1      37.499  23.995  26.252  1.00  0.00     0.044 C 
ATOM     23  C   UNL A   1      36.619  22.817  24.198  1.00  0.00     0.004 A 
ENDBRANCH  10  16
ENDBRANCH   5   8
ENDBRANCH   3   4
ENDBRANCH   2   3
ENDBRANCH   1   2
BRANCH   1  24
ATOM     24  C   UNL A   1      33.574  28.866  27.469  1.00  0.00     0.116 C 
BRANCH  24  25
ATOM     25  N   UNL A   1      33.722  30.229  27.967  1.00  0.00    -0.352 N 
ATOM     26  C   UNL A   1      34.811  30.881  28.506  1.00  0.00     0.251 C 
ATOM     27  H   UNL A   1      32.905  30.776  27.908  1.00  0.00     0.163 HD
ATOM     28  O   UNL A   1      34.697  32.028  28.917  1.00  0.00    -0.269 OA
BRANCH  26  29
ATOM     29  C   UNL A   1      36.106  30.178  28.646  1.00  0.00     0.039 A 
ATOM     30  C   UNL A   1      37.033  30.261  27.602  1.00  0.00     0.014 A 
ATOM     31  C   UNL A   1      36.427  29.475  29.806  1.00  0.00     0.014 A 
ATOM     32  C   UNL A   1      38.323  29.753  27.779  1.00  0.00     0.010 A 
ATOM     33  C   UNL A   1      37.739  29.065  30.022  1.00  0.00     0.010 A 
ATOM     34  C   UNL A   1      38.707  29.213  29.018  1.00  0.00    -0.014 A 
BRANCH  34  35
ATOM     35  C   UNL A   1      40.115  28.820  29.296  1.00  0.00     0.031 A 
ATOM     36  C   UNL A   1      41.031  29.759  30.032  1.00  0.00     0.074 A 
ATOM     37  C   UNL A   1      40.597  27.662  28.800  1.00  0.00     0.049 A 
ATOM     38  N   UNL A   1      42.315  29.652  30.266  1.00  0.00    -0.248 NA
ATOM     39  C   UNL A   1      40.433  31.002  30.544  1.00  0.00     0.031 C 
ATOM     40  C   UNL A   1      39.833  26.691  28.015  1.00  0.00     0.029 A 
ATOM     41  N   UNL A   1      41.854  27.111  28.869  1.00  0.00    -0.354 N 
ATOM     42  C   UNL A   1      42.679  30.821  30.921  1.00  0.00     0.074 A 
ATOM     43  C   UNL A   1      41.494  31.646  31.005  1.00  0.00     0.031 C 
ATOM     44  C   UNL A   1      40.626  25.655  27.700  1.00  0.00     0.029 A 
ATOM     45  C   UNL A   1      41.966  25.905  28.221  1.00  0.00     0.049 A 
ATOM     46  H   UNL A   1      42.604  27.541  29.341  1.00  0.00     0.167 HD
ATOM     47  C   UNL A   1      43.886  31.165  31.430  1.00  0.00     0.037 A 
ATOM     48  C   UNL A   1      43.031  25.096  28.056  1.00  0.00     0.037 A 
ATOM     49  C   UNL A   1      45.052  30.324  31.390  1.00  0.00     0.049 A 
ATOM     50  C   UNL A   1      44.355  25.495  28.651  1.00  0.00     0.074 A 
ATOM     51  C   UNL A   1      46.298  30.549  31.948  1.00  0.00     0.029 A 
ATOM     52  N   UNL A   1      45.114  29.090  30.759  1.00  0.00    -0.354 N 
ATOM     53  N   UNL A   1      44.666  26.569  29.335  1.00  0.00    -0.248 NA
ATOM     54  C   UNL A   1      45.476  24.565  28.454  1.00  0.00     0.031 C 
ATOM     55  C   UNL A   1      47.126  29.471  31.622  1.00  0.00     0.029 A 
ATOM     56  C   UNL A   1      46.382  28.552  30.899  1.00  0.00     0.049 A 
ATOM     57  H   UNL A   1      44.367  28.662  30.282  1.00  0.00     0.167 HD
ATOM     58  C   UNL A   1      46.004  26.429  29.677  1.00  0.00     0.074 A 
ATOM     59  C   UNL A   1      46.444  25.160  29.137  1.00  0.00     0.031 C 
ATOM     60  C   UNL A   1      46.798  27.278  30.374  1.00  0.00     0.037 A 
BRANCH  47  61
ATOM     61  C   UNL A   1      44.006  32.507  32.093  1.00  0.00     0.064 A 
ATOM     62  C   UNL A   1      44.374  33.652  31.371  1.00  0.00     0.173 A 
ATOM     63  C   UNL A   1      43.703  32.658  33.454  1.00  0.00     0.173 A 
ATOM     64  F   UNL A   1      44.684  33.558  30.069  1.00  0.00    -0.203 F 
ATOM     65  C   UNL A   1      44.458  34.895  31.992  1.00  0.00     0.198 A 
ATOM     66  C   UNL A   1      43.760  33.908  34.066  1.00  0.00     0.198 A 
ATOM     67  F   UNL A   1      43.341  31.596  34.189  1.00  0.00    -0.203 F 
ATOM     68  F   UNL A   1      44.853  35.967  31.292  1.00  0.00    -0.200 F 
ATOM     69  C   UNL A   1      44.142  35.023  33.336  1.00  0.00     0.200 A 
ATOM     70  F   UNL A   1      43.442  34.032  35.362  1.00  0.00    -0.200 F 
ATOM     71  F   UNL A   1      44.213  36.222  33.931  1.00  0.00    -0.200 F 
ENDBRANCH  47  61
BRANCH  48  72
ATOM     72  C   UNL A   1      42.891  23.812  27.318  1.00  0.00     0.064 A 
ATOM     73  C   UNL A   1      42.405  22.666  27.962  1.00  0.00     0.173 A 
ATOM     74  C   UNL A   1      43.261  23.696  25.972  1.00  0.00     0.173 A 
ATOM     75  F   UNL A   1      42.058  22.721  29.257  1.00  0.00    -0.203 F 
ATOM     76  C   UNL A   1      42.320  21.446  27.295  1.00  0.00     0.198 A 
ATOM     77  C   UNL A   1      43.150  22.481  25.297  1.00  0.00     0.198 A 
ATOM     78  F   UNL A   1      43.729  24.764  25.308  1.00  0.00    -0.203 F 
ATOM     79  F   UNL A   1      41.903  20.354  27.951  1.00  0.00    -0.200 F 
ATOM     80  C   UNL A   1      42.689  21.355  25.962  1.00  0.00     0.200 A 
ATOM     81  F   UNL A   1      43.495  22.401  24.005  1.00  0.00    -0.200 F 
ATOM     82  F   UNL A   1      42.611  20.181  25.321  1.00  0.00    -0.200 F 
ENDBRANCH  48  72
BRANCH  60  83
ATOM     83  C   UNL A   1      48.210  26.842  30.634  1.00  0.00     0.064 A 
ATOM     84  C   UNL A   1      48.534  25.998  31.706  1.00  0.00     0.173 A 
ATOM     85  C   UNL A   1      49.244  27.239  29.773  1.00  0.00     0.173 A 
ATOM     86  F   UNL A   1      47.583  25.603  32.566  1.00  0.00    -0.203 F 
ATOM     87  C   UNL A   1      49.847  25.588  31.920  1.00  0.00     0.198 A 
ATOM     88  C   UNL A   1      50.549  26.803  29.972  1.00  0.00     0.198 A 
ATOM     89  F   UNL A   1      48.984  28.041  28.729  1.00  0.00    -0.203 F 
ATOM     90  F   UNL A   1      50.143  24.818  32.977  1.00  0.00    -0.200 F 
ATOM     91  C   UNL A   1      50.851  25.983  31.049  1.00  0.00     0.200 A 
ATOM     92  F   UNL A   1      51.516  27.176  29.123  1.00  0.00    -0.200 F 
ATOM     93  F   UNL A   1      52.113  25.579  31.252  1.00  0.00    -0.200 F 
ENDBRANCH  60  83
ENDBRANCH  34  35
ENDBRANCH  26  29
ENDBRANCH  24  25
ENDBRANCH   1  24
TORSDOF 13
ENDMDL
MODEL 3
REMARK VINA RESULT:     -12.4      1.204      7.418
REMARK SMILES COc1c(C(=O)NCCCCNC(=O)c2ccc(-c3c4nc(c(-c5c(F)c(F)c(F)c(F)c5F)c5ccc([nH]5)c(-c5c(F)c(F)c(F)c(F)c5F)c5nc(c(-c6c(F)c(F)c(F)c(F)c6F)c6ccc3[nH]6)C=C5)C=C4)cc2)cccc1-c1cc(C)ccc1C
REMARK SMILES IDX 10 1 9 2 8 3 7 4 5 5 6 6 4 8 3 9 81 10 78 11 80 12 79 13
REMARK SMILES IDX 2 14 1 15 82 16 83 17 88 18 84 19 87 20 89 21 85 22 86 23
REMARK SMILES IDX 11 24 12 25 13 26 14 28 15 29 16 30 77 31 17 32 76 33 18 34
REMARK SMILES IDX 19 35 20 36 70 37 21 38 75 39 69 40 71 41 22 42 74 43 68 44
REMARK SMILES IDX 67 45 23 47 55 48 35 49 54 50 36 51 39 52 53 53 72 54 37 55
REMARK SMILES IDX 38 56 52 58 73 59 40 60 24 61 25 62 33 63 26 64 27 65 31 66
REMARK SMILES IDX 34 67 28 68 29 69 32 70 30 71 56 72 57 73 65 74 58 75 59 76
REMARK SMILES IDX 63 77 66 78 60 79 61 80 64 81 62 82 41 83 42 84 50 85 43 86
REMARK SMILES IDX 44 87 48 88 51 89 45 90 46 91 49 92 47 93
REMARK H PARENT 7 7 12 27 71 46 39 57
REMARK Flexibility Score: inf
ROOT
ATOM      1  C   UNL A   1      31.780  31.725  26.937  1.00  0.00     0.023 C 
ENDROOT
BRANCH   1   2
ATOM      2  C   UNL A   1      32.125  30.250  26.761  1.00  0.00     0.023 C 
BRANCH   2   3
ATOM      3  C   UNL A   1      32.554  29.822  25.368  1.00  0.00     0.116 C 
BRANCH   3   4
ATOM      4  N   UNL A   1      31.531  29.570  24.394  1.00  0.00    -0.352 N 
ATOM      5  C   UNL A   1      30.909  28.364  24.141  1.00  0.00     0.255 C 
ATOM      6  O   UNL A   1      29.928  28.372  23.394  1.00  0.00    -0.269 OA
ATOM      7  H   UNL A   1      31.241  30.337  23.850  1.00  0.00     0.163 HD
BRANCH   5   8
ATOM      8  C   UNL A   1      31.452  27.047  24.607  1.00  0.00     0.082 A 
ATOM      9  C   UNL A   1      32.669  26.433  24.222  1.00  0.00     0.139 A 
ATOM     10  C   UNL A   1      33.015  25.159  24.758  1.00  0.00     0.025 A 
ATOM     11  C   UNL A   1      30.618  26.402  25.543  1.00  0.00     0.018 A 
ATOM     12  C   UNL A   1      32.139  24.552  25.685  1.00  0.00     0.012 A 
ATOM     13  C   UNL A   1      30.957  25.167  26.081  1.00  0.00     0.002 A 
BRANCH   9  14
ATOM     14  O   UNL A   1      33.536  27.154  23.430  1.00  0.00    -0.495 OA
ATOM     15  C   UNL A   1      33.375  27.005  22.012  1.00  0.00     0.278 C 
ENDBRANCH   9  14
BRANCH  10  16
ATOM     16  C   UNL A   1      34.211  24.388  24.357  1.00  0.00    -0.011 A 
ATOM     17  C   UNL A   1      35.338  24.446  25.209  1.00  0.00     0.012 A 
ATOM     18  C   UNL A   1      34.266  23.547  23.225  1.00  0.00    -0.043 A 
ATOM     19  C   UNL A   1      36.466  23.645  25.005  1.00  0.00    -0.050 A 
ATOM     20  C   UNL A   1      35.393  22.725  23.041  1.00  0.00     0.004 A 
ATOM     21  C   UNL A   1      33.113  23.392  22.268  1.00  0.00     0.045 C 
ATOM     22  C   UNL A   1      37.623  23.734  25.954  1.00  0.00     0.044 C 
ATOM     23  C   UNL A   1      36.476  22.768  23.922  1.00  0.00     0.004 A 
ENDBRANCH  10  16
ENDBRANCH   5   8
ENDBRANCH   3   4
ENDBRANCH   2   3
ENDBRANCH   1   2
BRANCH   1  24
ATOM     24  C   UNL A   1      32.907  32.653  27.385  1.00  0.00     0.116 C 
BRANCH  24  25
ATOM     25  N   UNL A   1      32.484  34.009  27.713  1.00  0.00    -0.352 N 
ATOM     26  C   UNL A   1      32.999  34.924  28.608  1.00  0.00     0.251 C 
ATOM     27  H   UNL A   1      31.698  34.325  27.213  1.00  0.00     0.163 HD
ATOM     28  O   UNL A   1      32.446  36.004  28.767  1.00  0.00    -0.269 OA
BRANCH  26  29
ATOM     29  C   UNL A   1      34.187  34.583  29.423  1.00  0.00     0.039 A 
ATOM     30  C   UNL A   1      33.997  34.084  30.714  1.00  0.00     0.014 A 
ATOM     31  C   UNL A   1      35.477  34.713  28.910  1.00  0.00     0.014 A 
ATOM     32  C   UNL A   1      35.090  33.596  31.436  1.00  0.00     0.010 A 
ATOM     33  C   UNL A   1      36.547  34.132  29.583  1.00  0.00     0.010 A 
ATOM     34  C   UNL A   1      36.364  33.551  30.848  1.00  0.00    -0.014 A 
BRANCH  34  35
ATOM     35  C   UNL A   1      37.512  32.884  31.518  1.00  0.00     0.031 A 
ATOM     36  C   UNL A   1      38.199  31.718  30.862  1.00  0.00     0.074 A 
ATOM     37  C   UNL A   1      37.874  33.263  32.762  1.00  0.00     0.049 A 
ATOM     38  N   UNL A   1      39.134  30.932  31.335  1.00  0.00    -0.248 NA
ATOM     39  C   UNL A   1      37.751  31.364  29.506  1.00  0.00     0.031 C 
ATOM     40  C   UNL A   1      37.250  34.337  33.537  1.00  0.00     0.029 A 
ATOM     41  N   UNL A   1      38.846  32.776  33.601  1.00  0.00    -0.354 N 
ATOM     42  C   UNL A   1      39.361  29.979  30.350  1.00  0.00     0.074 A 
ATOM     43  C   UNL A   1      38.434  30.253  29.274  1.00  0.00     0.031 C 
ATOM     44  C   UNL A   1      37.870  34.445  34.722  1.00  0.00     0.029 A 
ATOM     45  C   UNL A   1      38.907  33.422  34.812  1.00  0.00     0.049 A 
ATOM     46  H   UNL A   1      39.445  32.033  33.356  1.00  0.00     0.167 HD
ATOM     47  C   UNL A   1      40.277  28.982  30.333  1.00  0.00     0.037 A 
ATOM     48  C   UNL A   1      39.701  33.207  35.879  1.00  0.00     0.037 A 
ATOM     49  C   UNL A   1      41.232  28.740  31.381  1.00  0.00     0.049 A 
ATOM     50  C   UNL A   1      40.724  32.105  35.822  1.00  0.00     0.074 A 
ATOM     51  C   UNL A   1      42.252  27.806  31.421  1.00  0.00     0.029 A 
ATOM     52  N   UNL A   1      41.288  29.444  32.576  1.00  0.00    -0.354 N 
ATOM     53  N   UNL A   1      40.979  31.260  34.854  1.00  0.00    -0.248 NA
ATOM     54  C   UNL A   1      41.574  31.929  37.009  1.00  0.00     0.031 C 
ATOM     55  C   UNL A   1      42.901  27.917  32.655  1.00  0.00     0.029 A 
ATOM     56  C   UNL A   1      42.313  28.952  33.365  1.00  0.00     0.049 A 
ATOM     57  H   UNL A   1      40.686  30.182  32.825  1.00  0.00     0.167 HD
ATOM     58  C   UNL A   1      42.036  30.478  35.298  1.00  0.00     0.074 A 
ATOM     59  C   UNL A   1      42.385  30.957  36.620  1.00  0.00     0.031 C 
ATOM     60  C   UNL A   1      42.660  29.453  34.670  1.00  0.00     0.037 A 
BRANCH  47  61
ATOM     61  C   UNL A   1      40.305  28.082  29.132  1.00  0.00     0.064 A 
ATOM     62  C   UNL A   1      41.032  28.417  27.979  1.00  0.00     0.173 A 
ATOM     63  C   UNL A   1      39.638  26.848  29.153  1.00  0.00     0.173 A 
ATOM     64  F   UNL A   1      41.677  29.590  27.906  1.00  0.00    -0.203 F 
ATOM     65  C   UNL A   1      41.069  27.561  26.882  1.00  0.00     0.198 A 
ATOM     66  C   UNL A   1      39.702  25.981  28.064  1.00  0.00     0.198 A 
ATOM     67  F   UNL A   1      38.934  26.476  30.233  1.00  0.00    -0.203 F 
ATOM     68  F   UNL A   1      41.734  27.922  25.776  1.00  0.00    -0.200 F 
ATOM     69  C   UNL A   1      40.413  26.341  26.929  1.00  0.00     0.200 A 
ATOM     70  F   UNL A   1      39.078  24.796  28.116  1.00  0.00    -0.200 F 
ATOM     71  F   UNL A   1      40.459  25.512  25.876  1.00  0.00    -0.200 F 
ENDBRANCH  47  61
BRANCH  48  72
ATOM     72  C   UNL A   1      39.585  34.068  37.086  1.00  0.00     0.064 A 
ATOM     73  C   UNL A   1      38.817  33.659  38.187  1.00  0.00     0.173 A 
ATOM     74  C   UNL A   1      40.210  35.320  37.158  1.00  0.00     0.173 A 
ATOM     75  F   UNL A   1      38.181  32.479  38.157  1.00  0.00    -0.203 F 
ATOM     76  C   UNL A   1      38.659  34.481  39.300  1.00  0.00     0.198 A 
ATOM     77  C   UNL A   1      40.074  36.130  38.284  1.00  0.00     0.198 A 
ATOM     78  F   UNL A   1      40.959  35.756  36.134  1.00  0.00    -0.203 F 
ATOM     79  F   UNL A   1      37.875  34.088  40.314  1.00  0.00    -0.200 F 
ATOM     80  C   UNL A   1      39.291  35.714  39.350  1.00  0.00     0.200 A 
ATOM     81  F   UNL A   1      40.697  37.315  38.333  1.00  0.00    -0.200 F 
ATOM     82  F   UNL A   1      39.135  36.506  40.419  1.00  0.00    -0.200 F 
ENDBRANCH  48  72
BRANCH  60  83
ATOM     83  C   UNL A   1      43.815  28.809  35.380  1.00  0.00     0.064 A 
ATOM     84  C   UNL A   1      45.134  29.239  35.180  1.00  0.00     0.173 A 
ATOM     85  C   UNL A   1      43.591  27.780  36.307  1.00  0.00     0.173 A 
ATOM     86  F   UNL A   1      45.401  30.211  34.294  1.00  0.00    -0.203 F 
ATOM     87  C   UNL A   1      46.190  28.644  35.864  1.00  0.00     0.198 A 
ATOM     88  C   UNL A   1      44.646  27.207  37.010  1.00  0.00     0.198 A 
ATOM     89  F   UNL A   1      42.346  27.337  36.538  1.00  0.00    -0.203 F 
ATOM     90  F   UNL A   1      47.449  29.039  35.625  1.00  0.00    -0.200 F 
ATOM     91  C   UNL A   1      45.945  27.635  36.783  1.00  0.00     0.200 A 
ATOM     92  F   UNL A   1      44.406  26.241  37.907  1.00  0.00    -0.200 F 
ATOM     93  F   UNL A   1      46.963  27.070  37.447  1.00  0.00    -0.200 F 
ENDBRANCH  60  83
ENDBRANCH  34  35
ENDBRANCH  26  29
ENDBRANCH  24  25
ENDBRANCH   1  24
TORSDOF 13
ENDMDL
