MODEL 1
REMARK VINA RESULT:     -12.7      0.000      0.000
REMARK SMILES CO[C@@H]1C[C@H](C(=O)NCCCCNC(=O)c2ccc(-c3c4nc(c(-c5c(F)c(F)c(F)c(F)c5F)c5ccc([nH]5)c(-c5c(F)c(F)c(F)c(F)c5F)c5nc(c(-c6c(F)c(F)c(F)c(F)c6F)c6ccc3[nH]6)C=C5)C=C4)cc2)N(C(=O)c2ncc(Cl)c(Cl)c2Cl)C1
REMARK SMILES IDX 10 1 9 2 8 3 6 4 7 5 5 7 3 8 4 9 91 10 79 11 2 12 1 13 80 14
REMARK SMILES IDX 81 15 82 16 83 17 89 18 84 19 87 20 90 21 85 22 88 23 86 24
REMARK SMILES IDX 11 25 12 26 13 27 14 28 15 30 16 31 17 32 78 33 18 34 77 35
REMARK SMILES IDX 19 36 20 37 21 38 71 39 22 40 76 41 70 42 72 43 23 44 75 45
REMARK SMILES IDX 69 46 68 47 24 49 56 50 36 51 55 52 37 53 40 54 54 55 73 56
REMARK SMILES IDX 38 57 39 58 53 60 74 61 41 62 25 63 26 64 34 65 27 66 28 67
REMARK SMILES IDX 32 68 35 69 29 70 30 71 33 72 31 73 57 74 58 75 66 76 59 77
REMARK SMILES IDX 60 78 64 79 67 80 61 81 62 82 65 83 63 84 42 85 43 86 51 87
REMARK SMILES IDX 44 88 45 89 49 90 52 91 46 92 47 93 50 94 48 95
REMARK H PARENT 8 6 13 29 72 48 40 59
REMARK Flexibility Score: inf
ROOT
ATOM      1  C   UNL A   1      32.403  29.729  27.177  1.00  0.00     0.023 C 
ENDROOT
BRANCH   1   2
ATOM      2  C   UNL A   1      33.639  29.007  26.638  1.00  0.00     0.116 C 
BRANCH   2   3
ATOM      3  N   UNL A   1      33.898  29.329  25.252  1.00  0.00    -0.354 N 
ATOM      4  C   UNL A   1      33.316  28.876  24.111  1.00  0.00     0.242 C 
ATOM      5  O   UNL A   1      33.707  29.379  23.049  1.00  0.00    -0.273 OA
ATOM      6  H   UNL A   1      34.617  29.988  25.111  1.00  0.00     0.163 HD
BRANCH   4   7
ATOM      7  C   UNL A   1      32.213  27.790  24.061  1.00  0.00     0.177 C 
ATOM      8  C   UNL A   1      30.140  27.787  22.731  1.00  0.00     0.139 C 
ATOM      9  C   UNL A   1      30.775  28.301  24.030  1.00  0.00     0.069 C 
ATOM     10  C   UNL A   1      31.175  26.862  22.088  1.00  0.00     0.152 C 
ATOM     11  N   UNL A   1      32.319  26.821  22.976  1.00  0.00    -0.323 N 
BRANCH   8  12
ATOM     12  O   UNL A   1      29.804  28.914  21.924  1.00  0.00    -0.380 OA
ATOM     13  C   UNL A   1      29.510  30.091  22.666  1.00  0.00     0.195 C 
ENDBRANCH   8  12
BRANCH  11  14
ATOM     14  C   UNL A   1      33.227  25.778  22.850  1.00  0.00     0.274 C 
ATOM     15  O   UNL A   1      33.849  25.563  21.811  1.00  0.00    -0.267 OA
BRANCH  14  16
ATOM     16  C   UNL A   1      33.414  24.832  23.982  1.00  0.00     0.148 A 
ATOM     17  N   UNL A   1      34.544  25.031  24.714  1.00  0.00    -0.248 NA
ATOM     18  C   UNL A   1      32.530  23.771  24.173  1.00  0.00     0.092 A 
ATOM     19  C   UNL A   1      34.790  24.136  25.697  1.00  0.00     0.134 A 
ATOM     20  C   UNL A   1      32.809  22.883  25.222  1.00  0.00     0.082 A 
ATOM     21  Cl  UNL A   1      31.157  23.544  23.136  1.00  0.00    -0.080 Cl
ATOM     22  C   UNL A   1      33.963  23.062  25.993  1.00  0.00     0.079 A 
ATOM     23  Cl  UNL A   1      31.734  21.560  25.563  1.00  0.00    -0.081 Cl
ATOM     24  Cl  UNL A   1      34.421  22.004  27.277  1.00  0.00    -0.081 Cl
ENDBRANCH  14  16
ENDBRANCH  11  14
ENDBRANCH   4   7
ENDBRANCH   2   3
ENDBRANCH   1   2
BRANCH   1  25
ATOM     25  C   UNL A   1      32.257  31.184  26.744  1.00  0.00     0.023 C 
BRANCH  25  26
ATOM     26  C   UNL A   1      33.148  32.178  27.485  1.00  0.00     0.116 C 
BRANCH  26  27
ATOM     27  N   UNL A   1      32.593  33.519  27.618  1.00  0.00    -0.352 N 
ATOM     28  C   UNL A   1      33.042  34.550  28.415  1.00  0.00     0.251 C 
ATOM     29  H   UNL A   1      31.798  33.713  27.070  1.00  0.00     0.163 HD
ATOM     30  O   UNL A   1      32.453  35.621  28.458  1.00  0.00    -0.269 OA
BRANCH  28  31
ATOM     31  C   UNL A   1      34.222  34.310  29.273  1.00  0.00     0.039 A 
ATOM     32  C   UNL A   1      34.032  33.744  30.536  1.00  0.00     0.014 A 
ATOM     33  C   UNL A   1      35.508  34.529  28.777  1.00  0.00     0.014 A 
ATOM     34  C   UNL A   1      35.138  33.288  31.254  1.00  0.00     0.010 A 
ATOM     35  C   UNL A   1      36.599  34.001  29.455  1.00  0.00     0.010 A 
ATOM     36  C   UNL A   1      36.422  33.356  30.690  1.00  0.00    -0.014 A 
BRANCH  36  37
ATOM     37  C   UNL A   1      37.595  32.722  31.343  1.00  0.00     0.031 A 
ATOM     38  C   UNL A   1      38.296  31.574  30.677  1.00  0.00     0.074 A 
ATOM     39  C   UNL A   1      37.957  33.106  32.584  1.00  0.00     0.049 A 
ATOM     40  N   UNL A   1      39.239  30.795  31.143  1.00  0.00    -0.248 NA
ATOM     41  C   UNL A   1      37.847  31.228  29.319  1.00  0.00     0.031 C 
ATOM     42  C   UNL A   1      37.314  34.164  33.366  1.00  0.00     0.029 A 
ATOM     43  N   UNL A   1      38.943  32.635  33.414  1.00  0.00    -0.354 N 
ATOM     44  C   UNL A   1      39.470  29.851  30.152  1.00  0.00     0.074 A 
ATOM     45  C   UNL A   1      38.541  30.126  29.078  1.00  0.00     0.031 C 
ATOM     46  C   UNL A   1      37.936  34.276  34.551  1.00  0.00     0.029 A 
ATOM     47  C   UNL A   1      38.995  33.275  34.628  1.00  0.00     0.049 A 
ATOM     48  H   UNL A   1      39.556  31.906  33.163  1.00  0.00     0.167 HD
ATOM     49  C   UNL A   1      40.388  28.855  30.134  1.00  0.00     0.037 A 
ATOM     50  C   UNL A   1      39.802  33.073  35.686  1.00  0.00     0.037 A 
ATOM     51  C   UNL A   1      41.344  28.616  31.180  1.00  0.00     0.049 A 
ATOM     52  C   UNL A   1      40.846  31.992  35.620  1.00  0.00     0.074 A 
ATOM     53  C   UNL A   1      42.366  27.683  31.219  1.00  0.00     0.029 A 
ATOM     54  N   UNL A   1      41.404  29.325  32.370  1.00  0.00    -0.354 N 
ATOM     55  N   UNL A   1      41.095  31.144  34.653  1.00  0.00    -0.248 NA
ATOM     56  C   UNL A   1      41.723  31.844  36.790  1.00  0.00     0.031 C 
ATOM     57  C   UNL A   1      43.029  27.812  32.444  1.00  0.00     0.029 A 
ATOM     58  C   UNL A   1      42.441  28.846  33.154  1.00  0.00     0.049 A 
ATOM     59  H   UNL A   1      40.799  30.060  32.620  1.00  0.00     0.167 HD
ATOM     60  C   UNL A   1      42.168  30.378  35.085  1.00  0.00     0.074 A 
ATOM     61  C   UNL A   1      42.532  30.870  36.398  1.00  0.00     0.031 C 
ATOM     62  C   UNL A   1      42.795  29.358  34.451  1.00  0.00     0.037 A 
BRANCH  49  63
ATOM     63  C   UNL A   1      40.405  27.958  28.934  1.00  0.00     0.064 A 
ATOM     64  C   UNL A   1      41.164  28.270  27.796  1.00  0.00     0.173 A 
ATOM     65  C   UNL A   1      39.672  26.762  28.928  1.00  0.00     0.173 A 
ATOM     66  F   UNL A   1      41.869  29.410  27.747  1.00  0.00    -0.203 F 
ATOM     67  C   UNL A   1      41.164  27.432  26.684  1.00  0.00     0.198 A 
ATOM     68  C   UNL A   1      39.697  25.913  27.825  1.00  0.00     0.198 A 
ATOM     69  F   UNL A   1      38.933  26.416  29.993  1.00  0.00    -0.203 F 
ATOM     70  F   UNL A   1      41.857  27.776  25.589  1.00  0.00    -0.200 F 
ATOM     71  C   UNL A   1      40.436  26.252  26.702  1.00  0.00     0.200 A 
ATOM     72  F   UNL A   1      39.001  24.768  27.846  1.00  0.00    -0.200 F 
ATOM     73  F   UNL A   1      40.441  25.445  25.631  1.00  0.00    -0.200 F 
ENDBRANCH  49  63
BRANCH  50  74
ATOM     74  C   UNL A   1      39.681  33.936  36.888  1.00  0.00     0.064 A 
ATOM     75  C   UNL A   1      38.883  33.543  37.972  1.00  0.00     0.173 A 
ATOM     76  C   UNL A   1      40.353  35.163  36.981  1.00  0.00     0.173 A 
ATOM     77  F   UNL A   1      38.205  32.387  37.918  1.00  0.00    -0.203 F 
ATOM     78  C   UNL A   1      38.748  34.353  39.097  1.00  0.00     0.198 A 
ATOM     79  C   UNL A   1      40.234  35.962  38.116  1.00  0.00     0.198 A 
ATOM     80  F   UNL A   1      41.132  35.579  35.972  1.00  0.00    -0.203 F 
ATOM     81  F   UNL A   1      37.947  33.971  40.102  1.00  0.00    -0.200 F 
ATOM     82  C   UNL A   1      39.426  35.559  39.170  1.00  0.00     0.200 A 
ATOM     83  F   UNL A   1      40.900  37.123  38.189  1.00  0.00    -0.200 F 
ATOM     84  F   UNL A   1      39.297  36.338  40.253  1.00  0.00    -0.200 F 
ENDBRANCH  50  74
BRANCH  62  85
ATOM     85  C   UNL A   1      43.961  28.728  35.152  1.00  0.00     0.064 A 
ATOM     86  C   UNL A   1      45.268  29.201  34.970  1.00  0.00     0.173 A 
ATOM     87  C   UNL A   1      43.760  27.670  36.050  1.00  0.00     0.173 A 
ATOM     88  F   UNL A   1      45.510  30.200  34.108  1.00  0.00    -0.203 F 
ATOM     89  C   UNL A   1      46.335  28.626  35.652  1.00  0.00     0.198 A 
ATOM     90  C   UNL A   1      44.826  27.113  36.749  1.00  0.00     0.198 A 
ATOM     91  F   UNL A   1      42.526  27.186  36.259  1.00  0.00    -0.203 F 
ATOM     92  F   UNL A   1      47.582  29.070  35.439  1.00  0.00    -0.200 F 
ATOM     93  C   UNL A   1      46.114  27.588  36.546  1.00  0.00     0.200 A 
ATOM     94  F   UNL A   1      44.610  26.116  37.618  1.00  0.00    -0.200 F 
ATOM     95  F   UNL A   1      47.143  27.041  37.208  1.00  0.00    -0.200 F 
ENDBRANCH  62  85
ENDBRANCH  36  37
ENDBRANCH  28  31
ENDBRANCH  26  27
ENDBRANCH  25  26
ENDBRANCH   1  25
TORSDOF 14
ENDMDL
MODEL 2
REMARK VINA RESULT:     -12.7      0.097      1.931
REMARK SMILES CO[C@@H]1C[C@H](C(=O)NCCCCNC(=O)c2ccc(-c3c4nc(c(-c5c(F)c(F)c(F)c(F)c5F)c5ccc([nH]5)c(-c5c(F)c(F)c(F)c(F)c5F)c5nc(c(-c6c(F)c(F)c(F)c(F)c6F)c6ccc3[nH]6)C=C5)C=C4)cc2)N(C(=O)c2ncc(Cl)c(Cl)c2Cl)C1
REMARK SMILES IDX 10 1 9 2 8 3 6 4 7 5 5 7 3 8 4 9 91 10 79 11 2 12 1 13 80 14
REMARK SMILES IDX 81 15 82 16 83 17 89 18 84 19 87 20 90 21 85 22 88 23 86 24
REMARK SMILES IDX 11 25 12 26 13 27 14 28 15 30 16 31 17 32 78 33 18 34 77 35
REMARK SMILES IDX 19 36 20 37 21 38 71 39 22 40 76 41 70 42 72 43 23 44 75 45
REMARK SMILES IDX 69 46 68 47 24 49 56 50 36 51 55 52 37 53 40 54 54 55 73 56
REMARK SMILES IDX 38 57 39 58 53 60 74 61 41 62 25 63 26 64 34 65 27 66 28 67
REMARK SMILES IDX 32 68 35 69 29 70 30 71 33 72 31 73 57 74 58 75 66 76 59 77
REMARK SMILES IDX 60 78 64 79 67 80 61 81 62 82 65 83 63 84 42 85 43 86 51 87
REMARK SMILES IDX 44 88 45 89 49 90 52 91 46 92 47 93 50 94 48 95
REMARK H PARENT 8 6 13 29 72 48 40 59
REMARK Flexibility Score: inf
ROOT
ATOM      1  C   UNL A   1      32.309  29.770  27.224  1.00  0.00     0.023 C 
ENDROOT
BRANCH   1   2
ATOM      2  C   UNL A   1      33.489  28.951  26.697  1.00  0.00     0.116 C 
BRANCH   2   3
ATOM      3  N   UNL A   1      33.802  29.269  25.321  1.00  0.00    -0.354 N 
ATOM      4  C   UNL A   1      33.267  28.810  24.159  1.00  0.00     0.242 C 
ATOM      5  O   UNL A   1      33.699  29.310  23.112  1.00  0.00    -0.273 OA
ATOM      6  H   UNL A   1      34.523  29.930  25.207  1.00  0.00     0.163 HD
BRANCH   4   7
ATOM      7  C   UNL A   1      32.171  27.719  24.069  1.00  0.00     0.177 C 
ATOM      8  C   UNL A   1      30.127  27.728  22.695  1.00  0.00     0.139 C 
ATOM      9  C   UNL A   1      30.732  28.225  24.014  1.00  0.00     0.069 C 
ATOM     10  C   UNL A   1      31.180  26.817  22.061  1.00  0.00     0.152 C 
ATOM     11  N   UNL A   1      32.305  26.768  22.973  1.00  0.00    -0.323 N 
BRANCH   8  12
ATOM     12  O   UNL A   1      29.803  28.865  21.897  1.00  0.00    -0.380 OA
ATOM     13  C   UNL A   1      29.604  30.058  22.645  1.00  0.00     0.195 C 
ENDBRANCH   8  12
BRANCH  11  14
ATOM     14  C   UNL A   1      33.220  25.730  22.851  1.00  0.00     0.274 C 
ATOM     15  O   UNL A   1      33.859  25.529  21.820  1.00  0.00    -0.267 OA
BRANCH  14  16
ATOM     16  C   UNL A   1      33.394  24.774  23.976  1.00  0.00     0.148 A 
ATOM     17  N   UNL A   1      34.517  24.964  24.721  1.00  0.00    -0.248 NA
ATOM     18  C   UNL A   1      32.505  23.714  24.149  1.00  0.00     0.092 A 
ATOM     19  C   UNL A   1      34.751  24.060  25.698  1.00  0.00     0.134 A 
ATOM     20  C   UNL A   1      32.772  22.816  25.193  1.00  0.00     0.082 A 
ATOM     21  Cl  UNL A   1      31.141  23.499  23.097  1.00  0.00    -0.080 Cl
ATOM     22  C   UNL A   1      33.919  22.985  25.976  1.00  0.00     0.079 A 
ATOM     23  Cl  UNL A   1      31.690  21.492  25.512  1.00  0.00    -0.081 Cl
ATOM     24  Cl  UNL A   1      34.361  21.915  27.255  1.00  0.00    -0.081 Cl
ENDBRANCH  14  16
ENDBRANCH  11  14
ENDBRANCH   4   7
ENDBRANCH   2   3
ENDBRANCH   1   2
BRANCH   1  25
ATOM     25  C   UNL A   1      32.249  31.215  26.739  1.00  0.00     0.023 C 
BRANCH  25  26
ATOM     26  C   UNL A   1      33.124  32.199  27.511  1.00  0.00     0.116 C 
BRANCH  26  27
ATOM     27  N   UNL A   1      32.573  33.542  27.639  1.00  0.00    -0.352 N 
ATOM     28  C   UNL A   1      33.028  34.577  28.427  1.00  0.00     0.251 C 
ATOM     29  H   UNL A   1      31.775  33.733  27.093  1.00  0.00     0.163 HD
ATOM     30  O   UNL A   1      32.440  35.649  28.467  1.00  0.00    -0.269 OA
BRANCH  28  31
ATOM     31  C   UNL A   1      34.211  34.340  29.281  1.00  0.00     0.039 A 
ATOM     32  C   UNL A   1      34.025  33.801  30.555  1.00  0.00     0.014 A 
ATOM     33  C   UNL A   1      35.496  34.534  28.770  1.00  0.00     0.014 A 
ATOM     34  C   UNL A   1      35.132  33.346  31.274  1.00  0.00     0.010 A 
ATOM     35  C   UNL A   1      36.586  34.008  29.450  1.00  0.00     0.010 A 
ATOM     36  C   UNL A   1      36.412  33.388  30.698  1.00  0.00    -0.014 A 
BRANCH  36  37
ATOM     37  C   UNL A   1      37.582  32.754  31.354  1.00  0.00     0.031 A 
ATOM     38  C   UNL A   1      38.298  31.619  30.680  1.00  0.00     0.074 A 
ATOM     39  C   UNL A   1      37.930  33.124  32.604  1.00  0.00     0.049 A 
ATOM     40  N   UNL A   1      39.242  30.841  31.145  1.00  0.00    -0.248 NA
ATOM     41  C   UNL A   1      37.865  31.289  29.314  1.00  0.00     0.031 C 
ATOM     42  C   UNL A   1      37.272  34.167  33.394  1.00  0.00     0.029 A 
ATOM     43  N   UNL A   1      38.911  32.649  33.437  1.00  0.00    -0.354 N 
ATOM     44  C   UNL A   1      39.488  29.911  30.145  1.00  0.00     0.074 A 
ATOM     45  C   UNL A   1      38.569  30.195  29.065  1.00  0.00     0.031 C 
ATOM     46  C   UNL A   1      37.881  34.268  34.586  1.00  0.00     0.029 A 
ATOM     47  C   UNL A   1      38.947  33.273  34.660  1.00  0.00     0.049 A 
ATOM     48  H   UNL A   1      39.531  31.927  33.183  1.00  0.00     0.167 HD
ATOM     49  C   UNL A   1      40.414  28.922  30.122  1.00  0.00     0.037 A 
ATOM     50  C   UNL A   1      39.745  33.062  35.723  1.00  0.00     0.037 A 
ATOM     51  C   UNL A   1      41.361  28.676  31.174  1.00  0.00     0.049 A 
ATOM     52  C   UNL A   1      40.797  31.990  35.653  1.00  0.00     0.074 A 
ATOM     53  C   UNL A   1      42.389  27.749  31.211  1.00  0.00     0.029 A 
ATOM     54  N   UNL A   1      41.404  29.369  32.374  1.00  0.00    -0.354 N 
ATOM     55  N   UNL A   1      41.060  31.156  34.678  1.00  0.00    -0.248 NA
ATOM     56  C   UNL A   1      41.663  31.832  36.829  1.00  0.00     0.031 C 
ATOM     57  C   UNL A   1      43.039  27.866  32.444  1.00  0.00     0.029 A 
ATOM     58  C   UNL A   1      42.437  28.887  33.162  1.00  0.00     0.049 A 
ATOM     59  H   UNL A   1      40.792  30.097  32.628  1.00  0.00     0.167 HD
ATOM     60  C   UNL A   1      42.135  30.392  35.111  1.00  0.00     0.074 A 
ATOM     61  C   UNL A   1      42.483  30.868  36.433  1.00  0.00     0.031 C 
ATOM     62  C   UNL A   1      42.776  29.384  34.469  1.00  0.00     0.037 A 
BRANCH  49  63
ATOM     63  C   UNL A   1      40.449  28.041  28.911  1.00  0.00     0.064 A 
ATOM     64  C   UNL A   1      39.723  26.842  28.856  1.00  0.00     0.173 A 
ATOM     65  C   UNL A   1      41.200  28.408  27.784  1.00  0.00     0.173 A 
ATOM     66  F   UNL A   1      39.003  26.439  29.913  1.00  0.00    -0.203 F 
ATOM     67  C   UNL A   1      39.772  26.027  27.728  1.00  0.00     0.198 A 
ATOM     68  C   UNL A   1      41.223  27.605  26.647  1.00  0.00     0.198 A 
ATOM     69  F   UNL A   1      41.908  29.547  27.785  1.00  0.00    -0.203 F 
ATOM     70  F   UNL A   1      39.110  24.861  27.717  1.00  0.00    -0.200 F 
ATOM     71  C   UNL A   1      40.517  26.412  26.623  1.00  0.00     0.200 A 
ATOM     72  F   UNL A   1      41.936  27.981  25.577  1.00  0.00    -0.200 F 
ATOM     73  F   UNL A   1      40.559  25.627  25.536  1.00  0.00    -0.200 F 
ENDBRANCH  49  63
BRANCH  50  74
ATOM     74  C   UNL A   1      39.606  33.908  36.935  1.00  0.00     0.064 A 
ATOM     75  C   UNL A   1      40.255  35.148  37.019  1.00  0.00     0.173 A 
ATOM     76  C   UNL A   1      38.828  33.501  38.029  1.00  0.00     0.173 A 
ATOM     77  F   UNL A   1      41.025  35.569  36.005  1.00  0.00    -0.203 F 
ATOM     78  C   UNL A   1      40.145  35.942  38.159  1.00  0.00     0.198 A 
ATOM     79  C   UNL A   1      38.702  34.306  39.160  1.00  0.00     0.198 A 
ATOM     80  F   UNL A   1      38.184  32.325  37.994  1.00  0.00    -0.203 F 
ATOM     81  F   UNL A   1      40.808  37.105  38.229  1.00  0.00    -0.200 F 
ATOM     82  C   UNL A   1      39.367  35.522  39.226  1.00  0.00     0.200 A 
ATOM     83  F   UNL A   1      37.940  33.902  40.185  1.00  0.00    -0.200 F 
ATOM     84  F   UNL A   1      39.261  36.286  40.322  1.00  0.00    -0.200 F 
ENDBRANCH  50  74
BRANCH  62  85
ATOM     85  C   UNL A   1      43.938  28.753  35.173  1.00  0.00     0.064 A 
ATOM     86  C   UNL A   1      43.769  27.656  36.029  1.00  0.00     0.173 A 
ATOM     87  C   UNL A   1      45.241  29.223  34.950  1.00  0.00     0.173 A 
ATOM     88  F   UNL A   1      42.539  27.184  36.284  1.00  0.00    -0.203 F 
ATOM     89  C   UNL A   1      44.862  27.060  36.649  1.00  0.00     0.198 A 
ATOM     90  C   UNL A   1      46.335  28.609  35.554  1.00  0.00     0.198 A 
ATOM     91  F   UNL A   1      45.453  30.268  34.137  1.00  0.00    -0.203 F 
ATOM     92  F   UNL A   1      44.675  26.033  37.491  1.00  0.00    -0.200 F 
ATOM     93  C   UNL A   1      46.144  27.532  36.407  1.00  0.00     0.200 A 
ATOM     94  F   UNL A   1      47.573  29.061  35.313  1.00  0.00    -0.200 F 
ATOM     95  F   UNL A   1      47.196  26.951  37.000  1.00  0.00    -0.200 F 
ENDBRANCH  62  85
ENDBRANCH  36  37
ENDBRANCH  28  31
ENDBRANCH  26  27
ENDBRANCH  25  26
ENDBRANCH   1  25
TORSDOF 14
ENDMDL
MODEL 3
REMARK VINA RESULT:     -12.7      5.722     11.102
REMARK SMILES CO[C@@H]1C[C@H](C(=O)NCCCCNC(=O)c2ccc(-c3c4nc(c(-c5c(F)c(F)c(F)c(F)c5F)c5ccc([nH]5)c(-c5c(F)c(F)c(F)c(F)c5F)c5nc(c(-c6c(F)c(F)c(F)c(F)c6F)c6ccc3[nH]6)C=C5)C=C4)cc2)N(C(=O)c2ncc(Cl)c(Cl)c2Cl)C1
REMARK SMILES IDX 10 1 9 2 8 3 6 4 7 5 5 7 3 8 4 9 91 10 79 11 2 12 1 13 80 14
REMARK SMILES IDX 81 15 82 16 83 17 89 18 84 19 87 20 90 21 85 22 88 23 86 24
REMARK SMILES IDX 11 25 12 26 13 27 14 28 15 30 16 31 17 32 78 33 18 34 77 35
REMARK SMILES IDX 19 36 20 37 21 38 71 39 22 40 76 41 70 42 72 43 23 44 75 45
REMARK SMILES IDX 69 46 68 47 24 49 56 50 36 51 55 52 37 53 40 54 54 55 73 56
REMARK SMILES IDX 38 57 39 58 53 60 74 61 41 62 25 63 26 64 34 65 27 66 28 67
REMARK SMILES IDX 32 68 35 69 29 70 30 71 33 72 31 73 57 74 58 75 66 76 59 77
REMARK SMILES IDX 60 78 64 79 67 80 61 81 62 82 65 83 63 84 42 85 43 86 51 87
REMARK SMILES IDX 44 88 45 89 49 90 52 91 46 92 47 93 50 94 48 95
REMARK H PARENT 8 6 13 29 72 48 40 59
REMARK Flexibility Score: inf
ROOT
ATOM      1  C   UNL A   1      37.408  22.021  24.476  1.00  0.00     0.023 C 
ENDROOT
BRANCH   1   2
ATOM      2  C   UNL A   1      36.920  23.112  25.430  1.00  0.00     0.116 C 
BRANCH   2   3
ATOM      3  N   UNL A   1      36.147  22.573  26.527  1.00  0.00    -0.354 N 
ATOM      4  C   UNL A   1      34.842  22.197  26.595  1.00  0.00     0.242 C 
ATOM      5  O   UNL A   1      34.460  21.705  27.665  1.00  0.00    -0.273 OA
ATOM      6  H   UNL A   1      36.650  22.457  27.366  1.00  0.00     0.163 HD
BRANCH   4   7
ATOM      7  C   UNL A   1      33.827  22.343  25.435  1.00  0.00     0.177 C 
ATOM      8  C   UNL A   1      32.219  20.673  24.602  1.00  0.00     0.139 C 
ATOM      9  C   UNL A   1      33.681  21.130  24.520  1.00  0.00     0.069 C 
ATOM     10  C   UNL A   1      31.495  21.715  25.457  1.00  0.00     0.152 C 
ATOM     11  N   UNL A   1      32.472  22.723  25.817  1.00  0.00    -0.323 N 
BRANCH   8  12
ATOM     12  O   UNL A   1      32.194  19.361  25.159  1.00  0.00    -0.380 OA
ATOM     13  C   UNL A   1      32.573  18.337  24.249  1.00  0.00     0.195 C 
ENDBRANCH   8  12
BRANCH  11  14
ATOM     14  C   UNL A   1      32.023  23.966  26.246  1.00  0.00     0.274 C 
ATOM     15  O   UNL A   1      31.294  24.104  27.227  1.00  0.00    -0.267 OA
BRANCH  14  16
ATOM     16  C   UNL A   1      32.371  25.179  25.461  1.00  0.00     0.148 A 
ATOM     17  N   UNL A   1      33.352  25.952  26.004  1.00  0.00    -0.248 NA
ATOM     18  C   UNL A   1      31.647  25.516  24.318  1.00  0.00     0.092 A 
ATOM     19  C   UNL A   1      33.632  27.107  25.361  1.00  0.00     0.134 A 
ATOM     20  C   UNL A   1      31.991  26.710  23.668  1.00  0.00     0.082 A 
ATOM     21  Cl  UNL A   1      30.352  24.513  23.743  1.00  0.00    -0.080 Cl
ATOM     22  C   UNL A   1      32.995  27.526  24.202  1.00  0.00     0.079 A 
ATOM     23  Cl  UNL A   1      31.173  27.184  22.208  1.00  0.00    -0.081 Cl
ATOM     24  Cl  UNL A   1      33.465  29.032  23.505  1.00  0.00    -0.081 Cl
ENDBRANCH  14  16
ENDBRANCH  11  14
ENDBRANCH   4   7
ENDBRANCH   2   3
ENDBRANCH   1   2
BRANCH   1  25
ATOM     25  C   UNL A   1      37.885  20.735  25.145  1.00  0.00     0.023 C 
BRANCH  25  26
ATOM     26  C   UNL A   1      39.273  20.804  25.776  1.00  0.00     0.116 C 
BRANCH  26  27
ATOM     27  N   UNL A   1      40.001  19.541  25.800  1.00  0.00    -0.352 N 
ATOM     28  C   UNL A   1      41.327  19.330  26.106  1.00  0.00     0.251 C 
ATOM     29  H   UNL A   1      39.478  18.739  25.568  1.00  0.00     0.163 HD
ATOM     30  O   UNL A   1      41.821  18.212  26.048  1.00  0.00    -0.269 OA
BRANCH  28  31
ATOM     31  C   UNL A   1      42.164  20.500  26.444  1.00  0.00     0.039 A 
ATOM     32  C   UNL A   1      42.767  21.219  25.409  1.00  0.00     0.014 A 
ATOM     33  C   UNL A   1      42.244  20.949  27.763  1.00  0.00     0.014 A 
ATOM     34  C   UNL A   1      43.352  22.455  25.685  1.00  0.00     0.010 A 
ATOM     35  C   UNL A   1      42.754  22.216  28.022  1.00  0.00     0.010 A 
ATOM     36  C   UNL A   1      43.292  22.990  26.981  1.00  0.00    -0.014 A 
BRANCH  36  37
ATOM     37  C   UNL A   1      43.741  24.374  27.276  1.00  0.00     0.031 A 
ATOM     38  C   UNL A   1      42.765  25.385  27.801  1.00  0.00     0.074 A 
ATOM     39  C   UNL A   1      44.999  24.748  26.963  1.00  0.00     0.049 A 
ATOM     40  N   UNL A   1      42.920  26.672  27.982  1.00  0.00    -0.248 NA
ATOM     41  C   UNL A   1      41.419  24.890  28.129  1.00  0.00     0.031 C 
ATOM     42  C   UNL A   1      46.024  23.878  26.383  1.00  0.00     0.029 A 
ATOM     43  N   UNL A   1      45.622  25.966  27.070  1.00  0.00    -0.354 N 
ATOM     44  C   UNL A   1      41.687  27.143  28.409  1.00  0.00     0.074 A 
ATOM     45  C   UNL A   1      40.782  26.015  28.421  1.00  0.00     0.031 C 
ATOM     46  C   UNL A   1      47.153  24.583  26.208  1.00  0.00     0.029 A 
ATOM     47  C   UNL A   1      46.921  25.962  26.625  1.00  0.00     0.049 A 
ATOM     48  H   UNL A   1      45.179  26.768  27.430  1.00  0.00     0.167 HD
ATOM     49  C   UNL A   1      41.346  28.401  28.778  1.00  0.00     0.037 A 
ATOM     50  C   UNL A   1      47.822  26.960  26.556  1.00  0.00     0.037 A 
ATOM     51  C   UNL A   1      42.260  29.510  28.815  1.00  0.00     0.049 A 
ATOM     52  C   UNL A   1      47.432  28.337  27.017  1.00  0.00     0.074 A 
ATOM     53  C   UNL A   1      42.030  30.804  29.249  1.00  0.00     0.029 A 
ATOM     54  N   UNL A   1      43.586  29.452  28.413  1.00  0.00    -0.354 N 
ATOM     55  N   UNL A   1      46.279  28.757  27.476  1.00  0.00    -0.248 NA
ATOM     56  C   UNL A   1      48.469  29.376  26.954  1.00  0.00     0.031 C 
ATOM     57  C   UNL A   1      43.211  31.536  29.086  1.00  0.00     0.029 A 
ATOM     58  C   UNL A   1      44.185  30.689  28.581  1.00  0.00     0.049 A 
ATOM     59  H   UNL A   1      44.034  28.649  28.060  1.00  0.00     0.167 HD
ATOM     60  C   UNL A   1      46.457  30.100  27.779  1.00  0.00     0.074 A 
ATOM     61  C   UNL A   1      47.833  30.423  27.462  1.00  0.00     0.031 C 
ATOM     62  C   UNL A   1      45.559  30.986  28.273  1.00  0.00     0.037 A 
BRANCH  49  63
ATOM     63  C   UNL A   1      39.922  28.638  29.180  1.00  0.00     0.064 A 
ATOM     64  C   UNL A   1      39.482  28.402  30.491  1.00  0.00     0.173 A 
ATOM     65  C   UNL A   1      38.991  29.125  28.251  1.00  0.00     0.173 A 
ATOM     66  F   UNL A   1      40.331  27.920  31.411  1.00  0.00    -0.203 F 
ATOM     67  C   UNL A   1      38.154  28.617  30.850  1.00  0.00     0.198 A 
ATOM     68  C   UNL A   1      37.670  29.366  28.622  1.00  0.00     0.198 A 
ATOM     69  F   UNL A   1      39.362  29.371  26.986  1.00  0.00    -0.203 F 
ATOM     70  F   UNL A   1      37.746  28.337  32.096  1.00  0.00    -0.200 F 
ATOM     71  C   UNL A   1      37.252  29.104  29.917  1.00  0.00     0.200 A 
ATOM     72  F   UNL A   1      36.800  29.845  27.722  1.00  0.00    -0.200 F 
ATOM     73  F   UNL A   1      35.974  29.314  30.267  1.00  0.00    -0.200 F 
ENDBRANCH  49  63
BRANCH  50  74
ATOM     74  C   UNL A   1      49.196  26.687  26.062  1.00  0.00     0.064 A 
ATOM     75  C   UNL A   1      49.550  26.980  24.738  1.00  0.00     0.173 A 
ATOM     76  C   UNL A   1      50.178  26.132  26.896  1.00  0.00     0.173 A 
ATOM     77  F   UNL A   1      48.637  27.492  23.900  1.00  0.00    -0.203 F 
ATOM     78  C   UNL A   1      50.831  26.711  24.260  1.00  0.00     0.198 A 
ATOM     79  C   UNL A   1      51.465  25.885  26.422  1.00  0.00     0.198 A 
ATOM     80  F   UNL A   1      49.889  25.840  28.172  1.00  0.00    -0.203 F 
ATOM     81  F   UNL A   1      51.131  26.964  22.978  1.00  0.00    -0.200 F 
ATOM     82  C   UNL A   1      51.788  26.168  25.102  1.00  0.00     0.200 A 
ATOM     83  F   UNL A   1      52.391  25.370  27.242  1.00  0.00    -0.200 F 
ATOM     84  F   UNL A   1      53.020  25.912  24.643  1.00  0.00    -0.200 F 
ENDBRANCH  50  74
BRANCH  62  85
ATOM     85  C   UNL A   1      46.044  32.379  28.536  1.00  0.00     0.064 A 
ATOM     86  C   UNL A   1      46.629  32.733  29.759  1.00  0.00     0.173 A 
ATOM     87  C   UNL A   1      45.964  33.358  27.534  1.00  0.00     0.173 A 
ATOM     88  F   UNL A   1      46.711  31.835  30.753  1.00  0.00    -0.203 F 
ATOM     89  C   UNL A   1      47.104  34.023  29.977  1.00  0.00     0.198 A 
ATOM     90  C   UNL A   1      46.461  34.641  27.746  1.00  0.00     0.198 A 
ATOM     91  F   UNL A   1      45.416  33.065  26.345  1.00  0.00    -0.203 F 
ATOM     92  F   UNL A   1      47.629  34.351  31.166  1.00  0.00    -0.200 F 
ATOM     93  C   UNL A   1      47.026  34.973  28.968  1.00  0.00     0.200 A 
ATOM     94  F   UNL A   1      46.394  35.555  26.769  1.00  0.00    -0.200 F 
ATOM     95  F   UNL A   1      47.492  36.213  29.177  1.00  0.00    -0.200 F 
ENDBRANCH  62  85
ENDBRANCH  36  37
ENDBRANCH  28  31
ENDBRANCH  26  27
ENDBRANCH  25  26
ENDBRANCH   1  25
TORSDOF 14
ENDMDL
