MODEL 1
REMARK VINA RESULT:     -12.9      0.000      0.000
REMARK SMILES O=C(NCCCCNC(=O)c1ccccc1NS(=O)(=O)c1cccc([N+](=O)[O-])c1)c1ccc(-c2c3nc(c(-c4c(F)c(F)c(F)c(F)c4F)c4ccc([nH]4)c(-c4c(F)c(F)c(F)c(F)c4F)c4nc(c(-c5c(F)c(F)c(F)c(F)c5F)c5ccc2[nH]5)C=C4)C=C3)cc1
REMARK SMILES IDX 6 1 5 2 4 3 3 4 1 5 2 6 30 8 31 9 92 10 32 11 91 12 33 13
REMARK SMILES IDX 34 14 35 15 85 16 36 17 90 18 84 19 86 20 37 21 89 22 83 23
REMARK SMILES IDX 82 24 38 26 70 27 50 28 69 29 51 30 54 31 68 32 87 33 52 34
REMARK SMILES IDX 53 35 67 37 88 38 55 39 39 40 40 41 48 42 41 43 42 44 46 45
REMARK SMILES IDX 49 46 43 47 44 48 47 49 45 50 71 51 72 52 80 53 73 54 74 55
REMARK SMILES IDX 78 56 81 57 75 58 76 59 79 60 77 61 56 62 57 63 65 64 58 65
REMARK SMILES IDX 59 66 63 67 66 68 60 69 61 70 64 71 62 72 7 73 8 74 9 75
REMARK SMILES IDX 10 77 11 78 12 79 16 80 13 81 15 82 14 83 17 84 18 86 19 87
REMARK SMILES IDX 20 88 21 89 22 90 29 91 23 92 25 93 24 94 26 95 27 96 28 97
REMARK H PARENT 3 7 86 25 54 36 8 76 17 85
REMARK Flexibility Score: inf
ROOT
ATOM      1  C   UNL A   1      31.498  27.877  26.802  1.00  0.00     0.023 C 
ENDROOT
BRANCH   1   2
ATOM      2  C   UNL A   1      31.601  29.014  25.791  1.00  0.00     0.023 C 
BRANCH   2   3
ATOM      3  C   UNL A   1      32.834  29.901  25.916  1.00  0.00     0.116 C 
BRANCH   3   4
ATOM      4  N   UNL A   1      32.551  31.225  26.449  1.00  0.00    -0.352 N 
ATOM      5  O   UNL A   1      32.832  33.063  27.731  1.00  0.00    -0.269 OA
ATOM      6  C   UNL A   1      33.283  31.999  27.318  1.00  0.00     0.251 C 
ATOM      7  H   UNL A   1      31.707  31.628  26.141  1.00  0.00     0.163 HD
BRANCH   6   8
ATOM      8  C   UNL A   1      34.599  31.526  27.799  1.00  0.00     0.039 A 
ATOM      9  C   UNL A   1      34.802  30.187  28.139  1.00  0.00     0.014 A 
ATOM     10  C   UNL A   1      35.637  32.452  27.940  1.00  0.00     0.014 A 
ATOM     11  C   UNL A   1      35.971  29.815  28.792  1.00  0.00     0.010 A 
ATOM     12  C   UNL A   1      36.844  32.056  28.522  1.00  0.00     0.010 A 
ATOM     13  C   UNL A   1      36.998  30.749  29.006  1.00  0.00    -0.014 A 
BRANCH  13  14
ATOM     14  C   UNL A   1      38.210  30.335  29.755  1.00  0.00     0.031 A 
ATOM     15  C   UNL A   1      38.403  30.738  31.192  1.00  0.00     0.074 A 
ATOM     16  C   UNL A   1      39.111  29.536  29.155  1.00  0.00     0.049 A 
ATOM     17  N   UNL A   1      39.367  30.414  32.018  1.00  0.00    -0.248 NA
ATOM     18  C   UNL A   1      37.389  31.627  31.779  1.00  0.00     0.031 C 
ATOM     19  C   UNL A   1      39.039  29.083  27.765  1.00  0.00     0.029 A 
ATOM     20  N   UNL A   1      40.242  28.935  29.645  1.00  0.00    -0.354 N 
ATOM     21  C   UNL A   1      39.095  31.085  33.203  1.00  0.00     0.074 A 
ATOM     22  C   UNL A   1      37.880  31.841  32.992  1.00  0.00     0.031 C 
ATOM     23  C   UNL A   1      40.043  28.224  27.533  1.00  0.00     0.029 A 
ATOM     24  C   UNL A   1      40.849  28.099  28.742  1.00  0.00     0.049 A 
ATOM     25  H   UNL A   1      40.585  29.088  30.555  1.00  0.00     0.167 HD
ATOM     26  C   UNL A   1      39.794  31.067  34.364  1.00  0.00     0.037 A 
ATOM     27  C   UNL A   1      41.931  27.309  28.877  1.00  0.00     0.037 A 
ATOM     28  C   UNL A   1      40.974  30.277  34.595  1.00  0.00     0.049 A 
ATOM     29  C   UNL A   1      42.660  27.274  30.187  1.00  0.00     0.074 A 
ATOM     30  C   UNL A   1      41.726  30.165  35.752  1.00  0.00     0.029 A 
ATOM     31  N   UNL A   1      41.567  29.456  33.650  1.00  0.00    -0.354 N 
ATOM     32  N   UNL A   1      42.383  27.903  31.302  1.00  0.00    -0.248 NA
ATOM     33  C   UNL A   1      43.855  26.423  30.255  1.00  0.00     0.031 C 
ATOM     34  C   UNL A   1      42.788  29.288  35.500  1.00  0.00     0.029 A 
ATOM     35  C   UNL A   1      42.682  28.838  34.194  1.00  0.00     0.049 A 
ATOM     36  H   UNL A   1      41.246  29.330  32.728  1.00  0.00     0.167 HD
ATOM     37  C   UNL A   1      43.363  27.522  32.206  1.00  0.00     0.074 A 
ATOM     38  C   UNL A   1      44.232  26.591  31.515  1.00  0.00     0.031 C 
ATOM     39  C   UNL A   1      43.531  27.912  33.492  1.00  0.00     0.037 A 
BRANCH  26  40
ATOM     40  C   UNL A   1      39.305  31.942  35.477  1.00  0.00     0.064 A 
ATOM     41  C   UNL A   1      38.464  31.451  36.485  1.00  0.00     0.173 A 
ATOM     42  C   UNL A   1      39.718  33.281  35.556  1.00  0.00     0.173 A 
ATOM     43  F   UNL A   1      38.032  30.181  36.443  1.00  0.00    -0.203 F 
ATOM     44  C   UNL A   1      38.041  32.273  37.526  1.00  0.00     0.198 A 
ATOM     45  C   UNL A   1      39.307  34.095  36.608  1.00  0.00     0.198 A 
ATOM     46  F   UNL A   1      40.525  33.796  34.616  1.00  0.00    -0.203 F 
ATOM     47  F   UNL A   1      37.213  31.792  38.463  1.00  0.00    -0.200 F 
ATOM     48  C   UNL A   1      38.467  33.592  37.590  1.00  0.00     0.200 A 
ATOM     49  F   UNL A   1      39.723  35.368  36.671  1.00  0.00    -0.200 F 
ATOM     50  F   UNL A   1      38.061  34.380  38.594  1.00  0.00    -0.200 F 
ENDBRANCH  26  40
BRANCH  27  51
ATOM     51  C   UNL A   1      42.357  26.460  27.740  1.00  0.00     0.064 A 
ATOM     52  C   UNL A   1      41.769  25.206  27.527  1.00  0.00     0.173 A 
ATOM     53  C   UNL A   1      43.328  26.895  26.829  1.00  0.00     0.173 A 
ATOM     54  F   UNL A   1      40.847  24.744  28.386  1.00  0.00    -0.203 F 
ATOM     55  C   UNL A   1      42.139  24.416  26.442  1.00  0.00     0.198 A 
ATOM     56  C   UNL A   1      43.684  26.113  25.734  1.00  0.00     0.198 A 
ATOM     57  F   UNL A   1      43.914  28.090  26.993  1.00  0.00    -0.203 F 
ATOM     58  F   UNL A   1      41.578  23.213  26.269  1.00  0.00    -0.200 F 
ATOM     59  C   UNL A   1      43.091  24.873  25.543  1.00  0.00     0.200 A 
ATOM     60  F   UNL A   1      44.596  26.561  24.861  1.00  0.00    -0.200 F 
ATOM     61  F   UNL A   1      43.440  24.118  24.492  1.00  0.00    -0.200 F 
ENDBRANCH  27  51
BRANCH  39  62
ATOM     62  C   UNL A   1      44.690  27.325  34.234  1.00  0.00     0.064 A 
ATOM     63  C   UNL A   1      45.935  27.969  34.261  1.00  0.00     0.173 A 
ATOM     64  C   UNL A   1      44.548  26.124  34.942  1.00  0.00     0.173 A 
ATOM     65  F   UNL A   1      46.120  29.112  33.584  1.00  0.00    -0.203 F 
ATOM     66  C   UNL A   1      47.006  27.419  34.960  1.00  0.00     0.198 A 
ATOM     67  C   UNL A   1      45.616  25.586  35.652  1.00  0.00     0.198 A 
ATOM     68  F   UNL A   1      43.375  25.475  34.943  1.00  0.00    -0.203 F 
ATOM     69  F   UNL A   1      48.197  28.031  34.948  1.00  0.00    -0.200 F 
ATOM     70  C   UNL A   1      46.844  26.231  35.658  1.00  0.00     0.200 A 
ATOM     71  F   UNL A   1      45.459  24.439  36.328  1.00  0.00    -0.200 F 
ATOM     72  F   UNL A   1      47.876  25.702  36.329  1.00  0.00    -0.200 F 
ENDBRANCH  39  62
ENDBRANCH  13  14
ENDBRANCH   6   8
ENDBRANCH   3   4
ENDBRANCH   2   3
ENDBRANCH   1   2
BRANCH   1  73
ATOM     73  C   UNL A   1      32.364  26.657  26.510  1.00  0.00     0.116 C 
BRANCH  73  74
ATOM     74  N   UNL A   1      31.634  25.395  26.550  1.00  0.00    -0.352 N 
ATOM     75  C   UNL A   1      32.028  24.172  26.058  1.00  0.00     0.253 C 
ATOM     76  H   UNL A   1      30.749  25.422  26.981  1.00  0.00     0.163 HD
ATOM     77  O   UNL A   1      31.346  23.167  26.213  1.00  0.00    -0.269 OA
BRANCH  75  78
ATOM     78  C   UNL A   1      33.290  24.104  25.303  1.00  0.00     0.063 A 
ATOM     79  C   UNL A   1      34.455  23.877  26.045  1.00  0.00     0.016 A 
ATOM     80  C   UNL A   1      33.294  24.096  23.900  1.00  0.00     0.062 A 
ATOM     81  C   UNL A   1      35.637  23.565  25.383  1.00  0.00     0.001 A 
ATOM     82  C   UNL A   1      34.468  23.688  23.262  1.00  0.00     0.027 A 
ATOM     83  C   UNL A   1      35.632  23.432  23.996  1.00  0.00     0.002 A 
BRANCH  80  84
ATOM     84  N   UNL A   1      32.162  24.614  23.188  1.00  0.00    -0.279 N 
ATOM     85  H   UNL A   1      31.373  24.030  23.112  1.00  0.00     0.180 HD
BRANCH  84  86
ATOM     86  S   UNL A   1      32.065  26.121  22.477  1.00  0.00     0.262 S 
ATOM     87  O   UNL A   1      33.154  26.926  22.996  1.00  0.00    -0.201 OA
ATOM     88  O   UNL A   1      31.895  25.897  21.061  1.00  0.00    -0.201 OA
BRANCH  86  89
ATOM     89  C   UNL A   1      30.542  26.828  23.064  1.00  0.00     0.094 A 
ATOM     90  C   UNL A   1      29.683  26.009  23.808  1.00  0.00     0.023 A 
ATOM     91  C   UNL A   1      30.129  28.091  22.627  1.00  0.00     0.107 A 
ATOM     92  C   UNL A   1      28.381  26.432  24.078  1.00  0.00     0.008 A 
ATOM     93  C   UNL A   1      28.800  28.470  22.844  1.00  0.00     0.270 A 
ATOM     94  C   UNL A   1      27.926  27.651  23.572  1.00  0.00     0.086 A 
BRANCH  93  95
ATOM     95  N   UNL A   1      28.288  29.684  22.199  1.00  0.00     0.062 N 
ATOM     96  O   UNL A   1      28.900  30.109  21.209  1.00  0.00    -0.258 OA
ATOM     97  O   UNL A   1      27.297  30.229  22.706  1.00  0.00    -0.258 OA
ENDBRANCH  93  95
ENDBRANCH  86  89
ENDBRANCH  84  86
ENDBRANCH  80  84
ENDBRANCH  75  78
ENDBRANCH  73  74
ENDBRANCH   1  73
TORSDOF 15
ENDMDL
MODEL 2
REMARK VINA RESULT:     -12.7      0.214      1.613
REMARK SMILES O=C(NCCCCNC(=O)c1ccccc1NS(=O)(=O)c1cccc([N+](=O)[O-])c1)c1ccc(-c2c3nc(c(-c4c(F)c(F)c(F)c(F)c4F)c4ccc([nH]4)c(-c4c(F)c(F)c(F)c(F)c4F)c4nc(c(-c5c(F)c(F)c(F)c(F)c5F)c5ccc2[nH]5)C=C4)C=C3)cc1
REMARK SMILES IDX 6 1 5 2 4 3 3 4 1 5 2 6 30 8 31 9 92 10 32 11 91 12 33 13
REMARK SMILES IDX 34 14 35 15 85 16 36 17 90 18 84 19 86 20 37 21 89 22 83 23
REMARK SMILES IDX 82 24 38 26 70 27 50 28 69 29 51 30 54 31 68 32 87 33 52 34
REMARK SMILES IDX 53 35 67 37 88 38 55 39 39 40 40 41 48 42 41 43 42 44 46 45
REMARK SMILES IDX 49 46 43 47 44 48 47 49 45 50 71 51 72 52 80 53 73 54 74 55
REMARK SMILES IDX 78 56 81 57 75 58 76 59 79 60 77 61 56 62 57 63 65 64 58 65
REMARK SMILES IDX 59 66 63 67 66 68 60 69 61 70 64 71 62 72 7 73 8 74 9 75
REMARK SMILES IDX 10 77 11 78 12 79 16 80 13 81 15 82 14 83 17 84 18 86 19 87
REMARK SMILES IDX 20 88 21 89 22 90 29 91 23 92 25 93 24 94 26 95 27 96 28 97
REMARK H PARENT 3 7 86 25 54 36 8 76 17 85
REMARK Flexibility Score: inf
ROOT
ATOM      1  C   UNL A   1      31.326  27.638  26.515  1.00  0.00     0.023 C 
ENDROOT
BRANCH   1   2
ATOM      2  C   UNL A   1      31.775  28.928  27.194  1.00  0.00     0.023 C 
BRANCH   2   3
ATOM      3  C   UNL A   1      32.591  29.881  26.330  1.00  0.00     0.116 C 
BRANCH   3   4
ATOM      4  N   UNL A   1      32.415  31.284  26.677  1.00  0.00    -0.352 N 
ATOM      5  O   UNL A   1      32.879  33.266  27.655  1.00  0.00    -0.269 OA
ATOM      6  C   UNL A   1      33.245  32.128  27.378  1.00  0.00     0.251 C 
ATOM      7  H   UNL A   1      31.575  31.689  26.364  1.00  0.00     0.163 HD
BRANCH   6   8
ATOM      8  C   UNL A   1      34.563  31.648  27.844  1.00  0.00     0.039 A 
ATOM      9  C   UNL A   1      34.765  30.308  28.178  1.00  0.00     0.014 A 
ATOM     10  C   UNL A   1      35.606  32.570  27.978  1.00  0.00     0.014 A 
ATOM     11  C   UNL A   1      35.939  29.930  28.818  1.00  0.00     0.010 A 
ATOM     12  C   UNL A   1      36.818  32.168  28.546  1.00  0.00     0.010 A 
ATOM     13  C   UNL A   1      36.971  30.859  29.024  1.00  0.00    -0.014 A 
BRANCH  13  14
ATOM     14  C   UNL A   1      38.190  30.439  29.760  1.00  0.00     0.031 A 
ATOM     15  C   UNL A   1      38.390  30.823  31.201  1.00  0.00     0.074 A 
ATOM     16  C   UNL A   1      39.089  29.650  29.143  1.00  0.00     0.049 A 
ATOM     17  N   UNL A   1      39.361  30.491  32.017  1.00  0.00    -0.248 NA
ATOM     18  C   UNL A   1      37.378  31.701  31.807  1.00  0.00     0.031 C 
ATOM     19  C   UNL A   1      39.009  29.216  27.748  1.00  0.00     0.029 A 
ATOM     20  N   UNL A   1      40.225  29.046  29.618  1.00  0.00    -0.354 N 
ATOM     21  C   UNL A   1      39.095  31.145  33.212  1.00  0.00     0.074 A 
ATOM     22  C   UNL A   1      37.876  31.900  33.019  1.00  0.00     0.031 C 
ATOM     23  C   UNL A   1      40.013  28.363  27.498  1.00  0.00     0.029 A 
ATOM     24  C   UNL A   1      40.828  28.224  28.700  1.00  0.00     0.049 A 
ATOM     25  H   UNL A   1      40.573  29.188  30.528  1.00  0.00     0.167 HD
ATOM     26  C   UNL A   1      39.801  31.114  34.368  1.00  0.00     0.037 A 
ATOM     27  C   UNL A   1      41.913  27.435  28.818  1.00  0.00     0.037 A 
ATOM     28  C   UNL A   1      40.985  30.324  34.581  1.00  0.00     0.049 A 
ATOM     29  C   UNL A   1      42.650  27.385  30.123  1.00  0.00     0.074 A 
ATOM     30  C   UNL A   1      41.745  30.198  35.731  1.00  0.00     0.029 A 
ATOM     31  N   UNL A   1      41.575  29.517  33.621  1.00  0.00    -0.354 N 
ATOM     32  N   UNL A   1      42.379  27.998  31.248  1.00  0.00    -0.248 NA
ATOM     33  C   UNL A   1      43.848  26.536  30.171  1.00  0.00     0.031 C 
ATOM     34  C   UNL A   1      42.807  29.327  35.461  1.00  0.00     0.029 A 
ATOM     35  C   UNL A   1      42.694  28.894  34.149  1.00  0.00     0.049 A 
ATOM     36  H   UNL A   1      41.247  29.402  32.700  1.00  0.00     0.167 HD
ATOM     37  C   UNL A   1      43.366  27.607  32.140  1.00  0.00     0.074 A 
ATOM     38  C   UNL A   1      44.233  26.688  31.431  1.00  0.00     0.031 C 
ATOM     39  C   UNL A   1      43.541  27.981  33.430  1.00  0.00     0.037 A 
BRANCH  26  40
ATOM     40  C   UNL A   1      39.318  31.972  35.496  1.00  0.00     0.064 A 
ATOM     41  C   UNL A   1      38.456  31.475  36.483  1.00  0.00     0.173 A 
ATOM     42  C   UNL A   1      39.756  33.301  35.610  1.00  0.00     0.173 A 
ATOM     43  F   UNL A   1      38.000  30.215  36.408  1.00  0.00    -0.203 F 
ATOM     44  C   UNL A   1      38.037  32.281  37.538  1.00  0.00     0.198 A 
ATOM     45  C   UNL A   1      39.348  34.098  36.676  1.00  0.00     0.198 A 
ATOM     46  F   UNL A   1      40.582  33.821  34.691  1.00  0.00    -0.203 F 
ATOM     47  F   UNL A   1      37.190  31.795  38.455  1.00  0.00    -0.200 F 
ATOM     48  C   UNL A   1      38.489  33.590  37.638  1.00  0.00     0.200 A 
ATOM     49  F   UNL A   1      39.789  35.361  36.773  1.00  0.00    -0.200 F 
ATOM     50  F   UNL A   1      38.086  34.362  38.656  1.00  0.00    -0.200 F 
ENDBRANCH  26  40
BRANCH  27  51
ATOM     51  C   UNL A   1      42.334  26.602  27.667  1.00  0.00     0.064 A 
ATOM     52  C   UNL A   1      43.307  27.064  26.771  1.00  0.00     0.173 A 
ATOM     53  C   UNL A   1      41.804  25.322  27.461  1.00  0.00     0.173 A 
ATOM     54  F   UNL A   1      43.828  28.292  26.923  1.00  0.00    -0.203 F 
ATOM     55  C   UNL A   1      43.734  26.275  25.707  1.00  0.00     0.198 A 
ATOM     56  C   UNL A   1      42.246  24.525  26.408  1.00  0.00     0.198 A 
ATOM     57  F   UNL A   1      40.874  24.838  28.297  1.00  0.00    -0.203 F 
ATOM     58  F   UNL A   1      44.651  26.745  24.851  1.00  0.00    -0.200 F 
ATOM     59  C   UNL A   1      43.208  25.003  25.530  1.00  0.00     0.200 A 
ATOM     60  F   UNL A   1      41.744  23.294  26.246  1.00  0.00    -0.200 F 
ATOM     61  F   UNL A   1      43.627  24.239  24.513  1.00  0.00    -0.200 F 
ENDBRANCH  27  51
BRANCH  39  62
ATOM     62  C   UNL A   1      44.707  27.387  34.156  1.00  0.00     0.064 A 
ATOM     63  C   UNL A   1      44.596  26.160  34.825  1.00  0.00     0.173 A 
ATOM     64  C   UNL A   1      45.949  28.038  34.162  1.00  0.00     0.173 A 
ATOM     65  F   UNL A   1      43.423  25.512  34.858  1.00  0.00    -0.203 F 
ATOM     66  C   UNL A   1      45.688  25.612  35.492  1.00  0.00     0.198 A 
ATOM     67  C   UNL A   1      47.041  27.479  34.817  1.00  0.00     0.198 A 
ATOM     68  F   UNL A   1      46.098  29.213  33.536  1.00  0.00    -0.203 F 
ATOM     69  F   UNL A   1      45.555  24.455  36.153  1.00  0.00    -0.200 F 
ATOM     70  C   UNL A   1      46.910  26.269  35.484  1.00  0.00     0.200 A 
ATOM     71  F   UNL A   1      48.222  28.113  34.807  1.00  0.00    -0.200 F 
ATOM     72  F   UNL A   1      47.960  25.741  36.128  1.00  0.00    -0.200 F 
ENDBRANCH  39  62
ENDBRANCH  13  14
ENDBRANCH   6   8
ENDBRANCH   3   4
ENDBRANCH   2   3
ENDBRANCH   1   2
BRANCH   1  73
ATOM     73  C   UNL A   1      32.213  26.424  26.761  1.00  0.00     0.116 C 
BRANCH  73  74
ATOM     74  N   UNL A   1      31.509  25.151  26.652  1.00  0.00    -0.352 N 
ATOM     75  C   UNL A   1      31.953  23.983  26.075  1.00  0.00     0.253 C 
ATOM     76  H   UNL A   1      30.604  25.123  27.039  1.00  0.00     0.163 HD
ATOM     77  O   UNL A   1      31.286  22.957  26.105  1.00  0.00    -0.269 OA
BRANCH  75  78
ATOM     78  C   UNL A   1      33.252  24.004  25.382  1.00  0.00     0.063 A 
ATOM     79  C   UNL A   1      34.386  23.756  26.164  1.00  0.00     0.016 A 
ATOM     80  C   UNL A   1      33.324  24.097  23.983  1.00  0.00     0.062 A 
ATOM     81  C   UNL A   1      35.607  23.525  25.542  1.00  0.00     0.001 A 
ATOM     82  C   UNL A   1      34.540  23.768  23.379  1.00  0.00     0.027 A 
ATOM     83  C   UNL A   1      35.674  23.493  24.151  1.00  0.00     0.002 A 
BRANCH  80  84
ATOM     84  N   UNL A   1      32.213  24.634  23.253  1.00  0.00    -0.279 N 
ATOM     85  H   UNL A   1      31.432  24.048  23.128  1.00  0.00     0.180 HD
BRANCH  84  86
ATOM     86  S   UNL A   1      32.127  26.167  22.598  1.00  0.00     0.262 S 
ATOM     87  O   UNL A   1      33.178  26.964  23.198  1.00  0.00    -0.201 OA
ATOM     88  O   UNL A   1      32.026  25.997  21.168  1.00  0.00    -0.201 OA
BRANCH  86  89
ATOM     89  C   UNL A   1      30.568  26.831  23.140  1.00  0.00     0.094 A 
ATOM     90  C   UNL A   1      29.690  25.974  23.816  1.00  0.00     0.023 A 
ATOM     91  C   UNL A   1      30.154  28.102  22.729  1.00  0.00     0.107 A 
ATOM     92  C   UNL A   1      28.371  26.368  24.042  1.00  0.00     0.008 A 
ATOM     93  C   UNL A   1      28.811  28.454  22.899  1.00  0.00     0.270 A 
ATOM     94  C   UNL A   1      27.919  27.597  23.559  1.00  0.00     0.086 A 
BRANCH  93  95
ATOM     95  N   UNL A   1      28.308  29.681  22.273  1.00  0.00     0.062 N 
ATOM     96  O   UNL A   1      27.280  30.186  22.746  1.00  0.00    -0.258 OA
ATOM     97  O   UNL A   1      28.921  30.116  21.288  1.00  0.00    -0.258 OA
ENDBRANCH  93  95
ENDBRANCH  86  89
ENDBRANCH  84  86
ENDBRANCH  80  84
ENDBRANCH  75  78
ENDBRANCH  73  74
ENDBRANCH   1  73
TORSDOF 15
ENDMDL
MODEL 3
REMARK VINA RESULT:     -12.6      1.461      3.569
REMARK SMILES O=C(NCCCCNC(=O)c1ccccc1NS(=O)(=O)c1cccc([N+](=O)[O-])c1)c1ccc(-c2c3nc(c(-c4c(F)c(F)c(F)c(F)c4F)c4ccc([nH]4)c(-c4c(F)c(F)c(F)c(F)c4F)c4nc(c(-c5c(F)c(F)c(F)c(F)c5F)c5ccc2[nH]5)C=C4)C=C3)cc1
REMARK SMILES IDX 6 1 5 2 4 3 3 4 1 5 2 6 30 8 31 9 92 10 32 11 91 12 33 13
REMARK SMILES IDX 34 14 35 15 85 16 36 17 90 18 84 19 86 20 37 21 89 22 83 23
REMARK SMILES IDX 82 24 38 26 70 27 50 28 69 29 51 30 54 31 68 32 87 33 52 34
REMARK SMILES IDX 53 35 67 37 88 38 55 39 39 40 40 41 48 42 41 43 42 44 46 45
REMARK SMILES IDX 49 46 43 47 44 48 47 49 45 50 71 51 72 52 80 53 73 54 74 55
REMARK SMILES IDX 78 56 81 57 75 58 76 59 79 60 77 61 56 62 57 63 65 64 58 65
REMARK SMILES IDX 59 66 63 67 66 68 60 69 61 70 64 71 62 72 7 73 8 74 9 75
REMARK SMILES IDX 10 77 11 78 12 79 16 80 13 81 15 82 14 83 17 84 18 86 19 87
REMARK SMILES IDX 20 88 21 89 22 90 29 91 23 92 25 93 24 94 26 95 27 96 28 97
REMARK H PARENT 3 7 86 25 54 36 8 76 17 85
REMARK Flexibility Score: inf
ROOT
ATOM      1  C   UNL A   1      34.038  28.214  24.203  1.00  0.00     0.023 C 
ENDROOT
BRANCH   1   2
ATOM      2  C   UNL A   1      33.105  29.365  24.564  1.00  0.00     0.023 C 
BRANCH   2   3
ATOM      3  C   UNL A   1      32.722  29.469  26.036  1.00  0.00     0.116 C 
BRANCH   3   4
ATOM      4  N   UNL A   1      32.445  30.829  26.474  1.00  0.00    -0.352 N 
ATOM      5  O   UNL A   1      32.752  32.761  27.602  1.00  0.00    -0.269 OA
ATOM      6  C   UNL A   1      33.198  31.672  27.258  1.00  0.00     0.251 C 
ATOM      7  H   UNL A   1      31.589  31.202  26.163  1.00  0.00     0.163 HD
BRANCH   6   8
ATOM      8  C   UNL A   1      34.532  31.244  27.732  1.00  0.00     0.039 A 
ATOM      9  C   UNL A   1      34.802  29.902  28.007  1.00  0.00     0.014 A 
ATOM     10  C   UNL A   1      35.518  32.215  27.933  1.00  0.00     0.014 A 
ATOM     11  C   UNL A   1      35.983  29.560  28.656  1.00  0.00     0.010 A 
ATOM     12  C   UNL A   1      36.738  31.855  28.510  1.00  0.00     0.010 A 
ATOM     13  C   UNL A   1      36.956  30.534  28.930  1.00  0.00    -0.014 A 
BRANCH  13  14
ATOM     14  C   UNL A   1      38.181  30.147  29.673  1.00  0.00     0.031 A 
ATOM     15  C   UNL A   1      38.379  30.570  31.104  1.00  0.00     0.074 A 
ATOM     16  C   UNL A   1      39.089  29.355  29.074  1.00  0.00     0.049 A 
ATOM     17  N   UNL A   1      39.356  30.270  31.925  1.00  0.00    -0.248 NA
ATOM     18  C   UNL A   1      37.356  31.450  31.690  1.00  0.00     0.031 C 
ATOM     19  C   UNL A   1      39.012  28.886  27.690  1.00  0.00     0.029 A 
ATOM     20  N   UNL A   1      40.233  28.777  29.562  1.00  0.00    -0.354 N 
ATOM     21  C   UNL A   1      39.083  30.949  33.105  1.00  0.00     0.074 A 
ATOM     22  C   UNL A   1      37.855  31.684  32.896  1.00  0.00     0.031 C 
ATOM     23  C   UNL A   1      40.027  28.040  27.459  1.00  0.00     0.029 A 
ATOM     24  C   UNL A   1      40.845  27.941  28.662  1.00  0.00     0.049 A 
ATOM     25  H   UNL A   1      40.581  28.946  30.467  1.00  0.00     0.167 HD
ATOM     26  C   UNL A   1      39.791  30.955  34.260  1.00  0.00     0.037 A 
ATOM     27  C   UNL A   1      41.940  27.169  28.797  1.00  0.00     0.037 A 
ATOM     28  C   UNL A   1      40.985  30.186  34.490  1.00  0.00     0.049 A 
ATOM     29  C   UNL A   1      42.680  27.160  30.102  1.00  0.00     0.074 A 
ATOM     30  C   UNL A   1      41.749  30.098  35.641  1.00  0.00     0.029 A 
ATOM     31  N   UNL A   1      41.583  29.363  33.549  1.00  0.00    -0.354 N 
ATOM     32  N   UNL A   1      42.403  27.797  31.212  1.00  0.00    -0.248 NA
ATOM     33  C   UNL A   1      43.889  26.327  30.168  1.00  0.00     0.031 C 
ATOM     34  C   UNL A   1      42.822  29.234  35.390  1.00  0.00     0.029 A 
ATOM     35  C   UNL A   1      42.712  28.768  34.090  1.00  0.00     0.049 A 
ATOM     36  H   UNL A   1      41.256  29.222  32.631  1.00  0.00     0.167 HD
ATOM     37  C   UNL A   1      43.396  27.440  32.111  1.00  0.00     0.074 A 
ATOM     38  C   UNL A   1      44.273  26.515  31.424  1.00  0.00     0.031 C 
ATOM     39  C   UNL A   1      43.569  27.848  33.391  1.00  0.00     0.037 A 
BRANCH  26  40
ATOM     40  C   UNL A   1      39.299  31.835  35.367  1.00  0.00     0.064 A 
ATOM     41  C   UNL A   1      38.452  31.349  36.373  1.00  0.00     0.173 A 
ATOM     42  C   UNL A   1      39.713  33.174  35.443  1.00  0.00     0.173 A 
ATOM     43  F   UNL A   1      38.018  30.079  36.334  1.00  0.00    -0.203 F 
ATOM     44  C   UNL A   1      38.025  32.176  37.409  1.00  0.00     0.198 A 
ATOM     45  C   UNL A   1      39.298  33.993  36.490  1.00  0.00     0.198 A 
ATOM     46  F   UNL A   1      40.525  33.684  34.505  1.00  0.00    -0.203 F 
ATOM     47  F   UNL A   1      37.192  31.700  38.344  1.00  0.00    -0.200 F 
ATOM     48  C   UNL A   1      38.453  33.495  37.470  1.00  0.00     0.200 A 
ATOM     49  F   UNL A   1      39.716  35.265  36.550  1.00  0.00    -0.200 F 
ATOM     50  F   UNL A   1      38.043  34.287  38.470  1.00  0.00    -0.200 F 
ENDBRANCH  26  40
BRANCH  27  51
ATOM     51  C   UNL A   1      42.370  26.313  27.667  1.00  0.00     0.064 A 
ATOM     52  C   UNL A   1      43.359  26.752  26.776  1.00  0.00     0.173 A 
ATOM     53  C   UNL A   1      41.831  25.034  27.475  1.00  0.00     0.173 A 
ATOM     54  F   UNL A   1      43.888  27.977  26.915  1.00  0.00    -0.203 F 
ATOM     55  C   UNL A   1      43.794  25.941  25.732  1.00  0.00     0.198 A 
ATOM     56  C   UNL A   1      42.280  24.216  26.441  1.00  0.00     0.198 A 
ATOM     57  F   UNL A   1      40.886  24.572  28.305  1.00  0.00    -0.203 F 
ATOM     58  F   UNL A   1      44.726  26.389  24.881  1.00  0.00    -0.200 F 
ATOM     59  C   UNL A   1      43.259  24.671  25.569  1.00  0.00     0.200 A 
ATOM     60  F   UNL A   1      41.770  22.987  26.293  1.00  0.00    -0.200 F 
ATOM     61  F   UNL A   1      43.685  23.886  24.570  1.00  0.00    -0.200 F 
ENDBRANCH  27  51
BRANCH  39  62
ATOM     62  C   UNL A   1      44.743  27.287  34.130  1.00  0.00     0.064 A 
ATOM     63  C   UNL A   1      45.977  27.951  34.142  1.00  0.00     0.173 A 
ATOM     64  C   UNL A   1      44.626  26.090  34.850  1.00  0.00     0.173 A 
ATOM     65  F   UNL A   1      46.138  29.091  33.453  1.00  0.00    -0.203 F 
ATOM     66  C   UNL A   1      47.062  27.426  34.838  1.00  0.00     0.198 A 
ATOM     67  C   UNL A   1      45.708  25.576  35.557  1.00  0.00     0.198 A 
ATOM     68  F   UNL A   1      43.464  25.422  34.865  1.00  0.00    -0.203 F 
ATOM     69  F   UNL A   1      48.243  28.057  34.811  1.00  0.00    -0.200 F 
ATOM     70  C   UNL A   1      46.925  26.241  35.548  1.00  0.00     0.200 A 
ATOM     71  F   UNL A   1      45.575  24.433  36.245  1.00  0.00    -0.200 F 
ATOM     72  F   UNL A   1      47.971  25.735  36.216  1.00  0.00    -0.200 F 
ENDBRANCH  39  62
ENDBRANCH  13  14
ENDBRANCH   6   8
ENDBRANCH   3   4
ENDBRANCH   2   3
ENDBRANCH   1   2
BRANCH   1  73
ATOM     73  C   UNL A   1      33.526  26.821  24.550  1.00  0.00     0.116 C 
BRANCH  73  74
ATOM     74  N   UNL A   1      33.320  25.964  23.387  1.00  0.00    -0.352 N 
ATOM     75  C   UNL A   1      32.167  25.791  22.656  1.00  0.00     0.253 C 
ATOM     76  H   UNL A   1      34.101  25.446  23.088  1.00  0.00     0.163 HD
ATOM     77  O   UNL A   1      32.140  25.086  21.655  1.00  0.00    -0.269 OA
BRANCH  75  78
ATOM     78  C   UNL A   1      30.940  26.454  23.130  1.00  0.00     0.063 A 
ATOM     79  C   UNL A   1      30.704  27.750  22.659  1.00  0.00     0.016 A 
ATOM     80  C   UNL A   1      29.980  25.752  23.875  1.00  0.00     0.062 A 
ATOM     81  C   UNL A   1      29.463  28.339  22.871  1.00  0.00     0.001 A 
ATOM     82  C   UNL A   1      28.712  26.325  23.992  1.00  0.00     0.027 A 
ATOM     83  C   UNL A   1      28.457  27.611  23.502  1.00  0.00     0.002 A 
BRANCH  80  84
ATOM     84  N   UNL A   1      30.364  24.562  24.578  1.00  0.00    -0.279 N 
ATOM     85  H   UNL A   1      30.366  23.720  24.068  1.00  0.00     0.180 HD
BRANCH  84  86
ATOM     86  S   UNL A   1      30.808  24.480  26.185  1.00  0.00     0.262 S 
ATOM     87  O   UNL A   1      31.280  25.791  26.581  1.00  0.00    -0.201 OA
ATOM     88  O   UNL A   1      29.725  23.822  26.877  1.00  0.00    -0.201 OA
BRANCH  86  89
ATOM     89  C   UNL A   1      32.194  23.366  26.240  1.00  0.00     0.094 A 
ATOM     90  C   UNL A   1      32.598  22.884  27.491  1.00  0.00     0.023 A 
ATOM     91  C   UNL A   1      32.971  23.141  25.099  1.00  0.00     0.107 A 
ATOM     92  C   UNL A   1      33.815  22.213  27.617  1.00  0.00     0.008 A 
ATOM     93  C   UNL A   1      34.221  22.530  25.253  1.00  0.00     0.270 A 
ATOM     94  C   UNL A   1      34.644  22.059  26.504  1.00  0.00     0.086 A 
BRANCH  93  95
ATOM     95  N   UNL A   1      35.144  22.491  24.114  1.00  0.00     0.062 N 
ATOM     96  O   UNL A   1      36.213  21.883  24.263  1.00  0.00    -0.258 OA
ATOM     97  O   UNL A   1      34.813  23.099  23.087  1.00  0.00    -0.258 OA
ENDBRANCH  93  95
ENDBRANCH  86  89
ENDBRANCH  84  86
ENDBRANCH  80  84
ENDBRANCH  75  78
ENDBRANCH  73  74
ENDBRANCH   1  73
TORSDOF 15
ENDMDL
