MODEL 1
REMARK VINA RESULT:     -13.0      0.000      0.000
REMARK SMILES CN(c1ccc(C(=O)NCCCCNC(=O)c2ccc(-c3c4nc(c(-c5c(F)c(F)c(F)c(F)c5F)c5ccc([nH]5)c(-c5c(F)c(F)c(F)c(F)c5F)c5nc(c(-c6c(F)c(F)c(F)c(F)c6F)c6ccc3[nH]6)C=C5)C=C4)cc2)c(F)c1F)[C@H]1C[C@H]2CC[C@@H](C1)[NH2+]2
REMARK SMILES IDX 11 1 10 2 9 3 7 4 8 5 6 7 3 8 4 9 82 10 5 11 80 12 83 13
REMARK SMILES IDX 81 14 2 15 1 16 84 17 85 18 90 19 86 20 89 21 87 22 91 23
REMARK SMILES IDX 88 24 12 27 13 28 14 29 15 30 16 32 17 33 18 34 79 35 19 36
REMARK SMILES IDX 78 37 20 38 21 39 22 40 72 41 23 42 77 43 71 44 73 45 24 46
REMARK SMILES IDX 76 47 70 48 69 49 25 51 57 52 37 53 56 54 38 55 41 56 55 57
REMARK SMILES IDX 74 58 39 59 40 60 54 62 75 63 42 64 26 65 27 66 35 67 28 68
REMARK SMILES IDX 29 69 33 70 36 71 30 72 31 73 34 74 32 75 58 76 59 77 67 78
REMARK SMILES IDX 60 79 61 80 65 81 68 82 62 83 63 84 66 85 64 86 43 87 44 88
REMARK SMILES IDX 52 89 45 90 46 91 50 92 53 93 47 94 48 95 51 96 49 97
REMARK H PARENT 9 6 91 25 91 26 14 31 73 50 41 61
REMARK Flexibility Score: inf
ROOT
ATOM      1  C   UNL A   1      33.778  28.355  24.546  1.00  0.00     0.023 C 
ENDROOT
BRANCH   1   2
ATOM      2  C   UNL A   1      33.645  27.675  23.189  1.00  0.00     0.116 C 
BRANCH   2   3
ATOM      3  N   UNL A   1      32.439  27.953  22.406  1.00  0.00    -0.352 N 
ATOM      4  C   UNL A   1      31.169  27.379  22.465  1.00  0.00     0.254 C 
ATOM      5  O   UNL A   1      30.281  27.815  21.735  1.00  0.00    -0.269 OA
ATOM      6  H   UNL A   1      32.540  28.660  21.728  1.00  0.00     0.163 HD
BRANCH   4   7
ATOM      7  C   UNL A   1      30.874  26.187  23.306  1.00  0.00     0.078 A 
ATOM      8  C   UNL A   1      31.050  23.956  25.096  1.00  0.00     0.076 A 
ATOM      9  C   UNL A   1      30.994  23.768  23.709  1.00  0.00     0.030 A 
ATOM     10  C   UNL A   1      30.990  25.284  25.471  1.00  0.00     0.182 A 
ATOM     11  C   UNL A   1      30.985  24.876  22.816  1.00  0.00     0.019 A 
ATOM     12  C   UNL A   1      30.640  26.326  24.643  1.00  0.00     0.173 A 
ATOM     13  F   UNL A   1      31.617  25.632  26.589  1.00  0.00    -0.201 F 
ATOM     14  F   UNL A   1      30.254  27.481  25.198  1.00  0.00    -0.203 F 
BRANCH   8  15
ATOM     15  N   UNL A   1      31.220  22.957  26.042  1.00  0.00    -0.369 N 
ATOM     16  C   UNL A   1      30.074  22.596  26.875  1.00  0.00     0.144 C 
BRANCH  15  17
ATOM     17  C   UNL A   1      32.514  22.227  26.335  1.00  0.00     0.093 C 
ATOM     18  C   UNL A   1      32.967  21.252  25.223  1.00  0.00     0.090 C 
ATOM     19  C   UNL A   1      33.656  23.029  27.001  1.00  0.00     0.090 C 
ATOM     20  C   UNL A   1      34.434  21.369  24.764  1.00  0.00     0.184 C 
ATOM     21  C   UNL A   1      35.033  22.947  26.308  1.00  0.00     0.184 C 
ATOM     22  C   UNL A   1      34.744  22.605  23.932  1.00  0.00     0.071 C 
ATOM     23  N   UNL A   1      35.317  21.563  25.917  1.00  0.00    -0.341 N 
ATOM     24  C   UNL A   1      35.148  23.660  24.966  1.00  0.00     0.071 C 
ATOM     25  H   UNL A   1      36.297  21.449  25.654  1.00  0.00     0.346 HD
ATOM     26  H   UNL A   1      35.159  20.889  26.666  1.00  0.00     0.346 HD
ENDBRANCH  15  17
ENDBRANCH   8  15
ENDBRANCH   4   7
ENDBRANCH   2   3
ENDBRANCH   1   2
BRANCH   1  27
ATOM     27  C   UNL A   1      32.896  29.570  24.798  1.00  0.00     0.023 C 
BRANCH  27  28
ATOM     28  C   UNL A   1      32.449  29.811  26.238  1.00  0.00     0.116 C 
BRANCH  28  29
ATOM     29  N   UNL A   1      32.344  31.214  26.613  1.00  0.00    -0.352 N 
ATOM     30  C   UNL A   1      33.206  32.023  27.329  1.00  0.00     0.251 C 
ATOM     31  H   UNL A   1      31.522  31.661  26.305  1.00  0.00     0.163 HD
ATOM     32  O   UNL A   1      32.886  33.171  27.586  1.00  0.00    -0.269 OA
BRANCH  30  33
ATOM     33  C   UNL A   1      34.499  31.495  27.835  1.00  0.00     0.039 A 
ATOM     34  C   UNL A   1      35.546  32.396  28.055  1.00  0.00     0.014 A 
ATOM     35  C   UNL A   1      34.693  30.139  28.099  1.00  0.00     0.014 A 
ATOM     36  C   UNL A   1      36.739  31.952  28.634  1.00  0.00     0.010 A 
ATOM     37  C   UNL A   1      35.844  29.713  28.764  1.00  0.00     0.010 A 
ATOM     38  C   UNL A   1      36.877  30.617  29.050  1.00  0.00    -0.014 A 
BRANCH  38  39
ATOM     39  C   UNL A   1      38.079  30.174  29.810  1.00  0.00     0.031 A 
ATOM     40  C   UNL A   1      38.322  30.655  31.214  1.00  0.00     0.074 A 
ATOM     41  C   UNL A   1      38.972  29.355  29.217  1.00  0.00     0.049 A 
ATOM     42  N   UNL A   1      39.308  30.363  32.025  1.00  0.00    -0.248 NA
ATOM     43  C   UNL A   1      37.346  31.600  31.779  1.00  0.00     0.031 C 
ATOM     44  C   UNL A   1      38.878  28.861  27.842  1.00  0.00     0.029 A 
ATOM     45  N   UNL A   1      40.128  28.784  29.692  1.00  0.00    -0.354 N 
ATOM     46  C   UNL A   1      39.066  31.080  33.190  1.00  0.00     0.074 A 
ATOM     47  C   UNL A   1      37.880  31.874  32.960  1.00  0.00     0.031 C 
ATOM     48  C   UNL A   1      39.895  28.018  27.604  1.00  0.00     0.029 A 
ATOM     49  C   UNL A   1      40.740  27.941  28.792  1.00  0.00     0.049 A 
ATOM     50  H   UNL A   1      40.485  28.960  30.593  1.00  0.00     0.167 HD
ATOM     51  C   UNL A   1      39.749  31.048  34.358  1.00  0.00     0.037 A 
ATOM     52  C   UNL A   1      41.848  27.184  28.913  1.00  0.00     0.037 A 
ATOM     53  C   UNL A   1      40.916  30.241  34.593  1.00  0.00     0.049 A 
ATOM     54  C   UNL A   1      42.606  27.191  30.214  1.00  0.00     0.074 A 
ATOM     55  C   UNL A   1      41.657  30.119  35.756  1.00  0.00     0.029 A 
ATOM     56  N   UNL A   1      41.508  29.413  33.651  1.00  0.00    -0.354 N 
ATOM     57  N   UNL A   1      42.328  27.827  31.325  1.00  0.00    -0.248 NA
ATOM     58  C   UNL A   1      43.829  26.378  30.281  1.00  0.00     0.031 C 
ATOM     59  C   UNL A   1      42.723  29.254  35.505  1.00  0.00     0.029 A 
ATOM     60  C   UNL A   1      42.615  28.792  34.204  1.00  0.00     0.049 A 
ATOM     61  H   UNL A   1      41.189  29.287  32.729  1.00  0.00     0.167 HD
ATOM     62  C   UNL A   1      43.314  27.463  32.231  1.00  0.00     0.074 A 
ATOM     63  C   UNL A   1      44.199  26.548  31.543  1.00  0.00     0.031 C 
ATOM     64  C   UNL A   1      43.468  27.856  33.518  1.00  0.00     0.037 A 
BRANCH  51  65
ATOM     65  C   UNL A   1      39.238  31.881  35.499  1.00  0.00     0.064 A 
ATOM     66  C   UNL A   1      39.703  33.189  35.697  1.00  0.00     0.173 A 
ATOM     67  C   UNL A   1      38.369  31.339  36.457  1.00  0.00     0.173 A 
ATOM     68  F   UNL A   1      40.544  33.750  34.815  1.00  0.00    -0.203 F 
ATOM     69  C   UNL A   1      39.331  33.918  36.824  1.00  0.00     0.198 A 
ATOM     70  C   UNL A   1      37.976  32.081  37.568  1.00  0.00     0.198 A 
ATOM     71  F   UNL A   1      37.891  30.095  36.310  1.00  0.00    -0.203 F 
ATOM     72  F   UNL A   1      39.820  35.150  37.016  1.00  0.00    -0.200 F 
ATOM     73  C   UNL A   1      38.466  33.364  37.757  1.00  0.00     0.200 A 
ATOM     74  F   UNL A   1      37.125  31.552  38.458  1.00  0.00    -0.200 F 
ATOM     75  F   UNL A   1      38.109  34.066  38.841  1.00  0.00    -0.200 F 
ENDBRANCH  51  65
BRANCH  52  76
ATOM     76  C   UNL A   1      42.274  26.309  27.787  1.00  0.00     0.064 A 
ATOM     77  C   UNL A   1      41.724  25.033  27.597  1.00  0.00     0.173 A 
ATOM     78  C   UNL A   1      43.261  26.734  26.885  1.00  0.00     0.173 A 
ATOM     79  F   UNL A   1      40.779  24.577  28.431  1.00  0.00    -0.203 F 
ATOM     80  C   UNL A   1      42.160  24.207  26.561  1.00  0.00     0.198 A 
ATOM     81  C   UNL A   1      43.676  25.919  25.833  1.00  0.00     0.198 A 
ATOM     82  F   UNL A   1      43.804  27.953  27.011  1.00  0.00    -0.203 F 
ATOM     83  F   UNL A   1      41.643  22.978  26.424  1.00  0.00    -0.200 F 
ATOM     84  C   UNL A   1      43.131  24.653  25.677  1.00  0.00     0.200 A 
ATOM     85  F   UNL A   1      44.595  26.363  24.966  1.00  0.00    -0.200 F 
ATOM     86  F   UNL A   1      43.538  23.865  24.673  1.00  0.00    -0.200 F 
ENDBRANCH  52  76
BRANCH  64  87
ATOM     87  C   UNL A   1      44.607  27.279  34.305  1.00  0.00     0.064 A 
ATOM     88  C   UNL A   1      44.423  26.104  35.052  1.00  0.00     0.173 A 
ATOM     89  C   UNL A   1      45.825  27.959  34.434  1.00  0.00     0.173 A 
ATOM     90  F   UNL A   1      43.270  25.425  34.969  1.00  0.00    -0.203 F 
ATOM     91  C   UNL A   1      45.406  25.652  35.926  1.00  0.00     0.198 A 
ATOM     92  C   UNL A   1      46.818  27.487  35.289  1.00  0.00     0.198 A 
ATOM     93  F   UNL A   1      46.051  29.080  33.733  1.00  0.00    -0.203 F 
ATOM     94  F   UNL A   1      45.188  24.558  36.670  1.00  0.00    -0.200 F 
ATOM     95  C   UNL A   1      46.601  26.343  36.045  1.00  0.00     0.200 A 
ATOM     96  F   UNL A   1      47.979  28.147  35.392  1.00  0.00    -0.200 F 
ATOM     97  F   UNL A   1      47.545  25.912  36.895  1.00  0.00    -0.200 F 
ENDBRANCH  64  87
ENDBRANCH  38  39
ENDBRANCH  30  33
ENDBRANCH  28  29
ENDBRANCH  27  28
ENDBRANCH   1  27
TORSDOF 13
ENDMDL
MODEL 2
REMARK VINA RESULT:     -13.0      1.838      2.928
REMARK SMILES CN(c1ccc(C(=O)NCCCCNC(=O)c2ccc(-c3c4nc(c(-c5c(F)c(F)c(F)c(F)c5F)c5ccc([nH]5)c(-c5c(F)c(F)c(F)c(F)c5F)c5nc(c(-c6c(F)c(F)c(F)c(F)c6F)c6ccc3[nH]6)C=C5)C=C4)cc2)c(F)c1F)[C@H]1C[C@H]2CC[C@@H](C1)[NH2+]2
REMARK SMILES IDX 11 1 10 2 9 3 7 4 8 5 6 7 3 8 4 9 82 10 5 11 80 12 83 13
REMARK SMILES IDX 81 14 2 15 1 16 84 17 85 18 90 19 86 20 89 21 87 22 91 23
REMARK SMILES IDX 88 24 12 27 13 28 14 29 15 30 16 32 17 33 18 34 79 35 19 36
REMARK SMILES IDX 78 37 20 38 21 39 22 40 72 41 23 42 77 43 71 44 73 45 24 46
REMARK SMILES IDX 76 47 70 48 69 49 25 51 57 52 37 53 56 54 38 55 41 56 55 57
REMARK SMILES IDX 74 58 39 59 40 60 54 62 75 63 42 64 26 65 27 66 35 67 28 68
REMARK SMILES IDX 29 69 33 70 36 71 30 72 31 73 34 74 32 75 58 76 59 77 67 78
REMARK SMILES IDX 60 79 61 80 65 81 68 82 62 83 63 84 66 85 64 86 43 87 44 88
REMARK SMILES IDX 52 89 45 90 46 91 50 92 53 93 47 94 48 95 51 96 49 97
REMARK H PARENT 9 6 91 25 91 26 14 31 73 50 41 61
REMARK Flexibility Score: inf
ROOT
ATOM      1  C   UNL A   1      31.518  30.535  26.468  1.00  0.00     0.023 C 
ENDROOT
BRANCH   1   2
ATOM      2  C   UNL A   1      32.185  29.971  25.219  1.00  0.00     0.116 C 
BRANCH   2   3
ATOM      3  N   UNL A   1      31.329  29.677  24.067  1.00  0.00    -0.352 N 
ATOM      4  C   UNL A   1      30.909  28.455  23.541  1.00  0.00     0.254 C 
ATOM      5  O   UNL A   1      30.136  28.449  22.586  1.00  0.00    -0.269 OA
ATOM      6  H   UNL A   1      30.997  30.469  23.586  1.00  0.00     0.163 HD
BRANCH   4   7
ATOM      7  C   UNL A   1      31.441  27.154  24.030  1.00  0.00     0.078 A 
ATOM      8  C   UNL A   1      32.256  24.417  24.271  1.00  0.00     0.076 A 
ATOM      9  C   UNL A   1      31.086  24.881  24.886  1.00  0.00     0.030 A 
ATOM     10  C   UNL A   1      32.943  25.402  23.588  1.00  0.00     0.182 A 
ATOM     11  C   UNL A   1      30.639  26.219  24.703  1.00  0.00     0.019 A 
ATOM     12  C   UNL A   1      32.702  26.753  23.693  1.00  0.00     0.173 A 
ATOM     13  F   UNL A   1      33.649  25.030  22.527  1.00  0.00    -0.201 F 
ATOM     14  F   UNL A   1      33.653  27.604  23.293  1.00  0.00    -0.203 F 
BRANCH   8  15
ATOM     15  N   UNL A   1      32.696  23.102  24.255  1.00  0.00    -0.369 N 
ATOM     16  C   UNL A   1      32.115  22.194  23.268  1.00  0.00     0.144 C 
BRANCH  15  17
ATOM     17  C   UNL A   1      33.700  22.494  25.211  1.00  0.00     0.093 C 
ATOM     18  C   UNL A   1      34.513  21.316  24.625  1.00  0.00     0.090 C 
ATOM     19  C   UNL A   1      34.509  23.457  26.111  1.00  0.00     0.090 C 
ATOM     20  C   UNL A   1      36.042  21.377  24.812  1.00  0.00     0.184 C 
ATOM     21  C   UNL A   1      36.041  23.270  26.097  1.00  0.00     0.184 C 
ATOM     22  C   UNL A   1      36.749  22.412  23.950  1.00  0.00     0.071 C 
ATOM     23  N   UNL A   1      36.374  21.843  26.162  1.00  0.00    -0.341 N 
ATOM     24  C   UNL A   1      36.751  23.678  24.811  1.00  0.00     0.071 C 
ATOM     25  H   UNL A   1      37.364  21.705  26.365  1.00  0.00     0.346 HD
ATOM     26  H   UNL A   1      35.876  21.343  26.897  1.00  0.00     0.346 HD
ENDBRANCH  15  17
ENDBRANCH   8  15
ENDBRANCH   4   7
ENDBRANCH   2   3
ENDBRANCH   1   2
BRANCH   1  27
ATOM     27  C   UNL A   1      31.436  32.051  26.582  1.00  0.00     0.023 C 
BRANCH  27  28
ATOM     28  C   UNL A   1      32.607  32.756  27.265  1.00  0.00     0.116 C 
BRANCH  28  29
ATOM     29  N   UNL A   1      32.333  34.126  27.676  1.00  0.00    -0.352 N 
ATOM     30  C   UNL A   1      32.991  34.947  28.572  1.00  0.00     0.251 C 
ATOM     31  H   UNL A   1      31.548  34.534  27.244  1.00  0.00     0.163 HD
ATOM     32  O   UNL A   1      32.546  36.055  28.818  1.00  0.00    -0.269 OA
BRANCH  30  33
ATOM     33  C   UNL A   1      34.209  34.475  29.281  1.00  0.00     0.039 A 
ATOM     34  C   UNL A   1      34.055  33.835  30.514  1.00  0.00     0.014 A 
ATOM     35  C   UNL A   1      35.488  34.649  28.752  1.00  0.00     0.014 A 
ATOM     36  C   UNL A   1      35.167  33.281  31.157  1.00  0.00     0.010 A 
ATOM     37  C   UNL A   1      36.582  34.016  29.343  1.00  0.00     0.010 A 
ATOM     38  C   UNL A   1      36.433  33.314  30.547  1.00  0.00    -0.014 A 
BRANCH  38  39
ATOM     39  C   UNL A   1      37.588  32.590  31.147  1.00  0.00     0.031 A 
ATOM     40  C   UNL A   1      38.085  32.939  32.523  1.00  0.00     0.074 A 
ATOM     41  C   UNL A   1      38.211  31.629  30.433  1.00  0.00     0.049 A 
ATOM     42  N   UNL A   1      39.069  32.405  33.203  1.00  0.00    -0.248 NA
ATOM     43  C   UNL A   1      37.406  34.042  33.222  1.00  0.00     0.031 C 
ATOM     44  C   UNL A   1      37.858  31.234  29.068  1.00  0.00     0.029 A 
ATOM     45  N   UNL A   1      39.261  30.803  30.752  1.00  0.00    -0.354 N 
ATOM     46  C   UNL A   1      39.120  33.100  34.405  1.00  0.00     0.074 A 
ATOM     47  C   UNL A   1      38.117  34.139  34.338  1.00  0.00     0.031 C 
ATOM     48  C   UNL A   1      38.635  30.206  28.691  1.00  0.00     0.029 A 
ATOM     49  C   UNL A   1      39.571  29.894  29.767  1.00  0.00     0.049 A 
ATOM     50  H   UNL A   1      39.746  30.856  31.608  1.00  0.00     0.167 HD
ATOM     51  C   UNL A   1      39.906  32.868  35.481  1.00  0.00     0.037 A 
ATOM     52  C   UNL A   1      40.495  28.914  29.736  1.00  0.00     0.037 A 
ATOM     53  C   UNL A   1      40.889  31.820  35.557  1.00  0.00     0.049 A 
ATOM     54  C   UNL A   1      41.378  28.697  30.937  1.00  0.00     0.074 A 
ATOM     55  C   UNL A   1      41.712  31.488  36.619  1.00  0.00     0.029 A 
ATOM     56  N   UNL A   1      41.179  30.932  34.531  1.00  0.00    -0.354 N 
ATOM     57  N   UNL A   1      41.370  29.323  32.088  1.00  0.00    -0.248 NA
ATOM     58  C   UNL A   1      42.395  27.640  30.838  1.00  0.00     0.031 C 
ATOM     59  C   UNL A   1      42.530  30.429  36.222  1.00  0.00     0.029 A 
ATOM     60  C   UNL A   1      42.180  30.064  34.933  1.00  0.00     0.049 A 
ATOM     61  H   UNL A   1      40.739  30.922  33.651  1.00  0.00     0.167 HD
ATOM     62  C   UNL A   1      42.350  28.715  32.860  1.00  0.00     0.074 A 
ATOM     63  C   UNL A   1      42.932  27.667  32.050  1.00  0.00     0.031 C 
ATOM     64  C   UNL A   1      42.728  29.003  34.128  1.00  0.00     0.037 A 
BRANCH  51  65
ATOM     65  C   UNL A   1      39.720  33.733  36.695  1.00  0.00     0.064 A 
ATOM     66  C   UNL A   1      38.867  33.336  37.735  1.00  0.00     0.173 A 
ATOM     67  C   UNL A   1      40.305  35.005  36.773  1.00  0.00     0.173 A 
ATOM     68  F   UNL A   1      38.273  32.134  37.704  1.00  0.00    -0.203 F 
ATOM     69  C   UNL A   1      38.591  34.191  38.800  1.00  0.00     0.198 A 
ATOM     70  C   UNL A   1      40.050  35.845  37.854  1.00  0.00     0.198 A 
ATOM     71  F   UNL A   1      41.134  35.429  35.808  1.00  0.00    -0.203 F 
ATOM     72  F   UNL A   1      37.739  33.809  39.761  1.00  0.00    -0.200 F 
ATOM     73  C   UNL A   1      39.185  35.443  38.859  1.00  0.00     0.200 A 
ATOM     74  F   UNL A   1      40.640  37.047  37.919  1.00  0.00    -0.200 F 
ATOM     75  F   UNL A   1      38.919  36.264  39.884  1.00  0.00    -0.200 F 
ENDBRANCH  51  65
BRANCH  52  76
ATOM     76  C   UNL A   1      40.592  28.025  28.547  1.00  0.00     0.064 A 
ATOM     77  C   UNL A   1      41.357  28.374  27.425  1.00  0.00     0.173 A 
ATOM     78  C   UNL A   1      39.897  26.807  28.507  1.00  0.00     0.173 A 
ATOM     79  F   UNL A   1      42.039  29.529  27.410  1.00  0.00    -0.203 F 
ATOM     80  C   UNL A   1      41.408  27.550  26.301  1.00  0.00     0.198 A 
ATOM     81  C   UNL A   1      39.971  25.970  27.395  1.00  0.00     0.198 A 
ATOM     82  F   UNL A   1      39.168  26.417  29.562  1.00  0.00    -0.203 F 
ATOM     83  F   UNL A   1      42.118  27.926  25.229  1.00  0.00    -0.200 F 
ATOM     84  C   UNL A   1      40.720  26.346  26.290  1.00  0.00     0.200 A 
ATOM     85  F   UNL A   1      39.326  24.795  27.398  1.00  0.00    -0.200 F 
ATOM     86  F   UNL A   1      40.781  25.548  25.215  1.00  0.00    -0.200 F 
ENDBRANCH  52  76
BRANCH  64  87
ATOM     87  C   UNL A   1      43.795  28.160  34.760  1.00  0.00     0.064 A 
ATOM     88  C   UNL A   1      43.446  27.017  35.497  1.00  0.00     0.173 A 
ATOM     89  C   UNL A   1      45.139  28.558  34.757  1.00  0.00     0.173 A 
ATOM     90  F   UNL A   1      42.171  26.603  35.538  1.00  0.00    -0.203 F 
ATOM     91  C   UNL A   1      44.400  26.324  36.235  1.00  0.00     0.198 A 
ATOM     92  C   UNL A   1      46.095  27.844  35.475  1.00  0.00     0.198 A 
ATOM     93  F   UNL A   1      45.522  29.637  34.058  1.00  0.00    -0.203 F 
ATOM     94  F   UNL A   1      44.035  25.268  36.976  1.00  0.00    -0.200 F 
ATOM     95  C   UNL A   1      45.722  26.739  36.226  1.00  0.00     0.200 A 
ATOM     96  F   UNL A   1      47.376  28.237  35.452  1.00  0.00    -0.200 F 
ATOM     97  F   UNL A   1      46.639  26.077  36.946  1.00  0.00    -0.200 F 
ENDBRANCH  64  87
ENDBRANCH  38  39
ENDBRANCH  30  33
ENDBRANCH  28  29
ENDBRANCH  27  28
ENDBRANCH   1  27
TORSDOF 13
ENDMDL
MODEL 3
REMARK VINA RESULT:     -12.8      4.825      9.834
REMARK SMILES CN(c1ccc(C(=O)NCCCCNC(=O)c2ccc(-c3c4nc(c(-c5c(F)c(F)c(F)c(F)c5F)c5ccc([nH]5)c(-c5c(F)c(F)c(F)c(F)c5F)c5nc(c(-c6c(F)c(F)c(F)c(F)c6F)c6ccc3[nH]6)C=C5)C=C4)cc2)c(F)c1F)[C@H]1C[C@H]2CC[C@@H](C1)[NH2+]2
REMARK SMILES IDX 11 1 10 2 9 3 7 4 8 5 6 7 3 8 4 9 82 10 5 11 80 12 83 13
REMARK SMILES IDX 81 14 2 15 1 16 84 17 85 18 90 19 86 20 89 21 87 22 91 23
REMARK SMILES IDX 88 24 12 27 13 28 14 29 15 30 16 32 17 33 18 34 79 35 19 36
REMARK SMILES IDX 78 37 20 38 21 39 22 40 72 41 23 42 77 43 71 44 73 45 24 46
REMARK SMILES IDX 76 47 70 48 69 49 25 51 57 52 37 53 56 54 38 55 41 56 55 57
REMARK SMILES IDX 74 58 39 59 40 60 54 62 75 63 42 64 26 65 27 66 35 67 28 68
REMARK SMILES IDX 29 69 33 70 36 71 30 72 31 73 34 74 32 75 58 76 59 77 67 78
REMARK SMILES IDX 60 79 61 80 65 81 68 82 62 83 63 84 66 85 64 86 43 87 44 88
REMARK SMILES IDX 52 89 45 90 46 91 50 92 53 93 47 94 48 95 51 96 49 97
REMARK H PARENT 9 6 91 25 91 26 14 31 73 50 41 61
REMARK Flexibility Score: inf
ROOT
ATOM      1  C   UNL A   1      37.063  21.210  24.619  1.00  0.00     0.023 C 
ENDROOT
BRANCH   1   2
ATOM      2  C   UNL A   1      35.758  21.443  25.369  1.00  0.00     0.116 C 
BRANCH   2   3
ATOM      3  N   UNL A   1      34.807  20.331  25.438  1.00  0.00    -0.352 N 
ATOM      4  C   UNL A   1      33.412  20.331  25.410  1.00  0.00     0.254 C 
ATOM      5  O   UNL A   1      32.814  19.257  25.427  1.00  0.00    -0.269 OA
ATOM      6  H   UNL A   1      35.218  19.440  25.518  1.00  0.00     0.163 HD
BRANCH   4   7
ATOM      7  C   UNL A   1      32.615  21.586  25.462  1.00  0.00     0.078 A 
ATOM      8  C   UNL A   1      31.763  24.322  25.417  1.00  0.00     0.076 A 
ATOM      9  C   UNL A   1      31.916  23.631  26.626  1.00  0.00     0.030 A 
ATOM     10  C   UNL A   1      32.040  23.549  24.306  1.00  0.00     0.182 A 
ATOM     11  C   UNL A   1      32.412  22.298  26.654  1.00  0.00     0.019 A 
ATOM     12  C   UNL A   1      32.186  22.181  24.310  1.00  0.00     0.173 A 
ATOM     13  F   UNL A   1      32.520  24.170  23.235  1.00  0.00    -0.201 F 
ATOM     14  F   UNL A   1      32.073  21.523  23.151  1.00  0.00    -0.203 F 
BRANCH   8  15
ATOM     15  N   UNL A   1      31.439  25.664  25.287  1.00  0.00    -0.369 N 
ATOM     16  C   UNL A   1      30.043  26.055  25.467  1.00  0.00     0.144 C 
BRANCH  15  17
ATOM     17  C   UNL A   1      32.400  26.774  24.919  1.00  0.00     0.093 C 
ATOM     18  C   UNL A   1      31.726  28.131  24.607  1.00  0.00     0.090 C 
ATOM     19  C   UNL A   1      33.722  26.874  25.716  1.00  0.00     0.090 C 
ATOM     20  C   UNL A   1      32.313  29.368  25.315  1.00  0.00     0.184 C 
ATOM     21  C   UNL A   1      34.051  28.261  26.309  1.00  0.00     0.184 C 
ATOM     22  C   UNL A   1      32.008  29.455  26.803  1.00  0.00     0.071 C 
ATOM     23  N   UNL A   1      33.778  29.308  25.320  1.00  0.00    -0.341 N 
ATOM     24  C   UNL A   1      33.173  28.717  27.468  1.00  0.00     0.071 C 
ATOM     25  H   UNL A   1      34.182  30.200  25.607  1.00  0.00     0.346 HD
ATOM     26  H   UNL A   1      34.178  29.113  24.402  1.00  0.00     0.346 HD
ENDBRANCH  15  17
ENDBRANCH   8  15
ENDBRANCH   4   7
ENDBRANCH   2   3
ENDBRANCH   1   2
BRANCH   1  27
ATOM     27  C   UNL A   1      37.886  19.996  25.027  1.00  0.00     0.023 C 
BRANCH  27  28
ATOM     28  C   UNL A   1      39.105  20.254  25.911  1.00  0.00     0.116 C 
BRANCH  28  29
ATOM     29  N   UNL A   1      40.135  19.227  25.837  1.00  0.00    -0.352 N 
ATOM     30  C   UNL A   1      41.493  19.294  26.086  1.00  0.00     0.251 C 
ATOM     31  H   UNL A   1      39.810  18.339  25.564  1.00  0.00     0.163 HD
ATOM     32  O   UNL A   1      42.192  18.313  25.898  1.00  0.00    -0.269 OA
BRANCH  30  33
ATOM     33  C   UNL A   1      42.123  20.564  26.532  1.00  0.00     0.039 A 
ATOM     34  C   UNL A   1      42.614  21.440  25.559  1.00  0.00     0.014 A 
ATOM     35  C   UNL A   1      42.232  20.903  27.881  1.00  0.00     0.014 A 
ATOM     36  C   UNL A   1      43.112  22.692  25.935  1.00  0.00     0.010 A 
ATOM     37  C   UNL A   1      42.640  22.185  28.248  1.00  0.00     0.010 A 
ATOM     38  C   UNL A   1      43.074  23.100  27.279  1.00  0.00    -0.014 A 
BRANCH  38  39
ATOM     39  C   UNL A   1      43.454  24.488  27.666  1.00  0.00     0.031 A 
ATOM     40  C   UNL A   1      44.897  24.911  27.695  1.00  0.00     0.074 A 
ATOM     41  C   UNL A   1      42.490  25.363  28.021  1.00  0.00     0.049 A 
ATOM     42  N   UNL A   1      45.406  26.080  27.997  1.00  0.00    -0.248 NA
ATOM     43  C   UNL A   1      45.903  23.890  27.363  1.00  0.00     0.031 C 
ATOM     44  C   UNL A   1      41.059  25.060  28.084  1.00  0.00     0.029 A 
ATOM     45  N   UNL A   1      42.561  26.687  28.385  1.00  0.00    -0.354 N 
ATOM     46  C   UNL A   1      46.782  25.934  27.883  1.00  0.00     0.074 A 
ATOM     47  C   UNL A   1      47.037  24.550  27.554  1.00  0.00     0.031 C 
ATOM     48  C   UNL A   1      40.385  26.175  28.405  1.00  0.00     0.029 A 
ATOM     49  C   UNL A   1      41.333  27.264  28.613  1.00  0.00     0.049 A 
ATOM     50  H   UNL A   1      43.411  27.175  28.473  1.00  0.00     0.167 HD
ATOM     51  C   UNL A   1      47.744  26.878  28.006  1.00  0.00     0.037 A 
ATOM     52  C   UNL A   1      41.007  28.530  28.942  1.00  0.00     0.037 A 
ATOM     53  C   UNL A   1      47.489  28.261  28.312  1.00  0.00     0.049 A 
ATOM     54  C   UNL A   1      42.100  29.554  29.101  1.00  0.00     0.074 A 
ATOM     55  C   UNL A   1      48.398  29.298  28.424  1.00  0.00     0.029 A 
ATOM     56  N   UNL A   1      46.233  28.799  28.548  1.00  0.00    -0.354 N 
ATOM     57  N   UNL A   1      43.391  29.413  28.930  1.00  0.00    -0.248 NA
ATOM     58  C   UNL A   1      41.694  30.910  29.497  1.00  0.00     0.031 C 
ATOM     59  C   UNL A   1      47.699  30.455  28.773  1.00  0.00     0.029 A 
ATOM     60  C   UNL A   1      46.348  30.152  28.822  1.00  0.00     0.049 A 
ATOM     61  H   UNL A   1      45.388  28.296  28.524  1.00  0.00     0.167 HD
ATOM     62  C   UNL A   1      43.946  30.664  29.159  1.00  0.00     0.074 A 
ATOM     63  C   UNL A   1      42.853  31.556  29.480  1.00  0.00     0.031 C 
ATOM     64  C   UNL A   1      45.247  31.036  29.107  1.00  0.00     0.037 A 
BRANCH  51  65
ATOM     65  C   UNL A   1      49.170  26.471  27.771  1.00  0.00     0.064 A 
ATOM     66  C   UNL A   1      50.053  26.296  28.847  1.00  0.00     0.173 A 
ATOM     67  C   UNL A   1      49.686  26.359  26.471  1.00  0.00     0.173 A 
ATOM     68  F   UNL A   1      49.613  26.403  30.109  1.00  0.00    -0.203 F 
ATOM     69  C   UNL A   1      51.406  26.045  28.629  1.00  0.00     0.198 A 
ATOM     70  C   UNL A   1      51.033  26.078  26.258  1.00  0.00     0.198 A 
ATOM     71  F   UNL A   1      48.882  26.510  25.409  1.00  0.00    -0.203 F 
ATOM     72  F   UNL A   1      52.241  25.925  29.670  1.00  0.00    -0.200 F 
ATOM     73  C   UNL A   1      51.894  25.934  27.335  1.00  0.00     0.200 A 
ATOM     74  F   UNL A   1      51.499  25.952  25.008  1.00  0.00    -0.200 F 
ATOM     75  F   UNL A   1      53.195  25.692  27.127  1.00  0.00    -0.200 F 
ENDBRANCH  51  65
BRANCH  52  76
ATOM     76  C   UNL A   1      39.576  28.913  29.084  1.00  0.00     0.064 A 
ATOM     77  C   UNL A   1      38.919  28.862  30.322  1.00  0.00     0.173 A 
ATOM     78  C   UNL A   1      38.831  29.321  27.968  1.00  0.00     0.173 A 
ATOM     79  F   UNL A   1      39.584  28.477  31.420  1.00  0.00    -0.203 F 
ATOM     80  C   UNL A   1      37.567  29.186  30.434  1.00  0.00     0.198 A 
ATOM     81  C   UNL A   1      37.487  29.671  28.086  1.00  0.00     0.198 A 
ATOM     82  F   UNL A   1      39.418  29.405  26.765  1.00  0.00    -0.203 F 
ATOM     83  F   UNL A   1      36.955  29.095  31.623  1.00  0.00    -0.200 F 
ATOM     84  C   UNL A   1      36.855  29.595  29.317  1.00  0.00     0.200 A 
ATOM     85  F   UNL A   1      36.809  30.091  27.009  1.00  0.00    -0.200 F 
ATOM     86  F   UNL A   1      35.559  29.920  29.429  1.00  0.00    -0.200 F 
ENDBRANCH  52  76
BRANCH  64  87
ATOM     87  C   UNL A   1      45.586  32.475  29.358  1.00  0.00     0.064 A 
ATOM     88  C   UNL A   1      45.809  32.928  30.669  1.00  0.00     0.173 A 
ATOM     89  C   UNL A   1      45.552  33.425  28.329  1.00  0.00     0.173 A 
ATOM     90  F   UNL A   1      45.840  32.057  31.688  1.00  0.00    -0.203 F 
ATOM     91  C   UNL A   1      45.949  34.285  30.942  1.00  0.00     0.198 A 
ATOM     92  C   UNL A   1      45.721  34.780  28.604  1.00  0.00     0.198 A 
ATOM     93  F   UNL A   1      45.353  33.038  27.060  1.00  0.00    -0.203 F 
ATOM     94  F   UNL A   1      46.105  34.700  32.207  1.00  0.00    -0.200 F 
ATOM     95  C   UNL A   1      45.903  35.209  29.910  1.00  0.00     0.200 A 
ATOM     96  F   UNL A   1      45.692  35.671  27.604  1.00  0.00    -0.200 F 
ATOM     97  F   UNL A   1      46.028  36.517  30.175  1.00  0.00    -0.200 F 
ENDBRANCH  64  87
ENDBRANCH  38  39
ENDBRANCH  30  33
ENDBRANCH  28  29
ENDBRANCH  27  28
ENDBRANCH   1  27
TORSDOF 13
ENDMDL
