MODEL 1
REMARK VINA RESULT:     -13.1      0.000      0.000
REMARK SMILES Cc1cc(C)c2c(C(=O)NCCCCNC(=O)c3ccc(-c4c5nc(c(-c6c(F)c(F)c(F)c(F)c6F)c6ccc([nH]6)c(-c6c(F)c(F)c(F)c(F)c6F)c6nc(c(-c7c(F)c(F)c(F)c(F)c7F)c7ccc4[nH]7)C=C6)C=C5)cc3)cc(-c3ccco3)nc2c1
REMARK SMILES IDX 13 1 12 2 11 3 10 4 8 5 9 6 7 8 1 9 2 10 3 11 90 12 4 13
REMARK SMILES IDX 89 14 5 15 6 16 88 17 82 18 81 19 83 20 84 21 87 22 85 23
REMARK SMILES IDX 86 24 14 25 15 26 16 27 17 29 18 30 19 31 80 32 20 33 79 34
REMARK SMILES IDX 21 35 22 36 23 37 73 38 24 39 78 40 72 41 74 42 25 43 77 44
REMARK SMILES IDX 71 45 70 46 26 48 58 49 38 50 57 51 39 52 42 53 56 54 75 55
REMARK SMILES IDX 40 56 41 57 55 59 76 60 43 61 27 62 28 63 36 64 29 65 30 66
REMARK SMILES IDX 34 67 37 68 31 69 32 70 35 71 33 72 59 73 60 74 68 75 61 76
REMARK SMILES IDX 62 77 66 78 69 79 63 80 64 81 67 82 65 83 44 84 45 85 53 86
REMARK SMILES IDX 46 87 47 88 51 89 54 90 48 91 49 92 52 93 50 94
REMARK H PARENT 10 7 15 28 74 47 42 58
REMARK Flexibility Score: inf
ROOT
ATOM      1  C   UNL A   1      31.333  32.326  26.520  1.00  0.00     0.023 C 
ENDROOT
BRANCH   1   2
ATOM      2  C   UNL A   1      31.470  30.856  26.111  1.00  0.00     0.023 C 
BRANCH   2   3
ATOM      3  C   UNL A   1      32.093  29.918  27.144  1.00  0.00     0.116 C 
BRANCH   3   4
ATOM      4  N   UNL A   1      33.304  29.240  26.708  1.00  0.00    -0.352 N 
ATOM      5  C   UNL A   1      33.465  28.178  25.840  1.00  0.00     0.252 C 
ATOM      6  O   UNL A   1      34.606  27.787  25.596  1.00  0.00    -0.269 OA
ATOM      7  H   UNL A   1      34.139  29.594  27.092  1.00  0.00     0.163 HD
BRANCH   5   8
ATOM      8  C   UNL A   1      32.310  27.429  25.277  1.00  0.00     0.051 A 
ATOM      9  C   UNL A   1      28.384  29.738  21.884  1.00  0.00     0.044 C 
ATOM     10  C   UNL A   1      29.499  29.033  22.595  1.00  0.00    -0.049 A 
ATOM     11  C   UNL A   1      30.825  29.412  22.415  1.00  0.00     0.007 A 
ATOM     12  C   UNL A   1      29.233  27.921  23.398  1.00  0.00     0.032 A 
ATOM     13  C   UNL A   1      31.842  28.817  23.176  1.00  0.00    -0.041 A 
ATOM     14  C   UNL A   1      30.217  27.308  24.159  1.00  0.00     0.072 A 
ATOM     15  C   UNL A   1      33.265  29.087  22.751  1.00  0.00     0.045 C 
ATOM     16  C   UNL A   1      31.502  27.878  24.199  1.00  0.00     0.016 A 
ATOM     17  N   UNL A   1      29.883  26.198  24.834  1.00  0.00    -0.244 NA
ATOM     18  C   UNL A   1      30.801  25.630  25.644  1.00  0.00     0.107 A 
ATOM     19  C   UNL A   1      31.982  26.256  25.967  1.00  0.00     0.046 A 
BRANCH  18  20
ATOM     20  C   UNL A   1      30.475  24.300  26.125  1.00  0.00     0.152 A 
ATOM     21  C   UNL A   1      30.871  23.017  25.803  1.00  0.00     0.052 A 
ATOM     22  O   UNL A   1      29.494  24.249  27.079  1.00  0.00    -0.463 OA
ATOM     23  C   UNL A   1      30.097  22.140  26.608  1.00  0.00     0.043 A 
ATOM     24  C   UNL A   1      29.270  22.940  27.359  1.00  0.00     0.196 A 
ENDBRANCH  18  20
ENDBRANCH   5   8
ENDBRANCH   3   4
ENDBRANCH   2   3
ENDBRANCH   1   2
BRANCH   1  25
ATOM     25  C   UNL A   1      32.497  32.942  27.296  1.00  0.00     0.116 C 
BRANCH  25  26
ATOM     26  N   UNL A   1      32.280  34.331  27.674  1.00  0.00    -0.352 N 
ATOM     27  C   UNL A   1      32.936  35.109  28.602  1.00  0.00     0.251 C 
ATOM     28  H   UNL A   1      31.552  34.784  27.191  1.00  0.00     0.163 HD
ATOM     29  O   UNL A   1      32.559  36.247  28.835  1.00  0.00    -0.269 OA
BRANCH  27  30
ATOM     30  C   UNL A   1      34.082  34.550  29.354  1.00  0.00     0.039 A 
ATOM     31  C   UNL A   1      33.846  33.976  30.608  1.00  0.00     0.014 A 
ATOM     32  C   UNL A   1      35.374  34.578  28.825  1.00  0.00     0.014 A 
ATOM     33  C   UNL A   1      34.888  33.336  31.284  1.00  0.00     0.010 A 
ATOM     34  C   UNL A   1      36.402  33.897  29.477  1.00  0.00     0.010 A 
ATOM     35  C   UNL A   1      36.162  33.251  30.701  1.00  0.00    -0.014 A 
BRANCH  35  36
ATOM     36  C   UNL A   1      37.252  32.465  31.330  1.00  0.00     0.031 A 
ATOM     37  C   UNL A   1      37.758  32.834  32.694  1.00  0.00     0.074 A 
ATOM     38  C   UNL A   1      37.842  31.473  30.636  1.00  0.00     0.049 A 
ATOM     39  N   UNL A   1      38.784  32.356  33.353  1.00  0.00    -0.248 NA
ATOM     40  C   UNL A   1      37.021  33.889  33.405  1.00  0.00     0.031 C 
ATOM     41  C   UNL A   1      37.452  31.029  29.297  1.00  0.00     0.029 A 
ATOM     42  N   UNL A   1      38.908  30.668  30.955  1.00  0.00    -0.354 N 
ATOM     43  C   UNL A   1      38.820  33.057  34.551  1.00  0.00     0.074 A 
ATOM     44  C   UNL A   1      37.738  34.019  34.512  1.00  0.00     0.031 C 
ATOM     45  C   UNL A   1      38.261  30.029  28.913  1.00  0.00     0.029 A 
ATOM     46  C   UNL A   1      39.250  29.787  29.959  1.00  0.00     0.049 A 
ATOM     47  H   UNL A   1      39.382  30.717  31.817  1.00  0.00     0.167 HD
ATOM     48  C   UNL A   1      39.668  32.899  35.593  1.00  0.00     0.037 A 
ATOM     49  C   UNL A   1      40.257  28.894  29.892  1.00  0.00     0.037 A 
ATOM     50  C   UNL A   1      40.740  31.938  35.633  1.00  0.00     0.049 A 
ATOM     51  C   UNL A   1      41.206  28.763  31.051  1.00  0.00     0.074 A 
ATOM     52  C   UNL A   1      41.648  31.700  36.651  1.00  0.00     0.029 A 
ATOM     53  N   UNL A   1      41.047  31.054  34.609  1.00  0.00    -0.354 N 
ATOM     54  N   UNL A   1      41.222  29.418  32.185  1.00  0.00    -0.248 NA
ATOM     55  C   UNL A   1      42.278  27.764  30.921  1.00  0.00     0.031 C 
ATOM     56  C   UNL A   1      42.523  30.693  36.231  1.00  0.00     0.029 A 
ATOM     57  C   UNL A   1      42.133  30.272  34.970  1.00  0.00     0.049 A 
ATOM     58  H   UNL A   1      40.564  30.991  33.754  1.00  0.00     0.167 HD
ATOM     59  C   UNL A   1      42.277  28.890  32.916  1.00  0.00     0.074 A 
ATOM     60  C   UNL A   1      42.877  27.856  32.100  1.00  0.00     0.031 C 
ATOM     61  C   UNL A   1      42.708  29.233  34.154  1.00  0.00     0.037 A 
BRANCH  48  62
ATOM     62  C   UNL A   1      39.470  33.784  36.788  1.00  0.00     0.064 A 
ATOM     63  C   UNL A   1      38.743  33.346  37.905  1.00  0.00     0.173 A 
ATOM     64  C   UNL A   1      40.057  35.056  36.841  1.00  0.00     0.173 A 
ATOM     65  F   UNL A   1      38.152  32.143  37.896  1.00  0.00    -0.203 F 
ATOM     66  C   UNL A   1      38.595  34.160  39.025  1.00  0.00     0.198 A 
ATOM     67  C   UNL A   1      39.929  35.856  37.975  1.00  0.00     0.198 A 
ATOM     68  F   UNL A   1      40.767  35.518  35.801  1.00  0.00    -0.203 F 
ATOM     69  F   UNL A   1      37.865  33.736  40.066  1.00  0.00    -0.200 F 
ATOM     70  C   UNL A   1      39.195  35.410  39.062  1.00  0.00     0.200 A 
ATOM     71  F   UNL A   1      40.520  37.059  38.014  1.00  0.00    -0.200 F 
ATOM     72  F   UNL A   1      39.062  36.186  40.146  1.00  0.00    -0.200 F 
ENDBRANCH  48  62
BRANCH  49  73
ATOM     73  C   UNL A   1      40.401  28.032  28.689  1.00  0.00     0.064 A 
ATOM     74  C   UNL A   1      39.776  26.779  28.631  1.00  0.00     0.173 A 
ATOM     75  C   UNL A   1      41.156  28.439  27.580  1.00  0.00     0.173 A 
ATOM     76  F   UNL A   1      39.061  26.338  29.678  1.00  0.00    -0.203 F 
ATOM     77  C   UNL A   1      39.908  25.959  27.512  1.00  0.00     0.198 A 
ATOM     78  C   UNL A   1      41.268  27.630  26.452  1.00  0.00     0.198 A 
ATOM     79  F   UNL A   1      41.772  29.630  27.587  1.00  0.00    -0.203 F 
ATOM     80  F   UNL A   1      39.329  24.752  27.496  1.00  0.00    -0.200 F 
ATOM     81  C   UNL A   1      40.650  26.388  26.421  1.00  0.00     0.200 A 
ATOM     82  F   UNL A   1      41.975  28.051  25.395  1.00  0.00    -0.200 F 
ATOM     83  F   UNL A   1      40.772  25.603  25.342  1.00  0.00    -0.200 F 
ENDBRANCH  49  73
BRANCH  61  84
ATOM     84  C   UNL A   1      43.855  28.455  34.729  1.00  0.00     0.064 A 
ATOM     85  C   UNL A   1      45.181  28.886  34.589  1.00  0.00     0.173 A 
ATOM     86  C   UNL A   1      43.615  27.292  35.477  1.00  0.00     0.173 A 
ATOM     87  F   UNL A   1      45.463  29.983  33.872  1.00  0.00    -0.203 F 
ATOM     88  C   UNL A   1      46.229  28.170  35.163  1.00  0.00     0.198 A 
ATOM     89  C   UNL A   1      44.662  26.594  36.071  1.00  0.00     0.198 A 
ATOM     90  F   UNL A   1      42.362  26.843  35.645  1.00  0.00    -0.203 F 
ATOM     91  F   UNL A   1      47.493  28.577  34.986  1.00  0.00    -0.200 F 
ATOM     92  C   UNL A   1      45.968  27.029  35.910  1.00  0.00     0.200 A 
ATOM     93  F   UNL A   1      44.405  25.500  36.802  1.00  0.00    -0.200 F 
ATOM     94  F   UNL A   1      46.976  26.347  36.470  1.00  0.00    -0.200 F 
ENDBRANCH  61  84
ENDBRANCH  35  36
ENDBRANCH  27  30
ENDBRANCH  25  26
ENDBRANCH   1  25
TORSDOF 12
ENDMDL
MODEL 2
REMARK VINA RESULT:     -13.1      0.122      1.588
REMARK SMILES Cc1cc(C)c2c(C(=O)NCCCCNC(=O)c3ccc(-c4c5nc(c(-c6c(F)c(F)c(F)c(F)c6F)c6ccc([nH]6)c(-c6c(F)c(F)c(F)c(F)c6F)c6nc(c(-c7c(F)c(F)c(F)c(F)c7F)c7ccc4[nH]7)C=C6)C=C5)cc3)cc(-c3ccco3)nc2c1
REMARK SMILES IDX 13 1 12 2 11 3 10 4 8 5 9 6 7 8 1 9 2 10 3 11 90 12 4 13
REMARK SMILES IDX 89 14 5 15 6 16 88 17 82 18 81 19 83 20 84 21 87 22 85 23
REMARK SMILES IDX 86 24 14 25 15 26 16 27 17 29 18 30 19 31 80 32 20 33 79 34
REMARK SMILES IDX 21 35 22 36 23 37 73 38 24 39 78 40 72 41 74 42 25 43 77 44
REMARK SMILES IDX 71 45 70 46 26 48 58 49 38 50 57 51 39 52 42 53 56 54 75 55
REMARK SMILES IDX 40 56 41 57 55 59 76 60 43 61 27 62 28 63 36 64 29 65 30 66
REMARK SMILES IDX 34 67 37 68 31 69 32 70 35 71 33 72 59 73 60 74 68 75 61 76
REMARK SMILES IDX 62 77 66 78 69 79 63 80 64 81 67 82 65 83 44 84 45 85 53 86
REMARK SMILES IDX 46 87 47 88 51 89 54 90 48 91 49 92 52 93 50 94
REMARK H PARENT 10 7 15 28 74 47 42 58
REMARK Flexibility Score: inf
ROOT
ATOM      1  C   UNL A   1      31.405  32.340  26.460  1.00  0.00     0.023 C 
ENDROOT
BRANCH   1   2
ATOM      2  C   UNL A   1      31.536  30.875  26.032  1.00  0.00     0.023 C 
BRANCH   2   3
ATOM      3  C   UNL A   1      32.172  29.925  27.044  1.00  0.00     0.116 C 
BRANCH   3   4
ATOM      4  N   UNL A   1      33.368  29.240  26.579  1.00  0.00    -0.352 N 
ATOM      5  C   UNL A   1      33.502  28.174  25.710  1.00  0.00     0.252 C 
ATOM      6  O   UNL A   1      34.633  27.777  25.438  1.00  0.00    -0.269 OA
ATOM      7  H   UNL A   1      34.215  29.590  26.940  1.00  0.00     0.163 HD
BRANCH   5   8
ATOM      8  C   UNL A   1      32.328  27.430  25.180  1.00  0.00     0.051 A 
ATOM      9  C   UNL A   1      28.318  29.752  21.896  1.00  0.00     0.044 C 
ATOM     10  C   UNL A   1      29.450  29.043  22.576  1.00  0.00    -0.049 A 
ATOM     11  C   UNL A   1      30.772  29.418  22.359  1.00  0.00     0.007 A 
ATOM     12  C   UNL A   1      29.202  27.932  23.387  1.00  0.00     0.032 A 
ATOM     13  C   UNL A   1      31.807  28.818  23.091  1.00  0.00    -0.041 A 
ATOM     14  C   UNL A   1      30.204  27.316  24.120  1.00  0.00     0.072 A 
ATOM     15  C   UNL A   1      33.219  29.084  22.628  1.00  0.00     0.045 C 
ATOM     16  C   UNL A   1      31.492  27.881  24.124  1.00  0.00     0.016 A 
ATOM     17  N   UNL A   1      29.885  26.208  24.805  1.00  0.00    -0.244 NA
ATOM     18  C   UNL A   1      30.823  25.636  25.589  1.00  0.00     0.107 A 
ATOM     19  C   UNL A   1      32.015  26.258  25.879  1.00  0.00     0.046 A 
BRANCH  18  20
ATOM     20  C   UNL A   1      30.506  24.307  26.079  1.00  0.00     0.152 A 
ATOM     21  C   UNL A   1      30.869  23.021  25.731  1.00  0.00     0.052 A 
ATOM     22  O   UNL A   1      29.574  24.263  27.082  1.00  0.00    -0.463 OA
ATOM     23  C   UNL A   1      30.127  22.150  26.570  1.00  0.00     0.043 A 
ATOM     24  C   UNL A   1      29.348  22.956  27.366  1.00  0.00     0.196 A 
ENDBRANCH  18  20
ENDBRANCH   5   8
ENDBRANCH   3   4
ENDBRANCH   2   3
ENDBRANCH   1   2
BRANCH   1  25
ATOM     25  C   UNL A   1      32.508  32.903  27.356  1.00  0.00     0.116 C 
BRANCH  25  26
ATOM     26  N   UNL A   1      32.310  34.297  27.725  1.00  0.00    -0.352 N 
ATOM     27  C   UNL A   1      32.985  35.075  28.639  1.00  0.00     0.251 C 
ATOM     28  H   UNL A   1      31.580  34.754  27.248  1.00  0.00     0.163 HD
ATOM     29  O   UNL A   1      32.623  36.219  28.867  1.00  0.00    -0.269 OA
BRANCH  27  30
ATOM     30  C   UNL A   1      34.135  34.511  29.382  1.00  0.00     0.039 A 
ATOM     31  C   UNL A   1      33.900  33.904  30.620  1.00  0.00     0.014 A 
ATOM     32  C   UNL A   1      35.428  34.566  28.859  1.00  0.00     0.014 A 
ATOM     33  C   UNL A   1      34.946  33.259  31.285  1.00  0.00     0.010 A 
ATOM     34  C   UNL A   1      36.460  33.880  29.498  1.00  0.00     0.010 A 
ATOM     35  C   UNL A   1      36.224  33.202  30.704  1.00  0.00    -0.014 A 
BRANCH  35  36
ATOM     36  C   UNL A   1      37.320  32.413  31.318  1.00  0.00     0.031 A 
ATOM     37  C   UNL A   1      37.847  32.782  32.674  1.00  0.00     0.074 A 
ATOM     38  C   UNL A   1      37.896  31.418  30.617  1.00  0.00     0.049 A 
ATOM     39  N   UNL A   1      38.881  32.301  33.318  1.00  0.00    -0.248 NA
ATOM     40  C   UNL A   1      37.125  33.841  33.394  1.00  0.00     0.031 C 
ATOM     41  C   UNL A   1      37.485  30.974  29.284  1.00  0.00     0.029 A 
ATOM     42  N   UNL A   1      38.964  30.609  30.921  1.00  0.00    -0.354 N 
ATOM     43  C   UNL A   1      38.937  33.003  34.515  1.00  0.00     0.074 A 
ATOM     44  C   UNL A   1      37.858  33.969  34.491  1.00  0.00     0.031 C 
ATOM     45  C   UNL A   1      38.285  29.971  28.889  1.00  0.00     0.029 A 
ATOM     46  C   UNL A   1      39.288  29.726  29.921  1.00  0.00     0.049 A 
ATOM     47  H   UNL A   1      39.451  30.658  31.776  1.00  0.00     0.167 HD
ATOM     48  C   UNL A   1      39.800  32.843  35.545  1.00  0.00     0.037 A 
ATOM     49  C   UNL A   1      40.291  28.830  29.840  1.00  0.00     0.037 A 
ATOM     50  C   UNL A   1      40.869  31.879  35.570  1.00  0.00     0.049 A 
ATOM     51  C   UNL A   1      41.257  28.697  30.985  1.00  0.00     0.074 A 
ATOM     52  C   UNL A   1      41.791  31.638  36.575  1.00  0.00     0.029 A 
ATOM     53  N   UNL A   1      41.158  30.993  34.543  1.00  0.00    -0.354 N 
ATOM     54  N   UNL A   1      41.291  29.353  32.118  1.00  0.00    -0.248 NA
ATOM     55  C   UNL A   1      42.323  27.694  30.840  1.00  0.00     0.031 C 
ATOM     56  C   UNL A   1      42.656  30.628  36.143  1.00  0.00     0.029 A 
ATOM     57  C   UNL A   1      42.246  30.207  34.888  1.00  0.00     0.049 A 
ATOM     58  H   UNL A   1      40.662  30.930  33.695  1.00  0.00     0.167 HD
ATOM     59  C   UNL A   1      42.355  28.823  32.835  1.00  0.00     0.074 A 
ATOM     60  C   UNL A   1      42.939  27.786  32.010  1.00  0.00     0.031 C 
ATOM     61  C   UNL A   1      42.806  29.165  34.065  1.00  0.00     0.037 A 
BRANCH  48  62
ATOM     62  C   UNL A   1      39.623  33.730  36.741  1.00  0.00     0.064 A 
ATOM     63  C   UNL A   1      40.190  35.013  36.786  1.00  0.00     0.173 A 
ATOM     64  C   UNL A   1      38.835  33.320  37.826  1.00  0.00     0.173 A 
ATOM     65  F   UNL A   1      40.961  35.446  35.779  1.00  0.00    -0.203 F 
ATOM     66  C   UNL A   1      39.989  35.845  37.885  1.00  0.00     0.198 A 
ATOM     67  C   UNL A   1      38.615  34.166  38.911  1.00  0.00     0.198 A 
ATOM     68  F   UNL A   1      38.267  32.105  37.829  1.00  0.00    -0.203 F 
ATOM     69  F   UNL A   1      40.570  37.052  37.923  1.00  0.00    -0.200 F 
ATOM     70  C   UNL A   1      39.196  35.424  38.941  1.00  0.00     0.200 A 
ATOM     71  F   UNL A   1      37.839  33.762  39.927  1.00  0.00    -0.200 F 
ATOM     72  F   UNL A   1      38.994  36.231  39.992  1.00  0.00    -0.200 F 
ENDBRANCH  48  62
BRANCH  49  73
ATOM     73  C   UNL A   1      40.414  27.966  28.637  1.00  0.00     0.064 A 
ATOM     74  C   UNL A   1      41.157  28.391  27.527  1.00  0.00     0.173 A 
ATOM     75  C   UNL A   1      39.802  26.707  28.570  1.00  0.00     0.173 A 
ATOM     76  F   UNL A   1      41.742  29.599  27.536  1.00  0.00    -0.203 F 
ATOM     77  C   UNL A   1      41.275  27.594  26.391  1.00  0.00     0.198 A 
ATOM     78  C   UNL A   1      39.940  25.899  27.444  1.00  0.00     0.198 A 
ATOM     79  F   UNL A   1      39.081  26.255  29.607  1.00  0.00    -0.203 F 
ATOM     80  F   UNL A   1      41.962  28.038  25.331  1.00  0.00    -0.200 F 
ATOM     81  C   UNL A   1      40.671  26.346  26.352  1.00  0.00     0.200 A 
ATOM     82  F   UNL A   1      39.365  24.689  27.414  1.00  0.00    -0.200 F 
ATOM     83  F   UNL A   1      40.790  25.575  25.263  1.00  0.00    -0.200 F 
ENDBRANCH  49  73
BRANCH  61  84
ATOM     84  C   UNL A   1      43.958  28.384  34.624  1.00  0.00     0.064 A 
ATOM     85  C   UNL A   1      45.286  28.791  34.434  1.00  0.00     0.173 A 
ATOM     86  C   UNL A   1      43.724  27.243  35.407  1.00  0.00     0.173 A 
ATOM     87  F   UNL A   1      45.561  29.867  33.683  1.00  0.00    -0.203 F 
ATOM     88  C   UNL A   1      46.340  28.073  34.994  1.00  0.00     0.198 A 
ATOM     89  C   UNL A   1      44.778  26.543  35.986  1.00  0.00     0.198 A 
ATOM     90  F   UNL A   1      42.471  26.816  35.624  1.00  0.00    -0.203 F 
ATOM     91  F   UNL A   1      47.604  28.457  34.769  1.00  0.00    -0.200 F 
ATOM     92  C   UNL A   1      46.085  26.954  35.775  1.00  0.00     0.200 A 
ATOM     93  F   UNL A   1      44.529  25.471  36.751  1.00  0.00    -0.200 F 
ATOM     94  F   UNL A   1      47.100  26.271  36.321  1.00  0.00    -0.200 F 
ENDBRANCH  61  84
ENDBRANCH  35  36
ENDBRANCH  27  30
ENDBRANCH  25  26
ENDBRANCH   1  25
TORSDOF 12
ENDMDL
MODEL 3
REMARK VINA RESULT:     -13.0      4.765      8.092
REMARK SMILES Cc1cc(C)c2c(C(=O)NCCCCNC(=O)c3ccc(-c4c5nc(c(-c6c(F)c(F)c(F)c(F)c6F)c6ccc([nH]6)c(-c6c(F)c(F)c(F)c(F)c6F)c6nc(c(-c7c(F)c(F)c(F)c(F)c7F)c7ccc4[nH]7)C=C6)C=C5)cc3)cc(-c3ccco3)nc2c1
REMARK SMILES IDX 13 1 12 2 11 3 10 4 8 5 9 6 7 8 1 9 2 10 3 11 90 12 4 13
REMARK SMILES IDX 89 14 5 15 6 16 88 17 82 18 81 19 83 20 84 21 87 22 85 23
REMARK SMILES IDX 86 24 14 25 15 26 16 27 17 29 18 30 19 31 80 32 20 33 79 34
REMARK SMILES IDX 21 35 22 36 23 37 73 38 24 39 78 40 72 41 74 42 25 43 77 44
REMARK SMILES IDX 71 45 70 46 26 48 58 49 38 50 57 51 39 52 42 53 56 54 75 55
REMARK SMILES IDX 40 56 41 57 55 59 76 60 43 61 27 62 28 63 36 64 29 65 30 66
REMARK SMILES IDX 34 67 37 68 31 69 32 70 35 71 33 72 59 73 60 74 68 75 61 76
REMARK SMILES IDX 62 77 66 78 69 79 63 80 64 81 67 82 65 83 44 84 45 85 53 86
REMARK SMILES IDX 46 87 47 88 51 89 54 90 48 91 49 92 52 93 50 94
REMARK H PARENT 10 7 15 28 74 47 42 58
REMARK Flexibility Score: inf
ROOT
ATOM      1  C   UNL A   1      35.760  23.168  25.029  1.00  0.00     0.023 C 
ENDROOT
BRANCH   1   2
ATOM      2  C   UNL A   1      34.925  24.425  25.292  1.00  0.00     0.023 C 
BRANCH   2   3
ATOM      3  C   UNL A   1      33.613  24.544  24.518  1.00  0.00     0.116 C 
BRANCH   3   4
ATOM      4  N   UNL A   1      33.722  25.181  23.215  1.00  0.00    -0.352 N 
ATOM      5  C   UNL A   1      33.478  26.488  22.842  1.00  0.00     0.252 C 
ATOM      6  O   UNL A   1      33.670  26.810  21.670  1.00  0.00    -0.269 OA
ATOM      7  H   UNL A   1      34.014  24.588  22.486  1.00  0.00     0.163 HD
BRANCH   5   8
ATOM      8  C   UNL A   1      32.897  27.487  23.779  1.00  0.00     0.051 A 
ATOM      9  C   UNL A   1      27.977  30.182  22.889  1.00  0.00     0.044 C 
ATOM     10  C   UNL A   1      29.163  29.350  23.273  1.00  0.00    -0.049 A 
ATOM     11  C   UNL A   1      29.245  28.006  22.926  1.00  0.00     0.007 A 
ATOM     12  C   UNL A   1      30.181  29.892  24.061  1.00  0.00     0.032 A 
ATOM     13  C   UNL A   1      30.412  27.275  23.194  1.00  0.00    -0.041 A 
ATOM     14  C   UNL A   1      31.345  29.194  24.346  1.00  0.00     0.072 A 
ATOM     15  C   UNL A   1      30.337  25.776  23.027  1.00  0.00     0.045 C 
ATOM     16  C   UNL A   1      31.551  27.938  23.748  1.00  0.00     0.016 A 
ATOM     17  N   UNL A   1      32.228  29.767  25.177  1.00  0.00    -0.244 NA
ATOM     18  C   UNL A   1      33.402  29.143  25.407  1.00  0.00     0.107 A 
ATOM     19  C   UNL A   1      33.816  28.061  24.664  1.00  0.00     0.046 A 
BRANCH  18  20
ATOM     20  C   UNL A   1      34.186  29.667  26.510  1.00  0.00     0.152 A 
ATOM     21  C   UNL A   1      35.227  29.195  27.285  1.00  0.00     0.052 A 
ATOM     22  O   UNL A   1      33.791  30.892  26.976  1.00  0.00    -0.463 OA
ATOM     23  C   UNL A   1      35.484  30.187  28.267  1.00  0.00     0.043 A 
ATOM     24  C   UNL A   1      34.577  31.194  28.040  1.00  0.00     0.196 A 
ENDBRANCH  18  20
ENDBRANCH   5   8
ENDBRANCH   3   4
ENDBRANCH   2   3
ENDBRANCH   1   2
BRANCH   1  25
ATOM     25  C   UNL A   1      36.356  22.462  26.247  1.00  0.00     0.116 C 
BRANCH  25  26
ATOM     26  N   UNL A   1      37.402  21.506  25.917  1.00  0.00    -0.352 N 
ATOM     27  C   UNL A   1      38.771  21.620  26.023  1.00  0.00     0.251 C 
ATOM     28  H   UNL A   1      37.082  20.645  25.563  1.00  0.00     0.163 HD
ATOM     29  O   UNL A   1      39.500  20.725  25.623  1.00  0.00    -0.269 OA
BRANCH  27  30
ATOM     30  C   UNL A   1      39.367  22.851  26.589  1.00  0.00     0.039 A 
ATOM     31  C   UNL A   1      40.328  22.728  27.597  1.00  0.00     0.014 A 
ATOM     32  C   UNL A   1      38.995  24.112  26.121  1.00  0.00     0.014 A 
ATOM     33  C   UNL A   1      40.992  23.865  28.064  1.00  0.00     0.010 A 
ATOM     34  C   UNL A   1      39.692  25.241  26.551  1.00  0.00     0.010 A 
ATOM     35  C   UNL A   1      40.712  25.124  27.510  1.00  0.00    -0.014 A 
BRANCH  35  36
ATOM     36  C   UNL A   1      41.491  26.329  27.887  1.00  0.00     0.031 A 
ATOM     37  C   UNL A   1      40.850  27.421  28.692  1.00  0.00     0.074 A 
ATOM     38  C   UNL A   1      42.751  26.475  27.434  1.00  0.00     0.049 A 
ATOM     39  N   UNL A   1      41.320  28.602  29.007  1.00  0.00    -0.248 NA
ATOM     40  C   UNL A   1      39.494  27.157  29.195  1.00  0.00     0.031 C 
ATOM     41  C   UNL A   1      43.480  25.492  26.631  1.00  0.00     0.029 A 
ATOM     42  N   UNL A   1      43.636  27.516  27.568  1.00  0.00    -0.354 N 
ATOM     43  C   UNL A   1      40.317  29.223  29.738  1.00  0.00     0.074 A 
ATOM     44  C   UNL A   1      39.198  28.305  29.787  1.00  0.00     0.031 C 
ATOM     45  C   UNL A   1      44.702  25.973  26.351  1.00  0.00     0.029 A 
ATOM     46  C   UNL A   1      44.829  27.312  26.919  1.00  0.00     0.049 A 
ATOM     47  H   UNL A   1      43.435  28.332  28.082  1.00  0.00     0.167 HD
ATOM     48  C   UNL A   1      40.336  30.441  30.329  1.00  0.00     0.037 A 
ATOM     49  C   UNL A   1      45.899  28.119  26.786  1.00  0.00     0.037 A 
ATOM     50  C   UNL A   1      41.451  31.351  30.285  1.00  0.00     0.049 A 
ATOM     51  C   UNL A   1      45.881  29.481  27.424  1.00  0.00     0.074 A 
ATOM     52  C   UNL A   1      41.565  32.604  30.860  1.00  0.00     0.029 A 
ATOM     53  N   UNL A   1      42.647  31.102  29.628  1.00  0.00    -0.354 N 
ATOM     54  N   UNL A   1      44.934  30.052  28.128  1.00  0.00    -0.248 NA
ATOM     55  C   UNL A   1      47.083  30.311  27.251  1.00  0.00     0.031 C 
ATOM     56  C   UNL A   1      42.819  33.127  30.526  1.00  0.00     0.029 A 
ATOM     57  C   UNL A   1      43.503  32.181  29.781  1.00  0.00     0.049 A 
ATOM     58  H   UNL A   1      42.858  30.280  29.129  1.00  0.00     0.167 HD
ATOM     59  C   UNL A   1      45.436  31.289  28.510  1.00  0.00     0.074 A 
ATOM     60  C   UNL A   1      46.773  31.385  27.964  1.00  0.00     0.031 C 
ATOM     61  C   UNL A   1      44.840  32.256  29.248  1.00  0.00     0.037 A 
BRANCH  48  62
ATOM     62  C   UNL A   1      39.111  30.863  31.084  1.00  0.00     0.064 A 
ATOM     63  C   UNL A   1      38.959  30.569  32.448  1.00  0.00     0.173 A 
ATOM     64  C   UNL A   1      38.108  31.616  30.458  1.00  0.00     0.173 A 
ATOM     65  F   UNL A   1      39.885  29.840  33.088  1.00  0.00    -0.203 F 
ATOM     66  C   UNL A   1      37.836  30.997  33.151  1.00  0.00     0.198 A 
ATOM     67  C   UNL A   1      36.999  32.066  31.172  1.00  0.00     0.198 A 
ATOM     68  F   UNL A   1      38.209  31.929  29.157  1.00  0.00    -0.203 F 
ATOM     69  F   UNL A   1      37.695  30.673  34.443  1.00  0.00    -0.200 F 
ATOM     70  C   UNL A   1      36.862  31.752  32.515  1.00  0.00     0.200 A 
ATOM     71  F   UNL A   1      36.064  32.805  30.558  1.00  0.00    -0.200 F 
ATOM     72  F   UNL A   1      35.789  32.174  33.197  1.00  0.00    -0.200 F 
ENDBRANCH  48  62
BRANCH  49  73
ATOM     73  C   UNL A   1      47.093  27.646  26.037  1.00  0.00     0.064 A 
ATOM     74  C   UNL A   1      48.189  27.096  26.716  1.00  0.00     0.173 A 
ATOM     75  C   UNL A   1      47.164  27.730  24.640  1.00  0.00     0.173 A 
ATOM     76  F   UNL A   1      48.175  27.016  28.055  1.00  0.00    -0.203 F 
ATOM     77  C   UNL A   1      49.316  26.654  26.026  1.00  0.00     0.198 A 
ATOM     78  C   UNL A   1      48.281  27.267  23.948  1.00  0.00     0.198 A 
ATOM     79  F   UNL A   1      46.141  28.248  23.945  1.00  0.00    -0.203 F 
ATOM     80  F   UNL A   1      50.363  26.164  26.701  1.00  0.00    -0.200 F 
ATOM     81  C   UNL A   1      49.359  26.735  24.642  1.00  0.00     0.200 A 
ATOM     82  F   UNL A   1      48.315  27.334  22.611  1.00  0.00    -0.200 F 
ATOM     83  F   UNL A   1      50.440  26.305  23.977  1.00  0.00    -0.200 F 
ENDBRANCH  49  73
BRANCH  61  84
ATOM     84  C   UNL A   1      45.640  33.487  29.554  1.00  0.00     0.064 A 
ATOM     85  C   UNL A   1      46.478  33.561  30.675  1.00  0.00     0.173 A 
ATOM     86  C   UNL A   1      45.608  34.586  28.681  1.00  0.00     0.173 A 
ATOM     87  F   UNL A   1      46.533  32.543  31.546  1.00  0.00    -0.203 F 
ATOM     88  C   UNL A   1      47.243  34.699  30.922  1.00  0.00     0.198 A 
ATOM     89  C   UNL A   1      46.393  35.711  28.917  1.00  0.00     0.198 A 
ATOM     90  F   UNL A   1      44.827  34.561  27.591  1.00  0.00    -0.203 F 
ATOM     91  F   UNL A   1      48.009  34.764  32.019  1.00  0.00    -0.200 F 
ATOM     92  C   UNL A   1      47.205  35.769  30.038  1.00  0.00     0.200 A 
ATOM     93  F   UNL A   1      46.365  36.737  28.056  1.00  0.00    -0.200 F 
ATOM     94  F   UNL A   1      47.950  36.858  30.272  1.00  0.00    -0.200 F 
ENDBRANCH  61  84
ENDBRANCH  35  36
ENDBRANCH  27  30
ENDBRANCH  25  26
ENDBRANCH   1  25
TORSDOF 12
ENDMDL
