MODEL 1
REMARK VINA RESULT:     -12.1      0.000      0.000
REMARK SMILES Cc1cscc1-c1ncc(C(=O)NCCCCNC(=O)c2ccc(-c3c4nc(c(-c5c(F)c(F)c(F)c(F)c5F)c5ccc([nH]5)c(-c5c(F)c(F)c(F)c(F)c5F)c5nc(c(-c6c(F)c(F)c(F)c(F)c6F)c6ccc3[nH]6)C=C5)C=C4)cc2)c(=O)[nH]1
REMARK SMILES IDX 16 1 15 2 14 3 13 4 11 5 12 6 10 8 7 9 8 10 86 11 9 12 84 13
REMARK SMILES IDX 85 15 6 16 1 17 2 18 3 19 4 20 5 21 17 22 18 23 19 24 20 26
REMARK SMILES IDX 21 27 22 28 83 29 23 30 82 31 24 32 25 33 26 34 76 35 27 36
REMARK SMILES IDX 81 37 75 38 77 39 28 40 80 41 74 42 73 43 29 45 61 46 41 47
REMARK SMILES IDX 60 48 42 49 45 50 59 51 78 52 43 53 44 54 58 56 79 57 46 58
REMARK SMILES IDX 30 59 31 60 39 61 32 62 33 63 37 64 40 65 34 66 35 67 38 68
REMARK SMILES IDX 36 69 62 70 63 71 71 72 64 73 65 74 69 75 72 76 66 77 67 78
REMARK SMILES IDX 70 79 68 80 47 81 48 82 56 83 49 84 50 85 54 86 57 87 51 88
REMARK SMILES IDX 52 89 55 90 53 91
REMARK H PARENT 13 7 86 14 18 25 77 44 45 55
REMARK Flexibility Score: inf
ROOT
ATOM      1  C   UNL A   1      31.793  28.905  26.829  1.00  0.00     0.023 C 
ENDROOT
BRANCH   1   2
ATOM      2  C   UNL A   1      32.196  27.431  26.824  1.00  0.00     0.023 C 
BRANCH   2   3
ATOM      3  C   UNL A   1      33.419  27.102  25.963  1.00  0.00     0.116 C 
BRANCH   3   4
ATOM      4  N   UNL A   1      33.094  26.103  24.966  1.00  0.00    -0.352 N 
ATOM      5  C   UNL A   1      32.308  26.147  23.857  1.00  0.00     0.258 C 
ATOM      6  O   UNL A   1      32.222  25.097  23.211  1.00  0.00    -0.269 OA
ATOM      7  H   UNL A   1      33.520  25.229  25.120  1.00  0.00     0.163 HD
BRANCH   5   8
ATOM      8  C   UNL A   1      31.633  27.379  23.371  1.00  0.00     0.123 A 
ATOM      9  C   UNL A   1      30.027  29.449  22.550  1.00  0.00     0.141 A 
ATOM     10  N   UNL A   1      29.476  28.486  23.209  1.00  0.00    -0.237 NA
ATOM     11  N   UNL A   1      31.353  29.500  22.252  1.00  0.00    -0.306 N 
ATOM     12  C   UNL A   1      30.302  27.448  23.570  1.00  0.00     0.133 A 
ATOM     13  C   UNL A   1      32.230  28.585  22.753  1.00  0.00     0.264 A 
ATOM     14  H   UNL A   1      31.687  30.214  21.662  1.00  0.00     0.171 HD
ATOM     15  O   UNL A   1      33.428  28.834  22.719  1.00  0.00    -0.269 OA
BRANCH   9  16
ATOM     16  C   UNL A   1      29.247  30.591  22.128  1.00  0.00     0.031 A 
ATOM     17  C   UNL A   1      29.530  31.991  24.296  1.00  0.00     0.046 C 
ATOM     18  C   UNL A   1      29.010  31.778  22.912  1.00  0.00    -0.029 A 
ATOM     19  C   UNL A   1      28.257  32.698  22.207  1.00  0.00     0.069 A 
ATOM     20  S   UNL A   1      27.843  32.155  20.640  1.00  0.00    -0.151 S 
ATOM     21  C   UNL A   1      28.668  30.679  20.876  1.00  0.00     0.077 A 
ENDBRANCH   9  16
ENDBRANCH   5   8
ENDBRANCH   3   4
ENDBRANCH   2   3
ENDBRANCH   1   2
BRANCH   1  22
ATOM     22  C   UNL A   1      32.789  29.849  26.169  1.00  0.00     0.116 C 
BRANCH  22  23
ATOM     23  N   UNL A   1      32.597  31.244  26.531  1.00  0.00    -0.352 N 
ATOM     24  C   UNL A   1      33.374  32.031  27.347  1.00  0.00     0.251 C 
ATOM     25  H   UNL A   1      31.806  31.683  26.140  1.00  0.00     0.163 HD
ATOM     26  O   UNL A   1      33.033  33.173  27.625  1.00  0.00    -0.269 OA
BRANCH  24  27
ATOM     27  C   UNL A   1      34.609  31.466  27.927  1.00  0.00     0.039 A 
ATOM     28  C   UNL A   1      35.723  32.299  28.068  1.00  0.00     0.014 A 
ATOM     29  C   UNL A   1      34.657  30.140  28.362  1.00  0.00     0.014 A 
ATOM     30  C   UNL A   1      36.865  31.818  28.711  1.00  0.00     0.010 A 
ATOM     31  C   UNL A   1      35.771  29.682  29.058  1.00  0.00     0.010 A 
ATOM     32  C   UNL A   1      36.882  30.519  29.243  1.00  0.00    -0.014 A 
BRANCH  32  33
ATOM     33  C   UNL A   1      38.053  30.015  30.001  1.00  0.00     0.031 A 
ATOM     34  C   UNL A   1      38.296  30.481  31.406  1.00  0.00     0.074 A 
ATOM     35  C   UNL A   1      38.934  29.196  29.395  1.00  0.00     0.049 A 
ATOM     36  N   UNL A   1      39.301  30.222  32.203  1.00  0.00    -0.248 NA
ATOM     37  C   UNL A   1      37.287  31.383  31.985  1.00  0.00     0.031 C 
ATOM     38  C   UNL A   1      38.831  28.713  28.017  1.00  0.00     0.029 A 
ATOM     39  N   UNL A   1      40.096  28.633  29.858  1.00  0.00    -0.354 N 
ATOM     40  C   UNL A   1      39.055  30.938  33.366  1.00  0.00     0.074 A 
ATOM     41  C   UNL A   1      37.831  31.681  33.156  1.00  0.00     0.031 C 
ATOM     42  C   UNL A   1      39.877  27.912  27.754  1.00  0.00     0.029 A 
ATOM     43  C   UNL A   1      40.737  27.851  28.930  1.00  0.00     0.049 A 
ATOM     44  H   UNL A   1      40.438  28.778  30.770  1.00  0.00     0.167 HD
ATOM     45  C   UNL A   1      39.773  30.956  34.514  1.00  0.00     0.037 A 
ATOM     46  C   UNL A   1      41.893  27.166  29.020  1.00  0.00     0.037 A 
ATOM     47  C   UNL A   1      40.974  30.193  34.730  1.00  0.00     0.049 A 
ATOM     48  C   UNL A   1      42.667  27.197  30.309  1.00  0.00     0.074 A 
ATOM     49  C   UNL A   1      41.742  30.098  35.877  1.00  0.00     0.029 A 
ATOM     50  N   UNL A   1      41.578  29.389  33.775  1.00  0.00    -0.354 N 
ATOM     51  N   UNL A   1      42.392  27.828  31.424  1.00  0.00    -0.248 NA
ATOM     52  C   UNL A   1      43.910  26.414  30.354  1.00  0.00     0.031 C 
ATOM     53  C   UNL A   1      42.831  29.261  35.606  1.00  0.00     0.029 A 
ATOM     54  C   UNL A   1      42.719  28.805  34.303  1.00  0.00     0.049 A 
ATOM     55  H   UNL A   1      41.246  29.253  32.858  1.00  0.00     0.167 HD
ATOM     56  C   UNL A   1      43.409  27.500  32.309  1.00  0.00     0.074 A 
ATOM     57  C   UNL A   1      44.302  26.603  31.606  1.00  0.00     0.031 C 
ATOM     58  C   UNL A   1      43.588  27.906  33.589  1.00  0.00     0.037 A 
BRANCH  45  59
ATOM     59  C   UNL A   1      39.271  31.824  35.629  1.00  0.00     0.064 A 
ATOM     60  C   UNL A   1      38.376  31.335  36.592  1.00  0.00     0.173 A 
ATOM     61  C   UNL A   1      39.712  33.150  35.755  1.00  0.00     0.173 A 
ATOM     62  F   UNL A   1      37.914  30.079  36.507  1.00  0.00    -0.203 F 
ATOM     63  C   UNL A   1      37.919  32.150  37.624  1.00  0.00     0.198 A 
ATOM     64  C   UNL A   1      39.274  33.954  36.804  1.00  0.00     0.198 A 
ATOM     65  F   UNL A   1      40.572  33.665  34.862  1.00  0.00    -0.203 F 
ATOM     66  F   UNL A   1      37.027  31.675  38.505  1.00  0.00    -0.200 F 
ATOM     67  C   UNL A   1      38.373  33.456  37.734  1.00  0.00     0.200 A 
ATOM     68  F   UNL A   1      39.722  35.212  36.915  1.00  0.00    -0.200 F 
ATOM     69  F   UNL A   1      37.936  34.237  38.730  1.00  0.00    -0.200 F 
ENDBRANCH  45  59
BRANCH  46  70
ATOM     70  C   UNL A   1      42.374  26.366  27.864  1.00  0.00     0.064 A 
ATOM     71  C   UNL A   1      43.306  26.898  26.963  1.00  0.00     0.173 A 
ATOM     72  C   UNL A   1      41.911  25.063  27.633  1.00  0.00     0.173 A 
ATOM     73  F   UNL A   1      43.761  28.149  27.133  1.00  0.00    -0.203 F 
ATOM     74  C   UNL A   1      43.744  26.166  25.863  1.00  0.00     0.198 A 
ATOM     75  C   UNL A   1      42.367  24.321  26.546  1.00  0.00     0.198 A 
ATOM     76  F   UNL A   1      41.021  24.508  28.469  1.00  0.00    -0.203 F 
ATOM     77  F   UNL A   1      44.602  26.713  24.994  1.00  0.00    -0.200 F 
ATOM     78  C   UNL A   1      43.277  24.876  25.658  1.00  0.00     0.200 A 
ATOM     79  F   UNL A   1      41.923  23.072  26.356  1.00  0.00    -0.200 F 
ATOM     80  F   UNL A   1      43.698  24.169  24.599  1.00  0.00    -0.200 F 
ENDBRANCH  46  70
BRANCH  58  81
ATOM     81  C   UNL A   1      44.776  27.357  34.323  1.00  0.00     0.064 A 
ATOM     82  C   UNL A   1      46.000  28.040  34.351  1.00  0.00     0.173 A 
ATOM     83  C   UNL A   1      44.674  26.154  35.038  1.00  0.00     0.173 A 
ATOM     84  F   UNL A   1      46.150  29.185  33.670  1.00  0.00    -0.203 F 
ATOM     85  C   UNL A   1      47.087  27.526  35.052  1.00  0.00     0.198 A 
ATOM     86  C   UNL A   1      45.755  25.658  35.759  1.00  0.00     0.198 A 
ATOM     87  F   UNL A   1      43.522  25.467  35.045  1.00  0.00    -0.203 F 
ATOM     88  F   UNL A   1      48.261  28.173  35.033  1.00  0.00    -0.200 F 
ATOM     89  C   UNL A   1      46.962  26.340  35.761  1.00  0.00     0.200 A 
ATOM     90  F   UNL A   1      45.630  24.516  36.452  1.00  0.00    -0.200 F 
ATOM     91  F   UNL A   1      48.008  25.851  36.441  1.00  0.00    -0.200 F 
ENDBRANCH  58  81
ENDBRANCH  32  33
ENDBRANCH  24  27
ENDBRANCH  22  23
ENDBRANCH   1  22
TORSDOF 12
ENDMDL
MODEL 2
REMARK VINA RESULT:     -12.0      2.694      8.466
REMARK SMILES Cc1cscc1-c1ncc(C(=O)NCCCCNC(=O)c2ccc(-c3c4nc(c(-c5c(F)c(F)c(F)c(F)c5F)c5ccc([nH]5)c(-c5c(F)c(F)c(F)c(F)c5F)c5nc(c(-c6c(F)c(F)c(F)c(F)c6F)c6ccc3[nH]6)C=C5)C=C4)cc2)c(=O)[nH]1
REMARK SMILES IDX 16 1 15 2 14 3 13 4 11 5 12 6 10 8 7 9 8 10 86 11 9 12 84 13
REMARK SMILES IDX 85 15 6 16 1 17 2 18 3 19 4 20 5 21 17 22 18 23 19 24 20 26
REMARK SMILES IDX 21 27 22 28 83 29 23 30 82 31 24 32 25 33 26 34 76 35 27 36
REMARK SMILES IDX 81 37 75 38 77 39 28 40 80 41 74 42 73 43 29 45 61 46 41 47
REMARK SMILES IDX 60 48 42 49 45 50 59 51 78 52 43 53 44 54 58 56 79 57 46 58
REMARK SMILES IDX 30 59 31 60 39 61 32 62 33 63 37 64 40 65 34 66 35 67 38 68
REMARK SMILES IDX 36 69 62 70 63 71 71 72 64 73 65 74 69 75 72 76 66 77 67 78
REMARK SMILES IDX 70 79 68 80 47 81 48 82 56 83 49 84 50 85 54 86 57 87 51 88
REMARK SMILES IDX 52 89 55 90 53 91
REMARK H PARENT 13 7 86 14 18 25 77 44 45 55
REMARK Flexibility Score: inf
ROOT
ATOM      1  C   UNL A   1      31.560  31.928  26.833  1.00  0.00     0.023 C 
ENDROOT
BRANCH   1   2
ATOM      2  C   UNL A   1      31.820  30.422  26.764  1.00  0.00     0.023 C 
BRANCH   2   3
ATOM      3  C   UNL A   1      32.258  29.908  25.391  1.00  0.00     0.116 C 
BRANCH   3   4
ATOM      4  N   UNL A   1      31.162  29.246  24.714  1.00  0.00    -0.352 N 
ATOM      5  C   UNL A   1      30.979  27.955  24.328  1.00  0.00     0.258 C 
ATOM      6  O   UNL A   1      29.919  27.708  23.744  1.00  0.00    -0.269 OA
ATOM      7  H   UNL A   1      30.409  29.840  24.492  1.00  0.00     0.163 HD
BRANCH   5   8
ATOM      8  C   UNL A   1      31.936  26.858  24.632  1.00  0.00     0.123 A 
ATOM      9  C   UNL A   1      33.798  24.846  24.782  1.00  0.00     0.141 A 
ATOM     10  N   UNL A   1      33.778  25.567  23.712  1.00  0.00    -0.237 NA
ATOM     11  N   UNL A   1      32.960  25.035  25.837  1.00  0.00    -0.306 N 
ATOM     12  C   UNL A   1      32.808  26.540  23.655  1.00  0.00     0.133 A 
ATOM     13  C   UNL A   1      32.115  26.102  25.891  1.00  0.00     0.264 A 
ATOM     14  H   UNL A   1      32.965  24.386  26.578  1.00  0.00     0.171 HD
ATOM     15  O   UNL A   1      31.612  26.404  26.966  1.00  0.00    -0.269 OA
BRANCH   9  16
ATOM     16  C   UNL A   1      34.783  23.801  24.945  1.00  0.00     0.031 A 
ATOM     17  C   UNL A   1      33.422  21.899  23.817  1.00  0.00     0.046 C 
ATOM     18  C   UNL A   1      34.636  22.436  24.502  1.00  0.00    -0.029 A 
ATOM     19  C   UNL A   1      35.774  21.699  24.775  1.00  0.00     0.069 A 
ATOM     20  S   UNL A   1      36.991  22.619  25.543  1.00  0.00    -0.151 S 
ATOM     21  C   UNL A   1      36.019  24.022  25.522  1.00  0.00     0.077 A 
ENDBRANCH   9  16
ENDBRANCH   5   8
ENDBRANCH   3   4
ENDBRANCH   2   3
ENDBRANCH   1   2
BRANCH   1  22
ATOM     22  C   UNL A   1      32.740  32.765  27.308  1.00  0.00     0.116 C 
BRANCH  22  23
ATOM     23  N   UNL A   1      32.385  34.135  27.641  1.00  0.00    -0.352 N 
ATOM     24  C   UNL A   1      32.963  34.967  28.570  1.00  0.00     0.251 C 
ATOM     25  H   UNL A   1      31.631  34.516  27.135  1.00  0.00     0.163 HD
ATOM     26  O   UNL A   1      32.495  36.074  28.797  1.00  0.00    -0.269 OA
BRANCH  24  27
ATOM     27  C   UNL A   1      34.137  34.491  29.331  1.00  0.00     0.039 A 
ATOM     28  C   UNL A   1      33.926  33.858  30.559  1.00  0.00     0.014 A 
ATOM     29  C   UNL A   1      35.429  34.633  28.820  1.00  0.00     0.014 A 
ATOM     30  C   UNL A   1      35.008  33.304  31.243  1.00  0.00     0.010 A 
ATOM     31  C   UNL A   1      36.498  34.025  29.471  1.00  0.00     0.010 A 
ATOM     32  C   UNL A   1      36.296  33.352  30.685  1.00  0.00    -0.014 A 
BRANCH  32  33
ATOM     33  C   UNL A   1      37.447  32.700  31.356  1.00  0.00     0.031 A 
ATOM     34  C   UNL A   1      38.157  31.558  30.688  1.00  0.00     0.074 A 
ATOM     35  C   UNL A   1      37.804  33.091  32.594  1.00  0.00     0.049 A 
ATOM     36  N   UNL A   1      39.128  30.808  31.142  1.00  0.00    -0.248 NA
ATOM     37  C   UNL A   1      37.694  31.192  29.340  1.00  0.00     0.031 C 
ATOM     38  C   UNL A   1      37.159  34.156  33.364  1.00  0.00     0.029 A 
ATOM     39  N   UNL A   1      38.790  32.629  33.428  1.00  0.00    -0.354 N 
ATOM     40  C   UNL A   1      39.381  29.875  30.147  1.00  0.00     0.074 A 
ATOM     41  C   UNL A   1      38.431  30.121  29.083  1.00  0.00     0.031 C 
ATOM     42  C   UNL A   1      37.779  34.278  34.549  1.00  0.00     0.029 A 
ATOM     43  C   UNL A   1      38.840  33.281  34.635  1.00  0.00     0.049 A 
ATOM     44  H   UNL A   1      39.403  31.899  33.184  1.00  0.00     0.167 HD
ATOM     45  C   UNL A   1      40.335  28.914  30.113  1.00  0.00     0.037 A 
ATOM     46  C   UNL A   1      39.652  33.091  35.693  1.00  0.00     0.037 A 
ATOM     47  C   UNL A   1      41.297  28.691  31.159  1.00  0.00     0.049 A 
ATOM     48  C   UNL A   1      40.708  32.022  35.626  1.00  0.00     0.074 A 
ATOM     49  C   UNL A   1      42.340  27.782  31.194  1.00  0.00     0.029 A 
ATOM     50  N   UNL A   1      41.336  29.391  32.356  1.00  0.00    -0.354 N 
ATOM     51  N   UNL A   1      40.979  31.186  34.653  1.00  0.00    -0.248 NA
ATOM     52  C   UNL A   1      41.576  31.874  36.802  1.00  0.00     0.031 C 
ATOM     53  C   UNL A   1      42.989  27.909  32.428  1.00  0.00     0.029 A 
ATOM     54  C   UNL A   1      42.375  28.924  33.144  1.00  0.00     0.049 A 
ATOM     55  H   UNL A   1      40.715  30.113  32.609  1.00  0.00     0.167 HD
ATOM     56  C   UNL A   1      42.060  30.433  35.087  1.00  0.00     0.074 A 
ATOM     57  C   UNL A   1      42.405  30.920  36.406  1.00  0.00     0.031 C 
ATOM     58  C   UNL A   1      42.709  29.429  34.450  1.00  0.00     0.037 A 
BRANCH  45  59
ATOM     59  C   UNL A   1      40.388  28.036  28.898  1.00  0.00     0.064 A 
ATOM     60  C   UNL A   1      41.151  28.387  27.774  1.00  0.00     0.173 A 
ATOM     61  C   UNL A   1      39.694  26.818  28.867  1.00  0.00     0.173 A 
ATOM     62  F   UNL A   1      41.821  29.549  27.750  1.00  0.00    -0.203 F 
ATOM     63  C   UNL A   1      41.196  27.563  26.653  1.00  0.00     0.198 A 
ATOM     64  C   UNL A   1      39.763  25.983  27.755  1.00  0.00     0.198 A 
ATOM     65  F   UNL A   1      38.953  26.434  29.917  1.00  0.00    -0.203 F 
ATOM     66  F   UNL A   1      41.893  27.942  25.573  1.00  0.00    -0.200 F 
ATOM     67  C   UNL A   1      40.507  26.359  26.646  1.00  0.00     0.200 A 
ATOM     68  F   UNL A   1      39.106  24.815  27.753  1.00  0.00    -0.200 F 
ATOM     69  F   UNL A   1      40.555  25.565  25.568  1.00  0.00    -0.200 F 
ENDBRANCH  45  59
BRANCH  46  70
ATOM     70  C   UNL A   1      39.519  33.953  36.895  1.00  0.00     0.064 A 
ATOM     71  C   UNL A   1      40.155  35.200  36.956  1.00  0.00     0.173 A 
ATOM     72  C   UNL A   1      38.763  33.549  38.004  1.00  0.00     0.173 A 
ATOM     73  F   UNL A   1      40.906  35.618  35.926  1.00  0.00    -0.203 F 
ATOM     74  C   UNL A   1      40.057  36.004  38.088  1.00  0.00     0.198 A 
ATOM     75  C   UNL A   1      38.644  34.365  39.128  1.00  0.00     0.198 A 
ATOM     76  F   UNL A   1      38.131  32.366  37.993  1.00  0.00    -0.203 F 
ATOM     77  F   UNL A   1      40.710  37.172  38.138  1.00  0.00    -0.200 F 
ATOM     78  C   UNL A   1      39.298  35.588  39.172  1.00  0.00     0.200 A 
ATOM     79  F   UNL A   1      37.902  33.965  40.169  1.00  0.00    -0.200 F 
ATOM     80  F   UNL A   1      39.202  36.361  40.262  1.00  0.00    -0.200 F 
ENDBRANCH  46  70
BRANCH  58  81
ATOM     81  C   UNL A   1      43.879  28.811  35.157  1.00  0.00     0.064 A 
ATOM     82  C   UNL A   1      45.182  29.298  34.983  1.00  0.00     0.173 A 
ATOM     83  C   UNL A   1      43.686  27.746  36.049  1.00  0.00     0.173 A 
ATOM     84  F   UNL A   1      45.418  30.304  34.128  1.00  0.00    -0.203 F 
ATOM     85  C   UNL A   1      46.254  28.725  35.661  1.00  0.00     0.198 A 
ATOM     86  C   UNL A   1      44.757  27.193  36.745  1.00  0.00     0.198 A 
ATOM     87  F   UNL A   1      42.457  27.249  36.253  1.00  0.00    -0.203 F 
ATOM     88  F   UNL A   1      47.498  29.178  35.449  1.00  0.00    -0.200 F 
ATOM     89  C   UNL A   1      46.040  27.679  36.547  1.00  0.00     0.200 A 
ATOM     90  F   UNL A   1      44.546  26.189  37.608  1.00  0.00    -0.200 F 
ATOM     91  F   UNL A   1      47.073  27.133  37.204  1.00  0.00    -0.200 F 
ENDBRANCH  58  81
ENDBRANCH  32  33
ENDBRANCH  24  27
ENDBRANCH  22  23
ENDBRANCH   1  22
TORSDOF 12
ENDMDL
MODEL 3
REMARK VINA RESULT:     -12.0      2.623      8.555
REMARK SMILES Cc1cscc1-c1ncc(C(=O)NCCCCNC(=O)c2ccc(-c3c4nc(c(-c5c(F)c(F)c(F)c(F)c5F)c5ccc([nH]5)c(-c5c(F)c(F)c(F)c(F)c5F)c5nc(c(-c6c(F)c(F)c(F)c(F)c6F)c6ccc3[nH]6)C=C5)C=C4)cc2)c(=O)[nH]1
REMARK SMILES IDX 16 1 15 2 14 3 13 4 11 5 12 6 10 8 7 9 8 10 86 11 9 12 84 13
REMARK SMILES IDX 85 15 6 16 1 17 2 18 3 19 4 20 5 21 17 22 18 23 19 24 20 26
REMARK SMILES IDX 21 27 22 28 83 29 23 30 82 31 24 32 25 33 26 34 76 35 27 36
REMARK SMILES IDX 81 37 75 38 77 39 28 40 80 41 74 42 73 43 29 45 61 46 41 47
REMARK SMILES IDX 60 48 42 49 45 50 59 51 78 52 43 53 44 54 58 56 79 57 46 58
REMARK SMILES IDX 30 59 31 60 39 61 32 62 33 63 37 64 40 65 34 66 35 67 38 68
REMARK SMILES IDX 36 69 62 70 63 71 71 72 64 73 65 74 69 75 72 76 66 77 67 78
REMARK SMILES IDX 70 79 68 80 47 81 48 82 56 83 49 84 50 85 54 86 57 87 51 88
REMARK SMILES IDX 52 89 55 90 53 91
REMARK H PARENT 13 7 86 14 18 25 77 44 45 55
REMARK Flexibility Score: inf
ROOT
ATOM      1  C   UNL A   1      31.583  32.005  26.791  1.00  0.00     0.023 C 
ENDROOT
BRANCH   1   2
ATOM      2  C   UNL A   1      31.820  30.494  26.780  1.00  0.00     0.023 C 
BRANCH   2   3
ATOM      3  C   UNL A   1      32.319  29.932  25.446  1.00  0.00     0.116 C 
BRANCH   3   4
ATOM      4  N   UNL A   1      31.208  29.610  24.574  1.00  0.00    -0.352 N 
ATOM      5  C   UNL A   1      30.726  28.424  24.115  1.00  0.00     0.258 C 
ATOM      6  O   UNL A   1      29.753  28.491  23.357  1.00  0.00    -0.269 OA
ATOM      7  H   UNL A   1      30.708  30.396  24.254  1.00  0.00     0.163 HD
BRANCH   5   8
ATOM      8  C   UNL A   1      31.258  27.100  24.532  1.00  0.00     0.123 A 
ATOM      9  C   UNL A   1      32.294  24.583  24.888  1.00  0.00     0.141 A 
ATOM     10  N   UNL A   1      32.429  25.128  23.726  1.00  0.00    -0.237 NA
ATOM     11  N   UNL A   1      31.682  25.187  25.941  1.00  0.00    -0.306 N 
ATOM     12  C   UNL A   1      31.864  26.373  23.572  1.00  0.00     0.133 A 
ATOM     13  C   UNL A   1      31.277  26.487  25.878  1.00  0.00     0.264 A 
ATOM     14  H   UNL A   1      31.528  24.674  26.767  1.00  0.00     0.171 HD
ATOM     15  O   UNL A   1      31.018  27.076  26.920  1.00  0.00    -0.269 OA
BRANCH   9  16
ATOM     16  C   UNL A   1      32.857  23.278  25.155  1.00  0.00     0.031 A 
ATOM     17  C   UNL A   1      35.276  24.072  25.667  1.00  0.00     0.046 C 
ATOM     18  C   UNL A   1      34.227  23.017  25.524  1.00  0.00    -0.029 A 
ATOM     19  C   UNL A   1      34.434  21.669  25.746  1.00  0.00     0.069 A 
ATOM     20  S   UNL A   1      33.022  20.735  25.521  1.00  0.00    -0.151 S 
ATOM     21  C   UNL A   1      32.105  22.119  25.124  1.00  0.00     0.077 A 
ENDBRANCH   9  16
ENDBRANCH   5   8
ENDBRANCH   3   4
ENDBRANCH   2   3
ENDBRANCH   1   2
BRANCH   1  22
ATOM     22  C   UNL A   1      32.755  32.838  27.291  1.00  0.00     0.116 C 
BRANCH  22  23
ATOM     23  N   UNL A   1      32.391  34.200  27.648  1.00  0.00    -0.352 N 
ATOM     24  C   UNL A   1      32.965  35.020  28.590  1.00  0.00     0.251 C 
ATOM     25  H   UNL A   1      31.634  34.585  27.149  1.00  0.00     0.163 HD
ATOM     26  O   UNL A   1      32.489  36.120  28.836  1.00  0.00    -0.269 OA
BRANCH  24  27
ATOM     27  C   UNL A   1      34.143  34.539  29.341  1.00  0.00     0.039 A 
ATOM     28  C   UNL A   1      33.943  33.957  30.596  1.00  0.00     0.014 A 
ATOM     29  C   UNL A   1      35.426  34.627  28.797  1.00  0.00     0.014 A 
ATOM     30  C   UNL A   1      35.026  33.398  31.276  1.00  0.00     0.010 A 
ATOM     31  C   UNL A   1      36.493  34.014  29.446  1.00  0.00     0.010 A 
ATOM     32  C   UNL A   1      36.302  33.390  30.688  1.00  0.00    -0.014 A 
BRANCH  32  33
ATOM     33  C   UNL A   1      37.450  32.731  31.355  1.00  0.00     0.031 A 
ATOM     34  C   UNL A   1      38.156  31.590  30.683  1.00  0.00     0.074 A 
ATOM     35  C   UNL A   1      37.807  33.115  32.596  1.00  0.00     0.049 A 
ATOM     36  N   UNL A   1      39.124  30.834  31.134  1.00  0.00    -0.248 NA
ATOM     37  C   UNL A   1      37.693  31.232  29.333  1.00  0.00     0.031 C 
ATOM     38  C   UNL A   1      37.166  34.179  33.370  1.00  0.00     0.029 A 
ATOM     39  N   UNL A   1      38.792  32.646  33.428  1.00  0.00    -0.354 N 
ATOM     40  C   UNL A   1      39.374  29.904  30.135  1.00  0.00     0.074 A 
ATOM     41  C   UNL A   1      38.426  30.159  29.072  1.00  0.00     0.031 C 
ATOM     42  C   UNL A   1      37.786  34.293  34.556  1.00  0.00     0.029 A 
ATOM     43  C   UNL A   1      38.844  33.292  34.638  1.00  0.00     0.049 A 
ATOM     44  H   UNL A   1      39.403  31.914  33.181  1.00  0.00     0.167 HD
ATOM     45  C   UNL A   1      40.325  28.941  30.097  1.00  0.00     0.037 A 
ATOM     46  C   UNL A   1      39.654  33.094  35.695  1.00  0.00     0.037 A 
ATOM     47  C   UNL A   1      41.286  28.709  31.142  1.00  0.00     0.049 A 
ATOM     48  C   UNL A   1      40.707  32.022  35.624  1.00  0.00     0.074 A 
ATOM     49  C   UNL A   1      42.325  27.797  31.173  1.00  0.00     0.029 A 
ATOM     50  N   UNL A   1      41.326  29.404  32.343  1.00  0.00    -0.354 N 
ATOM     51  N   UNL A   1      40.975  31.190  34.647  1.00  0.00    -0.248 NA
ATOM     52  C   UNL A   1      41.573  31.866  36.800  1.00  0.00     0.031 C 
ATOM     53  C   UNL A   1      42.975  27.916  32.408  1.00  0.00     0.029 A 
ATOM     54  C   UNL A   1      42.364  28.929  33.128  1.00  0.00     0.049 A 
ATOM     55  H   UNL A   1      40.708  30.126  32.598  1.00  0.00     0.167 HD
ATOM     56  C   UNL A   1      42.053  30.431  35.078  1.00  0.00     0.074 A 
ATOM     57  C   UNL A   1      42.400  30.910  36.400  1.00  0.00     0.031 C 
ATOM     58  C   UNL A   1      42.699  29.427  34.437  1.00  0.00     0.037 A 
BRANCH  45  59
ATOM     59  C   UNL A   1      40.376  28.068  28.878  1.00  0.00     0.064 A 
ATOM     60  C   UNL A   1      41.123  28.432  27.748  1.00  0.00     0.173 A 
ATOM     61  C   UNL A   1      39.695  26.842  28.849  1.00  0.00     0.173 A 
ATOM     62  F   UNL A   1      41.780  29.601  27.721  1.00  0.00    -0.203 F 
ATOM     63  C   UNL A   1      41.165  27.613  26.623  1.00  0.00     0.198 A 
ATOM     64  C   UNL A   1      39.761  26.013  27.733  1.00  0.00     0.198 A 
ATOM     65  F   UNL A   1      38.969  26.446  29.905  1.00  0.00    -0.203 F 
ATOM     66  F   UNL A   1      41.847  28.003  25.537  1.00  0.00    -0.200 F 
ATOM     67  C   UNL A   1      40.490  26.401  26.618  1.00  0.00     0.200 A 
ATOM     68  F   UNL A   1      39.117  24.837  27.733  1.00  0.00    -0.200 F 
ATOM     69  F   UNL A   1      40.535  25.612  25.537  1.00  0.00    -0.200 F 
ENDBRANCH  45  59
BRANCH  46  70
ATOM     70  C   UNL A   1      39.524  33.951  36.902  1.00  0.00     0.064 A 
ATOM     71  C   UNL A   1      38.753  33.535  37.995  1.00  0.00     0.173 A 
ATOM     72  C   UNL A   1      40.157  35.199  36.984  1.00  0.00     0.173 A 
ATOM     73  F   UNL A   1      38.112  32.357  37.952  1.00  0.00    -0.203 F 
ATOM     74  C   UNL A   1      38.604  34.342  39.120  1.00  0.00     0.198 A 
ATOM     75  C   UNL A   1      40.028  35.996  38.120  1.00  0.00     0.198 A 
ATOM     76  F   UNL A   1      40.909  35.640  35.965  1.00  0.00    -0.203 F 
ATOM     77  F   UNL A   1      37.827  33.939  40.134  1.00  0.00    -0.200 F 
ATOM     78  C   UNL A   1      39.245  35.570  39.184  1.00  0.00     0.200 A 
ATOM     79  F   UNL A   1      40.657  37.177  38.183  1.00  0.00    -0.200 F 
ATOM     80  F   UNL A   1      39.103  36.347  40.266  1.00  0.00    -0.200 F 
ENDBRANCH  46  70
BRANCH  58  81
ATOM     81  C   UNL A   1      43.866  28.802  35.142  1.00  0.00     0.064 A 
ATOM     82  C   UNL A   1      43.707  27.687  35.977  1.00  0.00     0.173 A 
ATOM     83  C   UNL A   1      45.162  29.301  34.947  1.00  0.00     0.173 A 
ATOM     84  F   UNL A   1      42.485  27.185  36.208  1.00  0.00    -0.203 F 
ATOM     85  C   UNL A   1      44.803  27.107  36.610  1.00  0.00     0.198 A 
ATOM     86  C   UNL A   1      46.259  28.702  35.560  1.00  0.00     0.198 A 
ATOM     87  F   UNL A   1      45.366  30.362  34.152  1.00  0.00    -0.203 F 
ATOM     88  F   UNL A   1      44.624  26.068  37.437  1.00  0.00    -0.200 F 
ATOM     89  C   UNL A   1      46.078  27.610  36.394  1.00  0.00     0.200 A 
ATOM     90  F   UNL A   1      47.492  29.183  35.343  1.00  0.00    -0.200 F 
ATOM     91  F   UNL A   1      47.133  27.046  36.999  1.00  0.00    -0.200 F 
ENDBRANCH  58  81
ENDBRANCH  32  33
ENDBRANCH  24  27
ENDBRANCH  22  23
ENDBRANCH   1  22
TORSDOF 12
ENDMDL
