MODEL 1
REMARK VINA RESULT:     -11.4      0.000      0.000
REMARK SMILES COc1cccc(O[C@@H](C)c2nnc(SCC(=O)NCCCCNC(=O)c3ccc(-c4c5nc(c(-c6c(F)c(F)c(F)c(F)c6F)c6ccc([nH]6)c(-c6c(F)c(F)c(F)c(F)c6F)c6nc(c(-c7c(F)c(F)c(F)c(F)c7F)c7ccc4[nH]7)C=C6)C=C5)cc3)n2C)c1
REMARK SMILES IDX 17 1 18 2 19 3 16 5 15 6 14 7 11 8 12 9 90 10 13 11 91 12
REMARK SMILES IDX 9 13 10 14 8 15 7 16 3 17 4 18 92 19 5 20 6 21 2 22 1 23
REMARK SMILES IDX 20 24 21 25 22 26 23 27 24 28 25 29 26 31 27 32 28 33 89 34
REMARK SMILES IDX 29 35 88 36 30 37 31 38 32 39 82 40 33 41 87 42 81 43 83 44
REMARK SMILES IDX 34 45 86 46 80 47 79 48 35 50 67 51 47 52 66 53 48 54 51 55
REMARK SMILES IDX 65 56 84 57 49 58 50 59 64 61 85 62 52 63 36 64 37 65 45 66
REMARK SMILES IDX 38 67 39 68 43 69 46 70 40 71 41 72 44 73 42 74 68 75 69 76
REMARK SMILES IDX 77 77 70 78 71 79 75 80 78 81 72 82 73 83 76 84 74 85 53 86
REMARK SMILES IDX 54 87 62 88 55 89 56 90 60 91 63 92 57 93 58 94 61 95 59 96
REMARK H PARENT 19 4 24 30 83 49 51 60
REMARK Flexibility Score: inf
ROOT
ATOM      1  C   UNL A   1      30.402  28.994  22.648  1.00  0.00     0.230 C 
ATOM      2  O   UNL A   1      29.882  29.521  21.662  1.00  0.00    -0.274 OA
ATOM      3  N   UNL A   1      30.704  29.795  23.702  1.00  0.00    -0.355 N 
ATOM      4  H   UNL A   1      30.465  30.743  23.590  1.00  0.00     0.163 HD
ENDROOT
BRANCH   1   5
ATOM      5  C   UNL A   1      30.594  27.498  22.713  1.00  0.00     0.178 C 
BRANCH   5   6
ATOM      6  S   UNL A   1      29.594  26.611  23.896  1.00  0.00    -0.076 SA
BRANCH   6   7
ATOM      7  C   UNL A   1      30.528  25.672  25.000  1.00  0.00     0.191 A 
ATOM      8  C   UNL A   1      31.766  24.217  26.086  1.00  0.00     0.174 A 
ATOM      9  N   UNL A   1      31.291  25.083  26.956  1.00  0.00    -0.130 NA
ATOM     10  N   UNL A   1      31.226  24.504  24.840  1.00  0.00    -0.306 N 
ATOM     11  N   UNL A   1      30.550  26.003  26.274  1.00  0.00    -0.123 NA
ATOM     12  C   UNL A   1      31.367  23.642  23.699  1.00  0.00     0.154 C 
BRANCH   8  13
ATOM     13  C   UNL A   1      32.733  23.105  26.371  1.00  0.00     0.238 C 
ATOM     14  C   UNL A   1      32.777  22.626  27.820  1.00  0.00     0.062 C 
BRANCH  13  15
ATOM     15  O   UNL A   1      34.025  23.397  25.810  1.00  0.00    -0.483 OA
BRANCH  15  16
ATOM     16  C   UNL A   1      34.980  22.444  25.595  1.00  0.00     0.124 A 
ATOM     17  C   UNL A   1      37.226  21.510  25.534  1.00  0.00     0.122 A 
ATOM     18  C   UNL A   1      36.716  20.321  25.015  1.00  0.00     0.046 A 
ATOM     19  C   UNL A   1      36.353  22.566  25.812  1.00  0.00     0.092 A 
ATOM     20  C   UNL A   1      35.348  20.179  24.798  1.00  0.00     0.008 A 
ATOM     21  C   UNL A   1      34.485  21.238  25.091  1.00  0.00     0.047 A 
BRANCH  17  22
ATOM     22  O   UNL A   1      38.584  21.538  25.704  1.00  0.00    -0.497 OA
ATOM     23  C   UNL A   1      39.128  22.724  26.278  1.00  0.00     0.278 C 
ENDBRANCH  17  22
ENDBRANCH  15  16
ENDBRANCH  13  15
ENDBRANCH   8  13
ENDBRANCH   6   7
ENDBRANCH   5   6
ENDBRANCH   1   5
BRANCH   3  24
ATOM     24  C   UNL A   1      31.326  29.462  24.968  1.00  0.00     0.116 C 
BRANCH  24  25
ATOM     25  C   UNL A   1      32.848  29.433  24.848  1.00  0.00     0.023 C 
BRANCH  25  26
ATOM     26  C   UNL A   1      33.527  28.263  25.569  1.00  0.00     0.023 C 
BRANCH  26  27
ATOM     27  C   UNL A   1      33.783  28.467  27.059  1.00  0.00     0.116 C 
BRANCH  27  28
ATOM     28  N   UNL A   1      33.687  29.859  27.468  1.00  0.00    -0.352 N 
ATOM     29  C   UNL A   1      34.604  30.638  28.129  1.00  0.00     0.251 C 
ATOM     30  H   UNL A   1      32.842  30.307  27.237  1.00  0.00     0.163 HD
ATOM     31  O   UNL A   1      34.295  31.766  28.506  1.00  0.00    -0.269 OA
BRANCH  29  32
ATOM     32  C   UNL A   1      35.955  30.113  28.417  1.00  0.00     0.039 A 
ATOM     33  C   UNL A   1      36.944  30.231  27.436  1.00  0.00     0.014 A 
ATOM     34  C   UNL A   1      36.253  29.509  29.641  1.00  0.00     0.014 A 
ATOM     35  C   UNL A   1      38.244  29.804  27.706  1.00  0.00     0.010 A 
ATOM     36  C   UNL A   1      37.567  29.154  29.938  1.00  0.00     0.010 A 
ATOM     37  C   UNL A   1      38.577  29.297  28.974  1.00  0.00    -0.014 A 
BRANCH  37  38
ATOM     38  C   UNL A   1      39.977  28.924  29.305  1.00  0.00     0.031 A 
ATOM     39  C   UNL A   1      40.833  29.837  30.139  1.00  0.00     0.074 A 
ATOM     40  C   UNL A   1      40.493  27.780  28.815  1.00  0.00     0.049 A 
ATOM     41  N   UNL A   1      42.083  29.698  30.502  1.00  0.00    -0.248 NA
ATOM     42  C   UNL A   1      40.209  31.084  30.607  1.00  0.00     0.031 C 
ATOM     43  C   UNL A   1      39.782  26.833  27.955  1.00  0.00     0.029 A 
ATOM     44  N   UNL A   1      41.738  27.222  28.964  1.00  0.00    -0.354 N 
ATOM     45  C   UNL A   1      42.395  30.837  31.232  1.00  0.00     0.074 A 
ATOM     46  C   UNL A   1      41.224  31.687  31.208  1.00  0.00     0.031 C 
ATOM     47  C   UNL A   1      40.588  25.796  27.681  1.00  0.00     0.029 A 
ATOM     48  C   UNL A   1      41.887  26.024  28.307  1.00  0.00     0.049 A 
ATOM     49  H   UNL A   1      42.457  27.639  29.490  1.00  0.00     0.167 HD
ATOM     50  C   UNL A   1      43.543  31.137  31.886  1.00  0.00     0.037 A 
ATOM     51  C   UNL A   1      42.952  25.205  28.217  1.00  0.00     0.037 A 
ATOM     52  C   UNL A   1      44.703  30.283  31.918  1.00  0.00     0.049 A 
ATOM     53  C   UNL A   1      44.224  25.572  28.933  1.00  0.00     0.074 A 
ATOM     54  C   UNL A   1      45.898  30.474  32.591  1.00  0.00     0.029 A 
ATOM     55  N   UNL A   1      44.816  29.077  31.241  1.00  0.00    -0.354 N 
ATOM     56  N   UNL A   1      44.483  26.618  29.678  1.00  0.00    -0.248 NA
ATOM     57  C   UNL A   1      45.350  24.637  28.800  1.00  0.00     0.031 C 
ATOM     58  C   UNL A   1      46.753  29.414  32.276  1.00  0.00     0.029 A 
ATOM     59  C   UNL A   1      46.070  28.527  31.459  1.00  0.00     0.049 A 
ATOM     60  H   UNL A   1      44.110  28.672  30.688  1.00  0.00     0.167 HD
ATOM     61  C   UNL A   1      45.786  26.454  30.129  1.00  0.00     0.074 A 
ATOM     62  C   UNL A   1      46.257  25.196  29.588  1.00  0.00     0.031 C 
ATOM     63  C   UNL A   1      46.525  27.271  30.920  1.00  0.00     0.037 A 
BRANCH  50  64
ATOM     64  C   UNL A   1      43.601  32.444  32.626  1.00  0.00     0.064 A 
ATOM     65  C   UNL A   1      43.220  32.546  33.973  1.00  0.00     0.173 A 
ATOM     66  C   UNL A   1      44.078  33.602  31.993  1.00  0.00     0.173 A 
ATOM     67  F   UNL A   1      42.747  31.472  34.624  1.00  0.00    -0.203 F 
ATOM     68  C   UNL A   1      43.284  33.763  34.647  1.00  0.00     0.198 A 
ATOM     69  C   UNL A   1      44.173  34.809  32.680  1.00  0.00     0.198 A 
ATOM     70  F   UNL A   1      44.462  33.560  30.708  1.00  0.00    -0.203 F 
ATOM     71  F   UNL A   1      42.862  33.846  35.917  1.00  0.00    -0.200 F 
ATOM     72  C   UNL A   1      43.767  34.891  34.003  1.00  0.00     0.200 A 
ATOM     73  F   UNL A   1      44.655  35.895  32.060  1.00  0.00    -0.200 F 
ATOM     74  F   UNL A   1      43.836  36.060  34.656  1.00  0.00    -0.200 F 
ENDBRANCH  50  64
BRANCH  51  75
ATOM     75  C   UNL A   1      42.856  23.941  27.437  1.00  0.00     0.064 A 
ATOM     76  C   UNL A   1      42.473  22.741  28.055  1.00  0.00     0.173 A 
ATOM     77  C   UNL A   1      43.156  23.901  26.068  1.00  0.00     0.173 A 
ATOM     78  F   UNL A   1      42.196  22.723  29.367  1.00  0.00    -0.203 F 
ATOM     79  C   UNL A   1      42.420  21.547  27.339  1.00  0.00     0.198 A 
ATOM     80  C   UNL A   1      43.070  22.712  25.346  1.00  0.00     0.198 A 
ATOM     81  F   UNL A   1      43.524  25.020  25.428  1.00  0.00    -0.203 F 
ATOM     82  F   UNL A   1      42.103  20.406  27.967  1.00  0.00    -0.200 F 
ATOM     83  C   UNL A   1      42.712  21.534  25.984  1.00  0.00     0.200 A 
ATOM     84  F   UNL A   1      43.340  22.707  24.033  1.00  0.00    -0.200 F 
ATOM     85  F   UNL A   1      42.660  20.386  25.296  1.00  0.00    -0.200 F 
ENDBRANCH  51  75
BRANCH  63  86
ATOM     86  C   UNL A   1      47.909  26.810  31.281  1.00  0.00     0.064 A 
ATOM     87  C   UNL A   1      48.149  25.978  32.385  1.00  0.00     0.173 A 
ATOM     88  C   UNL A   1      49.009  27.185  30.493  1.00  0.00     0.173 A 
ATOM     89  F   UNL A   1      47.135  25.601  33.180  1.00  0.00    -0.203 F 
ATOM     90  C   UNL A   1      49.441  25.568  32.707  1.00  0.00     0.198 A 
ATOM     91  C   UNL A   1      50.294  26.742  30.795  1.00  0.00     0.198 A 
ATOM     92  F   UNL A   1      48.836  27.972  29.420  1.00  0.00    -0.203 F 
ATOM     93  F   UNL A   1      49.653  24.822  33.800  1.00  0.00    -0.200 F 
ATOM     94  C   UNL A   1      50.510  25.945  31.908  1.00  0.00     0.200 A 
ATOM     95  F   UNL A   1      51.323  27.093  30.012  1.00  0.00    -0.200 F 
ATOM     96  F   UNL A   1      51.751  25.543  32.215  1.00  0.00    -0.200 F 
ENDBRANCH  63  86
ENDBRANCH  37  38
ENDBRANCH  29  32
ENDBRANCH  27  28
ENDBRANCH  26  27
ENDBRANCH  25  26
ENDBRANCH  24  25
ENDBRANCH   3  24
TORSDOF 17
ENDMDL
MODEL 2
REMARK VINA RESULT:     -11.4      3.628      8.401
REMARK SMILES COc1cccc(O[C@@H](C)c2nnc(SCC(=O)NCCCCNC(=O)c3ccc(-c4c5nc(c(-c6c(F)c(F)c(F)c(F)c6F)c6ccc([nH]6)c(-c6c(F)c(F)c(F)c(F)c6F)c6nc(c(-c7c(F)c(F)c(F)c(F)c7F)c7ccc4[nH]7)C=C6)C=C5)cc3)n2C)c1
REMARK SMILES IDX 17 1 18 2 19 3 16 5 15 6 14 7 11 8 12 9 90 10 13 11 91 12
REMARK SMILES IDX 9 13 10 14 8 15 7 16 3 17 4 18 92 19 5 20 6 21 2 22 1 23
REMARK SMILES IDX 20 24 21 25 22 26 23 27 24 28 25 29 26 31 27 32 28 33 89 34
REMARK SMILES IDX 29 35 88 36 30 37 31 38 32 39 82 40 33 41 87 42 81 43 83 44
REMARK SMILES IDX 34 45 86 46 80 47 79 48 35 50 67 51 47 52 66 53 48 54 51 55
REMARK SMILES IDX 65 56 84 57 49 58 50 59 64 61 85 62 52 63 36 64 37 65 45 66
REMARK SMILES IDX 38 67 39 68 43 69 46 70 40 71 41 72 44 73 42 74 68 75 69 76
REMARK SMILES IDX 77 77 70 78 71 79 75 80 78 81 72 82 73 83 76 84 74 85 53 86
REMARK SMILES IDX 54 87 62 88 55 89 56 90 60 91 63 92 57 93 58 94 61 95 59 96
REMARK H PARENT 19 4 24 30 83 49 51 60
REMARK Flexibility Score: inf
ROOT
ATOM      1  C   UNL A   1      33.848  21.299  24.791  1.00  0.00     0.230 C 
ATOM      2  O   UNL A   1      33.051  21.553  23.884  1.00  0.00    -0.274 OA
ATOM      3  N   UNL A   1      35.169  21.477  24.533  1.00  0.00    -0.355 N 
ATOM      4  H   UNL A   1      35.379  21.812  23.632  1.00  0.00     0.163 HD
ENDROOT
BRANCH   1   5
ATOM      5  C   UNL A   1      33.356  20.908  26.164  1.00  0.00     0.178 C 
BRANCH   5   6
ATOM      6  S   UNL A   1      33.143  22.228  27.346  1.00  0.00    -0.076 SA
BRANCH   6   7
ATOM      7  C   UNL A   1      32.188  23.529  26.739  1.00  0.00     0.191 A 
ATOM      8  C   UNL A   1      31.323  25.308  25.783  1.00  0.00     0.174 A 
ATOM      9  N   UNL A   1      30.433  24.819  26.622  1.00  0.00    -0.130 NA
ATOM     10  N   UNL A   1      32.489  24.567  25.899  1.00  0.00    -0.306 N 
ATOM     11  N   UNL A   1      30.961  23.696  27.189  1.00  0.00    -0.123 NA
ATOM     12  C   UNL A   1      33.731  24.945  25.281  1.00  0.00     0.154 C 
BRANCH   8  13
ATOM     13  C   UNL A   1      31.124  26.466  24.849  1.00  0.00     0.238 C 
ATOM     14  C   UNL A   1      31.272  27.850  25.474  1.00  0.00     0.062 C 
BRANCH  13  15
ATOM     15  O   UNL A   1      29.922  26.297  24.077  1.00  0.00    -0.483 OA
BRANCH  15  16
ATOM     16  C   UNL A   1      29.243  27.339  23.511  1.00  0.00     0.124 A 
ATOM     17  C   UNL A   1      28.960  29.364  22.193  1.00  0.00     0.122 A 
ATOM     18  C   UNL A   1      27.607  29.390  22.525  1.00  0.00     0.046 A 
ATOM     19  C   UNL A   1      29.770  28.341  22.695  1.00  0.00     0.092 A 
ATOM     20  C   UNL A   1      27.063  28.394  23.332  1.00  0.00     0.008 A 
ATOM     21  C   UNL A   1      27.881  27.372  23.819  1.00  0.00     0.047 A 
BRANCH  17  22
ATOM     22  O   UNL A   1      29.385  30.393  21.395  1.00  0.00    -0.497 OA
ATOM     23  C   UNL A   1      28.378  31.270  20.899  1.00  0.00     0.278 C 
ENDBRANCH  17  22
ENDBRANCH  15  16
ENDBRANCH  13  15
ENDBRANCH   8  13
ENDBRANCH   6   7
ENDBRANCH   5   6
ENDBRANCH   1   5
BRANCH   3  24
ATOM     24  C   UNL A   1      36.316  21.248  25.388  1.00  0.00     0.116 C 
BRANCH  24  25
ATOM     25  C   UNL A   1      37.542  20.839  24.574  1.00  0.00     0.023 C 
BRANCH  25  26
ATOM     26  C   UNL A   1      38.298  19.622  25.119  1.00  0.00     0.023 C 
BRANCH  26  27
ATOM     27  C   UNL A   1      39.479  19.936  26.032  1.00  0.00     0.116 C 
BRANCH  27  28
ATOM     28  N   UNL A   1      40.543  18.950  25.947  1.00  0.00    -0.352 N 
ATOM     29  C   UNL A   1      41.903  19.126  26.023  1.00  0.00     0.251 C 
ATOM     30  H   UNL A   1      40.247  18.021  25.816  1.00  0.00     0.163 HD
ATOM     31  O   UNL A   1      42.660  18.184  25.799  1.00  0.00    -0.269 OA
BRANCH  29  32
ATOM     32  C   UNL A   1      42.463  20.457  26.342  1.00  0.00     0.039 A 
ATOM     33  C   UNL A   1      43.030  21.210  25.310  1.00  0.00     0.014 A 
ATOM     34  C   UNL A   1      42.430  20.964  27.643  1.00  0.00     0.014 A 
ATOM     35  C   UNL A   1      43.504  22.496  25.571  1.00  0.00     0.010 A 
ATOM     36  C   UNL A   1      42.833  22.275  27.886  1.00  0.00     0.010 A 
ATOM     37  C   UNL A   1      43.375  23.056  26.853  1.00  0.00    -0.014 A 
BRANCH  37  38
ATOM     38  C   UNL A   1      43.793  24.456  27.122  1.00  0.00     0.031 A 
ATOM     39  C   UNL A   1      42.799  25.465  27.629  1.00  0.00     0.074 A 
ATOM     40  C   UNL A   1      45.061  24.833  26.866  1.00  0.00     0.049 A 
ATOM     41  N   UNL A   1      42.968  26.737  27.889  1.00  0.00    -0.248 NA
ATOM     42  C   UNL A   1      41.425  24.987  27.849  1.00  0.00     0.031 C 
ATOM     43  C   UNL A   1      46.108  23.962  26.329  1.00  0.00     0.029 A 
ATOM     44  N   UNL A   1      45.685  26.046  27.019  1.00  0.00    -0.354 N 
ATOM     45  C   UNL A   1      41.727  27.209  28.295  1.00  0.00     0.074 A 
ATOM     46  C   UNL A   1      40.800  26.104  28.188  1.00  0.00     0.031 C 
ATOM     47  C   UNL A   1      47.250  24.658  26.228  1.00  0.00     0.029 A 
ATOM     48  C   UNL A   1      47.009  26.034  26.651  1.00  0.00     0.049 A 
ATOM     49  H   UNL A   1      45.228  26.848  27.358  1.00  0.00     0.167 HD
ATOM     50  C   UNL A   1      41.396  28.444  28.744  1.00  0.00     0.037 A 
ATOM     51  C   UNL A   1      47.923  27.023  26.651  1.00  0.00     0.037 A 
ATOM     52  C   UNL A   1      42.325  29.539  28.860  1.00  0.00     0.049 A 
ATOM     53  C   UNL A   1      47.524  28.392  27.130  1.00  0.00     0.074 A 
ATOM     54  C   UNL A   1      42.098  30.816  29.347  1.00  0.00     0.029 A 
ATOM     55  N   UNL A   1      43.658  29.489  28.478  1.00  0.00    -0.354 N 
ATOM     56  N   UNL A   1      46.365  28.808  27.579  1.00  0.00    -0.248 NA
ATOM     57  C   UNL A   1      48.565  29.429  27.111  1.00  0.00     0.031 C 
ATOM     58  C   UNL A   1      43.278  31.553  29.208  1.00  0.00     0.029 A 
ATOM     59  C   UNL A   1      44.259  30.720  28.695  1.00  0.00     0.049 A 
ATOM     60  H   UNL A   1      44.110  28.697  28.109  1.00  0.00     0.167 HD
ATOM     61  C   UNL A   1      46.543  30.141  27.924  1.00  0.00     0.074 A 
ATOM     62  C   UNL A   1      47.930  30.459  27.650  1.00  0.00     0.031 C 
ATOM     63  C   UNL A   1      45.642  31.022  28.423  1.00  0.00     0.037 A 
BRANCH  50  64
ATOM     64  C   UNL A   1      39.967  28.678  29.145  1.00  0.00     0.064 A 
ATOM     65  C   UNL A   1      39.524  28.455  30.459  1.00  0.00     0.173 A 
ATOM     66  C   UNL A   1      39.035  29.166  28.216  1.00  0.00     0.173 A 
ATOM     67  F   UNL A   1      40.371  27.979  31.384  1.00  0.00    -0.203 F 
ATOM     68  C   UNL A   1      38.198  28.681  30.818  1.00  0.00     0.198 A 
ATOM     69  C   UNL A   1      37.718  29.423  28.587  1.00  0.00     0.198 A 
ATOM     70  F   UNL A   1      39.404  29.404  26.949  1.00  0.00    -0.203 F 
ATOM     71  F   UNL A   1      37.788  28.407  32.064  1.00  0.00    -0.200 F 
ATOM     72  C   UNL A   1      37.298  29.172  29.884  1.00  0.00     0.200 A 
ATOM     73  F   UNL A   1      36.853  29.913  27.688  1.00  0.00    -0.200 F 
ATOM     74  F   UNL A   1      36.023  29.396  30.234  1.00  0.00    -0.200 F 
ENDBRANCH  50  64
BRANCH  51  75
ATOM     75  C   UNL A   1      49.316  26.749  26.204  1.00  0.00     0.064 A 
ATOM     76  C   UNL A   1      49.708  26.989  24.879  1.00  0.00     0.173 A 
ATOM     77  C   UNL A   1      50.278  26.233  27.085  1.00  0.00     0.173 A 
ATOM     78  F   UNL A   1      48.819  27.463  23.994  1.00  0.00    -0.203 F 
ATOM     79  C   UNL A   1      51.000  26.697  24.446  1.00  0.00     0.198 A 
ATOM     80  C   UNL A   1      51.579  25.972  26.658  1.00  0.00     0.198 A 
ATOM     81  F   UNL A   1      49.957  25.988  28.363  1.00  0.00    -0.203 F 
ATOM     82  F   UNL A   1      51.330  26.885  23.161  1.00  0.00    -0.200 F 
ATOM     83  C   UNL A   1      51.936  26.195  25.337  1.00  0.00     0.200 A 
ATOM     84  F   UNL A   1      52.484  25.500  27.526  1.00  0.00    -0.200 F 
ATOM     85  F   UNL A   1      53.178  25.916  24.920  1.00  0.00    -0.200 F 
ENDBRANCH  51  75
BRANCH  63  86
ATOM     86  C   UNL A   1      46.136  32.405  28.744  1.00  0.00     0.064 A 
ATOM     87  C   UNL A   1      46.687  32.723  29.994  1.00  0.00     0.173 A 
ATOM     88  C   UNL A   1      46.082  33.419  27.774  1.00  0.00     0.173 A 
ATOM     89  F   UNL A   1      46.750  31.796  30.961  1.00  0.00    -0.203 F 
ATOM     90  C   UNL A   1      47.133  34.014  30.273  1.00  0.00     0.198 A 
ATOM     91  C   UNL A   1      46.563  34.697  28.044  1.00  0.00     0.198 A 
ATOM     92  F   UNL A   1      45.574  33.167  26.559  1.00  0.00    -0.203 F 
ATOM     93  F   UNL A   1      47.600  34.310  31.493  1.00  0.00    -0.200 F 
ATOM     94  C   UNL A   1      47.077  34.997  29.296  1.00  0.00     0.200 A 
ATOM     95  F   UNL A   1      46.525  35.640  27.093  1.00  0.00    -0.200 F 
ATOM     96  F   UNL A   1      47.513  36.235  29.565  1.00  0.00    -0.200 F 
ENDBRANCH  63  86
ENDBRANCH  37  38
ENDBRANCH  29  32
ENDBRANCH  27  28
ENDBRANCH  26  27
ENDBRANCH  25  26
ENDBRANCH  24  25
ENDBRANCH   3  24
TORSDOF 17
ENDMDL
MODEL 3
REMARK VINA RESULT:     -11.3      0.428      2.113
REMARK SMILES COc1cccc(O[C@@H](C)c2nnc(SCC(=O)NCCCCNC(=O)c3ccc(-c4c5nc(c(-c6c(F)c(F)c(F)c(F)c6F)c6ccc([nH]6)c(-c6c(F)c(F)c(F)c(F)c6F)c6nc(c(-c7c(F)c(F)c(F)c(F)c7F)c7ccc4[nH]7)C=C6)C=C5)cc3)n2C)c1
REMARK SMILES IDX 17 1 18 2 19 3 16 5 15 6 14 7 11 8 12 9 90 10 13 11 91 12
REMARK SMILES IDX 9 13 10 14 8 15 7 16 3 17 4 18 92 19 5 20 6 21 2 22 1 23
REMARK SMILES IDX 20 24 21 25 22 26 23 27 24 28 25 29 26 31 27 32 28 33 89 34
REMARK SMILES IDX 29 35 88 36 30 37 31 38 32 39 82 40 33 41 87 42 81 43 83 44
REMARK SMILES IDX 34 45 86 46 80 47 79 48 35 50 67 51 47 52 66 53 48 54 51 55
REMARK SMILES IDX 65 56 84 57 49 58 50 59 64 61 85 62 52 63 36 64 37 65 45 66
REMARK SMILES IDX 38 67 39 68 43 69 46 70 40 71 41 72 44 73 42 74 68 75 69 76
REMARK SMILES IDX 77 77 70 78 71 79 75 80 78 81 72 82 73 83 76 84 74 85 53 86
REMARK SMILES IDX 54 87 62 88 55 89 56 90 60 91 63 92 57 93 58 94 61 95 59 96
REMARK H PARENT 19 4 24 30 83 49 51 60
REMARK Flexibility Score: inf
ROOT
ATOM      1  C   UNL A   1      30.428  28.871  22.644  1.00  0.00     0.230 C 
ATOM      2  O   UNL A   1      29.893  29.407  21.670  1.00  0.00    -0.274 OA
ATOM      3  N   UNL A   1      30.761  29.666  23.693  1.00  0.00    -0.355 N 
ATOM      4  H   UNL A   1      30.531  30.617  23.588  1.00  0.00     0.163 HD
ENDROOT
BRANCH   1   5
ATOM      5  C   UNL A   1      30.604  27.372  22.701  1.00  0.00     0.178 C 
BRANCH   5   6
ATOM      6  S   UNL A   1      29.648  26.498  23.929  1.00  0.00    -0.076 SA
BRANCH   6   7
ATOM      7  C   UNL A   1      30.625  25.592  25.023  1.00  0.00     0.191 A 
ATOM      8  C   UNL A   1      32.007  24.247  26.076  1.00  0.00     0.174 A 
ATOM      9  N   UNL A   1      31.260  24.853  26.975  1.00  0.00    -0.130 NA
ATOM     10  N   UNL A   1      31.568  24.621  24.815  1.00  0.00    -0.306 N 
ATOM     11  N   UNL A   1      30.427  25.712  26.320  1.00  0.00    -0.123 NA
ATOM     12  C   UNL A   1      32.021  23.998  23.601  1.00  0.00     0.154 C 
BRANCH   8  13
ATOM     13  C   UNL A   1      33.148  23.310  26.350  1.00  0.00     0.238 C 
ATOM     14  C   UNL A   1      33.147  22.656  27.729  1.00  0.00     0.062 C 
BRANCH  13  15
ATOM     15  O   UNL A   1      34.402  23.916  25.989  1.00  0.00    -0.483 OA
BRANCH  15  16
ATOM     16  C   UNL A   1      35.557  23.205  25.825  1.00  0.00     0.124 A 
ATOM     17  C   UNL A   1      36.925  21.248  25.356  1.00  0.00     0.122 A 
ATOM     18  C   UNL A   1      38.075  21.993  25.607  1.00  0.00     0.046 A 
ATOM     19  C   UNL A   1      35.673  21.859  25.475  1.00  0.00     0.092 A 
ATOM     20  C   UNL A   1      37.979  23.339  25.951  1.00  0.00     0.008 A 
ATOM     21  C   UNL A   1      36.723  23.940  26.056  1.00  0.00     0.047 A 
BRANCH  17  22
ATOM     22  O   UNL A   1      37.139  19.936  25.028  1.00  0.00    -0.497 OA
ATOM     23  C   UNL A   1      35.989  19.177  24.661  1.00  0.00     0.278 C 
ENDBRANCH  17  22
ENDBRANCH  15  16
ENDBRANCH  13  15
ENDBRANCH   8  13
ENDBRANCH   6   7
ENDBRANCH   5   6
ENDBRANCH   1   5
BRANCH   3  24
ATOM     24  C   UNL A   1      31.406  29.322  24.944  1.00  0.00     0.116 C 
BRANCH  24  25
ATOM     25  C   UNL A   1      32.927  29.398  24.824  1.00  0.00     0.023 C 
BRANCH  25  26
ATOM     26  C   UNL A   1      33.686  28.289  25.561  1.00  0.00     0.023 C 
BRANCH  26  27
ATOM     27  C   UNL A   1      33.771  28.445  27.077  1.00  0.00     0.116 C 
BRANCH  27  28
ATOM     28  N   UNL A   1      33.675  29.828  27.513  1.00  0.00    -0.352 N 
ATOM     29  C   UNL A   1      34.595  30.597  28.183  1.00  0.00     0.251 C 
ATOM     30  H   UNL A   1      32.828  30.280  27.297  1.00  0.00     0.163 HD
ATOM     31  O   UNL A   1      34.287  31.716  28.585  1.00  0.00    -0.269 OA
BRANCH  29  32
ATOM     32  C   UNL A   1      35.949  30.067  28.452  1.00  0.00     0.039 A 
ATOM     33  C   UNL A   1      36.921  30.175  27.453  1.00  0.00     0.014 A 
ATOM     34  C   UNL A   1      36.265  29.472  29.675  1.00  0.00     0.014 A 
ATOM     35  C   UNL A   1      38.224  29.744  27.704  1.00  0.00     0.010 A 
ATOM     36  C   UNL A   1      37.583  29.114  29.952  1.00  0.00     0.010 A 
ATOM     37  C   UNL A   1      38.577  29.245  28.970  1.00  0.00    -0.014 A 
BRANCH  37  38
ATOM     38  C   UNL A   1      39.981  28.869  29.279  1.00  0.00     0.031 A 
ATOM     39  C   UNL A   1      40.860  29.792  30.079  1.00  0.00     0.074 A 
ATOM     40  C   UNL A   1      40.480  27.713  28.800  1.00  0.00     0.049 A 
ATOM     41  N   UNL A   1      42.116  29.651  30.419  1.00  0.00    -0.248 NA
ATOM     42  C   UNL A   1      40.253  31.052  30.535  1.00  0.00     0.031 C 
ATOM     43  C   UNL A   1      39.745  26.754  27.974  1.00  0.00     0.029 A 
ATOM     44  N   UNL A   1      41.724  27.149  28.935  1.00  0.00    -0.354 N 
ATOM     45  C   UNL A   1      42.449  30.802  31.121  1.00  0.00     0.074 A 
ATOM     46  C   UNL A   1      41.284  31.658  31.104  1.00  0.00     0.031 C 
ATOM     47  C   UNL A   1      40.539  25.708  27.702  1.00  0.00     0.029 A 
ATOM     48  C   UNL A   1      41.852  25.938  28.298  1.00  0.00     0.049 A 
ATOM     49  H   UNL A   1      42.456  27.571  29.439  1.00  0.00     0.167 HD
ATOM     50  C   UNL A   1      43.613  31.105  31.746  1.00  0.00     0.037 A 
ATOM     51  C   UNL A   1      42.909  25.110  28.201  1.00  0.00     0.037 A 
ATOM     52  C   UNL A   1      44.767  30.244  31.770  1.00  0.00     0.049 A 
ATOM     53  C   UNL A   1      44.198  25.482  28.884  1.00  0.00     0.074 A 
ATOM     54  C   UNL A   1      45.977  30.441  32.415  1.00  0.00     0.029 A 
ATOM     55  N   UNL A   1      44.859  29.025  31.113  1.00  0.00    -0.354 N 
ATOM     56  N   UNL A   1      44.479  26.540  29.604  1.00  0.00    -0.248 NA
ATOM     57  C   UNL A   1      45.315  24.537  28.747  1.00  0.00     0.031 C 
ATOM     58  C   UNL A   1      46.819  29.369  32.103  1.00  0.00     0.029 A 
ATOM     59  C   UNL A   1      46.114  28.471  31.317  1.00  0.00     0.049 A 
ATOM     60  H   UNL A   1      44.139  28.615  30.583  1.00  0.00     0.167 HD
ATOM     61  C   UNL A   1      45.790  26.376  30.032  1.00  0.00     0.074 A 
ATOM     62  C   UNL A   1      46.242  25.105  29.505  1.00  0.00     0.031 C 
ATOM     63  C   UNL A   1      46.550  27.202  30.792  1.00  0.00     0.037 A 
BRANCH  50  64
ATOM     64  C   UNL A   1      43.694  32.426  32.460  1.00  0.00     0.064 A 
ATOM     65  C   UNL A   1      44.131  33.590  31.809  1.00  0.00     0.173 A 
ATOM     66  C   UNL A   1      43.295  32.538  33.800  1.00  0.00     0.173 A 
ATOM     67  F   UNL A   1      44.534  33.537  30.530  1.00  0.00    -0.203 F 
ATOM     68  C   UNL A   1      44.196  34.808  32.481  1.00  0.00     0.198 A 
ATOM     69  C   UNL A   1      43.329  33.764  34.460  1.00  0.00     0.198 A 
ATOM     70  F   UNL A   1      42.862  31.459  34.470  1.00  0.00    -0.203 F 
ATOM     71  F   UNL A   1      44.669  35.893  31.853  1.00  0.00    -0.200 F 
ATOM     72  C   UNL A   1      43.788  34.895  33.803  1.00  0.00     0.200 A 
ATOM     73  F   UNL A   1      42.919  33.849  35.733  1.00  0.00    -0.200 F 
ATOM     74  F   UNL A   1      43.844  36.070  34.447  1.00  0.00    -0.200 F 
ENDBRANCH  50  64
BRANCH  51  75
ATOM     75  C   UNL A   1      42.789  23.832  27.448  1.00  0.00     0.064 A 
ATOM     76  C   UNL A   1      43.151  23.757  26.095  1.00  0.00     0.173 A 
ATOM     77  C   UNL A   1      42.300  22.668  28.057  1.00  0.00     0.173 A 
ATOM     78  F   UNL A   1      43.604  24.849  25.462  1.00  0.00    -0.203 F 
ATOM     79  C   UNL A   1      43.003  22.574  25.374  1.00  0.00     0.198 A 
ATOM     80  C   UNL A   1      42.183  21.476  27.344  1.00  0.00     0.198 A 
ATOM     81  F   UNL A   1      41.942  22.684  29.349  1.00  0.00    -0.203 F 
ATOM     82  F   UNL A   1      43.305  22.545  24.069  1.00  0.00    -0.200 F 
ATOM     83  C   UNL A   1      42.525  21.433  26.000  1.00  0.00     0.200 A 
ATOM     84  F   UNL A   1      41.734  20.372  27.957  1.00  0.00    -0.200 F 
ATOM     85  F   UNL A   1      42.384  20.295  25.307  1.00  0.00    -0.200 F 
ENDBRANCH  51  75
BRANCH  63  86
ATOM     86  C   UNL A   1      47.938  26.739  31.134  1.00  0.00     0.064 A 
ATOM     87  C   UNL A   1      49.057  27.136  30.387  1.00  0.00     0.173 A 
ATOM     88  C   UNL A   1      48.154  25.907  32.244  1.00  0.00     0.173 A 
ATOM     89  F   UNL A   1      48.906  27.920  29.308  1.00  0.00    -0.203 F 
ATOM     90  C   UNL A   1      50.335  26.690  30.717  1.00  0.00     0.198 A 
ATOM     91  C   UNL A   1      49.437  25.494  32.594  1.00  0.00     0.198 A 
ATOM     92  F   UNL A   1      47.121  25.505  32.999  1.00  0.00    -0.203 F 
ATOM     93  F   UNL A   1      51.381  27.034  29.953  1.00  0.00    -0.200 F 
ATOM     94  C   UNL A   1      50.524  25.875  31.823  1.00  0.00     0.200 A 
ATOM     95  F   UNL A   1      49.619  24.720  33.673  1.00  0.00    -0.200 F 
ATOM     96  F   UNL A   1      51.755  25.452  32.143  1.00  0.00    -0.200 F 
ENDBRANCH  63  86
ENDBRANCH  37  38
ENDBRANCH  29  32
ENDBRANCH  27  28
ENDBRANCH  26  27
ENDBRANCH  25  26
ENDBRANCH  24  25
ENDBRANCH   3  24
TORSDOF 17
ENDMDL
