MODEL 1
REMARK VINA RESULT:     -12.4      0.000      0.000
REMARK SMILES C[C@@H](C(=O)NCCCCNC(=O)c1ccc(-c2c3nc(c(-c4c(F)c(F)c(F)c(F)c4F)c4ccc([nH]4)c(-c4c(F)c(F)c(F)c(F)c4F)c4nc(c(-c5c(F)c(F)c(F)c(F)c5F)c5ccc2[nH]5)C=C4)C=C3)cc1)[C@H](C)[S@@](=O)c1ccc(F)cc1
REMARK SMILES IDX 7 1 6 2 5 3 3 4 4 5 2 7 1 8 76 9 77 10 78 11 79 12 80 13
REMARK SMILES IDX 81 14 86 15 82 16 85 17 83 18 84 19 8 20 9 21 10 22 11 23
REMARK SMILES IDX 12 25 13 26 14 27 75 28 15 29 74 30 16 31 17 32 18 33 68 34
REMARK SMILES IDX 19 35 73 36 67 37 69 38 20 39 72 40 66 41 65 42 21 44 53 45
REMARK SMILES IDX 33 46 52 47 34 48 37 49 51 50 70 51 35 52 36 53 50 55 71 56
REMARK SMILES IDX 38 57 22 58 23 59 31 60 24 61 25 62 29 63 32 64 26 65 27 66
REMARK SMILES IDX 30 67 28 68 54 69 55 70 63 71 56 72 57 73 61 74 64 75 58 76
REMARK SMILES IDX 59 77 62 78 60 79 39 80 40 81 48 82 41 83 42 84 46 85 49 86
REMARK SMILES IDX 43 87 44 88 47 89 45 90
REMARK H PARENT 5 6 10 24 69 43 37 54
REMARK Flexibility Score: inf
ROOT
ATOM      1  C   UNL A   1      31.896  30.347  26.680  1.00  0.00     0.023 C 
ENDROOT
BRANCH   1   2
ATOM      2  C   UNL A   1      33.369  29.965  26.521  1.00  0.00     0.116 C 
BRANCH   2   3
ATOM      3  N   UNL A   1      33.714  29.664  25.145  1.00  0.00    -0.356 N 
ATOM      4  C   UNL A   1      33.612  28.514  24.418  1.00  0.00     0.224 C 
ATOM      5  O   UNL A   1      33.828  28.626  23.214  1.00  0.00    -0.275 OA
ATOM      6  H   UNL A   1      34.089  30.426  24.647  1.00  0.00     0.163 HD
BRANCH   4   7
ATOM      7  C   UNL A   1      33.141  27.202  25.058  1.00  0.00     0.091 C 
ATOM      8  C   UNL A   1      33.913  25.973  24.592  1.00  0.00     0.019 C 
BRANCH   7   9
ATOM      9  C   UNL A   1      31.596  27.041  25.071  1.00  0.00     0.093 C 
ATOM     10  C   UNL A   1      31.132  25.947  26.047  1.00  0.00     0.023 C 
BRANCH   9  11
ATOM     11  S   UNL A   1      30.610  26.882  23.545  1.00  0.00     0.057 S 
ATOM     12  O   UNL A   1      29.702  25.695  23.635  1.00  0.00    -0.254 OA
BRANCH  11  13
ATOM     13  C   UNL A   1      29.570  28.328  23.351  1.00  0.00     0.039 A 
ATOM     14  C   UNL A   1      28.195  28.227  23.115  1.00  0.00     0.021 A 
ATOM     15  C   UNL A   1      30.109  29.598  23.616  1.00  0.00     0.021 A 
ATOM     16  C   UNL A   1      27.401  29.374  23.026  1.00  0.00     0.040 A 
ATOM     17  C   UNL A   1      29.309  30.743  23.581  1.00  0.00     0.040 A 
ATOM     18  C   UNL A   1      27.964  30.622  23.263  1.00  0.00     0.123 A 
ATOM     19  F   UNL A   1      27.196  31.717  23.203  1.00  0.00    -0.207 F 
ENDBRANCH  11  13
ENDBRANCH   9  11
ENDBRANCH   7   9
ENDBRANCH   4   7
ENDBRANCH   2   3
ENDBRANCH   1   2
BRANCH   1  20
ATOM     20  C   UNL A   1      31.629  31.847  26.814  1.00  0.00     0.023 C 
BRANCH  20  21
ATOM     21  C   UNL A   1      32.790  32.668  27.359  1.00  0.00     0.116 C 
BRANCH  21  22
ATOM     22  N   UNL A   1      32.436  34.052  27.640  1.00  0.00    -0.352 N 
ATOM     23  C   UNL A   1      33.006  34.918  28.540  1.00  0.00     0.251 C 
ATOM     24  H   UNL A   1      31.688  34.415  27.112  1.00  0.00     0.163 HD
ATOM     25  O   UNL A   1      32.520  36.029  28.728  1.00  0.00    -0.269 OA
BRANCH  23  26
ATOM     26  C   UNL A   1      34.185  34.484  29.315  1.00  0.00     0.039 A 
ATOM     27  C   UNL A   1      33.990  33.900  30.569  1.00  0.00     0.014 A 
ATOM     28  C   UNL A   1      35.472  34.615  28.787  1.00  0.00     0.014 A 
ATOM     29  C   UNL A   1      35.082  33.376  31.263  1.00  0.00     0.010 A 
ATOM     30  C   UNL A   1      36.549  34.034  29.448  1.00  0.00     0.010 A 
ATOM     31  C   UNL A   1      36.362  33.402  30.688  1.00  0.00    -0.014 A 
BRANCH  31  32
ATOM     32  C   UNL A   1      37.522  32.759  31.353  1.00  0.00     0.031 A 
ATOM     33  C   UNL A   1      38.213  31.596  30.701  1.00  0.00     0.074 A 
ATOM     34  C   UNL A   1      37.892  33.165  32.583  1.00  0.00     0.049 A 
ATOM     35  N   UNL A   1      39.170  30.834  31.165  1.00  0.00    -0.248 NA
ATOM     36  C   UNL A   1      37.746  31.221  29.357  1.00  0.00     0.031 C 
ATOM     37  C   UNL A   1      37.266  34.251  33.339  1.00  0.00     0.029 A 
ATOM     38  N   UNL A   1      38.873  32.699  33.422  1.00  0.00    -0.354 N 
ATOM     39  C   UNL A   1      39.405  29.881  30.184  1.00  0.00     0.074 A 
ATOM     40  C   UNL A   1      38.460  30.132  29.117  1.00  0.00     0.031 C 
ATOM     41  C   UNL A   1      37.884  34.375  34.524  1.00  0.00     0.029 A 
ATOM     42  C   UNL A   1      38.923  33.354  34.628  1.00  0.00     0.049 A 
ATOM     43  H   UNL A   1      39.483  31.965  33.182  1.00  0.00     0.167 HD
ATOM     44  C   UNL A   1      40.338  28.901  30.167  1.00  0.00     0.037 A 
ATOM     45  C   UNL A   1      39.708  33.145  35.702  1.00  0.00     0.037 A 
ATOM     46  C   UNL A   1      41.295  28.677  31.218  1.00  0.00     0.049 A 
ATOM     47  C   UNL A   1      40.734  32.046  35.658  1.00  0.00     0.074 A 
ATOM     48  C   UNL A   1      42.331  27.761  31.260  1.00  0.00     0.029 A 
ATOM     49  N   UNL A   1      41.330  29.377  32.415  1.00  0.00    -0.354 N 
ATOM     50  N   UNL A   1      40.999  31.200  34.693  1.00  0.00    -0.248 NA
ATOM     51  C   UNL A   1      41.572  31.873  36.853  1.00  0.00     0.031 C 
ATOM     52  C   UNL A   1      42.965  27.875  32.501  1.00  0.00     0.029 A 
ATOM     53  C   UNL A   1      42.355  28.894  33.214  1.00  0.00     0.049 A 
ATOM     54  H   UNL A   1      40.718  30.108  32.660  1.00  0.00     0.167 HD
ATOM     55  C   UNL A   1      42.047  30.413  35.150  1.00  0.00     0.074 A 
ATOM     56  C   UNL A   1      42.380  30.891  36.476  1.00  0.00     0.031 C 
ATOM     57  C   UNL A   1      42.676  29.387  34.529  1.00  0.00     0.037 A 
BRANCH  44  58
ATOM     58  C   UNL A   1      40.372  27.994  28.972  1.00  0.00     0.064 A 
ATOM     59  C   UNL A   1      39.646  26.794  28.939  1.00  0.00     0.173 A 
ATOM     60  C   UNL A   1      41.106  28.350  27.830  1.00  0.00     0.173 A 
ATOM     61  F   UNL A   1      38.938  26.403  30.009  1.00  0.00    -0.203 F 
ATOM     62  C   UNL A   1      39.676  25.970  27.816  1.00  0.00     0.198 A 
ATOM     63  C   UNL A   1      41.110  27.538  26.699  1.00  0.00     0.198 A 
ATOM     64  F   UNL A   1      41.812  29.490  27.808  1.00  0.00    -0.203 F 
ATOM     65  F   UNL A   1      39.013  24.806  27.825  1.00  0.00    -0.200 F 
ATOM     66  C   UNL A   1      40.401  26.346  26.696  1.00  0.00     0.200 A 
ATOM     67  F   UNL A   1      41.801  27.909  25.613  1.00  0.00    -0.200 F 
ATOM     68  F   UNL A   1      40.422  25.556  25.613  1.00  0.00    -0.200 F 
ENDBRANCH  44  58
BRANCH  45  69
ATOM     69  C   UNL A   1      39.564  34.004  36.906  1.00  0.00     0.064 A 
ATOM     70  C   UNL A   1      38.776  33.593  37.990  1.00  0.00     0.173 A 
ATOM     71  C   UNL A   1      40.201  35.250  36.997  1.00  0.00     0.173 A 
ATOM     72  F   UNL A   1      38.130  32.419  37.941  1.00  0.00    -0.203 F 
ATOM     73  C   UNL A   1      38.618  34.404  39.112  1.00  0.00     0.198 A 
ATOM     74  C   UNL A   1      40.063  36.048  38.130  1.00  0.00     0.198 A 
ATOM     75  F   UNL A   1      40.969  35.686  35.988  1.00  0.00    -0.203 F 
ATOM     76  F   UNL A   1      37.823  34.006  40.116  1.00  0.00    -0.200 F 
ATOM     77  C   UNL A   1      39.265  35.628  39.184  1.00  0.00     0.200 A 
ATOM     78  F   UNL A   1      40.701  37.224  38.201  1.00  0.00    -0.200 F 
ATOM     79  F   UNL A   1      39.114  36.406  40.264  1.00  0.00    -0.200 F 
ENDBRANCH  45  69
BRANCH  57  80
ATOM     80  C   UNL A   1      43.807  28.727  35.261  1.00  0.00     0.064 A 
ATOM     81  C   UNL A   1      45.124  29.195  35.152  1.00  0.00     0.173 A 
ATOM     82  C   UNL A   1      43.560  27.648  36.124  1.00  0.00     0.173 A 
ATOM     83  F   UNL A   1      45.412  30.213  34.328  1.00  0.00    -0.203 F 
ATOM     84  C   UNL A   1      46.157  28.593  35.865  1.00  0.00     0.198 A 
ATOM     85  C   UNL A   1      44.590  27.068  36.857  1.00  0.00     0.198 A 
ATOM     86  F   UNL A   1      42.316  27.168  36.267  1.00  0.00    -0.203 F 
ATOM     87  F   UNL A   1      47.415  29.030  35.715  1.00  0.00    -0.200 F 
ATOM     88  C   UNL A   1      45.888  27.536  36.724  1.00  0.00     0.200 A 
ATOM     89  F   UNL A   1      44.327  26.055  37.695  1.00  0.00    -0.200 F 
ATOM     90  F   UNL A   1      46.882  26.967  37.418  1.00  0.00    -0.200 F 
ENDBRANCH  57  80
ENDBRANCH  31  32
ENDBRANCH  23  26
ENDBRANCH  21  22
ENDBRANCH  20  21
ENDBRANCH   1  20
TORSDOF 14
ENDMDL
MODEL 2
REMARK VINA RESULT:     -12.4      0.164      1.629
REMARK SMILES C[C@@H](C(=O)NCCCCNC(=O)c1ccc(-c2c3nc(c(-c4c(F)c(F)c(F)c(F)c4F)c4ccc([nH]4)c(-c4c(F)c(F)c(F)c(F)c4F)c4nc(c(-c5c(F)c(F)c(F)c(F)c5F)c5ccc2[nH]5)C=C4)C=C3)cc1)[C@H](C)[S@@](=O)c1ccc(F)cc1
REMARK SMILES IDX 7 1 6 2 5 3 3 4 4 5 2 7 1 8 76 9 77 10 78 11 79 12 80 13
REMARK SMILES IDX 81 14 86 15 82 16 85 17 83 18 84 19 8 20 9 21 10 22 11 23
REMARK SMILES IDX 12 25 13 26 14 27 75 28 15 29 74 30 16 31 17 32 18 33 68 34
REMARK SMILES IDX 19 35 73 36 67 37 69 38 20 39 72 40 66 41 65 42 21 44 53 45
REMARK SMILES IDX 33 46 52 47 34 48 37 49 51 50 70 51 35 52 36 53 50 55 71 56
REMARK SMILES IDX 38 57 22 58 23 59 31 60 24 61 25 62 29 63 32 64 26 65 27 66
REMARK SMILES IDX 30 67 28 68 54 69 55 70 63 71 56 72 57 73 61 74 64 75 58 76
REMARK SMILES IDX 59 77 62 78 60 79 39 80 40 81 48 82 41 83 42 84 46 85 49 86
REMARK SMILES IDX 43 87 44 88 47 89 45 90
REMARK H PARENT 5 6 10 24 69 43 37 54
REMARK Flexibility Score: inf
ROOT
ATOM      1  C   UNL A   1      31.846  30.476  26.547  1.00  0.00     0.023 C 
ENDROOT
BRANCH   1   2
ATOM      2  C   UNL A   1      33.330  30.104  26.566  1.00  0.00     0.116 C 
BRANCH   2   3
ATOM      3  N   UNL A   1      33.794  29.632  25.276  1.00  0.00    -0.356 N 
ATOM      4  C   UNL A   1      33.724  28.404  24.684  1.00  0.00     0.224 C 
ATOM      5  O   UNL A   1      34.058  28.364  23.503  1.00  0.00    -0.275 OA
ATOM      6  H   UNL A   1      34.239  30.319  24.731  1.00  0.00     0.163 HD
BRANCH   4   7
ATOM      7  C   UNL A   1      33.152  27.190  25.426  1.00  0.00     0.091 C 
ATOM      8  C   UNL A   1      33.963  25.912  25.243  1.00  0.00     0.019 C 
BRANCH   7   9
ATOM      9  C   UNL A   1      31.617  27.024  25.249  1.00  0.00     0.093 C 
ATOM     10  C   UNL A   1      31.046  25.902  26.131  1.00  0.00     0.023 C 
BRANCH   9  11
ATOM     11  S   UNL A   1      30.822  26.907  23.611  1.00  0.00     0.057 S 
ATOM     12  O   UNL A   1      29.993  25.664  23.526  1.00  0.00    -0.254 OA
BRANCH  11  13
ATOM     13  C   UNL A   1      29.716  28.296  23.382  1.00  0.00     0.039 A 
ATOM     14  C   UNL A   1      28.347  28.125  23.152  1.00  0.00     0.021 A 
ATOM     15  C   UNL A   1      30.195  29.597  23.612  1.00  0.00     0.021 A 
ATOM     16  C   UNL A   1      27.499  29.231  23.035  1.00  0.00     0.040 A 
ATOM     17  C   UNL A   1      29.342  30.702  23.548  1.00  0.00     0.040 A 
ATOM     18  C   UNL A   1      28.004  30.510  23.237  1.00  0.00     0.123 A 
ATOM     19  F   UNL A   1      27.185  31.565  23.150  1.00  0.00    -0.207 F 
ENDBRANCH  11  13
ENDBRANCH   9  11
ENDBRANCH   7   9
ENDBRANCH   4   7
ENDBRANCH   2   3
ENDBRANCH   1   2
BRANCH   1  20
ATOM     20  C   UNL A   1      31.541  31.937  26.882  1.00  0.00     0.023 C 
BRANCH  20  21
ATOM     21  C   UNL A   1      32.726  32.749  27.387  1.00  0.00     0.116 C 
BRANCH  21  22
ATOM     22  N   UNL A   1      32.396  34.139  27.666  1.00  0.00    -0.352 N 
ATOM     23  C   UNL A   1      32.990  35.000  28.556  1.00  0.00     0.251 C 
ATOM     24  H   UNL A   1      31.649  34.511  27.145  1.00  0.00     0.163 HD
ATOM     25  O   UNL A   1      32.522  36.119  28.745  1.00  0.00    -0.269 OA
BRANCH  23  26
ATOM     26  C   UNL A   1      34.172  34.551  29.319  1.00  0.00     0.039 A 
ATOM     27  C   UNL A   1      33.985  34.003  30.591  1.00  0.00     0.014 A 
ATOM     28  C   UNL A   1      35.451  34.633  28.764  1.00  0.00     0.014 A 
ATOM     29  C   UNL A   1      35.075  33.465  31.276  1.00  0.00     0.010 A 
ATOM     30  C   UNL A   1      36.524  34.037  29.418  1.00  0.00     0.010 A 
ATOM     31  C   UNL A   1      36.344  33.441  30.677  1.00  0.00    -0.014 A 
BRANCH  31  32
ATOM     32  C   UNL A   1      37.498  32.781  31.336  1.00  0.00     0.031 A 
ATOM     33  C   UNL A   1      38.173  31.613  30.676  1.00  0.00     0.074 A 
ATOM     34  C   UNL A   1      37.878  33.178  32.565  1.00  0.00     0.049 A 
ATOM     35  N   UNL A   1      39.122  30.838  31.135  1.00  0.00    -0.248 NA
ATOM     36  C   UNL A   1      37.696  31.248  29.333  1.00  0.00     0.031 C 
ATOM     37  C   UNL A   1      37.267  34.268  33.328  1.00  0.00     0.029 A 
ATOM     38  N   UNL A   1      38.856  32.697  33.399  1.00  0.00    -0.354 N 
ATOM     39  C   UNL A   1      39.342  29.886  30.148  1.00  0.00     0.074 A 
ATOM     40  C   UNL A   1      38.396  30.152  29.085  1.00  0.00     0.031 C 
ATOM     41  C   UNL A   1      37.891  34.380  34.512  1.00  0.00     0.029 A 
ATOM     42  C   UNL A   1      38.917  33.346  34.608  1.00  0.00     0.049 A 
ATOM     43  H   UNL A   1      39.456  31.957  33.154  1.00  0.00     0.167 HD
ATOM     44  C   UNL A   1      40.263  28.894  30.125  1.00  0.00     0.037 A 
ATOM     45  C   UNL A   1      39.704  33.124  35.678  1.00  0.00     0.037 A 
ATOM     46  C   UNL A   1      41.221  28.654  31.171  1.00  0.00     0.049 A 
ATOM     47  C   UNL A   1      40.716  32.013  35.626  1.00  0.00     0.074 A 
ATOM     48  C   UNL A   1      42.246  27.726  31.206  1.00  0.00     0.029 A 
ATOM     49  N   UNL A   1      41.269  29.349  32.371  1.00  0.00    -0.354 N 
ATOM     50  N   UNL A   1      40.968  31.168  34.657  1.00  0.00    -0.248 NA
ATOM     51  C   UNL A   1      41.557  31.825  36.817  1.00  0.00     0.031 C 
ATOM     52  C   UNL A   1      42.885  27.827  32.446  1.00  0.00     0.029 A 
ATOM     53  C   UNL A   1      42.290  28.851  33.164  1.00  0.00     0.049 A 
ATOM     54  H   UNL A   1      40.667  30.087  32.621  1.00  0.00     0.167 HD
ATOM     55  C   UNL A   1      42.007  30.366  35.107  1.00  0.00     0.074 A 
ATOM     56  C   UNL A   1      42.351  30.835  36.434  1.00  0.00     0.031 C 
ATOM     57  C   UNL A   1      42.622  29.335  34.480  1.00  0.00     0.037 A 
BRANCH  44  58
ATOM     58  C   UNL A   1      40.282  27.992  28.926  1.00  0.00     0.064 A 
ATOM     59  C   UNL A   1      41.012  28.317  27.773  1.00  0.00     0.173 A 
ATOM     60  C   UNL A   1      39.595  26.768  28.945  1.00  0.00     0.173 A 
ATOM     61  F   UNL A   1      41.676  29.480  27.699  1.00  0.00    -0.203 F 
ATOM     62  C   UNL A   1      41.031  27.462  26.674  1.00  0.00     0.198 A 
ATOM     63  C   UNL A   1      39.641  25.903  27.855  1.00  0.00     0.198 A 
ATOM     64  F   UNL A   1      38.887  26.408  30.026  1.00  0.00    -0.203 F 
ATOM     65  F   UNL A   1      41.697  27.815  25.565  1.00  0.00    -0.200 F 
ATOM     66  C   UNL A   1      40.353  26.254  26.718  1.00  0.00     0.200 A 
ATOM     67  F   UNL A   1      38.995  24.731  27.906  1.00  0.00    -0.200 F 
ATOM     68  F   UNL A   1      40.380  25.429  25.662  1.00  0.00    -0.200 F 
ENDBRANCH  44  58
BRANCH  45  69
ATOM     69  C   UNL A   1      39.574  33.980  36.886  1.00  0.00     0.064 A 
ATOM     70  C   UNL A   1      38.798  33.567  37.978  1.00  0.00     0.173 A 
ATOM     71  C   UNL A   1      40.214  35.225  36.973  1.00  0.00     0.173 A 
ATOM     72  F   UNL A   1      38.150  32.394  37.933  1.00  0.00    -0.203 F 
ATOM     73  C   UNL A   1      38.653  34.376  39.103  1.00  0.00     0.198 A 
ATOM     74  C   UNL A   1      40.090  36.020  38.109  1.00  0.00     0.198 A 
ATOM     75  F   UNL A   1      40.971  35.663  35.956  1.00  0.00    -0.203 F 
ATOM     76  F   UNL A   1      37.869  33.976  40.115  1.00  0.00    -0.200 F 
ATOM     77  C   UNL A   1      39.303  35.599  39.171  1.00  0.00     0.200 A 
ATOM     78  F   UNL A   1      40.730  37.195  38.177  1.00  0.00    -0.200 F 
ATOM     79  F   UNL A   1      39.165  36.374  40.255  1.00  0.00    -0.200 F 
ENDBRANCH  45  69
BRANCH  57  80
ATOM     80  C   UNL A   1      43.747  28.659  35.206  1.00  0.00     0.064 A 
ATOM     81  C   UNL A   1      43.526  27.548  36.032  1.00  0.00     0.173 A 
ATOM     82  C   UNL A   1      45.069  29.097  35.030  1.00  0.00     0.173 A 
ATOM     83  F   UNL A   1      42.279  27.103  36.243  1.00  0.00    -0.203 F 
ATOM     84  C   UNL A   1      44.586  26.911  36.671  1.00  0.00     0.198 A 
ATOM     85  C   UNL A   1      46.129  28.439  35.648  1.00  0.00     0.198 A 
ATOM     86  F   UNL A   1      45.334  30.151  34.245  1.00  0.00    -0.203 F 
ATOM     87  F   UNL A   1      44.347  25.876  37.487  1.00  0.00    -0.200 F 
ATOM     88  C   UNL A   1      45.887  27.351  36.472  1.00  0.00     0.200 A 
ATOM     89  F   UNL A   1      47.386  28.858  35.444  1.00  0.00    -0.200 F 
ATOM     90  F   UNL A   1      46.906  26.729  37.078  1.00  0.00    -0.200 F 
ENDBRANCH  57  80
ENDBRANCH  31  32
ENDBRANCH  23  26
ENDBRANCH  21  22
ENDBRANCH  20  21
ENDBRANCH   1  20
TORSDOF 14
ENDMDL
MODEL 3
REMARK VINA RESULT:     -12.2      6.435     11.780
REMARK SMILES C[C@@H](C(=O)NCCCCNC(=O)c1ccc(-c2c3nc(c(-c4c(F)c(F)c(F)c(F)c4F)c4ccc([nH]4)c(-c4c(F)c(F)c(F)c(F)c4F)c4nc(c(-c5c(F)c(F)c(F)c(F)c5F)c5ccc2[nH]5)C=C4)C=C3)cc1)[C@H](C)[S@@](=O)c1ccc(F)cc1
REMARK SMILES IDX 7 1 6 2 5 3 3 4 4 5 2 7 1 8 76 9 77 10 78 11 79 12 80 13
REMARK SMILES IDX 81 14 86 15 82 16 85 17 83 18 84 19 8 20 9 21 10 22 11 23
REMARK SMILES IDX 12 25 13 26 14 27 75 28 15 29 74 30 16 31 17 32 18 33 68 34
REMARK SMILES IDX 19 35 73 36 67 37 69 38 20 39 72 40 66 41 65 42 21 44 53 45
REMARK SMILES IDX 33 46 52 47 34 48 37 49 51 50 70 51 35 52 36 53 50 55 71 56
REMARK SMILES IDX 38 57 22 58 23 59 31 60 24 61 25 62 29 63 32 64 26 65 27 66
REMARK SMILES IDX 30 67 28 68 54 69 55 70 63 71 56 72 57 73 61 74 64 75 58 76
REMARK SMILES IDX 59 77 62 78 60 79 39 80 40 81 48 82 41 83 42 84 46 85 49 86
REMARK SMILES IDX 43 87 44 88 47 89 45 90
REMARK H PARENT 5 6 10 24 69 43 37 54
REMARK Flexibility Score: inf
ROOT
ATOM      1  C   UNL A   1      37.329  21.293  24.547  1.00  0.00     0.023 C 
ENDROOT
BRANCH   1   2
ATOM      2  C   UNL A   1      37.348  22.456  25.540  1.00  0.00     0.116 C 
BRANCH   2   3
ATOM      3  N   UNL A   1      36.258  22.382  26.493  1.00  0.00    -0.356 N 
ATOM      4  C   UNL A   1      34.992  22.889  26.461  1.00  0.00     0.224 C 
ATOM      5  O   UNL A   1      34.241  22.504  27.354  1.00  0.00    -0.275 OA
ATOM      6  H   UNL A   1      36.470  21.876  27.310  1.00  0.00     0.163 HD
BRANCH   4   7
ATOM      7  C   UNL A   1      34.519  23.786  25.310  1.00  0.00     0.091 C 
ATOM      8  C   UNL A   1      33.648  24.956  25.753  1.00  0.00     0.019 C 
BRANCH   7   9
ATOM      9  C   UNL A   1      33.979  22.992  24.089  1.00  0.00     0.093 C 
ATOM     10  C   UNL A   1      33.827  23.875  22.839  1.00  0.00     0.023 C 
BRANCH   9  11
ATOM     11  S   UNL A   1      32.515  21.908  24.188  1.00  0.00     0.057 S 
ATOM     12  O   UNL A   1      31.524  22.279  23.129  1.00  0.00    -0.254 OA
BRANCH  11  13
ATOM     13  C   UNL A   1      33.004  20.213  23.883  1.00  0.00     0.039 A 
ATOM     14  C   UNL A   1      34.005  19.583  24.631  1.00  0.00     0.021 A 
ATOM     15  C   UNL A   1      32.249  19.433  22.991  1.00  0.00     0.021 A 
ATOM     16  C   UNL A   1      34.323  18.239  24.407  1.00  0.00     0.040 A 
ATOM     17  C   UNL A   1      32.528  18.077  22.803  1.00  0.00     0.040 A 
ATOM     18  C   UNL A   1      33.580  17.498  23.498  1.00  0.00     0.123 A 
ATOM     19  F   UNL A   1      33.870  16.205  23.305  1.00  0.00    -0.207 F 
ENDBRANCH  11  13
ENDBRANCH   9  11
ENDBRANCH   7   9
ENDBRANCH   4   7
ENDBRANCH   2   3
ENDBRANCH   1   2
BRANCH   1  20
ATOM     20  C   UNL A   1      38.084  20.043  25.001  1.00  0.00     0.023 C 
BRANCH  20  21
ATOM     21  C   UNL A   1      39.289  20.300  25.896  1.00  0.00     0.116 C 
BRANCH  21  22
ATOM     22  N   UNL A   1      40.234  19.193  25.923  1.00  0.00    -0.352 N 
ATOM     23  C   UNL A   1      41.592  19.229  26.124  1.00  0.00     0.251 C 
ATOM     24  H   UNL A   1      39.847  18.300  25.780  1.00  0.00     0.163 HD
ATOM     25  O   UNL A   1      42.264  18.208  26.016  1.00  0.00    -0.269 OA
BRANCH  23  26
ATOM     26  C   UNL A   1      42.245  20.518  26.430  1.00  0.00     0.039 A 
ATOM     27  C   UNL A   1      42.751  21.283  25.376  1.00  0.00     0.014 A 
ATOM     28  C   UNL A   1      42.320  20.985  27.744  1.00  0.00     0.014 A 
ATOM     29  C   UNL A   1      43.264  22.556  25.632  1.00  0.00     0.010 A 
ATOM     30  C   UNL A   1      42.768  22.278  27.989  1.00  0.00     0.010 A 
ATOM     31  C   UNL A   1      43.237  23.078  26.934  1.00  0.00    -0.014 A 
BRANCH  31  32
ATOM     32  C   UNL A   1      43.676  24.466  27.220  1.00  0.00     0.031 A 
ATOM     33  C   UNL A   1      42.685  25.481  27.715  1.00  0.00     0.074 A 
ATOM     34  C   UNL A   1      44.943  24.832  26.947  1.00  0.00     0.049 A 
ATOM     35  N   UNL A   1      42.846  26.763  27.921  1.00  0.00    -0.248 NA
ATOM     36  C   UNL A   1      41.324  24.994  27.990  1.00  0.00     0.031 C 
ATOM     37  C   UNL A   1      45.983  23.949  26.416  1.00  0.00     0.029 A 
ATOM     38  N   UNL A   1      45.568  26.049  27.060  1.00  0.00    -0.354 N 
ATOM     39  C   UNL A   1      41.607  27.239  28.327  1.00  0.00     0.074 A 
ATOM     40  C   UNL A   1      40.693  26.117  28.296  1.00  0.00     0.031 C 
ATOM     41  C   UNL A   1      47.117  24.649  26.260  1.00  0.00     0.029 A 
ATOM     42  C   UNL A   1      46.875  26.038  26.641  1.00  0.00     0.049 A 
ATOM     43  H   UNL A   1      45.120  26.854  27.407  1.00  0.00     0.167 HD
ATOM     44  C   UNL A   1      41.270  28.492  28.709  1.00  0.00     0.037 A 
ATOM     45  C   UNL A   1      47.774  27.038  26.562  1.00  0.00     0.037 A 
ATOM     46  C   UNL A   1      42.190  29.596  28.767  1.00  0.00     0.049 A 
ATOM     47  C   UNL A   1      47.371  28.422  26.990  1.00  0.00     0.074 A 
ATOM     48  C   UNL A   1      41.965  30.885  29.217  1.00  0.00     0.029 A 
ATOM     49  N   UNL A   1      43.515  29.540  28.358  1.00  0.00    -0.354 N 
ATOM     50  N   UNL A   1      46.218  28.844  27.446  1.00  0.00    -0.248 NA
ATOM     51  C   UNL A   1      48.397  29.471  26.894  1.00  0.00     0.031 C 
ATOM     52  C   UNL A   1      43.140  31.622  29.038  1.00  0.00     0.029 A 
ATOM     53  C   UNL A   1      44.111  30.781  28.521  1.00  0.00     0.049 A 
ATOM     54  H   UNL A   1      43.964  28.739  28.005  1.00  0.00     0.167 HD
ATOM     55  C   UNL A   1      46.383  30.195  27.715  1.00  0.00     0.074 A 
ATOM     56  C   UNL A   1      47.754  30.522  27.385  1.00  0.00     0.031 C 
ATOM     57  C   UNL A   1      45.480  31.085  28.193  1.00  0.00     0.037 A 
BRANCH  44  58
ATOM     58  C   UNL A   1      39.841  28.739  29.100  1.00  0.00     0.064 A 
ATOM     59  C   UNL A   1      39.405  28.587  30.424  1.00  0.00     0.173 A 
ATOM     60  C   UNL A   1      38.908  29.173  28.146  1.00  0.00     0.173 A 
ATOM     61  F   UNL A   1      40.255  28.164  31.372  1.00  0.00    -0.203 F 
ATOM     62  C   UNL A   1      38.080  28.834  30.774  1.00  0.00     0.198 A 
ATOM     63  C   UNL A   1      37.591  29.447  28.505  1.00  0.00     0.198 A 
ATOM     64  F   UNL A   1      39.276  29.339  26.867  1.00  0.00    -0.203 F 
ATOM     65  F   UNL A   1      37.674  28.637  32.036  1.00  0.00    -0.200 F 
ATOM     66  C   UNL A   1      37.177  29.270  29.817  1.00  0.00     0.200 A 
ATOM     67  F   UNL A   1      36.723  29.879  27.581  1.00  0.00    -0.200 F 
ATOM     68  F   UNL A   1      35.903  29.515  30.157  1.00  0.00    -0.200 F 
ENDBRANCH  44  58
BRANCH  45  69
ATOM     69  C   UNL A   1      49.148  26.763  26.067  1.00  0.00     0.064 A 
ATOM     70  C   UNL A   1      49.483  26.979  24.723  1.00  0.00     0.173 A 
ATOM     71  C   UNL A   1      50.150  26.277  26.920  1.00  0.00     0.173 A 
ATOM     72  F   UNL A   1      48.554  27.423  23.865  1.00  0.00    -0.203 F 
ATOM     73  C   UNL A   1      50.764  26.700  24.248  1.00  0.00     0.198 A 
ATOM     74  C   UNL A   1      51.436  26.025  26.449  1.00  0.00     0.198 A 
ATOM     75  F   UNL A   1      49.880  26.059  28.215  1.00  0.00    -0.203 F 
ATOM     76  F   UNL A   1      51.045  26.874  22.948  1.00  0.00    -0.200 F 
ATOM     77  C   UNL A   1      51.740  26.230  25.111  1.00  0.00     0.200 A 
ATOM     78  F   UNL A   1      52.381  25.583  27.290  1.00  0.00    -0.200 F 
ATOM     79  F   UNL A   1      52.971  25.965  24.654  1.00  0.00    -0.200 F 
ENDBRANCH  45  69
BRANCH  57  80
ATOM     80  C   UNL A   1      45.951  32.493  28.413  1.00  0.00     0.064 A 
ATOM     81  C   UNL A   1      45.830  33.472  27.417  1.00  0.00     0.173 A 
ATOM     82  C   UNL A   1      46.481  32.877  29.655  1.00  0.00     0.173 A 
ATOM     83  F   UNL A   1      45.345  33.149  26.209  1.00  0.00    -0.203 F 
ATOM     84  C   UNL A   1      46.240  34.782  27.650  1.00  0.00     0.198 A 
ATOM     85  C   UNL A   1      46.864  34.194  29.892  1.00  0.00     0.198 A 
ATOM     86  F   UNL A   1      46.612  31.979  30.641  1.00  0.00    -0.203 F 
ATOM     87  F   UNL A   1      46.153  35.692  26.671  1.00  0.00    -0.200 F 
ATOM     88  C   UNL A   1      46.749  35.144  28.890  1.00  0.00     0.200 A 
ATOM     89  F   UNL A   1      47.342  34.545  31.094  1.00  0.00    -0.200 F 
ATOM     90  F   UNL A   1      47.131  36.407  29.115  1.00  0.00    -0.200 F 
ENDBRANCH  57  80
ENDBRANCH  31  32
ENDBRANCH  23  26
ENDBRANCH  21  22
ENDBRANCH  20  21
ENDBRANCH   1  20
TORSDOF 14
ENDMDL
