MODEL 1
REMARK VINA RESULT:     -14.4      0.000      0.000
REMARK SMILES CC1=C[C@@H](C)[C@H]2C(=O)N([C@H](Cc3ccccc3)C(=O)NCCCCNC(=O)c3ccc(-c4c5nc(c(-c6c(F)c(F)c(F)c(F)c6F)c6ccc([nH]6)c(-c6c(F)c(F)c(F)c(F)c6F)c6nc(c(-c7c(F)c(F)c(F)c(F)c7F)c7ccc4[nH]7)C=C6)C=C5)cc3)C(=O)[C@H]2C1
REMARK SMILES IDX 22 1 21 2 20 3 18 4 19 5 10 7 9 8 1 9 2 10 3 11 94 12 4 13
REMARK SMILES IDX 93 14 6 15 5 16 91 17 7 18 92 19 8 20 11 21 12 22 13 23
REMARK SMILES IDX 17 24 14 25 16 26 15 27 23 28 24 29 25 30 26 31 27 33 28 34
REMARK SMILES IDX 29 35 90 36 30 37 89 38 31 39 32 40 33 41 83 42 34 43 88 44
REMARK SMILES IDX 82 45 84 46 35 47 87 48 81 49 80 50 36 52 68 53 48 54 67 55
REMARK SMILES IDX 49 56 52 57 66 58 85 59 50 60 51 61 65 63 86 64 53 65 37 66
REMARK SMILES IDX 38 67 46 68 39 69 40 70 44 71 47 72 41 73 42 74 45 75 43 76
REMARK SMILES IDX 69 77 70 78 78 79 71 80 72 81 76 82 79 83 73 84 74 85 77 86
REMARK SMILES IDX 75 87 54 88 55 89 63 90 56 91 57 92 61 93 64 94 58 95 59 96
REMARK SMILES IDX 62 97 60 98
REMARK H PARENT 20 6 25 32 84 51 52 62
REMARK Flexibility Score: inf
ROOT
ATOM      1  C   UNL A   1      32.048  30.542  26.799  1.00  0.00     0.023 C 
ENDROOT
BRANCH   1   2
ATOM      2  C   UNL A   1      31.795  29.969  25.417  1.00  0.00     0.116 C 
BRANCH   2   3
ATOM      3  N   UNL A   1      32.965  29.753  24.612  1.00  0.00    -0.354 N 
ATOM      4  C   UNL A   1      33.208  28.712  23.762  1.00  0.00     0.243 C 
ATOM      5  O   UNL A   1      34.225  28.766  23.060  1.00  0.00    -0.273 OA
ATOM      6  H   UNL A   1      33.673  30.433  24.681  1.00  0.00     0.163 HD
BRANCH   4   7
ATOM      7  C   UNL A   1      32.321  27.443  23.751  1.00  0.00     0.186 C 
BRANCH   7   8
ATOM      8  N   UNL A   1      33.091  26.167  23.886  1.00  0.00    -0.269 N 
ATOM      9  C   UNL A   1      34.382  21.226  26.555  1.00  0.00     0.039 C 
ATOM     10  C   UNL A   1      34.365  22.272  25.475  1.00  0.00    -0.076 C 
ATOM     11  C   UNL A   1      33.929  21.979  24.244  1.00  0.00    -0.024 C 
ATOM     12  C   UNL A   1      34.848  23.640  25.865  1.00  0.00     0.044 C 
ATOM     13  C   UNL A   1      33.767  22.968  23.131  1.00  0.00     0.022 C 
ATOM     14  C   UNL A   1      34.714  24.734  24.811  1.00  0.00     0.096 C 
ATOM     15  C   UNL A   1      34.475  24.322  23.367  1.00  0.00     0.098 C 
ATOM     16  C   UNL A   1      32.270  23.040  22.858  1.00  0.00     0.013 C 
ATOM     17  C   UNL A   1      33.627  25.748  25.079  1.00  0.00     0.234 C 
ATOM     18  C   UNL A   1      33.723  25.531  22.845  1.00  0.00     0.234 C 
ATOM     19  O   UNL A   1      33.402  26.219  26.185  1.00  0.00    -0.274 OA
ATOM     20  O   UNL A   1      33.693  25.838  21.664  1.00  0.00    -0.274 OA
ENDBRANCH   7   8
BRANCH   7  21
ATOM     21  C   UNL A   1      31.284  27.447  22.567  1.00  0.00     0.071 C 
BRANCH  21  22
ATOM     22  C   UNL A   1      30.092  28.392  22.557  1.00  0.00    -0.045 A 
ATOM     23  C   UNL A   1      28.888  27.976  23.154  1.00  0.00     0.004 A 
ATOM     24  C   UNL A   1      30.123  29.656  21.954  1.00  0.00     0.004 A 
ATOM     25  C   UNL A   1      27.719  28.733  23.020  1.00  0.00     0.000 A 
ATOM     26  C   UNL A   1      28.947  30.394  21.788  1.00  0.00     0.000 A 
ATOM     27  C   UNL A   1      27.741  29.922  22.299  1.00  0.00     0.000 A 
ENDBRANCH  21  22
ENDBRANCH   7  21
ENDBRANCH   4   7
ENDBRANCH   2   3
ENDBRANCH   1   2
BRANCH   1  28
ATOM     28  C   UNL A   1      31.696  32.008  26.971  1.00  0.00     0.023 C 
BRANCH  28  29
ATOM     29  C   UNL A   1      32.858  32.903  27.363  1.00  0.00     0.116 C 
BRANCH  29  30
ATOM     30  N   UNL A   1      32.463  34.263  27.713  1.00  0.00    -0.352 N 
ATOM     31  C   UNL A   1      32.993  35.078  28.686  1.00  0.00     0.251 C 
ATOM     32  H   UNL A   1      31.724  34.644  27.187  1.00  0.00     0.163 HD
ATOM     33  O   UNL A   1      32.498  36.171  28.937  1.00  0.00    -0.269 OA
BRANCH  31  34
ATOM     34  C   UNL A   1      34.150  34.585  29.457  1.00  0.00     0.039 A 
ATOM     35  C   UNL A   1      33.929  33.919  30.663  1.00  0.00     0.014 A 
ATOM     36  C   UNL A   1      35.432  34.674  28.911  1.00  0.00     0.014 A 
ATOM     37  C   UNL A   1      34.992  33.257  31.280  1.00  0.00     0.010 A 
ATOM     38  C   UNL A   1      36.460  33.929  29.469  1.00  0.00     0.010 A 
ATOM     39  C   UNL A   1      36.252  33.215  30.661  1.00  0.00    -0.014 A 
BRANCH  39  40
ATOM     40  C   UNL A   1      37.379  32.445  31.242  1.00  0.00     0.031 A 
ATOM     41  C   UNL A   1      37.889  32.798  32.611  1.00  0.00     0.074 A 
ATOM     42  C   UNL A   1      37.991  31.492  30.514  1.00  0.00     0.049 A 
ATOM     43  N   UNL A   1      38.917  32.318  33.263  1.00  0.00    -0.248 NA
ATOM     44  C   UNL A   1      37.172  33.866  33.327  1.00  0.00     0.031 C 
ATOM     45  C   UNL A   1      37.630  31.101  29.149  1.00  0.00     0.029 A 
ATOM     46  N   UNL A   1      39.059  30.683  30.816  1.00  0.00    -0.354 N 
ATOM     47  C   UNL A   1      38.980  33.040  34.448  1.00  0.00     0.074 A 
ATOM     48  C   UNL A   1      37.932  34.034  34.397  1.00  0.00     0.031 C 
ATOM     49  C   UNL A   1      38.439  30.109  28.746  1.00  0.00     0.029 A 
ATOM     50  C   UNL A   1      39.400  29.818  29.805  1.00  0.00     0.049 A 
ATOM     51  H   UNL A   1      39.535  30.720  31.677  1.00  0.00     0.167 HD
ATOM     52  C   UNL A   1      39.816  32.867  35.499  1.00  0.00     0.037 A 
ATOM     53  C   UNL A   1      40.380  28.896  29.743  1.00  0.00     0.037 A 
ATOM     54  C   UNL A   1      40.828  31.850  35.561  1.00  0.00     0.049 A 
ATOM     55  C   UNL A   1      41.287  28.713  30.931  1.00  0.00     0.074 A 
ATOM     56  C   UNL A   1      41.681  31.542  36.606  1.00  0.00     0.029 A 
ATOM     57  N   UNL A   1      41.123  30.969  34.530  1.00  0.00    -0.354 N 
ATOM     58  N   UNL A   1      41.288  29.349  32.078  1.00  0.00    -0.248 NA
ATOM     59  C   UNL A   1      42.324  27.679  30.818  1.00  0.00     0.031 C 
ATOM     60  C   UNL A   1      42.519  30.501  36.192  1.00  0.00     0.029 A 
ATOM     61  C   UNL A   1      42.157  30.129  34.908  1.00  0.00     0.049 A 
ATOM     62  H   UNL A   1      40.665  30.945  33.659  1.00  0.00     0.167 HD
ATOM     63  C   UNL A   1      42.301  28.774  32.833  1.00  0.00     0.074 A 
ATOM     64  C   UNL A   1      42.885  27.728  32.018  1.00  0.00     0.031 C 
ATOM     65  C   UNL A   1      42.713  29.085  34.086  1.00  0.00     0.037 A 
BRANCH  52  66
ATOM     66  C   UNL A   1      39.654  33.794  36.668  1.00  0.00     0.064 A 
ATOM     67  C   UNL A   1      40.297  35.042  36.713  1.00  0.00     0.173 A 
ATOM     68  C   UNL A   1      38.836  33.441  37.750  1.00  0.00     0.173 A 
ATOM     69  F   UNL A   1      41.104  35.421  35.709  1.00  0.00    -0.203 F 
ATOM     70  C   UNL A   1      40.156  35.883  37.812  1.00  0.00     0.198 A 
ATOM     71  C   UNL A   1      38.671  34.299  38.834  1.00  0.00     0.198 A 
ATOM     72  F   UNL A   1      38.196  32.262  37.758  1.00  0.00    -0.203 F 
ATOM     73  F   UNL A   1      40.827  37.042  37.857  1.00  0.00    -0.200 F 
ATOM     74  C   UNL A   1      39.337  35.515  38.868  1.00  0.00     0.200 A 
ATOM     75  F   UNL A   1      37.869  33.948  39.849  1.00  0.00    -0.200 F 
ATOM     76  F   UNL A   1      39.199  36.327  39.925  1.00  0.00    -0.200 F 
ENDBRANCH  52  66
BRANCH  53  77
ATOM     77  C   UNL A   1      40.532  28.047  28.532  1.00  0.00     0.064 A 
ATOM     78  C   UNL A   1      39.911  26.792  28.454  1.00  0.00     0.173 A 
ATOM     79  C   UNL A   1      41.300  28.463  27.437  1.00  0.00     0.173 A 
ATOM     80  F   UNL A   1      39.181  26.341  29.486  1.00  0.00    -0.203 F 
ATOM     81  C   UNL A   1      40.071  25.976  27.336  1.00  0.00     0.198 A 
ATOM     82  C   UNL A   1      41.437  27.658  26.306  1.00  0.00     0.198 A 
ATOM     83  F   UNL A   1      41.910  29.656  27.457  1.00  0.00    -0.203 F 
ATOM     84  F   UNL A   1      39.504  24.762  27.308  1.00  0.00    -0.200 F 
ATOM     85  C   UNL A   1      40.829  26.412  26.261  1.00  0.00     0.200 A 
ATOM     86  F   UNL A   1      42.161  28.088  25.263  1.00  0.00    -0.200 F 
ATOM     87  F   UNL A   1      40.981  25.628  25.184  1.00  0.00    -0.200 F 
ENDBRANCH  53  77
BRANCH  65  88
ATOM     88  C   UNL A   1      43.821  28.259  34.669  1.00  0.00     0.064 A 
ATOM     89  C   UNL A   1      43.565  27.076  35.376  1.00  0.00     0.173 A 
ATOM     90  C   UNL A   1      45.160  28.633  34.475  1.00  0.00     0.173 A 
ATOM     91  F   UNL A   1      42.302  26.684  35.601  1.00  0.00    -0.203 F 
ATOM     92  C   UNL A   1      44.608  26.310  35.890  1.00  0.00     0.198 A 
ATOM     93  C   UNL A   1      46.201  27.849  34.963  1.00  0.00     0.198 A 
ATOM     94  F   UNL A   1      45.458  29.753  33.798  1.00  0.00    -0.203 F 
ATOM     95  F   UNL A   1      44.339  25.208  36.603  1.00  0.00    -0.200 F 
ATOM     96  C   UNL A   1      45.924  26.694  35.676  1.00  0.00     0.200 A 
ATOM     97  F   UNL A   1      47.472  28.213  34.743  1.00  0.00    -0.200 F 
ATOM     98  F   UNL A   1      46.927  25.950  36.164  1.00  0.00    -0.200 F 
ENDBRANCH  65  88
ENDBRANCH  39  40
ENDBRANCH  31  34
ENDBRANCH  29  30
ENDBRANCH  28  29
ENDBRANCH   1  28
TORSDOF 14
ENDMDL
MODEL 2
REMARK VINA RESULT:     -14.4      0.703      7.166
REMARK SMILES CC1=C[C@@H](C)[C@H]2C(=O)N([C@H](Cc3ccccc3)C(=O)NCCCCNC(=O)c3ccc(-c4c5nc(c(-c6c(F)c(F)c(F)c(F)c6F)c6ccc([nH]6)c(-c6c(F)c(F)c(F)c(F)c6F)c6nc(c(-c7c(F)c(F)c(F)c(F)c7F)c7ccc4[nH]7)C=C6)C=C5)cc3)C(=O)[C@H]2C1
REMARK SMILES IDX 22 1 21 2 20 3 18 4 19 5 10 7 9 8 1 9 2 10 3 11 94 12 4 13
REMARK SMILES IDX 93 14 6 15 5 16 91 17 7 18 92 19 8 20 11 21 12 22 13 23
REMARK SMILES IDX 17 24 14 25 16 26 15 27 23 28 24 29 25 30 26 31 27 33 28 34
REMARK SMILES IDX 29 35 90 36 30 37 89 38 31 39 32 40 33 41 83 42 34 43 88 44
REMARK SMILES IDX 82 45 84 46 35 47 87 48 81 49 80 50 36 52 68 53 48 54 67 55
REMARK SMILES IDX 49 56 52 57 66 58 85 59 50 60 51 61 65 63 86 64 53 65 37 66
REMARK SMILES IDX 38 67 46 68 39 69 40 70 44 71 47 72 41 73 42 74 45 75 43 76
REMARK SMILES IDX 69 77 70 78 78 79 71 80 72 81 76 82 79 83 73 84 74 85 77 86
REMARK SMILES IDX 75 87 54 88 55 89 63 90 56 91 57 92 61 93 64 94 58 95 59 96
REMARK SMILES IDX 62 97 60 98
REMARK H PARENT 20 6 25 32 84 51 52 62
REMARK Flexibility Score: inf
ROOT
ATOM      1  C   UNL A   1      31.157  30.562  25.516  1.00  0.00     0.023 C 
ENDROOT
BRANCH   1   2
ATOM      2  C   UNL A   1      32.467  29.844  25.782  1.00  0.00     0.116 C 
BRANCH   2   3
ATOM      3  N   UNL A   1      33.350  29.727  24.654  1.00  0.00    -0.354 N 
ATOM      4  C   UNL A   1      33.290  28.812  23.642  1.00  0.00     0.243 C 
ATOM      5  O   UNL A   1      34.069  28.952  22.691  1.00  0.00    -0.273 OA
ATOM      6  H   UNL A   1      34.083  30.382  24.606  1.00  0.00     0.163 HD
BRANCH   4   7
ATOM      7  C   UNL A   1      32.372  27.569  23.720  1.00  0.00     0.186 C 
BRANCH   7   8
ATOM      8  N   UNL A   1      33.113  26.281  23.900  1.00  0.00    -0.269 N 
ATOM      9  C   UNL A   1      34.262  21.387  26.715  1.00  0.00     0.039 C 
ATOM     10  C   UNL A   1      34.282  22.404  25.608  1.00  0.00    -0.076 C 
ATOM     11  C   UNL A   1      33.859  22.088  24.379  1.00  0.00    -0.024 C 
ATOM     12  C   UNL A   1      34.787  23.771  25.971  1.00  0.00     0.044 C 
ATOM     13  C   UNL A   1      33.734  23.051  23.238  1.00  0.00     0.022 C 
ATOM     14  C   UNL A   1      34.692  24.840  24.887  1.00  0.00     0.096 C 
ATOM     15  C   UNL A   1      34.466  24.395  23.451  1.00  0.00     0.098 C 
ATOM     16  C   UNL A   1      32.243  23.146  22.940  1.00  0.00     0.013 C 
ATOM     17  C   UNL A   1      33.622  25.883  25.111  1.00  0.00     0.234 C 
ATOM     18  C   UNL A   1      33.747  25.605  22.886  1.00  0.00     0.234 C 
ATOM     19  O   UNL A   1      33.390  26.387  26.201  1.00  0.00    -0.274 OA
ATOM     20  O   UNL A   1      33.741  25.882  21.697  1.00  0.00    -0.274 OA
ENDBRANCH   7   8
BRANCH   7  21
ATOM     21  C   UNL A   1      31.302  27.540  22.565  1.00  0.00     0.071 C 
BRANCH  21  22
ATOM     22  C   UNL A   1      30.110  28.484  22.563  1.00  0.00    -0.045 A 
ATOM     23  C   UNL A   1      28.906  28.064  23.160  1.00  0.00     0.004 A 
ATOM     24  C   UNL A   1      30.139  29.750  21.965  1.00  0.00     0.004 A 
ATOM     25  C   UNL A   1      27.737  28.821  23.032  1.00  0.00     0.000 A 
ATOM     26  C   UNL A   1      28.962  30.489  21.805  1.00  0.00     0.000 A 
ATOM     27  C   UNL A   1      27.757  30.014  22.316  1.00  0.00     0.000 A 
ENDBRANCH  21  22
ENDBRANCH   7  21
ENDBRANCH   4   7
ENDBRANCH   2   3
ENDBRANCH   1   2
BRANCH   1  28
ATOM     28  C   UNL A   1      31.030  31.938  26.142  1.00  0.00     0.023 C 
BRANCH  28  29
ATOM     29  C   UNL A   1      32.265  32.419  26.884  1.00  0.00     0.116 C 
BRANCH  29  30
ATOM     30  N   UNL A   1      32.139  33.768  27.424  1.00  0.00    -0.352 N 
ATOM     31  C   UNL A   1      32.989  34.421  28.288  1.00  0.00     0.251 C 
ATOM     32  H   UNL A   1      31.348  34.275  27.133  1.00  0.00     0.163 HD
ATOM     33  O   UNL A   1      32.710  35.526  28.738  1.00  0.00    -0.269 OA
BRANCH  31  34
ATOM     34  C   UNL A   1      34.228  33.735  28.699  1.00  0.00     0.039 A 
ATOM     35  C   UNL A   1      35.451  34.388  28.543  1.00  0.00     0.014 A 
ATOM     36  C   UNL A   1      34.151  32.503  29.353  1.00  0.00     0.014 A 
ATOM     37  C   UNL A   1      36.594  33.843  29.131  1.00  0.00     0.010 A 
ATOM     38  C   UNL A   1      35.265  32.021  30.024  1.00  0.00     0.010 A 
ATOM     39  C   UNL A   1      36.499  32.684  29.918  1.00  0.00    -0.014 A 
BRANCH  39  40
ATOM     40  C   UNL A   1      37.675  32.130  30.632  1.00  0.00     0.031 A 
ATOM     41  C   UNL A   1      38.490  31.045  29.985  1.00  0.00     0.074 A 
ATOM     42  C   UNL A   1      37.960  32.539  31.883  1.00  0.00     0.049 A 
ATOM     43  N   UNL A   1      39.494  30.360  30.470  1.00  0.00    -0.248 NA
ATOM     44  C   UNL A   1      38.095  30.645  28.624  1.00  0.00     0.031 C 
ATOM     45  C   UNL A   1      37.206  33.539  32.641  1.00  0.00     0.029 A 
ATOM     46  N   UNL A   1      38.956  32.155  32.744  1.00  0.00    -0.354 N 
ATOM     47  C   UNL A   1      39.831  29.440  29.486  1.00  0.00     0.074 A 
ATOM     48  C   UNL A   1      38.885  29.606  28.405  1.00  0.00     0.031 C 
ATOM     49  C   UNL A   1      37.785  33.711  33.840  1.00  0.00     0.029 A 
ATOM     50  C   UNL A   1      38.926  32.809  33.951  1.00  0.00     0.049 A 
ATOM     51  H   UNL A   1      39.630  31.473  32.518  1.00  0.00     0.167 HD
ATOM     52  C   UNL A   1      40.858  28.559  29.470  1.00  0.00     0.037 A 
ATOM     53  C   UNL A   1      39.730  32.691  35.026  1.00  0.00     0.037 A 
ATOM     54  C   UNL A   1      41.821  28.428  30.528  1.00  0.00     0.049 A 
ATOM     55  C   UNL A   1      40.875  31.713  34.977  1.00  0.00     0.074 A 
ATOM     56  C   UNL A   1      42.941  27.618  30.582  1.00  0.00     0.029 A 
ATOM     57  N   UNL A   1      41.778  29.132  31.723  1.00  0.00    -0.354 N 
ATOM     58  N   UNL A   1      41.231  30.903  34.010  1.00  0.00    -0.248 NA
ATOM     59  C   UNL A   1      41.733  31.640  36.167  1.00  0.00     0.031 C 
ATOM     60  C   UNL A   1      43.553  27.802  31.826  1.00  0.00     0.029 A 
ATOM     61  C   UNL A   1      42.842  28.762  32.528  1.00  0.00     0.049 A 
ATOM     62  H   UNL A   1      41.092  29.797  31.962  1.00  0.00     0.167 HD
ATOM     63  C   UNL A   1      42.369  30.247  34.460  1.00  0.00     0.074 A 
ATOM     64  C   UNL A   1      42.651  30.765  35.784  1.00  0.00     0.031 C 
ATOM     65  C   UNL A   1      43.112  29.300  33.836  1.00  0.00     0.037 A 
BRANCH  52  66
ATOM     66  C   UNL A   1      40.994  27.681  28.260  1.00  0.00     0.064 A 
ATOM     67  C   UNL A   1      40.372  26.424  28.189  1.00  0.00     0.173 A 
ATOM     68  C   UNL A   1      41.743  28.104  27.152  1.00  0.00     0.173 A 
ATOM     69  F   UNL A   1      39.657  25.965  29.228  1.00  0.00    -0.203 F 
ATOM     70  C   UNL A   1      40.523  25.610  27.069  1.00  0.00     0.198 A 
ATOM     71  C   UNL A   1      41.865  27.302  26.021  1.00  0.00     0.198 A 
ATOM     72  F   UNL A   1      42.356  29.297  27.166  1.00  0.00    -0.203 F 
ATOM     73  F   UNL A   1      39.969  24.391  27.050  1.00  0.00    -0.200 F 
ATOM     74  C   UNL A   1      41.263  26.053  25.984  1.00  0.00     0.200 A 
ATOM     75  F   UNL A   1      42.570  27.735  24.967  1.00  0.00    -0.200 F 
ATOM     76  F   UNL A   1      41.406  25.271  24.905  1.00  0.00    -0.200 F 
ENDBRANCH  52  66
BRANCH  53  77
ATOM     77  C   UNL A   1      39.509  33.544  36.222  1.00  0.00     0.064 A 
ATOM     78  C   UNL A   1      38.693  33.106  37.275  1.00  0.00     0.173 A 
ATOM     79  C   UNL A   1      40.098  34.811  36.339  1.00  0.00     0.173 A 
ATOM     80  F   UNL A   1      38.091  31.909  37.201  1.00  0.00    -0.203 F 
ATOM     81  C   UNL A   1      38.456  33.911  38.388  1.00  0.00     0.198 A 
ATOM     82  C   UNL A   1      39.883  35.604  37.465  1.00  0.00     0.198 A 
ATOM     83  F   UNL A   1      40.892  35.276  35.363  1.00  0.00    -0.203 F 
ATOM     84  F   UNL A   1      37.635  33.485  39.357  1.00  0.00    -0.200 F 
ATOM     85  C   UNL A   1      39.056  35.157  38.484  1.00  0.00     0.200 A 
ATOM     86  F   UNL A   1      40.475  36.803  37.561  1.00  0.00    -0.200 F 
ATOM     87  F   UNL A   1      38.830  35.930  39.555  1.00  0.00    -0.200 F 
ENDBRANCH  53  77
BRANCH  65  88
ATOM     88  C   UNL A   1      44.324  28.792  34.560  1.00  0.00     0.064 A 
ATOM     89  C   UNL A   1      44.273  27.647  35.366  1.00  0.00     0.173 A 
ATOM     90  C   UNL A   1      45.562  29.435  34.404  1.00  0.00     0.173 A 
ATOM     91  F   UNL A   1      43.110  27.005  35.557  1.00  0.00    -0.203 F 
ATOM     92  C   UNL A   1      45.415  27.176  36.011  1.00  0.00     0.198 A 
ATOM     93  C   UNL A   1      46.706  28.945  35.026  1.00  0.00     0.198 A 
ATOM     94  F   UNL A   1      45.663  30.531  33.637  1.00  0.00    -0.203 F 
ATOM     95  F   UNL A   1      45.335  26.107  36.814  1.00  0.00    -0.200 F 
ATOM     96  C   UNL A   1      46.630  27.821  35.834  1.00  0.00     0.200 A 
ATOM     97  F   UNL A   1      47.882  29.560  34.843  1.00  0.00    -0.200 F 
ATOM     98  F   UNL A   1      47.728  27.362  36.449  1.00  0.00    -0.200 F 
ENDBRANCH  65  88
ENDBRANCH  39  40
ENDBRANCH  31  34
ENDBRANCH  29  30
ENDBRANCH  28  29
ENDBRANCH   1  28
TORSDOF 14
ENDMDL
MODEL 3
REMARK VINA RESULT:     -14.3      0.892      1.944
REMARK SMILES CC1=C[C@@H](C)[C@H]2C(=O)N([C@H](Cc3ccccc3)C(=O)NCCCCNC(=O)c3ccc(-c4c5nc(c(-c6c(F)c(F)c(F)c(F)c6F)c6ccc([nH]6)c(-c6c(F)c(F)c(F)c(F)c6F)c6nc(c(-c7c(F)c(F)c(F)c(F)c7F)c7ccc4[nH]7)C=C6)C=C5)cc3)C(=O)[C@H]2C1
REMARK SMILES IDX 22 1 21 2 20 3 18 4 19 5 10 7 9 8 1 9 2 10 3 11 94 12 4 13
REMARK SMILES IDX 93 14 6 15 5 16 91 17 7 18 92 19 8 20 11 21 12 22 13 23
REMARK SMILES IDX 17 24 14 25 16 26 15 27 23 28 24 29 25 30 26 31 27 33 28 34
REMARK SMILES IDX 29 35 90 36 30 37 89 38 31 39 32 40 33 41 83 42 34 43 88 44
REMARK SMILES IDX 82 45 84 46 35 47 87 48 81 49 80 50 36 52 68 53 48 54 67 55
REMARK SMILES IDX 49 56 52 57 66 58 85 59 50 60 51 61 65 63 86 64 53 65 37 66
REMARK SMILES IDX 38 67 46 68 39 69 40 70 44 71 47 72 41 73 42 74 45 75 43 76
REMARK SMILES IDX 69 77 70 78 78 79 71 80 72 81 76 82 79 83 73 84 74 85 77 86
REMARK SMILES IDX 75 87 54 88 55 89 63 90 56 91 57 92 61 93 64 94 58 95 59 96
REMARK SMILES IDX 62 97 60 98
REMARK H PARENT 20 6 25 32 84 51 52 62
REMARK Flexibility Score: inf
ROOT
ATOM      1  C   UNL A   1      31.102  30.692  25.533  1.00  0.00     0.023 C 
ENDROOT
BRANCH   1   2
ATOM      2  C   UNL A   1      32.324  29.818  25.746  1.00  0.00     0.116 C 
BRANCH   2   3
ATOM      3  N   UNL A   1      33.215  29.713  24.624  1.00  0.00    -0.354 N 
ATOM      4  C   UNL A   1      33.176  28.794  23.615  1.00  0.00     0.243 C 
ATOM      5  O   UNL A   1      33.959  28.944  22.668  1.00  0.00    -0.273 OA
ATOM      6  H   UNL A   1      33.937  30.381  24.578  1.00  0.00     0.163 HD
BRANCH   4   7
ATOM      7  C   UNL A   1      32.280  27.535  23.693  1.00  0.00     0.186 C 
BRANCH   7   8
ATOM      8  N   UNL A   1      33.042  26.262  23.887  1.00  0.00    -0.269 N 
ATOM      9  C   UNL A   1      34.232  21.391  26.727  1.00  0.00     0.039 C 
ATOM     10  C   UNL A   1      34.254  22.409  25.620  1.00  0.00    -0.076 C 
ATOM     11  C   UNL A   1      33.859  22.083  24.383  1.00  0.00    -0.024 C 
ATOM     12  C   UNL A   1      34.726  23.785  25.991  1.00  0.00     0.044 C 
ATOM     13  C   UNL A   1      33.737  23.043  23.239  1.00  0.00     0.022 C 
ATOM     14  C   UNL A   1      34.630  24.851  24.904  1.00  0.00     0.096 C 
ATOM     15  C   UNL A   1      34.439  24.402  23.464  1.00  0.00     0.098 C 
ATOM     16  C   UNL A   1      32.250  23.109  22.914  1.00  0.00     0.013 C 
ATOM     17  C   UNL A   1      33.536  25.874  25.108  1.00  0.00     0.234 C 
ATOM     18  C   UNL A   1      33.707  25.597  22.885  1.00  0.00     0.234 C 
ATOM     19  O   UNL A   1      33.275  26.374  26.193  1.00  0.00    -0.274 OA
ATOM     20  O   UNL A   1      33.718  25.874  21.696  1.00  0.00    -0.274 OA
ENDBRANCH   7   8
BRANCH   7  21
ATOM     21  C   UNL A   1      31.221  27.480  22.528  1.00  0.00     0.071 C 
BRANCH  21  22
ATOM     22  C   UNL A   1      30.004  28.391  22.518  1.00  0.00    -0.045 A 
ATOM     23  C   UNL A   1      30.124  29.684  21.974  1.00  0.00     0.004 A 
ATOM     24  C   UNL A   1      28.765  28.018  23.053  1.00  0.00     0.004 A 
ATOM     25  C   UNL A   1      29.088  30.616  22.098  1.00  0.00     0.000 A 
ATOM     26  C   UNL A   1      27.743  28.960  23.210  1.00  0.00     0.000 A 
ATOM     27  C   UNL A   1      27.913  30.264  22.755  1.00  0.00     0.000 A 
ENDBRANCH  21  22
ENDBRANCH   7  21
ENDBRANCH   4   7
ENDBRANCH   2   3
ENDBRANCH   1   2
BRANCH   1  28
ATOM     28  C   UNL A   1      31.082  31.987  26.324  1.00  0.00     0.023 C 
BRANCH  28  29
ATOM     29  C   UNL A   1      32.425  32.412  26.889  1.00  0.00     0.116 C 
BRANCH  29  30
ATOM     30  N   UNL A   1      32.427  33.755  27.458  1.00  0.00    -0.352 N 
ATOM     31  C   UNL A   1      33.351  34.317  28.309  1.00  0.00     0.251 C 
ATOM     32  H   UNL A   1      31.672  34.331  27.201  1.00  0.00     0.163 HD
ATOM     33  O   UNL A   1      33.177  35.432  28.788  1.00  0.00    -0.269 OA
BRANCH  31  34
ATOM     34  C   UNL A   1      34.541  33.524  28.669  1.00  0.00     0.039 A 
ATOM     35  C   UNL A   1      35.798  34.127  28.631  1.00  0.00     0.014 A 
ATOM     36  C   UNL A   1      34.383  32.228  29.165  1.00  0.00     0.014 A 
ATOM     37  C   UNL A   1      36.892  33.457  29.181  1.00  0.00     0.010 A 
ATOM     38  C   UNL A   1      35.447  31.611  29.804  1.00  0.00     0.010 A 
ATOM     39  C   UNL A   1      36.715  32.217  29.816  1.00  0.00    -0.014 A 
BRANCH  39  40
ATOM     40  C   UNL A   1      37.837  31.521  30.492  1.00  0.00     0.031 A 
ATOM     41  C   UNL A   1      38.200  31.896  31.901  1.00  0.00     0.074 A 
ATOM     42  C   UNL A   1      38.574  30.619  29.817  1.00  0.00     0.049 A 
ATOM     43  N   UNL A   1      39.198  31.482  32.639  1.00  0.00    -0.248 NA
ATOM     44  C   UNL A   1      37.351  32.906  32.555  1.00  0.00     0.031 C 
ATOM     45  C   UNL A   1      38.361  30.217  28.425  1.00  0.00     0.029 A 
ATOM     46  N   UNL A   1      39.664  29.882  30.209  1.00  0.00    -0.354 N 
ATOM     47  C   UNL A   1      39.107  32.196  33.827  1.00  0.00     0.074 A 
ATOM     48  C   UNL A   1      38.002  33.117  33.688  1.00  0.00     0.031 C 
ATOM     49  C   UNL A   1      39.269  29.286  28.091  1.00  0.00     0.029 A 
ATOM     50  C   UNL A   1      40.152  29.052  29.230  1.00  0.00     0.049 A 
ATOM     51  H   UNL A   1      40.060  29.944  31.109  1.00  0.00     0.167 HD
ATOM     52  C   UNL A   1      39.858  32.071  34.947  1.00  0.00     0.037 A 
ATOM     53  C   UNL A   1      41.194  28.199  29.251  1.00  0.00     0.037 A 
ATOM     54  C   UNL A   1      40.929  31.125  35.094  1.00  0.00     0.049 A 
ATOM     55  C   UNL A   1      42.005  28.068  30.513  1.00  0.00     0.074 A 
ATOM     56  C   UNL A   1      41.706  30.867  36.209  1.00  0.00     0.029 A 
ATOM     57  N   UNL A   1      41.372  30.275  34.091  1.00  0.00    -0.354 N 
ATOM     58  N   UNL A   1      41.862  28.693  31.657  1.00  0.00    -0.248 NA
ATOM     59  C   UNL A   1      43.117  27.109  30.489  1.00  0.00     0.031 C 
ATOM     60  C   UNL A   1      42.647  29.889  35.868  1.00  0.00     0.029 A 
ATOM     61  C   UNL A   1      42.425  29.504  34.555  1.00  0.00     0.049 A 
ATOM     62  H   UNL A   1      40.995  30.228  33.182  1.00  0.00     0.167 HD
ATOM     63  C   UNL A   1      42.843  28.182  32.497  1.00  0.00     0.074 A 
ATOM     64  C   UNL A   1      43.566  27.185  31.733  1.00  0.00     0.031 C 
ATOM     65  C   UNL A   1      43.121  28.509  33.783  1.00  0.00     0.037 A 
BRANCH  52  66
ATOM     66  C   UNL A   1      39.532  32.975  36.099  1.00  0.00     0.064 A 
ATOM     67  C   UNL A   1      38.596  32.608  37.080  1.00  0.00     0.173 A 
ATOM     68  C   UNL A   1      40.170  34.215  36.236  1.00  0.00     0.173 A 
ATOM     69  F   UNL A   1      37.945  31.438  36.988  1.00  0.00    -0.203 F 
ATOM     70  C   UNL A   1      38.287  33.465  38.133  1.00  0.00     0.198 A 
ATOM     71  C   UNL A   1      39.883  35.056  37.308  1.00  0.00     0.198 A 
ATOM     72  F   UNL A   1      41.075  34.615  35.329  1.00  0.00    -0.203 F 
ATOM     73  F   UNL A   1      37.347  33.117  39.023  1.00  0.00    -0.200 F 
ATOM     74  C   UNL A   1      38.936  34.684  38.250  1.00  0.00     0.200 A 
ATOM     75  F   UNL A   1      40.519  36.229  37.427  1.00  0.00    -0.200 F 
ATOM     76  F   UNL A   1      38.640  35.506  39.266  1.00  0.00    -0.200 F 
ENDBRANCH  52  66
BRANCH  53  77
ATOM     77  C   UNL A   1      41.509  27.374  28.056  1.00  0.00     0.064 A 
ATOM     78  C   UNL A   1      40.928  26.109  27.884  1.00  0.00     0.173 A 
ATOM     79  C   UNL A   1      42.396  27.822  27.068  1.00  0.00     0.173 A 
ATOM     80  F   UNL A   1      40.088  25.628  28.814  1.00  0.00    -0.203 F 
ATOM     81  C   UNL A   1      41.239  25.315  26.783  1.00  0.00     0.198 A 
ATOM     82  C   UNL A   1      42.686  27.038  25.951  1.00  0.00     0.198 A 
ATOM     83  F   UNL A   1      42.975  29.026  27.180  1.00  0.00    -0.203 F 
ATOM     84  F   UNL A   1      40.705  24.091  26.669  1.00  0.00    -0.200 F 
ATOM     85  C   UNL A   1      42.114  25.783  25.814  1.00  0.00     0.200 A 
ATOM     86  F   UNL A   1      43.522  27.499  25.010  1.00  0.00    -0.200 F 
ATOM     87  F   UNL A   1      42.412  25.020  24.753  1.00  0.00    -0.200 F 
ENDBRANCH  53  77
BRANCH  65  88
ATOM     88  C   UNL A   1      44.229  27.755  34.458  1.00  0.00     0.064 A 
ATOM     89  C   UNL A   1      45.544  28.241  34.478  1.00  0.00     0.173 A 
ATOM     90  C   UNL A   1      43.959  26.555  35.133  1.00  0.00     0.173 A 
ATOM     91  F   UNL A   1      45.855  29.376  33.835  1.00  0.00    -0.203 F 
ATOM     92  C   UNL A   1      46.554  27.538  35.131  1.00  0.00     0.198 A 
ATOM     93  C   UNL A   1      44.965  25.872  35.809  1.00  0.00     0.198 A 
ATOM     94  F   UNL A   1      42.714  26.052  35.149  1.00  0.00    -0.203 F 
ATOM     95  F   UNL A   1      47.813  27.996  35.099  1.00  0.00    -0.200 F 
ATOM     96  C   UNL A   1      46.262  26.360  35.800  1.00  0.00     0.200 A 
ATOM     97  F   UNL A   1      44.679  24.741  36.469  1.00  0.00    -0.200 F 
ATOM     98  F   UNL A   1      47.235  25.690  36.435  1.00  0.00    -0.200 F 
ENDBRANCH  65  88
ENDBRANCH  39  40
ENDBRANCH  31  34
ENDBRANCH  29  30
ENDBRANCH  28  29
ENDBRANCH   1  28
TORSDOF 14
ENDMDL
