MODEL 1
REMARK VINA RESULT:     -12.7      0.000      0.000
REMARK SMILES O=C(NCCCCNC(=O)c1cccc2c1ccn2Cc1ccncc1)c1ccc(-c2c3nc(c(-c4c(F)c(F)c(F)c(F)c4F)c4ccc([nH]4)c(-c4c(F)c(F)c(F)c(F)c4F)c4nc(c(-c5c(F)c(F)c(F)c(F)c5F)c5ccc2[nH]5)C=C4)C=C3)cc1
REMARK SMILES IDX 5 1 4 2 3 3 1 4 2 5 27 7 28 8 89 9 29 10 88 11 30 12 31 13
REMARK SMILES IDX 32 14 82 15 33 16 87 17 81 18 83 19 34 20 86 21 80 22 79 23
REMARK SMILES IDX 35 25 67 26 47 27 66 28 48 29 51 30 65 31 84 32 49 33 50 34
REMARK SMILES IDX 64 36 85 37 52 38 36 39 37 40 45 41 38 42 39 43 43 44 46 45
REMARK SMILES IDX 40 46 41 47 44 48 42 49 68 50 69 51 77 52 70 53 71 54 75 55
REMARK SMILES IDX 78 56 72 57 73 58 76 59 74 60 53 61 54 62 62 63 55 64 56 65
REMARK SMILES IDX 60 66 63 67 57 68 58 69 61 70 59 71 6 72 7 73 8 74 9 75
REMARK SMILES IDX 10 77 11 78 12 79 16 80 13 81 15 82 17 83 14 84 19 85 18 86
REMARK SMILES IDX 20 87 21 88 22 89 26 90 23 91 25 92 24 93
REMARK H PARENT 3 6 83 24 51 35 8 76
REMARK Flexibility Score: inf
ROOT
ATOM      1  C   UNL A   1      41.339  19.987  26.121  1.00  0.00     0.023 C 
ENDROOT
BRANCH   1   2
ATOM      2  C   UNL A   1      42.677  19.716  26.787  1.00  0.00     0.116 C 
BRANCH   2   3
ATOM      3  N   UNL A   1      43.798  19.436  25.874  1.00  0.00    -0.352 N 
ATOM      4  O   UNL A   1      45.099  19.957  24.059  1.00  0.00    -0.269 OA
ATOM      5  C   UNL A   1      44.424  20.328  24.992  1.00  0.00     0.251 C 
ATOM      6  H   UNL A   1      44.149  18.516  25.884  1.00  0.00     0.163 HD
BRANCH   5   7
ATOM      7  C   UNL A   1      44.250  21.769  25.274  1.00  0.00     0.039 A 
ATOM      8  C   UNL A   1      43.343  22.611  24.625  1.00  0.00     0.014 A 
ATOM      9  C   UNL A   1      44.950  22.210  26.374  1.00  0.00     0.014 A 
ATOM     10  C   UNL A   1      43.100  23.868  25.188  1.00  0.00     0.010 A 
ATOM     11  C   UNL A   1      44.390  23.205  27.107  1.00  0.00     0.010 A 
ATOM     12  C   UNL A   1      43.625  24.150  26.458  1.00  0.00    -0.014 A 
BRANCH  12  13
ATOM     13  C   UNL A   1      43.450  25.410  27.170  1.00  0.00     0.031 A 
ATOM     14  C   UNL A   1      44.412  26.488  26.837  1.00  0.00     0.074 A 
ATOM     15  C   UNL A   1      42.371  25.649  27.958  1.00  0.00     0.049 A 
ATOM     16  N   UNL A   1      45.315  26.992  27.611  1.00  0.00    -0.248 NA
ATOM     17  C   UNL A   1      44.450  27.000  25.460  1.00  0.00     0.031 C 
ATOM     18  C   UNL A   1      41.166  24.831  28.195  1.00  0.00     0.029 A 
ATOM     19  N   UNL A   1      42.087  26.769  28.670  1.00  0.00    -0.354 N 
ATOM     20  C   UNL A   1      45.934  28.001  26.882  1.00  0.00     0.074 A 
ATOM     21  C   UNL A   1      45.463  27.868  25.526  1.00  0.00     0.031 C 
ATOM     22  C   UNL A   1      40.197  25.581  28.757  1.00  0.00     0.029 A 
ATOM     23  C   UNL A   1      40.778  26.850  29.127  1.00  0.00     0.049 A 
ATOM     24  H   UNL A   1      42.756  27.469  28.848  1.00  0.00     0.167 HD
ATOM     25  C   UNL A   1      46.635  28.990  27.503  1.00  0.00     0.037 A 
ATOM     26  C   UNL A   1      40.212  27.898  29.769  1.00  0.00     0.037 A 
ATOM     27  C   UNL A   1      46.937  28.644  28.869  1.00  0.00     0.049 A 
ATOM     28  C   UNL A   1      41.327  28.692  30.345  1.00  0.00     0.074 A 
ATOM     29  C   UNL A   1      47.652  27.620  29.462  1.00  0.00     0.029 A 
ATOM     30  N   UNL A   1      46.141  29.158  29.865  1.00  0.00    -0.354 N 
ATOM     31  N   UNL A   1      42.107  28.253  31.296  1.00  0.00    -0.248 NA
ATOM     32  C   UNL A   1      41.879  29.758  29.522  1.00  0.00     0.031 C 
ATOM     33  C   UNL A   1      46.876  27.243  30.598  1.00  0.00     0.029 A 
ATOM     34  C   UNL A   1      45.782  28.105  30.672  1.00  0.00     0.049 A 
ATOM     35  H   UNL A   1      45.880  30.100  29.979  1.00  0.00     0.167 HD
ATOM     36  C   UNL A   1      43.378  28.678  30.938  1.00  0.00     0.074 A 
ATOM     37  C   UNL A   1      43.165  29.658  29.872  1.00  0.00     0.031 C 
ATOM     38  C   UNL A   1      44.495  27.995  31.323  1.00  0.00     0.037 A 
BRANCH  25  39
ATOM     39  C   UNL A   1      46.774  30.394  26.982  1.00  0.00     0.064 A 
ATOM     40  C   UNL A   1      48.036  31.015  26.984  1.00  0.00     0.173 A 
ATOM     41  C   UNL A   1      45.672  31.242  26.746  1.00  0.00     0.173 A 
ATOM     42  F   UNL A   1      49.148  30.303  27.224  1.00  0.00    -0.203 F 
ATOM     43  C   UNL A   1      48.178  32.396  26.823  1.00  0.00     0.198 A 
ATOM     44  C   UNL A   1      45.820  32.611  26.532  1.00  0.00     0.198 A 
ATOM     45  F   UNL A   1      44.410  30.802  26.827  1.00  0.00    -0.203 F 
ATOM     46  F   UNL A   1      49.386  32.962  26.948  1.00  0.00    -0.200 F 
ATOM     47  C   UNL A   1      47.068  33.193  26.601  1.00  0.00     0.200 A 
ATOM     48  F   UNL A   1      44.732  33.369  26.339  1.00  0.00    -0.200 F 
ATOM     49  F   UNL A   1      47.194  34.522  26.502  1.00  0.00    -0.200 F 
ENDBRANCH  25  39
BRANCH  26  50
ATOM     50  C   UNL A   1      38.844  28.431  29.564  1.00  0.00     0.064 A 
ATOM     51  C   UNL A   1      38.005  28.691  30.656  1.00  0.00     0.173 A 
ATOM     52  C   UNL A   1      38.439  28.959  28.321  1.00  0.00     0.173 A 
ATOM     53  F   UNL A   1      38.338  28.252  31.880  1.00  0.00    -0.203 F 
ATOM     54  C   UNL A   1      36.849  29.468  30.523  1.00  0.00     0.198 A 
ATOM     55  C   UNL A   1      37.283  29.730  28.188  1.00  0.00     0.198 A 
ATOM     56  F   UNL A   1      39.206  28.821  27.229  1.00  0.00    -0.203 F 
ATOM     57  F   UNL A   1      36.108  29.753  31.603  1.00  0.00    -0.200 F 
ATOM     58  C   UNL A   1      36.497  29.999  29.293  1.00  0.00     0.200 A 
ATOM     59  F   UNL A   1      36.973  30.267  27.000  1.00  0.00    -0.200 F 
ATOM     60  F   UNL A   1      35.429  30.800  29.181  1.00  0.00    -0.200 F 
ENDBRANCH  26  50
BRANCH  38  61
ATOM     61  C   UNL A   1      44.341  26.877  32.321  1.00  0.00     0.064 A 
ATOM     62  C   UNL A   1      44.208  25.521  31.970  1.00  0.00     0.173 A 
ATOM     63  C   UNL A   1      44.514  27.168  33.681  1.00  0.00     0.173 A 
ATOM     64  F   UNL A   1      44.138  25.145  30.690  1.00  0.00    -0.203 F 
ATOM     65  C   UNL A   1      44.217  24.513  32.934  1.00  0.00     0.198 A 
ATOM     66  C   UNL A   1      44.556  26.158  34.640  1.00  0.00     0.198 A 
ATOM     67  F   UNL A   1      44.703  28.437  34.076  1.00  0.00    -0.203 F 
ATOM     68  F   UNL A   1      44.088  23.229  32.568  1.00  0.00    -0.200 F 
ATOM     69  C   UNL A   1      44.399  24.833  34.268  1.00  0.00     0.200 A 
ATOM     70  F   UNL A   1      44.784  26.469  35.924  1.00  0.00    -0.200 F 
ATOM     71  F   UNL A   1      44.456  23.862  35.192  1.00  0.00    -0.200 F 
ENDBRANCH  38  61
ENDBRANCH  12  13
ENDBRANCH   5   7
ENDBRANCH   2   3
ENDBRANCH   1   2
BRANCH   1  72
ATOM     72  C   UNL A   1      40.435  20.982  26.862  1.00  0.00     0.023 C 
BRANCH  72  73
ATOM     73  C   UNL A   1      39.284  21.617  26.072  1.00  0.00     0.116 C 
BRANCH  73  74
ATOM     74  N   UNL A   1      38.854  22.907  26.585  1.00  0.00    -0.352 N 
ATOM     75  C   UNL A   1      37.738  23.644  26.250  1.00  0.00     0.251 C 
ATOM     76  H   UNL A   1      39.439  23.311  27.265  1.00  0.00     0.163 HD
ATOM     77  O   UNL A   1      37.560  24.754  26.743  1.00  0.00    -0.269 OA
BRANCH  75  78
ATOM     78  C   UNL A   1      36.776  23.097  25.276  1.00  0.00     0.049 A 
ATOM     79  C   UNL A   1      36.949  23.322  23.904  1.00  0.00     0.014 A 
ATOM     80  C   UNL A   1      35.652  22.381  25.742  1.00  0.00     0.012 A 
ATOM     81  C   UNL A   1      35.966  22.924  23.004  1.00  0.00     0.003 A 
ATOM     82  C   UNL A   1      34.684  21.971  24.812  1.00  0.00     0.049 A 
ATOM     83  C   UNL A   1      35.204  21.972  27.026  1.00  0.00     0.029 A 
ATOM     84  C   UNL A   1      34.816  22.255  23.441  1.00  0.00     0.027 A 
ATOM     85  N   UNL A   1      33.695  21.313  25.527  1.00  0.00    -0.343 N 
ATOM     86  C   UNL A   1      33.977  21.376  26.871  1.00  0.00     0.087 A 
BRANCH  85  87
ATOM     87  C   UNL A   1      32.481  20.713  24.978  1.00  0.00     0.157 C 
BRANCH  87  88
ATOM     88  C   UNL A   1      32.758  19.451  24.195  1.00  0.00    -0.025 A 
ATOM     89  C   UNL A   1      32.164  19.224  22.947  1.00  0.00     0.025 A 
ATOM     90  C   UNL A   1      33.638  18.480  24.683  1.00  0.00     0.025 A 
ATOM     91  C   UNL A   1      32.447  18.050  22.266  1.00  0.00     0.111 A 
ATOM     92  C   UNL A   1      33.872  17.344  23.919  1.00  0.00     0.111 A 
ATOM     93  N   UNL A   1      33.295  17.108  22.723  1.00  0.00    -0.265 NA
ENDBRANCH  87  88
ENDBRANCH  85  87
ENDBRANCH  75  78
ENDBRANCH  73  74
ENDBRANCH  72  73
ENDBRANCH   1  72
TORSDOF 13
ENDMDL
MODEL 2
REMARK VINA RESULT:     -12.5      4.007      7.022
REMARK SMILES O=C(NCCCCNC(=O)c1cccc2c1ccn2Cc1ccncc1)c1ccc(-c2c3nc(c(-c4c(F)c(F)c(F)c(F)c4F)c4ccc([nH]4)c(-c4c(F)c(F)c(F)c(F)c4F)c4nc(c(-c5c(F)c(F)c(F)c(F)c5F)c5ccc2[nH]5)C=C4)C=C3)cc1
REMARK SMILES IDX 5 1 4 2 3 3 1 4 2 5 27 7 28 8 89 9 29 10 88 11 30 12 31 13
REMARK SMILES IDX 32 14 82 15 33 16 87 17 81 18 83 19 34 20 86 21 80 22 79 23
REMARK SMILES IDX 35 25 67 26 47 27 66 28 48 29 51 30 65 31 84 32 49 33 50 34
REMARK SMILES IDX 64 36 85 37 52 38 36 39 37 40 45 41 38 42 39 43 43 44 46 45
REMARK SMILES IDX 40 46 41 47 44 48 42 49 68 50 69 51 77 52 70 53 71 54 75 55
REMARK SMILES IDX 78 56 72 57 73 58 76 59 74 60 53 61 54 62 62 63 55 64 56 65
REMARK SMILES IDX 60 66 63 67 57 68 58 69 61 70 59 71 6 72 7 73 8 74 9 75
REMARK SMILES IDX 10 77 11 78 12 79 16 80 13 81 15 82 17 83 14 84 19 85 18 86
REMARK SMILES IDX 20 87 21 88 22 89 26 90 23 91 25 92 24 93
REMARK H PARENT 3 6 83 24 51 35 8 76
REMARK Flexibility Score: inf
ROOT
ATOM      1  C   UNL A   1      44.387  22.308  26.511  1.00  0.00     0.023 C 
ENDROOT
BRANCH   1   2
ATOM      2  C   UNL A   1      43.099  22.508  25.731  1.00  0.00     0.116 C 
BRANCH   2   3
ATOM      3  N   UNL A   1      41.890  21.925  26.335  1.00  0.00    -0.352 N 
ATOM      4  O   UNL A   1      40.254  21.891  27.942  1.00  0.00    -0.269 OA
ATOM      5  C   UNL A   1      41.019  22.528  27.253  1.00  0.00     0.251 C 
ATOM      6  H   UNL A   1      41.667  21.005  26.063  1.00  0.00     0.163 HD
BRANCH   5   7
ATOM      7  C   UNL A   1      41.050  24.005  27.323  1.00  0.00     0.039 A 
ATOM      8  C   UNL A   1      40.266  24.863  26.550  1.00  0.00     0.014 A 
ATOM      9  C   UNL A   1      41.814  24.497  28.358  1.00  0.00     0.014 A 
ATOM     10  C   UNL A   1      40.206  26.210  26.924  1.00  0.00     0.010 A 
ATOM     11  C   UNL A   1      41.405  25.654  28.934  1.00  0.00     0.010 A 
ATOM     12  C   UNL A   1      40.775  26.595  28.147  1.00  0.00    -0.014 A 
BRANCH  12  13
ATOM     13  C   UNL A   1      40.784  27.956  28.669  1.00  0.00     0.031 A 
ATOM     14  C   UNL A   1      41.847  28.848  28.149  1.00  0.00     0.074 A 
ATOM     15  C   UNL A   1      39.782  28.436  29.448  1.00  0.00     0.049 A 
ATOM     16  N   UNL A   1      42.840  29.344  28.808  1.00  0.00    -0.248 NA
ATOM     17  C   UNL A   1      41.875  29.149  26.710  1.00  0.00     0.031 C 
ATOM     18  C   UNL A   1      38.503  27.814  29.843  1.00  0.00     0.029 A 
ATOM     19  N   UNL A   1      39.666  29.672  29.994  1.00  0.00    -0.354 N 
ATOM     20  C   UNL A   1      43.535  30.154  27.918  1.00  0.00     0.074 A 
ATOM     21  C   UNL A   1      42.984  29.887  26.613  1.00  0.00     0.031 C 
ATOM     22  C   UNL A   1      37.657  28.750  30.319  1.00  0.00     0.029 A 
ATOM     23  C   UNL A   1      38.401  29.978  30.478  1.00  0.00     0.049 A 
ATOM     24  H   UNL A   1      40.420  30.303  30.044  1.00  0.00     0.167 HD
ATOM     25  C   UNL A   1      44.377  31.128  28.362  1.00  0.00     0.037 A 
ATOM     26  C   UNL A   1      37.993  31.169  30.975  1.00  0.00     0.037 A 
ATOM     27  C   UNL A   1      44.705  30.947  29.754  1.00  0.00     0.049 A 
ATOM     28  C   UNL A   1      39.221  31.895  31.389  1.00  0.00     0.074 A 
ATOM     29  C   UNL A   1      45.326  29.940  30.468  1.00  0.00     0.029 A 
ATOM     30  N   UNL A   1      44.026  31.693  30.688  1.00  0.00    -0.354 N 
ATOM     31  N   UNL A   1      39.992  31.504  32.369  1.00  0.00    -0.248 NA
ATOM     32  C   UNL A   1      39.852  32.755  30.400  1.00  0.00     0.031 C 
ATOM     33  C   UNL A   1      44.569  29.827  31.672  1.00  0.00     0.029 A 
ATOM     34  C   UNL A   1      43.588  30.819  31.653  1.00  0.00     0.049 A 
ATOM     35  H   UNL A   1      43.882  32.667  30.669  1.00  0.00     0.167 HD
ATOM     36  C   UNL A   1      41.284  31.715  31.910  1.00  0.00     0.074 A 
ATOM     37  C   UNL A   1      41.132  32.550  30.719  1.00  0.00     0.031 C 
ATOM     38  C   UNL A   1      42.332  30.962  32.355  1.00  0.00     0.037 A 
BRANCH  25  39
ATOM     39  C   UNL A   1      44.652  32.415  27.633  1.00  0.00     0.064 A 
ATOM     40  C   UNL A   1      45.838  32.553  26.888  1.00  0.00     0.173 A 
ATOM     41  C   UNL A   1      43.935  33.605  27.872  1.00  0.00     0.173 A 
ATOM     42  F   UNL A   1      46.608  31.486  26.627  1.00  0.00    -0.203 F 
ATOM     43  C   UNL A   1      46.300  33.802  26.465  1.00  0.00     0.198 A 
ATOM     44  C   UNL A   1      44.371  34.843  27.403  1.00  0.00     0.198 A 
ATOM     45  F   UNL A   1      42.852  33.633  28.659  1.00  0.00    -0.203 F 
ATOM     46  F   UNL A   1      47.491  33.902  25.859  1.00  0.00    -0.200 F 
ATOM     47  C   UNL A   1      45.568  34.946  26.727  1.00  0.00     0.200 A 
ATOM     48  F   UNL A   1      43.658  35.942  27.685  1.00  0.00    -0.200 F 
ATOM     49  F   UNL A   1      46.036  36.150  26.373  1.00  0.00    -0.200 F 
ENDBRANCH  25  39
BRANCH  26  50
ATOM     50  C   UNL A   1      36.688  31.830  30.738  1.00  0.00     0.064 A 
ATOM     51  C   UNL A   1      35.844  32.153  31.809  1.00  0.00     0.173 A 
ATOM     52  C   UNL A   1      36.373  32.411  29.492  1.00  0.00     0.173 A 
ATOM     53  F   UNL A   1      36.096  31.670  33.035  1.00  0.00    -0.203 F 
ATOM     54  C   UNL A   1      34.770  33.038  31.655  1.00  0.00     0.198 A 
ATOM     55  C   UNL A   1      35.299  33.288  29.338  1.00  0.00     0.198 A 
ATOM     56  F   UNL A   1      37.157  32.215  28.422  1.00  0.00    -0.203 F 
ATOM     57  F   UNL A   1      34.026  33.376  32.717  1.00  0.00    -0.200 F 
ATOM     58  C   UNL A   1      34.507  33.615  30.423  1.00  0.00     0.200 A 
ATOM     59  F   UNL A   1      35.077  33.868  28.150  1.00  0.00    -0.200 F 
ATOM     60  F   UNL A   1      33.523  34.515  30.292  1.00  0.00    -0.200 F 
ENDBRANCH  26  50
BRANCH  38  61
ATOM     61  C   UNL A   1      42.099  30.026  33.513  1.00  0.00     0.064 A 
ATOM     62  C   UNL A   1      41.726  28.677  33.372  1.00  0.00     0.173 A 
ATOM     63  C   UNL A   1      42.440  30.461  34.801  1.00  0.00     0.173 A 
ATOM     64  F   UNL A   1      41.480  28.152  32.168  1.00  0.00    -0.203 F 
ATOM     65  C   UNL A   1      41.667  27.818  34.469  1.00  0.00     0.198 A 
ATOM     66  C   UNL A   1      42.414  29.593  35.891  1.00  0.00     0.198 A 
ATOM     67  F   UNL A   1      42.859  31.721  34.994  1.00  0.00    -0.203 F 
ATOM     68  F   UNL A   1      41.308  26.536  34.302  1.00  0.00    -0.200 F 
ATOM     69  C   UNL A   1      42.020  28.275  35.727  1.00  0.00     0.200 A 
ATOM     70  F   UNL A   1      42.804  30.027  37.097  1.00  0.00    -0.200 F 
ATOM     71  F   UNL A   1      42.010  27.438  36.774  1.00  0.00    -0.200 F 
ENDBRANCH  38  61
ENDBRANCH  12  13
ENDBRANCH   5   7
ENDBRANCH   2   3
ENDBRANCH   1   2
BRANCH   1  72
ATOM     72  C   UNL A   1      45.617  21.965  25.660  1.00  0.00     0.023 C 
BRANCH  72  73
ATOM     73  C   UNL A   1      45.613  22.417  24.195  1.00  0.00     0.116 C 
BRANCH  73  74
ATOM     74  N   UNL A   1      46.724  23.284  23.839  1.00  0.00    -0.352 N 
ATOM     75  C   UNL A   1      47.018  24.549  24.300  1.00  0.00     0.251 C 
ATOM     76  H   UNL A   1      47.354  22.918  23.177  1.00  0.00     0.163 HD
ATOM     77  O   UNL A   1      47.974  25.168  23.841  1.00  0.00    -0.269 OA
BRANCH  75  78
ATOM     78  C   UNL A   1      46.159  25.161  25.331  1.00  0.00     0.049 A 
ATOM     79  C   UNL A   1      44.903  25.679  24.991  1.00  0.00     0.014 A 
ATOM     80  C   UNL A   1      46.633  25.259  26.657  1.00  0.00     0.012 A 
ATOM     81  C   UNL A   1      44.159  26.378  25.937  1.00  0.00     0.003 A 
ATOM     82  C   UNL A   1      45.856  25.950  27.599  1.00  0.00     0.049 A 
ATOM     83  C   UNL A   1      47.815  24.831  27.318  1.00  0.00     0.029 A 
ATOM     84  C   UNL A   1      44.625  26.535  27.248  1.00  0.00     0.027 A 
ATOM     85  N   UNL A   1      46.549  25.911  28.798  1.00  0.00    -0.343 N 
ATOM     86  C   UNL A   1      47.764  25.296  28.609  1.00  0.00     0.087 A 
BRANCH  85  87
ATOM     87  C   UNL A   1      46.127  26.504  30.065  1.00  0.00     0.157 C 
BRANCH  87  88
ATOM     88  C   UNL A   1      45.470  25.503  30.985  1.00  0.00    -0.025 A 
ATOM     89  C   UNL A   1      45.577  25.614  32.377  1.00  0.00     0.025 A 
ATOM     90  C   UNL A   1      44.712  24.445  30.475  1.00  0.00     0.025 A 
ATOM     91  C   UNL A   1      44.958  24.671  33.182  1.00  0.00     0.111 A 
ATOM     92  C   UNL A   1      44.114  23.559  31.361  1.00  0.00     0.111 A 
ATOM     93  N   UNL A   1      44.222  23.648  32.703  1.00  0.00    -0.265 NA
ENDBRANCH  87  88
ENDBRANCH  85  87
ENDBRANCH  75  78
ENDBRANCH  73  74
ENDBRANCH  72  73
ENDBRANCH   1  72
TORSDOF 13
ENDMDL
MODEL 3
REMARK VINA RESULT:     -12.5      4.668      9.502
REMARK SMILES O=C(NCCCCNC(=O)c1cccc2c1ccn2Cc1ccncc1)c1ccc(-c2c3nc(c(-c4c(F)c(F)c(F)c(F)c4F)c4ccc([nH]4)c(-c4c(F)c(F)c(F)c(F)c4F)c4nc(c(-c5c(F)c(F)c(F)c(F)c5F)c5ccc2[nH]5)C=C4)C=C3)cc1
REMARK SMILES IDX 5 1 4 2 3 3 1 4 2 5 27 7 28 8 89 9 29 10 88 11 30 12 31 13
REMARK SMILES IDX 32 14 82 15 33 16 87 17 81 18 83 19 34 20 86 21 80 22 79 23
REMARK SMILES IDX 35 25 67 26 47 27 66 28 48 29 51 30 65 31 84 32 49 33 50 34
REMARK SMILES IDX 64 36 85 37 52 38 36 39 37 40 45 41 38 42 39 43 43 44 46 45
REMARK SMILES IDX 40 46 41 47 44 48 42 49 68 50 69 51 77 52 70 53 71 54 75 55
REMARK SMILES IDX 78 56 72 57 73 58 76 59 74 60 53 61 54 62 62 63 55 64 56 65
REMARK SMILES IDX 60 66 63 67 57 68 58 69 61 70 59 71 6 72 7 73 8 74 9 75
REMARK SMILES IDX 10 77 11 78 12 79 16 80 13 81 15 82 17 83 14 84 19 85 18 86
REMARK SMILES IDX 20 87 21 88 22 89 26 90 23 91 25 92 24 93
REMARK H PARENT 3 6 83 24 51 35 8 76
REMARK Flexibility Score: inf
ROOT
ATOM      1  C   UNL A   1      33.689  30.715  27.324  1.00  0.00     0.023 C 
ENDROOT
BRANCH   1   2
ATOM      2  C   UNL A   1      34.607  31.853  27.737  1.00  0.00     0.116 C 
BRANCH   2   3
ATOM      3  N   UNL A   1      34.481  32.298  29.135  1.00  0.00    -0.352 N 
ATOM      4  O   UNL A   1      34.941  32.077  31.370  1.00  0.00    -0.269 OA
ATOM      5  C   UNL A   1      35.293  31.941  30.220  1.00  0.00     0.251 C 
ATOM      6  H   UNL A   1      33.741  32.919  29.329  1.00  0.00     0.163 HD
BRANCH   5   7
ATOM      7  C   UNL A   1      36.635  31.410  29.897  1.00  0.00     0.039 A 
ATOM      8  C   UNL A   1      37.799  32.175  29.800  1.00  0.00     0.014 A 
ATOM      9  C   UNL A   1      36.695  30.035  29.859  1.00  0.00     0.014 A 
ATOM     10  C   UNL A   1      39.024  31.499  29.765  1.00  0.00     0.010 A 
ATOM     11  C   UNL A   1      37.855  29.455  30.255  1.00  0.00     0.010 A 
ATOM     12  C   UNL A   1      39.039  30.119  30.014  1.00  0.00    -0.014 A 
BRANCH  12  13
ATOM     13  C   UNL A   1      40.236  29.287  30.017  1.00  0.00     0.031 A 
ATOM     14  C   UNL A   1      40.842  29.019  31.343  1.00  0.00     0.074 A 
ATOM     15  C   UNL A   1      40.675  28.651  28.901  1.00  0.00     0.049 A 
ATOM     16  N   UNL A   1      41.986  29.432  31.775  1.00  0.00    -0.248 NA
ATOM     17  C   UNL A   1      40.050  28.293  32.347  1.00  0.00     0.031 C 
ATOM     18  C   UNL A   1      40.065  28.552  27.561  1.00  0.00     0.029 A 
ATOM     19  N   UNL A   1      41.764  27.854  28.768  1.00  0.00    -0.354 N 
ATOM     20  C   UNL A   1      42.144  28.889  33.045  1.00  0.00     0.074 A 
ATOM     21  C   UNL A   1      40.870  28.317  33.401  1.00  0.00     0.031 C 
ATOM     22  C   UNL A   1      40.637  27.551  26.862  1.00  0.00     0.029 A 
ATOM     23  C   UNL A   1      41.790  27.096  27.604  1.00  0.00     0.049 A 
ATOM     24  H   UNL A   1      42.479  27.814  29.442  1.00  0.00     0.167 HD
ATOM     25  C   UNL A   1      43.375  28.781  33.617  1.00  0.00     0.037 A 
ATOM     26  C   UNL A   1      42.703  26.154  27.275  1.00  0.00     0.037 A 
ATOM     27  C   UNL A   1      44.347  29.598  32.934  1.00  0.00     0.049 A 
ATOM     28  C   UNL A   1      43.912  26.436  28.090  1.00  0.00     0.074 A 
ATOM     29  C   UNL A   1      44.460  30.955  32.697  1.00  0.00     0.029 A 
ATOM     30  N   UNL A   1      45.181  28.996  32.022  1.00  0.00    -0.354 N 
ATOM     31  N   UNL A   1      44.645  27.507  27.943  1.00  0.00    -0.248 NA
ATOM     32  C   UNL A   1      44.008  25.784  29.387  1.00  0.00     0.031 C 
ATOM     33  C   UNL A   1      44.922  31.052  31.350  1.00  0.00     0.029 A 
ATOM     34  C   UNL A   1      45.136  29.757  30.878  1.00  0.00     0.049 A 
ATOM     35  H   UNL A   1      45.710  28.178  32.162  1.00  0.00     0.167 HD
ATOM     36  C   UNL A   1      44.963  27.900  29.235  1.00  0.00     0.074 A 
ATOM     37  C   UNL A   1      44.600  26.761  30.079  1.00  0.00     0.031 C 
ATOM     38  C   UNL A   1      45.215  29.206  29.544  1.00  0.00     0.037 A 
BRANCH  25  39
ATOM     39  C   UNL A   1      43.773  27.705  34.589  1.00  0.00     0.064 A 
ATOM     40  C   UNL A   1      43.722  26.356  34.193  1.00  0.00     0.173 A 
ATOM     41  C   UNL A   1      43.927  27.934  35.972  1.00  0.00     0.173 A 
ATOM     42  F   UNL A   1      43.551  26.028  32.903  1.00  0.00    -0.203 F 
ATOM     43  C   UNL A   1      43.763  25.314  35.123  1.00  0.00     0.198 A 
ATOM     44  C   UNL A   1      44.022  26.892  36.893  1.00  0.00     0.198 A 
ATOM     45  F   UNL A   1      43.880  29.165  36.495  1.00  0.00    -0.203 F 
ATOM     46  F   UNL A   1      43.595  24.048  34.715  1.00  0.00    -0.200 F 
ATOM     47  C   UNL A   1      43.909  25.583  36.473  1.00  0.00     0.200 A 
ATOM     48  F   UNL A   1      44.143  27.174  38.197  1.00  0.00    -0.200 F 
ATOM     49  F   UNL A   1      43.892  24.590  37.371  1.00  0.00    -0.200 F 
ENDBRANCH  25  39
BRANCH  26  50
ATOM     50  C   UNL A   1      42.438  24.849  26.623  1.00  0.00     0.064 A 
ATOM     51  C   UNL A   1      43.164  24.453  25.491  1.00  0.00     0.173 A 
ATOM     52  C   UNL A   1      41.673  23.850  27.261  1.00  0.00     0.173 A 
ATOM     53  F   UNL A   1      43.944  25.335  24.849  1.00  0.00    -0.203 F 
ATOM     54  C   UNL A   1      43.158  23.127  25.045  1.00  0.00     0.198 A 
ATOM     55  C   UNL A   1      41.664  22.529  26.811  1.00  0.00     0.198 A 
ATOM     56  F   UNL A   1      40.996  24.114  28.387  1.00  0.00    -0.203 F 
ATOM     57  F   UNL A   1      43.918  22.770  23.999  1.00  0.00    -0.200 F 
ATOM     58  C   UNL A   1      42.419  22.163  25.713  1.00  0.00     0.200 A 
ATOM     59  F   UNL A   1      40.974  21.600  27.488  1.00  0.00    -0.200 F 
ATOM     60  F   UNL A   1      42.470  20.881  25.327  1.00  0.00    -0.200 F 
ENDBRANCH  26  50
BRANCH  38  61
ATOM     61  C   UNL A   1      45.344  30.195  28.415  1.00  0.00     0.064 A 
ATOM     62  C   UNL A   1      44.271  30.945  27.899  1.00  0.00     0.173 A 
ATOM     63  C   UNL A   1      46.628  30.526  27.961  1.00  0.00     0.173 A 
ATOM     64  F   UNL A   1      43.026  30.764  28.348  1.00  0.00    -0.203 F 
ATOM     65  C   UNL A   1      44.472  31.952  26.956  1.00  0.00     0.198 A 
ATOM     66  C   UNL A   1      46.831  31.555  27.044  1.00  0.00     0.198 A 
ATOM     67  F   UNL A   1      47.699  29.887  28.456  1.00  0.00    -0.203 F 
ATOM     68  F   UNL A   1      43.428  32.650  26.483  1.00  0.00    -0.200 F 
ATOM     69  C   UNL A   1      45.754  32.262  26.535  1.00  0.00     0.200 A 
ATOM     70  F   UNL A   1      48.078  31.885  26.679  1.00  0.00    -0.200 F 
ATOM     71  F   UNL A   1      45.953  33.262  25.665  1.00  0.00    -0.200 F 
ENDBRANCH  38  61
ENDBRANCH  12  13
ENDBRANCH   5   7
ENDBRANCH   2   3
ENDBRANCH   1   2
BRANCH   1  72
ATOM     72  C   UNL A   1      34.391  29.375  27.065  1.00  0.00     0.023 C 
BRANCH  72  73
ATOM     73  C   UNL A   1      33.507  28.135  26.886  1.00  0.00     0.116 C 
BRANCH  73  74
ATOM     74  N   UNL A   1      34.052  27.145  25.972  1.00  0.00    -0.352 N 
ATOM     75  C   UNL A   1      33.390  26.339  25.072  1.00  0.00     0.251 C 
ATOM     76  H   UNL A   1      35.030  27.034  25.999  1.00  0.00     0.163 HD
ATOM     77  O   UNL A   1      34.008  25.507  24.416  1.00  0.00    -0.269 OA
BRANCH  75  78
ATOM     78  C   UNL A   1      31.928  26.469  24.925  1.00  0.00     0.049 A 
ATOM     79  C   UNL A   1      31.066  25.601  25.608  1.00  0.00     0.014 A 
ATOM     80  C   UNL A   1      31.405  27.450  24.055  1.00  0.00     0.012 A 
ATOM     81  C   UNL A   1      29.698  25.638  25.357  1.00  0.00     0.003 A 
ATOM     82  C   UNL A   1      30.019  27.482  23.834  1.00  0.00     0.049 A 
ATOM     83  C   UNL A   1      31.984  28.469  23.254  1.00  0.00     0.029 A 
ATOM     84  C   UNL A   1      29.154  26.567  24.462  1.00  0.00     0.027 A 
ATOM     85  N   UNL A   1      29.780  28.513  22.940  1.00  0.00    -0.343 N 
ATOM     86  C   UNL A   1      30.974  29.063  22.537  1.00  0.00     0.087 A 
BRANCH  85  87
ATOM     87  C   UNL A   1      28.479  28.922  22.414  1.00  0.00     0.157 C 
BRANCH  87  88
ATOM     88  C   UNL A   1      28.363  30.417  22.245  1.00  0.00    -0.025 A 
ATOM     89  C   UNL A   1      28.540  31.289  23.327  1.00  0.00     0.025 A 
ATOM     90  C   UNL A   1      28.100  30.982  20.992  1.00  0.00     0.025 A 
ATOM     91  C   UNL A   1      28.423  32.655  23.122  1.00  0.00     0.111 A 
ATOM     92  C   UNL A   1      28.018  32.363  20.884  1.00  0.00     0.111 A 
ATOM     93  N   UNL A   1      28.173  33.211  21.921  1.00  0.00    -0.265 NA
ENDBRANCH  87  88
ENDBRANCH  85  87
ENDBRANCH  75  78
ENDBRANCH  73  74
ENDBRANCH  72  73
ENDBRANCH   1  72
TORSDOF 13
ENDMDL
