MODEL 1
REMARK VINA RESULT:     -13.6      0.000      0.000
REMARK SMILES CC(C)Cc1ccc(-c2cc(Cl)cc3c2O[C@H](C(F)(F)F)C(C(=O)NCCCCNC(=O)c2ccc(-c4c5nc(c(-c6c(F)c(F)c(F)c(F)c6F)c6ccc([nH]6)c(-c6c(F)c(F)c(F)c(F)c6F)c6nc(c(-c7c(F)c(F)c(F)c(F)c7F)c7ccc4[nH]7)C=C6)C=C5)cc2)=C3)cc1
REMARK SMILES IDX 27 1 26 2 25 3 23 4 24 5 22 7 9 8 10 9 15 10 11 11 14 12
REMARK SMILES IDX 16 13 12 14 13 15 96 16 17 17 8 18 5 19 6 20 98 21 7 22
REMARK SMILES IDX 97 23 4 24 2 25 1 26 3 27 18 28 19 29 20 30 21 31 28 32
REMARK SMILES IDX 29 33 30 34 31 35 32 37 33 38 34 39 95 40 35 41 94 42 36 43
REMARK SMILES IDX 37 44 38 45 88 46 39 47 93 48 87 49 89 50 40 51 92 52 86 53
REMARK SMILES IDX 85 54 41 56 73 57 53 58 72 59 54 60 57 61 71 62 90 63 55 64
REMARK SMILES IDX 56 65 70 67 91 68 58 69 42 70 43 71 51 72 44 73 45 74 49 75
REMARK SMILES IDX 52 76 46 77 47 78 50 79 48 80 74 81 75 82 83 83 76 84 77 85
REMARK SMILES IDX 81 86 84 87 78 88 79 89 82 90 80 91 59 92 60 93 68 94 61 95
REMARK SMILES IDX 62 96 66 97 69 98 63 99 64 100 67 101 65 102
REMARK H PARENT 25 6 30 36 89 55 57 66
REMARK Flexibility Score: inf
ROOT
ATOM      1  C   UNL A   1      36.856  21.022  24.646  1.00  0.00     0.023 C 
ENDROOT
BRANCH   1   2
ATOM      2  C   UNL A   1      35.882  21.413  25.767  1.00  0.00     0.116 C 
BRANCH   2   3
ATOM      3  N   UNL A   1      35.792  22.854  25.851  1.00  0.00    -0.352 N 
ATOM      4  C   UNL A   1      34.965  23.713  25.215  1.00  0.00     0.251 C 
ATOM      5  O   UNL A   1      35.383  24.847  24.996  1.00  0.00    -0.270 OA
ATOM      6  H   UNL A   1      36.434  23.275  26.467  1.00  0.00     0.163 HD
BRANCH   4   7
ATOM      7  C   UNL A   1      33.557  23.297  24.930  1.00  0.00     0.067 C 
ATOM      8  C   UNL A   1      31.842  26.928  24.156  1.00  0.00     0.026 A 
ATOM      9  C   UNL A   1      32.373  27.821  25.123  1.00  0.00     0.033 A 
ATOM     10  C   UNL A   1      32.077  25.559  24.386  1.00  0.00     0.135 A 
ATOM     11  C   UNL A   1      32.892  27.385  26.340  1.00  0.00     0.042 A 
ATOM     12  C   UNL A   1      32.482  25.138  25.676  1.00  0.00     0.019 A 
ATOM     13  O   UNL A   1      32.001  24.588  23.396  1.00  0.00    -0.475 OA
ATOM     14  Cl  UNL A   1      33.523  28.526  27.457  1.00  0.00    -0.084 Cl
ATOM     15  C   UNL A   1      32.863  26.043  26.661  1.00  0.00     0.032 A 
ATOM     16  C   UNL A   1      32.700  23.689  25.893  1.00  0.00     0.025 C 
ATOM     17  C   UNL A   1      33.074  23.544  23.502  1.00  0.00     0.314 C 
BRANCH   8  18
ATOM     18  C   UNL A   1      30.865  27.554  23.217  1.00  0.00    -0.015 A 
ATOM     19  C   UNL A   1      28.951  29.535  22.414  1.00  0.00    -0.048 A 
ATOM     20  C   UNL A   1      30.298  29.642  22.048  1.00  0.00     0.004 A 
ATOM     21  C   UNL A   1      28.548  28.355  23.052  1.00  0.00     0.004 A 
ATOM     22  C   UNL A   1      31.234  28.660  22.423  1.00  0.00     0.009 A 
ATOM     23  C   UNL A   1      29.487  27.379  23.443  1.00  0.00     0.009 A 
BRANCH  19  24
ATOM     24  C   UNL A   1      27.975  30.647  22.070  1.00  0.00     0.038 C 
BRANCH  24  25
ATOM     25  C   UNL A   1      28.571  32.013  21.639  1.00  0.00    -0.013 C 
ATOM     26  C   UNL A   1      27.719  32.726  20.584  1.00  0.00     0.008 C 
ATOM     27  C   UNL A   1      28.705  32.934  22.862  1.00  0.00     0.008 C 
ENDBRANCH  24  25
ENDBRANCH  19  24
ENDBRANCH   8  18
BRANCH  17  28
ATOM     28  C   UNL A   1      32.613  22.193  22.907  1.00  0.00     0.429 C 
ATOM     29  F   UNL A   1      32.706  22.153  21.560  1.00  0.00    -0.167 F 
ATOM     30  F   UNL A   1      33.342  21.165  23.403  1.00  0.00    -0.167 F 
ATOM     31  F   UNL A   1      31.315  21.910  23.208  1.00  0.00    -0.167 F 
ENDBRANCH  17  28
ENDBRANCH   4   7
ENDBRANCH   2   3
ENDBRANCH   1   2
BRANCH   1  32
ATOM     32  C   UNL A   1      37.827  19.881  24.985  1.00  0.00     0.023 C 
BRANCH  32  33
ATOM     33  C   UNL A   1      39.058  20.302  25.778  1.00  0.00     0.116 C 
BRANCH  33  34
ATOM     34  N   UNL A   1      40.029  19.225  25.886  1.00  0.00    -0.352 N 
ATOM     35  C   UNL A   1      41.389  19.298  26.059  1.00  0.00     0.251 C 
ATOM     36  H   UNL A   1      39.659  18.315  25.829  1.00  0.00     0.163 HD
ATOM     37  O   UNL A   1      42.084  18.293  25.929  1.00  0.00    -0.269 OA
BRANCH  35  38
ATOM     38  C   UNL A   1      42.022  20.596  26.374  1.00  0.00     0.039 A 
ATOM     39  C   UNL A   1      42.375  21.451  25.327  1.00  0.00     0.014 A 
ATOM     40  C   UNL A   1      42.259  20.971  27.699  1.00  0.00     0.014 A 
ATOM     41  C   UNL A   1      42.900  22.713  25.612  1.00  0.00     0.010 A 
ATOM     42  C   UNL A   1      42.712  22.257  27.982  1.00  0.00     0.010 A 
ATOM     43  C   UNL A   1      43.035  23.142  26.943  1.00  0.00    -0.014 A 
BRANCH  43  44
ATOM     44  C   UNL A   1      43.504  24.514  27.271  1.00  0.00     0.031 A 
ATOM     45  C   UNL A   1      42.536  25.533  27.805  1.00  0.00     0.074 A 
ATOM     46  C   UNL A   1      44.780  24.863  27.017  1.00  0.00     0.049 A 
ATOM     47  N   UNL A   1      42.727  26.804  28.058  1.00  0.00    -0.248 NA
ATOM     48  C   UNL A   1      41.165  25.071  28.062  1.00  0.00     0.031 C 
ATOM     49  C   UNL A   1      45.804  23.978  26.462  1.00  0.00     0.029 A 
ATOM     50  N   UNL A   1      45.430  26.062  27.176  1.00  0.00    -0.354 N 
ATOM     51  C   UNL A   1      41.500  27.292  28.487  1.00  0.00     0.074 A 
ATOM     52  C   UNL A   1      40.559  26.196  28.409  1.00  0.00     0.031 C 
ATOM     53  C   UNL A   1      46.956  24.657  26.343  1.00  0.00     0.029 A 
ATOM     54  C   UNL A   1      46.742  26.037  26.769  1.00  0.00     0.049 A 
ATOM     55  H   UNL A   1      44.996  26.865  27.547  1.00  0.00     0.167 HD
ATOM     56  C   UNL A   1      41.191  28.535  28.927  1.00  0.00     0.037 A 
ATOM     57  C   UNL A   1      47.664  27.018  26.728  1.00  0.00     0.037 A 
ATOM     58  C   UNL A   1      42.137  29.618  29.022  1.00  0.00     0.049 A 
ATOM     59  C   UNL A   1      47.288  28.398  27.201  1.00  0.00     0.074 A 
ATOM     60  C   UNL A   1      41.937  30.896  29.510  1.00  0.00     0.029 A 
ATOM     61  N   UNL A   1      43.460  29.548  28.612  1.00  0.00    -0.354 N 
ATOM     62  N   UNL A   1      46.144  28.830  27.670  1.00  0.00    -0.248 NA
ATOM     63  C   UNL A   1      48.338  29.427  27.142  1.00  0.00     0.031 C 
ATOM     64  C   UNL A   1      43.122  31.619  29.345  1.00  0.00     0.029 A 
ATOM     65  C   UNL A   1      44.081  30.772  28.812  1.00  0.00     0.049 A 
ATOM     66  H   UNL A   1      43.895  28.749  28.236  1.00  0.00     0.167 HD
ATOM     67  C   UNL A   1      46.342  30.166  27.991  1.00  0.00     0.074 A 
ATOM     68  C   UNL A   1      47.721  30.472  27.675  1.00  0.00     0.031 C 
ATOM     69  C   UNL A   1      45.460  31.059  28.504  1.00  0.00     0.037 A 
BRANCH  56  70
ATOM     70  C   UNL A   1      39.771  28.797  29.337  1.00  0.00     0.064 A 
ATOM     71  C   UNL A   1      38.810  29.256  28.421  1.00  0.00     0.173 A 
ATOM     72  C   UNL A   1      39.351  28.546  30.653  1.00  0.00     0.173 A 
ATOM     73  F   UNL A   1      39.159  29.519  27.153  1.00  0.00    -0.203 F 
ATOM     74  C   UNL A   1      37.494  29.485  28.815  1.00  0.00     0.198 A 
ATOM     75  C   UNL A   1      38.026  28.745  31.035  1.00  0.00     0.198 A 
ATOM     76  F   UNL A   1      40.224  28.101  31.568  1.00  0.00    -0.203 F 
ATOM     77  F   UNL A   1      36.611  29.973  27.935  1.00  0.00    -0.200 F 
ATOM     78  C   UNL A   1      37.102  29.222  30.118  1.00  0.00     0.200 A 
ATOM     79  F   UNL A   1      37.646  28.475  32.290  1.00  0.00    -0.200 F 
ATOM     80  F   UNL A   1      35.834  29.434  30.493  1.00  0.00    -0.200 F 
ENDBRANCH  56  70
BRANCH  57  81
ATOM     81  C   UNL A   1      49.036  26.730  26.235  1.00  0.00     0.064 A 
ATOM     82  C   UNL A   1      49.405  27.029  24.916  1.00  0.00     0.173 A 
ATOM     83  C   UNL A   1      50.004  26.143  27.064  1.00  0.00     0.173 A 
ATOM     84  F   UNL A   1      48.509  27.571  24.077  1.00  0.00    -0.203 F 
ATOM     85  C   UNL A   1      50.680  26.731  24.438  1.00  0.00     0.198 A 
ATOM     86  C   UNL A   1      51.288  25.875  26.594  1.00  0.00     0.198 A 
ATOM     87  F   UNL A   1      49.705  25.842  28.336  1.00  0.00    -0.203 F 
ATOM     88  F   UNL A   1      50.988  26.981  23.158  1.00  0.00    -0.200 F 
ATOM     89  C   UNL A   1      51.623  26.160  25.279  1.00  0.00     0.200 A 
ATOM     90  F   UNL A   1      52.201  25.337  27.415  1.00  0.00    -0.200 F 
ATOM     91  F   UNL A   1      52.849  25.876  24.821  1.00  0.00    -0.200 F 
ENDBRANCH  57  81
BRANCH  69  92
ATOM     92  C   UNL A   1      45.965  32.442  28.799  1.00  0.00     0.064 A 
ATOM     93  C   UNL A   1      46.517  32.777  30.044  1.00  0.00     0.173 A 
ATOM     94  C   UNL A   1      45.946  33.429  27.801  1.00  0.00     0.173 A 
ATOM     95  F   UNL A   1      46.544  31.875  31.036  1.00  0.00    -0.203 F 
ATOM     96  C   UNL A   1      47.013  34.056  30.285  1.00  0.00     0.198 A 
ATOM     97  C   UNL A   1      46.473  34.696  28.035  1.00  0.00     0.198 A 
ATOM     98  F   UNL A   1      45.436  33.158  26.590  1.00  0.00    -0.203 F 
ATOM     99  F   UNL A   1      47.495  34.368  31.497  1.00  0.00    -0.200 F 
ATOM    100  C   UNL A   1      46.999  35.010  29.279  1.00  0.00     0.200 A 
ATOM    101  F   UNL A   1      46.474  35.611  27.056  1.00  0.00    -0.200 F 
ATOM    102  F   UNL A   1      47.490  36.236  29.510  1.00  0.00    -0.200 F 
ENDBRANCH  69  92
ENDBRANCH  43  44
ENDBRANCH  35  38
ENDBRANCH  33  34
ENDBRANCH  32  33
ENDBRANCH   1  32
TORSDOF 15
ENDMDL
MODEL 2
REMARK VINA RESULT:     -13.5      5.524     11.200
REMARK SMILES CC(C)Cc1ccc(-c2cc(Cl)cc3c2O[C@H](C(F)(F)F)C(C(=O)NCCCCNC(=O)c2ccc(-c4c5nc(c(-c6c(F)c(F)c(F)c(F)c6F)c6ccc([nH]6)c(-c6c(F)c(F)c(F)c(F)c6F)c6nc(c(-c7c(F)c(F)c(F)c(F)c7F)c7ccc4[nH]7)C=C6)C=C5)cc2)=C3)cc1
REMARK SMILES IDX 27 1 26 2 25 3 23 4 24 5 22 7 9 8 10 9 15 10 11 11 14 12
REMARK SMILES IDX 16 13 12 14 13 15 96 16 17 17 8 18 5 19 6 20 98 21 7 22
REMARK SMILES IDX 97 23 4 24 2 25 1 26 3 27 18 28 19 29 20 30 21 31 28 32
REMARK SMILES IDX 29 33 30 34 31 35 32 37 33 38 34 39 95 40 35 41 94 42 36 43
REMARK SMILES IDX 37 44 38 45 88 46 39 47 93 48 87 49 89 50 40 51 92 52 86 53
REMARK SMILES IDX 85 54 41 56 73 57 53 58 72 59 54 60 57 61 71 62 90 63 55 64
REMARK SMILES IDX 56 65 70 67 91 68 58 69 42 70 43 71 51 72 44 73 45 74 49 75
REMARK SMILES IDX 52 76 46 77 47 78 50 79 48 80 74 81 75 82 83 83 76 84 77 85
REMARK SMILES IDX 81 86 84 87 78 88 79 89 82 90 80 91 59 92 60 93 68 94 61 95
REMARK SMILES IDX 62 96 66 97 69 98 63 99 64 100 67 101 65 102
REMARK H PARENT 25 6 30 36 89 55 57 66
REMARK Flexibility Score: inf
ROOT
ATOM      1  C   UNL A   1      31.688  30.218  26.402  1.00  0.00     0.023 C 
ENDROOT
BRANCH   1   2
ATOM      2  C   UNL A   1      32.514  29.694  25.219  1.00  0.00     0.116 C 
BRANCH   2   3
ATOM      3  N   UNL A   1      33.345  28.594  25.657  1.00  0.00    -0.352 N 
ATOM      4  C   UNL A   1      33.112  27.263  25.634  1.00  0.00     0.251 C 
ATOM      5  O   UNL A   1      33.647  26.578  26.501  1.00  0.00    -0.270 OA
ATOM      6  H   UNL A   1      34.218  28.857  26.030  1.00  0.00     0.163 HD
BRANCH   4   7
ATOM      7  C   UNL A   1      32.336  26.677  24.498  1.00  0.00     0.067 C 
ATOM      8  C   UNL A   1      33.371  22.735  24.837  1.00  0.00     0.026 A 
ATOM      9  C   UNL A   1      34.762  22.723  25.122  1.00  0.00     0.033 A 
ATOM     10  C   UNL A   1      32.839  23.967  24.411  1.00  0.00     0.135 A 
ATOM     11  C   UNL A   1      35.603  23.781  24.789  1.00  0.00     0.042 A 
ATOM     12  C   UNL A   1      33.722  24.977  23.958  1.00  0.00     0.019 A 
ATOM     13  O   UNL A   1      31.488  24.284  24.472  1.00  0.00    -0.475 OA
ATOM     14  Cl  UNL A   1      37.275  23.697  25.171  1.00  0.00    -0.084 Cl
ATOM     15  C   UNL A   1      35.100  24.879  24.119  1.00  0.00     0.032 A 
ATOM     16  C   UNL A   1      33.131  26.254  23.495  1.00  0.00     0.025 C 
ATOM     17  C   UNL A   1      31.228  25.701  24.892  1.00  0.00     0.314 C 
BRANCH   8  18
ATOM     18  C   UNL A   1      32.755  21.378  24.742  1.00  0.00    -0.015 A 
ATOM     19  C   UNL A   1      32.789  18.546  24.285  1.00  0.00    -0.048 A 
ATOM     20  C   UNL A   1      32.903  19.071  25.578  1.00  0.00     0.004 A 
ATOM     21  C   UNL A   1      32.507  19.444  23.248  1.00  0.00     0.004 A 
ATOM     22  C   UNL A   1      32.865  20.459  25.806  1.00  0.00     0.009 A 
ATOM     23  C   UNL A   1      32.485  20.835  23.473  1.00  0.00     0.009 A 
BRANCH  19  24
ATOM     24  C   UNL A   1      32.916  17.050  24.054  1.00  0.00     0.038 C 
BRANCH  24  25
ATOM     25  C   UNL A   1      33.377  16.178  25.251  1.00  0.00    -0.013 C 
ATOM     26  C   UNL A   1      32.581  14.874  25.376  1.00  0.00     0.008 C 
ATOM     27  C   UNL A   1      34.866  15.830  25.102  1.00  0.00     0.008 C 
ENDBRANCH  24  25
ENDBRANCH  19  24
ENDBRANCH   8  18
BRANCH  17  28
ATOM     28  C   UNL A   1      29.893  26.228  24.317  1.00  0.00     0.429 C 
ATOM     29  F   UNL A   1      29.892  27.565  24.129  1.00  0.00    -0.167 F 
ATOM     30  F   UNL A   1      29.606  25.643  23.129  1.00  0.00    -0.167 F 
ATOM     31  F   UNL A   1      28.835  25.955  25.131  1.00  0.00    -0.167 F 
ENDBRANCH  17  28
ENDBRANCH   4   7
ENDBRANCH   2   3
ENDBRANCH   1   2
BRANCH   1  32
ATOM     32  C   UNL A   1      31.575  31.746  26.503  1.00  0.00     0.023 C 
BRANCH  32  33
ATOM     33  C   UNL A   1      32.765  32.434  27.162  1.00  0.00     0.116 C 
BRANCH  33  34
ATOM     34  N   UNL A   1      32.483  33.827  27.472  1.00  0.00    -0.352 N 
ATOM     35  C   UNL A   1      33.025  34.623  28.450  1.00  0.00     0.251 C 
ATOM     36  H   UNL A   1      31.811  34.260  26.899  1.00  0.00     0.163 HD
ATOM     37  O   UNL A   1      32.528  35.718  28.702  1.00  0.00    -0.269 OA
BRANCH  35  38
ATOM     38  C   UNL A   1      34.192  34.149  29.223  1.00  0.00     0.039 A 
ATOM     39  C   UNL A   1      33.979  33.413  30.392  1.00  0.00     0.014 A 
ATOM     40  C   UNL A   1      35.493  34.423  28.792  1.00  0.00     0.014 A 
ATOM     41  C   UNL A   1      35.070  32.890  31.089  1.00  0.00     0.010 A 
ATOM     42  C   UNL A   1      36.574  33.838  29.445  1.00  0.00     0.010 A 
ATOM     43  C   UNL A   1      36.375  33.065  30.599  1.00  0.00    -0.014 A 
BRANCH  43  44
ATOM     44  C   UNL A   1      37.545  32.440  31.270  1.00  0.00     0.031 A 
ATOM     45  C   UNL A   1      38.259  31.287  30.623  1.00  0.00     0.074 A 
ATOM     46  C   UNL A   1      37.915  32.861  32.495  1.00  0.00     0.049 A 
ATOM     47  N   UNL A   1      39.234  30.547  31.090  1.00  0.00    -0.248 NA
ATOM     48  C   UNL A   1      37.800  30.894  29.282  1.00  0.00     0.031 C 
ATOM     49  C   UNL A   1      37.276  33.942  33.247  1.00  0.00     0.029 A 
ATOM     50  N   UNL A   1      38.908  32.416  33.334  1.00  0.00    -0.354 N 
ATOM     51  C   UNL A   1      39.490  29.596  30.111  1.00  0.00     0.074 A 
ATOM     52  C   UNL A   1      38.534  29.818  29.048  1.00  0.00     0.031 C 
ATOM     53  C   UNL A   1      37.903  34.089  34.425  1.00  0.00     0.029 A 
ATOM     54  C   UNL A   1      38.957  33.084  34.534  1.00  0.00     0.049 A 
ATOM     55  H   UNL A   1      39.526  31.688  33.098  1.00  0.00     0.167 HD
ATOM     56  C   UNL A   1      40.449  28.641  30.091  1.00  0.00     0.037 A 
ATOM     57  C   UNL A   1      39.750  32.898  35.606  1.00  0.00     0.037 A 
ATOM     58  C   UNL A   1      41.411  28.438  31.144  1.00  0.00     0.049 A 
ATOM     59  C   UNL A   1      40.793  31.813  35.568  1.00  0.00     0.074 A 
ATOM     60  C   UNL A   1      42.459  27.536  31.192  1.00  0.00     0.029 A 
ATOM     61  N   UNL A   1      41.436  29.144  32.338  1.00  0.00    -0.354 N 
ATOM     62  N   UNL A   1      41.072  30.965  34.608  1.00  0.00    -0.248 NA
ATOM     63  C   UNL A   1      41.635  31.661  36.764  1.00  0.00     0.031 C 
ATOM     64  C   UNL A   1      43.084  27.657  32.436  1.00  0.00     0.029 A 
ATOM     65  C   UNL A   1      42.466  28.678  33.140  1.00  0.00     0.049 A 
ATOM     66  H   UNL A   1      40.816  29.869  32.578  1.00  0.00     0.167 HD
ATOM     67  C   UNL A   1      42.138  30.204  35.068  1.00  0.00     0.074 A 
ATOM     68  C   UNL A   1      42.465  30.697  36.389  1.00  0.00     0.031 C 
ATOM     69  C   UNL A   1      42.788  29.188  34.449  1.00  0.00     0.037 A 
BRANCH  56  70
ATOM     70  C   UNL A   1      40.506  27.736  28.894  1.00  0.00     0.064 A 
ATOM     71  C   UNL A   1      39.763  26.546  28.833  1.00  0.00     0.173 A 
ATOM     72  C   UNL A   1      41.281  28.080  27.776  1.00  0.00     0.173 A 
ATOM     73  F   UNL A   1      39.012  26.164  29.877  1.00  0.00    -0.203 F 
ATOM     74  C   UNL A   1      39.819  25.722  27.712  1.00  0.00     0.198 A 
ATOM     75  C   UNL A   1      41.309  27.270  26.644  1.00  0.00     0.198 A 
ATOM     76  F   UNL A   1      42.006  29.209  27.778  1.00  0.00    -0.203 F 
ATOM     77  F   UNL A   1      39.142  24.566  27.699  1.00  0.00    -0.200 F 
ATOM     78  C   UNL A   1      40.585  26.088  26.616  1.00  0.00     0.200 A 
ATOM     79  F   UNL A   1      42.037  27.634  25.580  1.00  0.00    -0.200 F 
ATOM     80  F   UNL A   1      40.631  25.299  25.535  1.00  0.00    -0.200 F 
ENDBRANCH  56  70
BRANCH  57  81
ATOM     81  C   UNL A   1      39.600  33.767  36.803  1.00  0.00     0.064 A 
ATOM     82  C   UNL A   1      38.793  33.376  37.881  1.00  0.00     0.173 A 
ATOM     83  C   UNL A   1      40.249  35.008  36.893  1.00  0.00     0.173 A 
ATOM     84  F   UNL A   1      38.134  32.208  37.835  1.00  0.00    -0.203 F 
ATOM     85  C   UNL A   1      38.623  34.201  38.991  1.00  0.00     0.198 A 
ATOM     86  C   UNL A   1      40.103  35.818  38.018  1.00  0.00     0.198 A 
ATOM     87  F   UNL A   1      41.037  35.428  35.892  1.00  0.00    -0.203 F 
ATOM     88  F   UNL A   1      37.805  33.824  39.984  1.00  0.00    -0.200 F 
ATOM     89  C   UNL A   1      39.282  35.419  39.062  1.00  0.00     0.200 A 
ATOM     90  F   UNL A   1      40.755  36.986  38.088  1.00  0.00    -0.200 F 
ATOM     91  F   UNL A   1      39.121  36.211  40.130  1.00  0.00    -0.200 F 
ENDBRANCH  57  81
BRANCH  69  92
ATOM     92  C   UNL A   1      43.950  28.566  35.171  1.00  0.00     0.064 A 
ATOM     93  C   UNL A   1      45.241  29.107  35.097  1.00  0.00     0.173 A 
ATOM     94  C   UNL A   1      43.753  27.446  35.993  1.00  0.00     0.173 A 
ATOM     95  F   UNL A   1      45.485  30.168  34.314  1.00  0.00    -0.203 F 
ATOM     96  C   UNL A   1      46.298  28.537  35.803  1.00  0.00     0.198 A 
ATOM     97  C   UNL A   1      44.804  26.898  36.723  1.00  0.00     0.198 A 
ATOM     98  F   UNL A   1      42.536  26.893  36.105  1.00  0.00    -0.203 F 
ATOM     99  F   UNL A   1      47.533  29.043  35.682  1.00  0.00    -0.200 F 
ATOM    100  C   UNL A   1      46.076  27.439  36.622  1.00  0.00     0.200 A 
ATOM    101  F   UNL A   1      44.585  25.848  37.527  1.00  0.00    -0.200 F 
ATOM    102  F   UNL A   1      47.092  26.901  37.311  1.00  0.00    -0.200 F 
ENDBRANCH  69  92
ENDBRANCH  43  44
ENDBRANCH  35  38
ENDBRANCH  33  34
ENDBRANCH  32  33
ENDBRANCH   1  32
TORSDOF 15
ENDMDL
MODEL 3
REMARK VINA RESULT:     -13.0      5.369     11.056
REMARK SMILES CC(C)Cc1ccc(-c2cc(Cl)cc3c2O[C@H](C(F)(F)F)C(C(=O)NCCCCNC(=O)c2ccc(-c4c5nc(c(-c6c(F)c(F)c(F)c(F)c6F)c6ccc([nH]6)c(-c6c(F)c(F)c(F)c(F)c6F)c6nc(c(-c7c(F)c(F)c(F)c(F)c7F)c7ccc4[nH]7)C=C6)C=C5)cc2)=C3)cc1
REMARK SMILES IDX 27 1 26 2 25 3 23 4 24 5 22 7 9 8 10 9 15 10 11 11 14 12
REMARK SMILES IDX 16 13 12 14 13 15 96 16 17 17 8 18 5 19 6 20 98 21 7 22
REMARK SMILES IDX 97 23 4 24 2 25 1 26 3 27 18 28 19 29 20 30 21 31 28 32
REMARK SMILES IDX 29 33 30 34 31 35 32 37 33 38 34 39 95 40 35 41 94 42 36 43
REMARK SMILES IDX 37 44 38 45 88 46 39 47 93 48 87 49 89 50 40 51 92 52 86 53
REMARK SMILES IDX 85 54 41 56 73 57 53 58 72 59 54 60 57 61 71 62 90 63 55 64
REMARK SMILES IDX 56 65 70 67 91 68 58 69 42 70 43 71 51 72 44 73 45 74 49 75
REMARK SMILES IDX 52 76 46 77 47 78 50 79 48 80 74 81 75 82 83 83 76 84 77 85
REMARK SMILES IDX 81 86 84 87 78 88 79 89 82 90 80 91 59 92 60 93 68 94 61 95
REMARK SMILES IDX 62 96 66 97 69 98 63 99 64 100 67 101 65 102
REMARK H PARENT 25 6 30 36 89 55 57 66
REMARK Flexibility Score: inf
ROOT
ATOM      1  C   UNL A   1      31.672  29.930  25.961  1.00  0.00     0.023 C 
ENDROOT
BRANCH   1   2
ATOM      2  C   UNL A   1      31.035  29.438  24.653  1.00  0.00     0.116 C 
BRANCH   2   3
ATOM      3  N   UNL A   1      30.385  28.165  24.879  1.00  0.00    -0.352 N 
ATOM      4  C   UNL A   1      30.773  26.917  24.536  1.00  0.00     0.251 C 
ATOM      5  O   UNL A   1      29.893  26.088  24.321  1.00  0.00    -0.270 OA
ATOM      6  H   UNL A   1      29.526  28.217  25.357  1.00  0.00     0.163 HD
BRANCH   4   7
ATOM      7  C   UNL A   1      32.227  26.571  24.563  1.00  0.00     0.067 C 
ATOM      8  C   UNL A   1      32.024  22.488  24.695  1.00  0.00     0.026 A 
ATOM      9  C   UNL A   1      30.975  22.181  25.601  1.00  0.00     0.033 A 
ATOM     10  C   UNL A   1      32.463  23.826  24.689  1.00  0.00     0.135 A 
ATOM     11  C   UNL A   1      30.553  23.071  26.586  1.00  0.00     0.042 A 
ATOM     12  C   UNL A   1      32.119  24.667  25.774  1.00  0.00     0.019 A 
ATOM     13  O   UNL A   1      33.165  24.400  23.637  1.00  0.00    -0.475 OA
ATOM     14  Cl  UNL A   1      29.272  22.631  27.642  1.00  0.00    -0.084 Cl
ATOM     15  C   UNL A   1      31.189  24.287  26.737  1.00  0.00     0.032 A 
ATOM     16  C   UNL A   1      32.614  26.063  25.751  1.00  0.00     0.025 C 
ATOM     17  C   UNL A   1      32.746  25.811  23.343  1.00  0.00     0.314 C 
BRANCH   8  18
ATOM     18  C   UNL A   1      32.700  21.290  24.114  1.00  0.00    -0.015 A 
ATOM     19  C   UNL A   1      33.256  18.484  23.896  1.00  0.00    -0.048 A 
ATOM     20  C   UNL A   1      32.299  19.096  23.077  1.00  0.00     0.004 A 
ATOM     21  C   UNL A   1      34.033  19.315  24.712  1.00  0.00     0.004 A 
ATOM     22  C   UNL A   1      32.040  20.477  23.169  1.00  0.00     0.009 A 
ATOM     23  C   UNL A   1      33.763  20.695  24.816  1.00  0.00     0.009 A 
BRANCH  19  24
ATOM     24  C   UNL A   1      33.459  16.979  23.838  1.00  0.00     0.038 C 
BRANCH  24  25
ATOM     25  C   UNL A   1      33.720  16.241  25.178  1.00  0.00    -0.013 C 
ATOM     26  C   UNL A   1      32.821  15.015  25.365  1.00  0.00     0.008 C 
ATOM     27  C   UNL A   1      35.186  15.787  25.248  1.00  0.00     0.008 C 
ENDBRANCH  24  25
ENDBRANCH  19  24
ENDBRANCH   8  18
BRANCH  17  28
ATOM     28  C   UNL A   1      33.901  26.628  22.720  1.00  0.00     0.429 C 
ATOM     29  F   UNL A   1      34.355  27.605  23.535  1.00  0.00    -0.167 F 
ATOM     30  F   UNL A   1      34.951  25.832  22.405  1.00  0.00    -0.167 F 
ATOM     31  F   UNL A   1      33.536  27.239  21.559  1.00  0.00    -0.167 F 
ENDBRANCH  17  28
ENDBRANCH   4   7
ENDBRANCH   2   3
ENDBRANCH   1   2
BRANCH   1  32
ATOM     32  C   UNL A   1      31.460  31.417  26.279  1.00  0.00     0.023 C 
BRANCH  32  33
ATOM     33  C   UNL A   1      32.588  32.071  27.068  1.00  0.00     0.116 C 
BRANCH  33  34
ATOM     34  N   UNL A   1      32.355  33.492  27.274  1.00  0.00    -0.352 N 
ATOM     35  C   UNL A   1      32.947  34.346  28.171  1.00  0.00     0.251 C 
ATOM     36  H   UNL A   1      31.678  33.898  26.686  1.00  0.00     0.163 HD
ATOM     37  O   UNL A   1      32.488  35.472  28.347  1.00  0.00    -0.269 OA
BRANCH  35  38
ATOM     38  C   UNL A   1      34.122  33.899  28.947  1.00  0.00     0.039 A 
ATOM     39  C   UNL A   1      33.941  32.978  29.982  1.00  0.00     0.014 A 
ATOM     40  C   UNL A   1      35.399  34.382  28.651  1.00  0.00     0.014 A 
ATOM     41  C   UNL A   1      35.051  32.486  30.672  1.00  0.00     0.010 A 
ATOM     42  C   UNL A   1      36.510  33.835  29.288  1.00  0.00     0.010 A 
ATOM     43  C   UNL A   1      36.348  32.880  30.303  1.00  0.00    -0.014 A 
BRANCH  43  44
ATOM     44  C   UNL A   1      37.550  32.301  30.959  1.00  0.00     0.031 A 
ATOM     45  C   UNL A   1      38.330  31.211  30.277  1.00  0.00     0.074 A 
ATOM     46  C   UNL A   1      37.893  32.702  32.198  1.00  0.00     0.049 A 
ATOM     47  N   UNL A   1      39.343  30.513  30.725  1.00  0.00    -0.248 NA
ATOM     48  C   UNL A   1      37.895  30.836  28.924  1.00  0.00     0.031 C 
ATOM     49  C   UNL A   1      37.194  33.721  32.981  1.00  0.00     0.029 A 
ATOM     50  N   UNL A   1      38.909  32.288  33.026  1.00  0.00    -0.354 N 
ATOM     51  C   UNL A   1      39.654  29.610  29.717  1.00  0.00     0.074 A 
ATOM     52  C   UNL A   1      38.690  29.811  28.657  1.00  0.00     0.031 C 
ATOM     53  C   UNL A   1      37.809  33.866  34.166  1.00  0.00     0.029 A 
ATOM     54  C   UNL A   1      38.917  32.919  34.246  1.00  0.00     0.049 A 
ATOM     55  H   UNL A   1      39.567  31.603  32.768  1.00  0.00     0.167 HD
ATOM     56  C   UNL A   1      40.666  28.710  29.670  1.00  0.00     0.037 A 
ATOM     57  C   UNL A   1      39.718  32.744  35.315  1.00  0.00     0.037 A 
ATOM     58  C   UNL A   1      41.635  28.528  30.719  1.00  0.00     0.049 A 
ATOM     59  C   UNL A   1      40.820  31.720  35.246  1.00  0.00     0.074 A 
ATOM     60  C   UNL A   1      42.732  27.686  30.742  1.00  0.00     0.029 A 
ATOM     61  N   UNL A   1      41.619  29.196  31.935  1.00  0.00    -0.354 N 
ATOM     62  N   UNL A   1      41.149  30.921  34.261  1.00  0.00    -0.248 NA
ATOM     63  C   UNL A   1      41.668  31.577  36.440  1.00  0.00     0.031 C 
ATOM     64  C   UNL A   1      43.348  27.801  31.992  1.00  0.00     0.029 A 
ATOM     65  C   UNL A   1      42.671  28.763  32.726  1.00  0.00     0.049 A 
ATOM     66  H   UNL A   1      40.958  29.877  32.197  1.00  0.00     0.167 HD
ATOM     67  C   UNL A   1      42.255  30.206  34.700  1.00  0.00     0.074 A 
ATOM     68  C   UNL A   1      42.551  30.674  36.038  1.00  0.00     0.031 C 
ATOM     69  C   UNL A   1      42.962  29.248  34.052  1.00  0.00     0.037 A 
BRANCH  56  70
ATOM     70  C   UNL A   1      40.776  27.849  28.445  1.00  0.00     0.064 A 
ATOM     71  C   UNL A   1      40.116  26.613  28.351  1.00  0.00     0.173 A 
ATOM     72  C   UNL A   1      41.516  28.281  27.334  1.00  0.00     0.173 A 
ATOM     73  F   UNL A   1      39.401  26.148  29.387  1.00  0.00    -0.203 F 
ATOM     74  C   UNL A   1      40.220  25.829  27.204  1.00  0.00     0.198 A 
ATOM     75  C   UNL A   1      41.591  27.509  26.177  1.00  0.00     0.198 A 
ATOM     76  F   UNL A   1      42.161  29.456  27.366  1.00  0.00    -0.203 F 
ATOM     77  F   UNL A   1      39.624  24.630  27.160  1.00  0.00    -0.200 F 
ATOM     78  C   UNL A   1      40.951  26.281  26.116  1.00  0.00     0.200 A 
ATOM     79  F   UNL A   1      42.284  27.955  25.120  1.00  0.00    -0.200 F 
ATOM     80  F   UNL A   1      41.042  25.530  25.011  1.00  0.00    -0.200 F 
ENDBRANCH  56  70
BRANCH  57  81
ATOM     81  C   UNL A   1      39.517  33.564  36.539  1.00  0.00     0.064 A 
ATOM     82  C   UNL A   1      40.149  34.806  36.685  1.00  0.00     0.173 A 
ATOM     83  C   UNL A   1      38.699  33.122  37.590  1.00  0.00     0.173 A 
ATOM     84  F   UNL A   1      40.959  35.264  35.717  1.00  0.00    -0.203 F 
ATOM     85  C   UNL A   1      39.991  35.564  37.844  1.00  0.00     0.198 A 
ATOM     86  C   UNL A   1      38.516  33.896  38.734  1.00  0.00     0.198 A 
ATOM     87  F   UNL A   1      38.066  31.943  37.498  1.00  0.00    -0.203 F 
ATOM     88  F   UNL A   1      40.648  36.725  37.977  1.00  0.00    -0.200 F 
ATOM     89  C   UNL A   1      39.170  35.112  38.865  1.00  0.00     0.200 A 
ATOM     90  F   UNL A   1      37.709  33.461  39.712  1.00  0.00    -0.200 F 
ATOM     91  F   UNL A   1      39.015  35.842  39.977  1.00  0.00    -0.200 F 
ENDBRANCH  57  81
BRANCH  69  92
ATOM     92  C   UNL A   1      44.155  28.670  34.758  1.00  0.00     0.064 A 
ATOM     93  C   UNL A   1      45.421  29.269  34.682  1.00  0.00     0.173 A 
ATOM     94  C   UNL A   1      44.015  27.531  35.566  1.00  0.00     0.173 A 
ATOM     95  F   UNL A   1      45.612  30.350  33.911  1.00  0.00    -0.203 F 
ATOM     96  C   UNL A   1      46.507  28.738  35.373  1.00  0.00     0.198 A 
ATOM     97  C   UNL A   1      45.095  27.022  36.282  1.00  0.00     0.198 A 
ATOM     98  F   UNL A   1      42.824  26.924  35.679  1.00  0.00    -0.203 F 
ATOM     99  F   UNL A   1      47.717  29.300  35.251  1.00  0.00    -0.200 F 
ATOM    100  C   UNL A   1      46.340  27.621  36.180  1.00  0.00     0.200 A 
ATOM    101  F   UNL A   1      44.928  25.953  37.074  1.00  0.00    -0.200 F 
ATOM    102  F   UNL A   1      47.384  27.120  36.855  1.00  0.00    -0.200 F 
ENDBRANCH  69  92
ENDBRANCH  43  44
ENDBRANCH  35  38
ENDBRANCH  33  34
ENDBRANCH  32  33
ENDBRANCH   1  32
TORSDOF 15
ENDMDL
