MODEL 1
REMARK VINA RESULT:     -12.5      0.000      0.000
REMARK SMILES C[C@H]1C[C@@H]1c1nc(-c2ccccc2)c(CC(=O)NCCCCNC(=O)c2ccc(-c3c4nc(c(-c5c(F)c(F)c(F)c(F)c5F)c5ccc([nH]5)c(-c5c(F)c(F)c(F)c(F)c5F)c5nc(c(-c6c(F)c(F)c(F)c(F)c6F)c6ccc3[nH]6)C=C5)C=C4)cc2)s1
REMARK SMILES IDX 20 1 19 2 18 3 16 4 17 5 15 7 14 8 5 9 6 10 89 11 7 12 4 13
REMARK SMILES IDX 1 14 2 15 3 16 8 17 9 18 13 19 10 20 12 21 11 22 21 23 22 24
REMARK SMILES IDX 23 25 24 26 25 28 26 29 27 30 88 31 28 32 87 33 29 34 30 35
REMARK SMILES IDX 31 36 81 37 32 38 86 39 80 40 82 41 33 42 85 43 79 44 78 45
REMARK SMILES IDX 34 47 66 48 46 49 65 50 47 51 50 52 64 53 83 54 48 55 49 56
REMARK SMILES IDX 63 58 84 59 51 60 35 61 36 62 44 63 37 64 38 65 42 66 45 67
REMARK SMILES IDX 39 68 40 69 43 70 41 71 67 72 68 73 76 74 69 75 70 76 74 77
REMARK SMILES IDX 77 78 71 79 72 80 75 81 73 82 52 83 53 84 61 85 54 86 55 87
REMARK SMILES IDX 59 88 62 89 56 90 57 91 60 92 58 93
REMARK H PARENT 18 6 23 27 82 46 50 57
REMARK Flexibility Score: inf
ROOT
ATOM      1  C   UNL A   1      31.633  30.754  26.132  1.00  0.00     0.023 C 
ENDROOT
BRANCH   1   2
ATOM      2  C   UNL A   1      32.410  29.934  27.163  1.00  0.00     0.116 C 
BRANCH   2   3
ATOM      3  N   UNL A   1      31.784  28.650  27.402  1.00  0.00    -0.356 N 
ATOM      4  C   UNL A   1      32.064  27.445  26.823  1.00  0.00     0.225 C 
ATOM      5  O   UNL A   1      31.369  26.477  27.137  1.00  0.00    -0.275 OA
ATOM      6  H   UNL A   1      31.061  28.645  28.070  1.00  0.00     0.163 HD
BRANCH   4   7
ATOM      7  C   UNL A   1      33.251  27.295  25.884  1.00  0.00     0.149 C 
BRANCH   7   8
ATOM      8  C   UNL A   1      33.119  26.117  24.964  1.00  0.00     0.042 A 
ATOM      9  C   UNL A   1      33.288  23.941  23.925  1.00  0.00     0.097 A 
ATOM     10  N   UNL A   1      32.372  24.642  23.299  1.00  0.00    -0.241 NA
ATOM     11  S   UNL A   1      34.087  24.715  25.219  1.00  0.00    -0.122 S 
ATOM     12  C   UNL A   1      32.301  25.909  23.857  1.00  0.00     0.085 A 
BRANCH   9  13
ATOM     13  C   UNL A   1      33.578  22.495  23.558  1.00  0.00     0.052 C 
ATOM     14  C   UNL A   1      32.399  20.183  23.497  1.00  0.00     0.008 C 
ATOM     15  C   UNL A   1      32.867  21.373  24.263  1.00  0.00    -0.004 C 
ATOM     16  C   UNL A   1      34.350  21.607  24.488  1.00  0.00     0.015 C 
ENDBRANCH   9  13
BRANCH  12  17
ATOM     17  C   UNL A   1      31.322  26.880  23.379  1.00  0.00     0.001 A 
ATOM     18  C   UNL A   1      31.724  28.071  22.762  1.00  0.00     0.010 A 
ATOM     19  C   UNL A   1      29.959  26.668  23.631  1.00  0.00     0.010 A 
ATOM     20  C   UNL A   1      30.790  29.071  22.483  1.00  0.00     0.001 A 
ATOM     21  C   UNL A   1      29.027  27.674  23.361  1.00  0.00     0.001 A 
ATOM     22  C   UNL A   1      29.446  28.881  22.802  1.00  0.00     0.000 A 
ENDBRANCH  12  17
ENDBRANCH   7   8
ENDBRANCH   4   7
ENDBRANCH   2   3
ENDBRANCH   1   2
BRANCH   1  23
ATOM     23  C   UNL A   1      31.403  32.209  26.538  1.00  0.00     0.023 C 
BRANCH  23  24
ATOM     24  C   UNL A   1      32.567  32.849  27.281  1.00  0.00     0.116 C 
BRANCH  24  25
ATOM     25  N   UNL A   1      32.325  34.237  27.642  1.00  0.00    -0.352 N 
ATOM     26  C   UNL A   1      32.958  34.991  28.600  1.00  0.00     0.251 C 
ATOM     27  H   UNL A   1      31.616  34.696  27.135  1.00  0.00     0.163 HD
ATOM     28  O   UNL A   1      32.556  36.117  28.876  1.00  0.00    -0.269 OA
BRANCH  26  29
ATOM     29  C   UNL A   1      34.112  34.418  29.323  1.00  0.00     0.039 A 
ATOM     30  C   UNL A   1      33.886  33.696  30.497  1.00  0.00     0.014 A 
ATOM     31  C   UNL A   1      35.410  34.574  28.830  1.00  0.00     0.014 A 
ATOM     32  C   UNL A   1      34.961  33.093  31.152  1.00  0.00     0.010 A 
ATOM     33  C   UNL A   1      36.465  33.899  29.433  1.00  0.00     0.010 A 
ATOM     34  C   UNL A   1      36.255  33.169  30.613  1.00  0.00    -0.014 A 
BRANCH  34  35
ATOM     35  C   UNL A   1      37.412  32.535  31.292  1.00  0.00     0.031 A 
ATOM     36  C   UNL A   1      38.154  31.415  30.614  1.00  0.00     0.074 A 
ATOM     37  C   UNL A   1      37.765  32.926  32.532  1.00  0.00     0.049 A 
ATOM     38  N   UNL A   1      39.153  30.692  31.055  1.00  0.00    -0.248 NA
ATOM     39  C   UNL A   1      37.690  31.033  29.270  1.00  0.00     0.031 C 
ATOM     40  C   UNL A   1      37.096  33.966  33.314  1.00  0.00     0.029 A 
ATOM     41  N   UNL A   1      38.773  32.489  33.354  1.00  0.00    -0.354 N 
ATOM     42  C   UNL A   1      39.421  29.767  30.054  1.00  0.00     0.074 A 
ATOM     43  C   UNL A   1      38.439  29.973  29.014  1.00  0.00     0.031 C 
ATOM     44  C   UNL A   1      37.728  34.106  34.491  1.00  0.00     0.029 A 
ATOM     45  C   UNL A   1      38.821  33.142  34.561  1.00  0.00     0.049 A 
ATOM     46  H   UNL A   1      39.401  31.774  33.103  1.00  0.00     0.167 HD
ATOM     47  C   UNL A   1      40.414  28.849  29.994  1.00  0.00     0.037 A 
ATOM     48  C   UNL A   1      39.656  32.978  35.605  1.00  0.00     0.037 A 
ATOM     49  C   UNL A   1      41.405  28.664  31.021  1.00  0.00     0.049 A 
ATOM     50  C   UNL A   1      40.755  31.953  35.512  1.00  0.00     0.074 A 
ATOM     51  C   UNL A   1      42.480  27.794  31.037  1.00  0.00     0.029 A 
ATOM     52  N   UNL A   1      41.440  29.366  32.218  1.00  0.00    -0.354 N 
ATOM     53  N   UNL A   1      41.039  31.127  34.534  1.00  0.00    -0.248 NA
ATOM     54  C   UNL A   1      41.659  31.848  36.665  1.00  0.00     0.031 C 
ATOM     55  C   UNL A   1      43.136  27.934  32.265  1.00  0.00     0.029 A 
ATOM     56  C   UNL A   1      42.510  28.938  32.986  1.00  0.00     0.049 A 
ATOM     57  H   UNL A   1      40.798  30.065  32.482  1.00  0.00     0.167 HD
ATOM     58  C   UNL A   1      42.178  30.439  34.932  1.00  0.00     0.074 A 
ATOM     59  C   UNL A   1      42.536  30.951  36.238  1.00  0.00     0.031 C 
ATOM     60  C   UNL A   1      42.866  29.473  34.276  1.00  0.00     0.037 A 
BRANCH  47  61
ATOM     61  C   UNL A   1      40.478  27.977  28.772  1.00  0.00     0.064 A 
ATOM     62  C   UNL A   1      39.797  26.750  28.703  1.00  0.00     0.173 A 
ATOM     63  C   UNL A   1      41.210  28.380  27.645  1.00  0.00     0.173 A 
ATOM     64  F   UNL A   1      39.093  26.310  29.757  1.00  0.00    -0.203 F 
ATOM     65  C   UNL A   1      39.877  25.946  27.570  1.00  0.00     0.198 A 
ATOM     66  C   UNL A   1      41.258  27.590  26.499  1.00  0.00     0.198 A 
ATOM     67  F   UNL A   1      41.877  29.544  27.652  1.00  0.00    -0.203 F 
ATOM     68  F   UNL A   1      39.267  24.753  27.554  1.00  0.00    -0.200 F 
ATOM     69  C   UNL A   1      40.599  26.370  26.466  1.00  0.00     0.200 A 
ATOM     70  F   UNL A   1      41.946  28.008  25.428  1.00  0.00    -0.200 F 
ATOM     71  F   UNL A   1      40.670  25.598  25.373  1.00  0.00    -0.200 F 
ENDBRANCH  47  61
BRANCH  48  72
ATOM     72  C   UNL A   1      39.512  33.830  36.816  1.00  0.00     0.064 A 
ATOM     73  C   UNL A   1      38.782  33.385  37.927  1.00  0.00     0.173 A 
ATOM     74  C   UNL A   1      40.085  35.109  36.883  1.00  0.00     0.173 A 
ATOM     75  F   UNL A   1      38.199  32.177  37.906  1.00  0.00    -0.203 F 
ATOM     76  C   UNL A   1      38.604  34.196  39.046  1.00  0.00     0.198 A 
ATOM     77  C   UNL A   1      39.933  35.908  38.015  1.00  0.00     0.198 A 
ATOM     78  F   UNL A   1      40.799  35.580  35.851  1.00  0.00    -0.203 F 
ATOM     79  F   UNL A   1      37.854  33.767  40.070  1.00  0.00    -0.200 F 
ATOM     80  C   UNL A   1      39.184  35.455  39.091  1.00  0.00     0.200 A 
ATOM     81  F   UNL A   1      40.507  37.116  38.061  1.00  0.00    -0.200 F 
ATOM     82  F   UNL A   1      39.012  36.236  40.166  1.00  0.00    -0.200 F 
ENDBRANCH  48  72
BRANCH  60  83
ATOM     83  C   UNL A   1      44.118  28.955  34.927  1.00  0.00     0.064 A 
ATOM     84  C   UNL A   1      44.108  27.843  35.783  1.00  0.00     0.173 A 
ATOM     85  C   UNL A   1      45.353  29.572  34.667  1.00  0.00     0.173 A 
ATOM     86  F   UNL A   1      42.954  27.224  36.072  1.00  0.00    -0.203 F 
ATOM     87  C   UNL A   1      45.280  27.395  36.386  1.00  0.00     0.198 A 
ATOM     88  C   UNL A   1      46.527  29.097  35.244  1.00  0.00     0.198 A 
ATOM     89  F   UNL A   1      45.420  30.632  33.848  1.00  0.00    -0.203 F 
ATOM     90  F   UNL A   1      45.237  26.372  37.250  1.00  0.00    -0.200 F 
ATOM     91  C   UNL A   1      46.489  28.017  36.111  1.00  0.00     0.200 A 
ATOM     92  F   UNL A   1      47.695  29.690  34.962  1.00  0.00    -0.200 F 
ATOM     93  F   UNL A   1      47.616  27.583  36.691  1.00  0.00    -0.200 F 
ENDBRANCH  60  83
ENDBRANCH  34  35
ENDBRANCH  26  29
ENDBRANCH  24  25
ENDBRANCH  23  24
ENDBRANCH   1  23
TORSDOF 14
ENDMDL
MODEL 2
REMARK VINA RESULT:     -12.4      2.052      7.902
REMARK SMILES C[C@H]1C[C@@H]1c1nc(-c2ccccc2)c(CC(=O)NCCCCNC(=O)c2ccc(-c3c4nc(c(-c5c(F)c(F)c(F)c(F)c5F)c5ccc([nH]5)c(-c5c(F)c(F)c(F)c(F)c5F)c5nc(c(-c6c(F)c(F)c(F)c(F)c6F)c6ccc3[nH]6)C=C5)C=C4)cc2)s1
REMARK SMILES IDX 20 1 19 2 18 3 16 4 17 5 15 7 14 8 5 9 6 10 89 11 7 12 4 13
REMARK SMILES IDX 1 14 2 15 3 16 8 17 9 18 13 19 10 20 12 21 11 22 21 23 22 24
REMARK SMILES IDX 23 25 24 26 25 28 26 29 27 30 88 31 28 32 87 33 29 34 30 35
REMARK SMILES IDX 31 36 81 37 32 38 86 39 80 40 82 41 33 42 85 43 79 44 78 45
REMARK SMILES IDX 34 47 66 48 46 49 65 50 47 51 50 52 64 53 83 54 48 55 49 56
REMARK SMILES IDX 63 58 84 59 51 60 35 61 36 62 44 63 37 64 38 65 42 66 45 67
REMARK SMILES IDX 39 68 40 69 43 70 41 71 67 72 68 73 76 74 69 75 70 76 74 77
REMARK SMILES IDX 77 78 71 79 72 80 75 81 73 82 52 83 53 84 61 85 54 86 55 87
REMARK SMILES IDX 59 88 62 89 56 90 57 91 60 92 58 93
REMARK H PARENT 18 6 23 27 82 46 50 57
REMARK Flexibility Score: inf
ROOT
ATOM      1  C   UNL A   1      32.334  27.387  26.872  1.00  0.00     0.023 C 
ENDROOT
BRANCH   1   2
ATOM      2  C   UNL A   1      32.011  26.163  26.014  1.00  0.00     0.116 C 
BRANCH   2   3
ATOM      3  N   UNL A   1      31.423  25.101  26.804  1.00  0.00    -0.356 N 
ATOM      4  C   UNL A   1      31.820  23.798  26.909  1.00  0.00     0.225 C 
ATOM      5  O   UNL A   1      31.141  23.041  27.605  1.00  0.00    -0.275 OA
ATOM      6  H   UNL A   1      30.633  25.351  27.336  1.00  0.00     0.163 HD
BRANCH   4   7
ATOM      7  C   UNL A   1      33.107  23.326  26.250  1.00  0.00     0.149 C 
BRANCH   7   8
ATOM      8  C   UNL A   1      32.884  22.209  25.273  1.00  0.00     0.042 A 
ATOM      9  C   UNL A   1      32.590  20.047  24.231  1.00  0.00     0.097 A 
ATOM     10  N   UNL A   1      32.289  20.983  23.363  1.00  0.00    -0.241 NA
ATOM     11  S   UNL A   1      33.102  20.575  25.772  1.00  0.00    -0.122 S 
ATOM     12  C   UNL A   1      32.499  22.228  23.935  1.00  0.00     0.085 A 
BRANCH   9  13
ATOM     13  C   UNL A   1      32.433  18.572  23.905  1.00  0.00     0.052 C 
ATOM     14  C   UNL A   1      33.831  16.383  23.865  1.00  0.00     0.008 C 
ATOM     15  C   UNL A   1      33.601  17.777  23.388  1.00  0.00    -0.004 C 
ATOM     16  C   UNL A   1      32.425  18.095  22.483  1.00  0.00     0.015 C 
ENDBRANCH   9  13
BRANCH  12  17
ATOM     17  C   UNL A   1      32.191  23.449  23.198  1.00  0.00     0.001 A 
ATOM     18  C   UNL A   1      33.174  24.116  22.457  1.00  0.00     0.010 A 
ATOM     19  C   UNL A   1      30.917  24.023  23.314  1.00  0.00     0.010 A 
ATOM     20  C   UNL A   1      32.915  25.377  21.916  1.00  0.00     0.001 A 
ATOM     21  C   UNL A   1      30.662  25.290  22.781  1.00  0.00     0.001 A 
ATOM     22  C   UNL A   1      31.667  25.972  22.096  1.00  0.00     0.000 A 
ENDBRANCH  12  17
ENDBRANCH   7   8
ENDBRANCH   4   7
ENDBRANCH   2   3
ENDBRANCH   1   2
BRANCH   1  23
ATOM     23  C   UNL A   1      31.894  28.714  26.255  1.00  0.00     0.023 C 
BRANCH  23  24
ATOM     24  C   UNL A   1      33.031  29.680  25.957  1.00  0.00     0.116 C 
BRANCH  24  25
ATOM     25  N   UNL A   1      32.724  31.057  26.315  1.00  0.00    -0.352 N 
ATOM     26  C   UNL A   1      33.373  31.868  27.214  1.00  0.00     0.251 C 
ATOM     27  H   UNL A   1      31.953  31.459  25.853  1.00  0.00     0.163 HD
ATOM     28  O   UNL A   1      32.919  32.971  27.501  1.00  0.00    -0.269 OA
BRANCH  26  29
ATOM     29  C   UNL A   1      34.611  31.384  27.861  1.00  0.00     0.039 A 
ATOM     30  C   UNL A   1      35.687  32.261  28.002  1.00  0.00     0.014 A 
ATOM     31  C   UNL A   1      34.696  30.076  28.345  1.00  0.00     0.014 A 
ATOM     32  C   UNL A   1      36.837  31.836  28.671  1.00  0.00     0.010 A 
ATOM     33  C   UNL A   1      35.804  29.685  29.087  1.00  0.00     0.010 A 
ATOM     34  C   UNL A   1      36.896  30.554  29.241  1.00  0.00    -0.014 A 
BRANCH  34  35
ATOM     35  C   UNL A   1      38.107  30.082  29.956  1.00  0.00     0.031 A 
ATOM     36  C   UNL A   1      38.386  30.570  31.353  1.00  0.00     0.074 A 
ATOM     37  C   UNL A   1      38.978  29.260  29.341  1.00  0.00     0.049 A 
ATOM     38  N   UNL A   1      39.411  30.326  32.129  1.00  0.00    -0.248 NA
ATOM     39  C   UNL A   1      37.395  31.485  31.944  1.00  0.00     0.031 C 
ATOM     40  C   UNL A   1      38.845  28.755  27.974  1.00  0.00     0.029 A 
ATOM     41  N   UNL A   1      40.153  28.709  29.785  1.00  0.00    -0.354 N 
ATOM     42  C   UNL A   1      39.195  31.065  33.285  1.00  0.00     0.074 A 
ATOM     43  C   UNL A   1      37.978  31.819  33.083  1.00  0.00     0.031 C 
ATOM     44  C   UNL A   1      39.882  27.947  27.701  1.00  0.00     0.029 A 
ATOM     45  C   UNL A   1      40.770  27.906  28.858  1.00  0.00     0.049 A 
ATOM     46  H   UNL A   1      40.520  28.874  30.684  1.00  0.00     0.167 HD
ATOM     47  C   UNL A   1      39.926  31.089  34.424  1.00  0.00     0.037 A 
ATOM     48  C   UNL A   1      41.925  27.216  28.935  1.00  0.00     0.037 A 
ATOM     49  C   UNL A   1      41.123  30.317  34.630  1.00  0.00     0.049 A 
ATOM     50  C   UNL A   1      42.719  27.257  30.214  1.00  0.00     0.074 A 
ATOM     51  C   UNL A   1      41.914  30.234  35.763  1.00  0.00     0.029 A 
ATOM     52  N   UNL A   1      41.702  29.491  33.677  1.00  0.00    -0.354 N 
ATOM     53  N   UNL A   1      42.471  27.909  31.325  1.00  0.00    -0.248 NA
ATOM     54  C   UNL A   1      43.947  26.452  30.255  1.00  0.00     0.031 C 
ATOM     55  C   UNL A   1      42.998  29.397  35.478  1.00  0.00     0.029 A 
ATOM     56  C   UNL A   1      42.848  28.906  34.191  1.00  0.00     0.049 A 
ATOM     57  H   UNL A   1      41.351  29.343  32.769  1.00  0.00     0.167 HD
ATOM     58  C   UNL A   1      43.484  27.559  32.208  1.00  0.00     0.074 A 
ATOM     59  C   UNL A   1      44.344  26.630  31.506  1.00  0.00     0.031 C 
ATOM     60  C   UNL A   1      43.682  27.966  33.486  1.00  0.00     0.037 A 
BRANCH  47  61
ATOM     61  C   UNL A   1      39.448  31.979  35.536  1.00  0.00     0.064 A 
ATOM     62  C   UNL A   1      38.559  31.518  36.521  1.00  0.00     0.173 A 
ATOM     63  C   UNL A   1      39.898  33.304  35.633  1.00  0.00     0.173 A 
ATOM     64  F   UNL A   1      38.086  30.264  36.469  1.00  0.00    -0.203 F 
ATOM     65  C   UNL A   1      38.114  32.358  37.537  1.00  0.00     0.198 A 
ATOM     66  C   UNL A   1      39.479  34.131  36.672  1.00  0.00     0.198 A 
ATOM     67  F   UNL A   1      40.751  33.797  34.722  1.00  0.00    -0.203 F 
ATOM     68  F   UNL A   1      37.219  31.911  38.430  1.00  0.00    -0.200 F 
ATOM     69  C   UNL A   1      38.580  33.661  37.617  1.00  0.00     0.200 A 
ATOM     70  F   UNL A   1      39.942  35.386  36.755  1.00  0.00    -0.200 F 
ATOM     71  F   UNL A   1      38.155  34.468  38.599  1.00  0.00    -0.200 F 
ENDBRANCH  47  61
BRANCH  48  72
ATOM     72  C   UNL A   1      42.383  26.396  27.783  1.00  0.00     0.064 A 
ATOM     73  C   UNL A   1      43.321  26.897  26.870  1.00  0.00     0.173 A 
ATOM     74  C   UNL A   1      41.882  25.105  27.559  1.00  0.00     0.173 A 
ATOM     75  F   UNL A   1      43.816  28.134  27.028  1.00  0.00    -0.203 F 
ATOM     76  C   UNL A   1      43.719  26.152  25.761  1.00  0.00     0.198 A 
ATOM     77  C   UNL A   1      42.305  24.347  26.468  1.00  0.00     0.198 A 
ATOM     78  F   UNL A   1      40.989  24.575  28.406  1.00  0.00    -0.203 F 
ATOM     79  F   UNL A   1      44.575  26.679  24.874  1.00  0.00    -0.200 F 
ATOM     80  C   UNL A   1      43.214  24.876  25.564  1.00  0.00     0.200 A 
ATOM     81  F   UNL A   1      41.827  23.109  26.289  1.00  0.00    -0.200 F 
ATOM     82  F   UNL A   1      43.597  24.160  24.498  1.00  0.00    -0.200 F 
ENDBRANCH  48  72
BRANCH  60  83
ATOM     83  C   UNL A   1      44.835  27.357  34.233  1.00  0.00     0.064 A 
ATOM     84  C   UNL A   1      46.106  27.953  34.259  1.00  0.00     0.173 A 
ATOM     85  C   UNL A   1      44.656  26.166  34.955  1.00  0.00     0.173 A 
ATOM     86  F   UNL A   1      46.334  29.086  33.578  1.00  0.00    -0.203 F 
ATOM     87  C   UNL A   1      47.160  27.357  34.945  1.00  0.00     0.198 A 
ATOM     88  C   UNL A   1      45.704  25.594  35.669  1.00  0.00     0.198 A 
ATOM     89  F   UNL A   1      43.459  25.560  34.972  1.00  0.00    -0.203 F 
ATOM     90  F   UNL A   1      48.381  27.911  34.903  1.00  0.00    -0.200 F 
ATOM     91  C   UNL A   1      46.958  26.183  35.655  1.00  0.00     0.200 A 
ATOM     92  F   UNL A   1      45.499  24.469  36.368  1.00  0.00    -0.200 F 
ATOM     93  F   UNL A   1      47.974  25.614  36.316  1.00  0.00    -0.200 F 
ENDBRANCH  60  83
ENDBRANCH  34  35
ENDBRANCH  26  29
ENDBRANCH  24  25
ENDBRANCH  23  24
ENDBRANCH   1  23
TORSDOF 14
ENDMDL
MODEL 3
REMARK VINA RESULT:     -12.4      0.924      7.552
REMARK SMILES C[C@H]1C[C@@H]1c1nc(-c2ccccc2)c(CC(=O)NCCCCNC(=O)c2ccc(-c3c4nc(c(-c5c(F)c(F)c(F)c(F)c5F)c5ccc([nH]5)c(-c5c(F)c(F)c(F)c(F)c5F)c5nc(c(-c6c(F)c(F)c(F)c(F)c6F)c6ccc3[nH]6)C=C5)C=C4)cc2)s1
REMARK SMILES IDX 20 1 19 2 18 3 16 4 17 5 15 7 14 8 5 9 6 10 89 11 7 12 4 13
REMARK SMILES IDX 1 14 2 15 3 16 8 17 9 18 13 19 10 20 12 21 11 22 21 23 22 24
REMARK SMILES IDX 23 25 24 26 25 28 26 29 27 30 88 31 28 32 87 33 29 34 30 35
REMARK SMILES IDX 31 36 81 37 32 38 86 39 80 40 82 41 33 42 85 43 79 44 78 45
REMARK SMILES IDX 34 47 66 48 46 49 65 50 47 51 50 52 64 53 83 54 48 55 49 56
REMARK SMILES IDX 63 58 84 59 51 60 35 61 36 62 44 63 37 64 38 65 42 66 45 67
REMARK SMILES IDX 39 68 40 69 43 70 41 71 67 72 68 73 76 74 69 75 70 76 74 77
REMARK SMILES IDX 77 78 71 79 72 80 75 81 73 82 52 83 53 84 61 85 54 86 55 87
REMARK SMILES IDX 59 88 62 89 56 90 57 91 60 92 58 93
REMARK H PARENT 18 6 23 27 82 46 50 57
REMARK Flexibility Score: inf
ROOT
ATOM      1  C   UNL A   1      31.400  31.021  26.262  1.00  0.00     0.023 C 
ENDROOT
BRANCH   1   2
ATOM      2  C   UNL A   1      32.690  30.344  26.726  1.00  0.00     0.116 C 
BRANCH   2   3
ATOM      3  N   UNL A   1      33.382  29.707  25.625  1.00  0.00    -0.356 N 
ATOM      4  C   UNL A   1      33.242  28.431  25.157  1.00  0.00     0.225 C 
ATOM      5  O   UNL A   1      33.972  28.072  24.231  1.00  0.00    -0.275 OA
ATOM      6  H   UNL A   1      34.038  30.266  25.151  1.00  0.00     0.163 HD
BRANCH   4   7
ATOM      7  C   UNL A   1      32.161  27.517  25.712  1.00  0.00     0.149 C 
BRANCH   7   8
ATOM      8  C   UNL A   1      31.866  26.352  24.813  1.00  0.00     0.042 A 
ATOM      9  C   UNL A   1      31.704  24.150  23.827  1.00  0.00     0.097 A 
ATOM     10  N   UNL A   1      30.939  24.976  23.153  1.00  0.00    -0.241 NA
ATOM     11  S   UNL A   1      32.578  24.817  25.133  1.00  0.00    -0.122 S 
ATOM     12  C   UNL A   1      31.061  26.252  23.681  1.00  0.00     0.085 A 
BRANCH   9  13
ATOM     13  C   UNL A   1      31.763  22.668  23.502  1.00  0.00     0.052 C 
ATOM     14  C   UNL A   1      32.958  20.503  24.295  1.00  0.00     0.008 C 
ATOM     15  C   UNL A   1      33.025  21.885  23.739  1.00  0.00    -0.004 C 
ATOM     16  C   UNL A   1      32.549  22.169  22.326  1.00  0.00     0.015 C 
ENDBRANCH   9  13
BRANCH  12  17
ATOM     17  C   UNL A   1      30.273  27.358  23.147  1.00  0.00     0.001 A 
ATOM     18  C   UNL A   1      30.878  28.401  22.436  1.00  0.00     0.010 A 
ATOM     19  C   UNL A   1      28.904  27.434  23.436  1.00  0.00     0.010 A 
ATOM     20  C   UNL A   1      30.146  29.542  22.097  1.00  0.00     0.001 A 
ATOM     21  C   UNL A   1      28.174  28.580  23.106  1.00  0.00     0.001 A 
ATOM     22  C   UNL A   1      28.801  29.639  22.451  1.00  0.00     0.000 A 
ENDBRANCH  12  17
ENDBRANCH   7   8
ENDBRANCH   4   7
ENDBRANCH   2   3
ENDBRANCH   1   2
BRANCH   1  23
ATOM     23  C   UNL A   1      31.366  32.530  26.503  1.00  0.00     0.023 C 
BRANCH  23  24
ATOM     24  C   UNL A   1      32.562  33.074  27.270  1.00  0.00     0.116 C 
BRANCH  24  25
ATOM     25  N   UNL A   1      32.362  34.429  27.761  1.00  0.00    -0.352 N 
ATOM     26  C   UNL A   1      33.037  35.080  28.764  1.00  0.00     0.251 C 
ATOM     27  H   UNL A   1      31.651  34.946  27.317  1.00  0.00     0.163 HD
ATOM     28  O   UNL A   1      32.669  36.184  29.151  1.00  0.00    -0.269 OA
BRANCH  26  29
ATOM     29  C   UNL A   1      34.196  34.419  29.401  1.00  0.00     0.039 A 
ATOM     30  C   UNL A   1      33.978  33.568  30.486  1.00  0.00     0.014 A 
ATOM     31  C   UNL A   1      35.489  34.624  28.911  1.00  0.00     0.014 A 
ATOM     32  C   UNL A   1      35.057  32.887  31.052  1.00  0.00     0.010 A 
ATOM     33  C   UNL A   1      36.545  33.877  29.419  1.00  0.00     0.010 A 
ATOM     34  C   UNL A   1      36.345  33.016  30.508  1.00  0.00    -0.014 A 
BRANCH  34  35
ATOM     35  C   UNL A   1      37.505  32.301  31.094  1.00  0.00     0.031 A 
ATOM     36  C   UNL A   1      38.002  32.679  32.463  1.00  0.00     0.074 A 
ATOM     37  C   UNL A   1      38.141  31.350  30.383  1.00  0.00     0.049 A 
ATOM     38  N   UNL A   1      39.030  32.219  33.132  1.00  0.00    -0.248 NA
ATOM     39  C   UNL A   1      37.264  33.744  33.163  1.00  0.00     0.031 C 
ATOM     40  C   UNL A   1      37.787  30.927  29.028  1.00  0.00     0.029 A 
ATOM     41  N   UNL A   1      39.226  30.572  30.701  1.00  0.00    -0.354 N 
ATOM     42  C   UNL A   1      39.068  32.945  34.314  1.00  0.00     0.074 A 
ATOM     43  C   UNL A   1      38.005  33.922  34.245  1.00  0.00     0.031 C 
ATOM     44  C   UNL A   1      38.620  29.947  28.641  1.00  0.00     0.029 A 
ATOM     45  C   UNL A   1      39.589  29.699  29.705  1.00  0.00     0.049 A 
ATOM     46  H   UNL A   1      39.701  30.635  31.561  1.00  0.00     0.167 HD
ATOM     47  C   UNL A   1      39.894  32.792  35.376  1.00  0.00     0.037 A 
ATOM     48  C   UNL A   1      40.592  28.802  29.657  1.00  0.00     0.037 A 
ATOM     49  C   UNL A   1      40.935  31.801  35.451  1.00  0.00     0.049 A 
ATOM     50  C   UNL A   1      41.495  28.648  30.852  1.00  0.00     0.074 A 
ATOM     51  C   UNL A   1      41.798  31.532  36.499  1.00  0.00     0.029 A 
ATOM     52  N   UNL A   1      41.254  30.914  34.433  1.00  0.00    -0.354 N 
ATOM     53  N   UNL A   1      41.482  29.297  31.992  1.00  0.00    -0.248 NA
ATOM     54  C   UNL A   1      42.546  27.625  30.759  1.00  0.00     0.031 C 
ATOM     55  C   UNL A   1      42.670  30.516  36.096  1.00  0.00     0.029 A 
ATOM     56  C   UNL A   1      42.309  30.106  34.823  1.00  0.00     0.049 A 
ATOM     57  H   UNL A   1      40.797  30.866  33.562  1.00  0.00     0.167 HD
ATOM     58  C   UNL A   1      42.488  28.732  32.766  1.00  0.00     0.074 A 
ATOM     59  C   UNL A   1      43.084  27.682  31.968  1.00  0.00     0.031 C 
ATOM     60  C   UNL A   1      42.879  29.051  34.024  1.00  0.00     0.037 A 
BRANCH  47  61
ATOM     61  C   UNL A   1      39.701  33.718  36.543  1.00  0.00     0.064 A 
ATOM     62  C   UNL A   1      40.315  34.981  36.595  1.00  0.00     0.173 A 
ATOM     63  C   UNL A   1      38.874  33.351  37.616  1.00  0.00     0.173 A 
ATOM     64  F   UNL A   1      41.126  35.377  35.603  1.00  0.00    -0.203 F 
ATOM     65  C   UNL A   1      40.138  35.822  37.689  1.00  0.00     0.198 A 
ATOM     66  C   UNL A   1      38.670  34.211  38.693  1.00  0.00     0.198 A 
ATOM     67  F   UNL A   1      38.259  32.159  37.619  1.00  0.00    -0.203 F 
ATOM     68  F   UNL A   1      40.783  36.995  37.741  1.00  0.00    -0.200 F 
ATOM     69  C   UNL A   1      39.310  35.440  38.733  1.00  0.00     0.200 A 
ATOM     70  F   UNL A   1      37.858  33.846  39.694  1.00  0.00    -0.200 F 
ATOM     71  F   UNL A   1      39.135  36.254  39.784  1.00  0.00    -0.200 F 
ENDBRANCH  47  61
BRANCH  48  72
ATOM     72  C   UNL A   1      40.775  27.949  28.453  1.00  0.00     0.064 A 
ATOM     73  C   UNL A   1      41.550  28.389  27.370  1.00  0.00     0.173 A 
ATOM     74  C   UNL A   1      40.168  26.689  28.349  1.00  0.00     0.173 A 
ATOM     75  F   UNL A   1      42.136  29.595  27.412  1.00  0.00    -0.203 F 
ATOM     76  C   UNL A   1      41.686  27.616  26.219  1.00  0.00     0.198 A 
ATOM     77  C   UNL A   1      40.331  25.902  27.211  1.00  0.00     0.198 A 
ATOM     78  F   UNL A   1      39.422  26.218  29.359  1.00  0.00    -0.203 F 
ATOM     79  F   UNL A   1      42.386  28.085  25.177  1.00  0.00    -0.200 F 
ATOM     80  C   UNL A   1      41.081  26.370  26.142  1.00  0.00     0.200 A 
ATOM     81  F   UNL A   1      39.757  24.694  27.146  1.00  0.00    -0.200 F 
ATOM     82  F   UNL A   1      41.211  25.628  25.035  1.00  0.00    -0.200 F 
ENDBRANCH  48  72
BRANCH  60  83
ATOM     83  C   UNL A   1      43.959  28.210  34.644  1.00  0.00     0.064 A 
ATOM     84  C   UNL A   1      45.315  28.567  34.577  1.00  0.00     0.173 A 
ATOM     85  C   UNL A   1      43.625  27.035  35.339  1.00  0.00     0.173 A 
ATOM     86  F   UNL A   1      45.689  29.673  33.916  1.00  0.00    -0.203 F 
ATOM     87  C   UNL A   1      46.296  27.760  35.145  1.00  0.00     0.198 A 
ATOM     88  C   UNL A   1      44.606  26.251  35.937  1.00  0.00     0.198 A 
ATOM     89  F   UNL A   1      42.343  26.653  35.443  1.00  0.00    -0.203 F 
ATOM     90  F   UNL A   1      47.588  28.088  35.013  1.00  0.00    -0.200 F 
ATOM     91  C   UNL A   1      45.942  26.607  35.831  1.00  0.00     0.200 A 
ATOM     92  F   UNL A   1      44.259  25.148  36.614  1.00  0.00    -0.200 F 
ATOM     93  F   UNL A   1      46.887  25.834  36.379  1.00  0.00    -0.200 F 
ENDBRANCH  60  83
ENDBRANCH  34  35
ENDBRANCH  26  29
ENDBRANCH  24  25
ENDBRANCH  23  24
ENDBRANCH   1  23
TORSDOF 14
ENDMDL
