MODEL 1
REMARK VINA RESULT:     -11.5      0.000      0.000
REMARK SMILES CCCC[C@@H](Sc1nc(OCCC2CCCCC2)cc(OCCC2CCCCC2)n1)C(=O)NCCCCNC(=O)c1ccc(-c2c3nc(c(-c4c(F)c(F)c(F)c(F)c4F)c4ccc([nH]4)c(-c4c(F)c(F)c(F)c(F)c4F)c4nc(c(-c5c(F)c(F)c(F)c(F)c5F)c5ccc2[nH]5)C=C4)C=C3)cc1
REMARK SMILES IDX 31 1 32 2 33 3 5 5 4 6 3 7 2 8 1 9 6 10 7 11 8 12 30 13 9 14
REMARK SMILES IDX 20 15 19 16 10 17 11 18 12 19 13 20 14 21 18 22 15 23 17 24
REMARK SMILES IDX 16 25 21 26 22 27 23 28 24 29 25 30 29 31 26 32 28 33 27 34
REMARK SMILES IDX 34 35 35 36 36 37 37 38 38 39 39 40 40 42 41 43 42 44 103 45
REMARK SMILES IDX 43 46 102 47 44 48 45 49 46 50 96 51 47 52 101 53 95 54
REMARK SMILES IDX 97 55 48 56 100 57 94 58 93 59 49 61 81 62 61 63 80 64 62 65
REMARK SMILES IDX 65 66 79 67 98 68 63 69 64 70 78 72 99 73 66 74 50 75 51 76
REMARK SMILES IDX 59 77 52 78 53 79 57 80 60 81 54 82 55 83 58 84 56 85 82 86
REMARK SMILES IDX 83 87 91 88 84 89 85 90 89 91 92 92 86 93 87 94 90 95 88 96
REMARK SMILES IDX 67 97 68 98 76 99 69 100 70 101 74 102 77 103 71 104 72 105
REMARK SMILES IDX 75 106 73 107
REMARK H PARENT 33 4 38 41 97 60 65 71
REMARK Flexibility Score: inf
ROOT
ATOM      1  C   UNL A   1      33.102  27.834  26.121  1.00  0.00     0.233 C 
ATOM      2  O   UNL A   1      34.071  27.097  26.325  1.00  0.00    -0.274 OA
ATOM      3  N   UNL A   1      32.685  28.640  27.153  1.00  0.00    -0.355 N 
ATOM      4  H   UNL A   1      33.189  28.535  27.993  1.00  0.00     0.163 HD
ENDROOT
BRANCH   1   5
ATOM      5  C   UNL A   1      32.361  27.830  24.762  1.00  0.00     0.144 C 
BRANCH   5   6
ATOM      6  C   UNL A   1      33.407  27.411  23.692  1.00  0.00     0.025 C 
BRANCH   6   7
ATOM      7  C   UNL A   1      33.063  27.264  22.207  1.00  0.00     0.001 C 
BRANCH   7   8
ATOM      8  C   UNL A   1      33.228  25.886  21.568  1.00  0.00    -0.003 C 
ATOM      9  C   UNL A   1      32.177  25.591  20.515  1.00  0.00     0.004 C 
ENDBRANCH   7   8
ENDBRANCH   6   7
ENDBRANCH   5   6
BRANCH   5  10
ATOM     10  S   UNL A   1      30.807  26.839  25.123  1.00  0.00    -0.073 SA
BRANCH  10  11
ATOM     11  C   UNL A   1      31.346  25.169  25.092  1.00  0.00     0.195 A 
ATOM     12  N   UNL A   1      31.700  24.635  26.250  1.00  0.00    -0.187 NA
ATOM     13  N   UNL A   1      31.234  24.493  23.939  1.00  0.00    -0.187 NA
ATOM     14  C   UNL A   1      31.896  23.323  26.283  1.00  0.00     0.221 A 
ATOM     15  C   UNL A   1      31.470  23.174  23.987  1.00  0.00     0.221 A 
ATOM     16  C   UNL A   1      31.793  22.544  25.162  1.00  0.00     0.136 A 
BRANCH  14  17
ATOM     17  O   UNL A   1      32.037  22.853  27.556  1.00  0.00    -0.477 OA
BRANCH  17  18
ATOM     18  C   UNL A   1      33.342  22.639  28.061  1.00  0.00     0.231 C 
BRANCH  18  19
ATOM     19  C   UNL A   1      34.086  21.510  27.328  1.00  0.00     0.045 C 
BRANCH  19  20
ATOM     20  C   UNL A   1      35.288  21.950  26.469  1.00  0.00    -0.008 C 
ATOM     21  C   UNL A   1      35.211  21.402  25.040  1.00  0.00     0.004 C 
ATOM     22  C   UNL A   1      35.483  23.470  26.464  1.00  0.00     0.004 C 
ATOM     23  C   UNL A   1      36.461  21.778  24.243  1.00  0.00     0.000 C 
ATOM     24  C   UNL A   1      36.755  23.834  25.697  1.00  0.00     0.000 C 
ATOM     25  C   UNL A   1      36.731  23.280  24.274  1.00  0.00     0.000 C 
ENDBRANCH  19  20
ENDBRANCH  18  19
ENDBRANCH  17  18
ENDBRANCH  14  17
BRANCH  15  26
ATOM     26  O   UNL A   1      31.376  22.550  22.771  1.00  0.00    -0.477 OA
BRANCH  26  27
ATOM     27  C   UNL A   1      32.410  21.654  22.340  1.00  0.00     0.231 C 
BRANCH  27  28
ATOM     28  C   UNL A   1      31.883  20.213  22.176  1.00  0.00     0.045 C 
BRANCH  28  29
ATOM     29  C   UNL A   1      32.679  19.201  23.012  1.00  0.00    -0.008 C 
ATOM     30  C   UNL A   1      32.282  19.171  24.492  1.00  0.00     0.004 C 
ATOM     31  C   UNL A   1      32.690  17.780  22.455  1.00  0.00     0.004 C 
ATOM     32  C   UNL A   1      33.307  18.366  25.292  1.00  0.00     0.000 C 
ATOM     33  C   UNL A   1      33.802  17.003  23.162  1.00  0.00     0.000 C 
ATOM     34  C   UNL A   1      33.636  17.000  24.684  1.00  0.00     0.000 C 
ENDBRANCH  28  29
ENDBRANCH  27  28
ENDBRANCH  26  27
ENDBRANCH  15  26
ENDBRANCH  10  11
ENDBRANCH   5  10
ENDBRANCH   1   5
BRANCH   3  35
ATOM     35  C   UNL A   1      31.615  29.626  27.194  1.00  0.00     0.116 C 
BRANCH  35  36
ATOM     36  C   UNL A   1      31.868  30.790  26.237  1.00  0.00     0.023 C 
BRANCH  36  37
ATOM     37  C   UNL A   1      31.538  32.161  26.816  1.00  0.00     0.023 C 
BRANCH  37  38
ATOM     38  C   UNL A   1      32.745  32.958  27.288  1.00  0.00     0.116 C 
BRANCH  38  39
ATOM     39  N   UNL A   1      32.421  34.318  27.691  1.00  0.00    -0.352 N 
ATOM     40  C   UNL A   1      33.014  35.077  28.675  1.00  0.00     0.251 C 
ATOM     41  H   UNL A   1      31.686  34.750  27.197  1.00  0.00     0.163 HD
ATOM     42  O   UNL A   1      32.571  36.173  28.980  1.00  0.00    -0.269 OA
BRANCH  40  43
ATOM     43  C   UNL A   1      34.177  34.514  29.389  1.00  0.00     0.039 A 
ATOM     44  C   UNL A   1      33.966  33.851  30.599  1.00  0.00     0.014 A 
ATOM     45  C   UNL A   1      35.455  34.587  28.827  1.00  0.00     0.014 A 
ATOM     46  C   UNL A   1      35.032  33.195  31.214  1.00  0.00     0.010 A 
ATOM     47  C   UNL A   1      36.497  33.870  29.401  1.00  0.00     0.010 A 
ATOM     48  C   UNL A   1      36.295  33.169  30.600  1.00  0.00    -0.014 A 
BRANCH  48  49
ATOM     49  C   UNL A   1      37.424  32.413  31.196  1.00  0.00     0.031 A 
ATOM     50  C   UNL A   1      37.932  32.782  32.560  1.00  0.00     0.074 A 
ATOM     51  C   UNL A   1      38.031  31.449  30.480  1.00  0.00     0.049 A 
ATOM     52  N   UNL A   1      38.948  32.291  33.225  1.00  0.00    -0.248 NA
ATOM     53  C   UNL A   1      37.225  33.867  33.258  1.00  0.00     0.031 C 
ATOM     54  C   UNL A   1      37.664  31.043  29.122  1.00  0.00     0.029 A 
ATOM     55  N   UNL A   1      39.096  30.641  30.792  1.00  0.00    -0.354 N 
ATOM     56  C   UNL A   1      39.010  33.019  34.405  1.00  0.00     0.074 A 
ATOM     57  C   UNL A   1      37.967  34.018  34.345  1.00  0.00     0.031 C 
ATOM     58  C   UNL A   1      38.476  30.050  28.725  1.00  0.00     0.029 A 
ATOM     59  C   UNL A   1      39.439  29.770  29.786  1.00  0.00     0.049 A 
ATOM     60  H   UNL A   1      39.569  30.682  31.653  1.00  0.00     0.167 HD
ATOM     61  C   UNL A   1      39.849  32.851  35.455  1.00  0.00     0.037 A 
ATOM     62  C   UNL A   1      40.425  28.855  29.728  1.00  0.00     0.037 A 
ATOM     63  C   UNL A   1      40.863  31.834  35.524  1.00  0.00     0.049 A 
ATOM     64  C   UNL A   1      41.330  28.677  30.916  1.00  0.00     0.074 A 
ATOM     65  C   UNL A   1      41.716  31.536  36.571  1.00  0.00     0.029 A 
ATOM     66  N   UNL A   1      41.161  30.949  34.499  1.00  0.00    -0.354 N 
ATOM     67  N   UNL A   1      41.331  29.318  32.059  1.00  0.00    -0.248 NA
ATOM     68  C   UNL A   1      42.367  27.641  30.809  1.00  0.00     0.031 C 
ATOM     69  C   UNL A   1      42.557  30.494  36.166  1.00  0.00     0.029 A 
ATOM     70  C   UNL A   1      42.197  30.114  34.883  1.00  0.00     0.049 A 
ATOM     71  H   UNL A   1      40.703  30.917  33.628  1.00  0.00     0.167 HD
ATOM     72  C   UNL A   1      42.347  28.749  32.816  1.00  0.00     0.074 A 
ATOM     73  C   UNL A   1      42.930  27.698  32.007  1.00  0.00     0.031 C 
ATOM     74  C   UNL A   1      42.758  29.068  34.067  1.00  0.00     0.037 A 
BRANCH  61  75
ATOM     75  C   UNL A   1      39.694  33.786  36.618  1.00  0.00     0.064 A 
ATOM     76  C   UNL A   1      38.890  33.459  37.721  1.00  0.00     0.173 A 
ATOM     77  C   UNL A   1      40.381  35.008  36.648  1.00  0.00     0.173 A 
ATOM     78  F   UNL A   1      38.200  32.308  37.738  1.00  0.00    -0.203 F 
ATOM     79  C   UNL A   1      38.757  34.335  38.796  1.00  0.00     0.198 A 
ATOM     80  C   UNL A   1      40.270  35.867  37.736  1.00  0.00     0.198 A 
ATOM     81  F   UNL A   1      41.167  35.366  35.620  1.00  0.00    -0.203 F 
ATOM     82  F   UNL A   1      37.944  34.023  39.815  1.00  0.00    -0.200 F 
ATOM     83  C   UNL A   1      39.451  35.534  38.806  1.00  0.00     0.200 A 
ATOM     84  F   UNL A   1      40.952  37.021  37.751  1.00  0.00    -0.200 F 
ATOM     85  F   UNL A   1      39.329  36.373  39.845  1.00  0.00    -0.200 F 
ENDBRANCH  61  75
BRANCH  62  86
ATOM     86  C   UNL A   1      40.585  28.013  28.515  1.00  0.00     0.064 A 
ATOM     87  C   UNL A   1      39.967  26.758  28.425  1.00  0.00     0.173 A 
ATOM     88  C   UNL A   1      41.355  28.441  27.424  1.00  0.00     0.173 A 
ATOM     89  F   UNL A   1      39.237  26.297  29.452  1.00  0.00    -0.203 F 
ATOM     90  C   UNL A   1      40.132  25.952  27.301  1.00  0.00     0.198 A 
ATOM     91  C   UNL A   1      41.497  27.646  26.288  1.00  0.00     0.198 A 
ATOM     92  F   UNL A   1      41.961  29.636  27.458  1.00  0.00    -0.203 F 
ATOM     93  F   UNL A   1      39.566  24.738  27.260  1.00  0.00    -0.200 F 
ATOM     94  C   UNL A   1      40.892  26.400  26.230  1.00  0.00     0.200 A 
ATOM     95  F   UNL A   1      42.222  28.086  25.251  1.00  0.00    -0.200 F 
ATOM     96  F   UNL A   1      41.047  25.626  25.147  1.00  0.00    -0.200 F 
ENDBRANCH  62  86
BRANCH  74  97
ATOM     97  C   UNL A   1      43.872  28.250  34.652  1.00  0.00     0.064 A 
ATOM     98  C   UNL A   1      45.217  28.593  34.454  1.00  0.00     0.173 A 
ATOM     99  C   UNL A   1      43.586  27.134  35.453  1.00  0.00     0.173 A 
ATOM    100  F   UNL A   1      45.541  29.640  33.683  1.00  0.00    -0.203 F 
ATOM    101  C   UNL A   1      46.237  27.833  35.020  1.00  0.00     0.198 A 
ATOM    102  C   UNL A   1      44.608  26.395  36.040  1.00  0.00     0.198 A 
ATOM    103  F   UNL A   1      42.315  26.769  35.676  1.00  0.00    -0.203 F 
ATOM    104  F   UNL A   1      47.518  28.151  34.783  1.00  0.00    -0.200 F 
ATOM    105  C   UNL A   1      45.932  26.740  35.818  1.00  0.00     0.200 A 
ATOM    106  F   UNL A   1      44.311  25.346  36.821  1.00  0.00    -0.200 F 
ATOM    107  F   UNL A   1      46.916  26.015  36.367  1.00  0.00    -0.200 F 
ENDBRANCH  74  97
ENDBRANCH  48  49
ENDBRANCH  40  43
ENDBRANCH  38  39
ENDBRANCH  37  38
ENDBRANCH  36  37
ENDBRANCH  35  36
ENDBRANCH   3  35
TORSDOF 24
ENDMDL
MODEL 2
REMARK VINA RESULT:     -11.4      0.627      6.938
REMARK SMILES CCCC[C@@H](Sc1nc(OCCC2CCCCC2)cc(OCCC2CCCCC2)n1)C(=O)NCCCCNC(=O)c1ccc(-c2c3nc(c(-c4c(F)c(F)c(F)c(F)c4F)c4ccc([nH]4)c(-c4c(F)c(F)c(F)c(F)c4F)c4nc(c(-c5c(F)c(F)c(F)c(F)c5F)c5ccc2[nH]5)C=C4)C=C3)cc1
REMARK SMILES IDX 31 1 32 2 33 3 5 5 4 6 3 7 2 8 1 9 6 10 7 11 8 12 30 13 9 14
REMARK SMILES IDX 20 15 19 16 10 17 11 18 12 19 13 20 14 21 18 22 15 23 17 24
REMARK SMILES IDX 16 25 21 26 22 27 23 28 24 29 25 30 29 31 26 32 28 33 27 34
REMARK SMILES IDX 34 35 35 36 36 37 37 38 38 39 39 40 40 42 41 43 42 44 103 45
REMARK SMILES IDX 43 46 102 47 44 48 45 49 46 50 96 51 47 52 101 53 95 54
REMARK SMILES IDX 97 55 48 56 100 57 94 58 93 59 49 61 81 62 61 63 80 64 62 65
REMARK SMILES IDX 65 66 79 67 98 68 63 69 64 70 78 72 99 73 66 74 50 75 51 76
REMARK SMILES IDX 59 77 52 78 53 79 57 80 60 81 54 82 55 83 58 84 56 85 82 86
REMARK SMILES IDX 83 87 91 88 84 89 85 90 89 91 92 92 86 93 87 94 90 95 88 96
REMARK SMILES IDX 67 97 68 98 76 99 69 100 70 101 74 102 77 103 71 104 72 105
REMARK SMILES IDX 75 106 73 107
REMARK H PARENT 33 4 38 41 97 60 65 71
REMARK Flexibility Score: inf
ROOT
ATOM      1  C   UNL A   1      32.942  27.607  25.582  1.00  0.00     0.233 C 
ATOM      2  O   UNL A   1      33.898  26.831  25.496  1.00  0.00    -0.274 OA
ATOM      3  N   UNL A   1      32.846  28.377  26.717  1.00  0.00    -0.355 N 
ATOM      4  H   UNL A   1      33.548  28.217  27.389  1.00  0.00     0.163 HD
ENDROOT
BRANCH   1   5
ATOM      5  C   UNL A   1      31.871  27.690  24.468  1.00  0.00     0.144 C 
BRANCH   5   6
ATOM      6  C   UNL A   1      32.604  27.396  23.131  1.00  0.00     0.025 C 
BRANCH   6   7
ATOM      7  C   UNL A   1      31.908  26.757  21.924  1.00  0.00     0.001 C 
BRANCH   7   8
ATOM      8  C   UNL A   1      32.543  25.513  21.308  1.00  0.00    -0.003 C 
ATOM      9  C   UNL A   1      32.565  25.546  19.792  1.00  0.00     0.004 C 
ENDBRANCH   7   8
ENDBRANCH   6   7
ENDBRANCH   5   6
BRANCH   5  10
ATOM     10  S   UNL A   1      30.477  26.621  25.133  1.00  0.00    -0.073 SA
BRANCH  10  11
ATOM     11  C   UNL A   1      31.162  25.006  25.186  1.00  0.00     0.195 A 
ATOM     12  N   UNL A   1      31.575  24.573  26.367  1.00  0.00    -0.187 NA
ATOM     13  N   UNL A   1      31.099  24.258  24.075  1.00  0.00    -0.187 NA
ATOM     14  C   UNL A   1      31.888  23.287  26.471  1.00  0.00     0.221 A 
ATOM     15  C   UNL A   1      31.452  22.970  24.193  1.00  0.00     0.221 A 
ATOM     16  C   UNL A   1      31.842  22.440  25.397  1.00  0.00     0.136 A 
BRANCH  14  17
ATOM     17  O   UNL A   1      32.083  22.905  27.765  1.00  0.00    -0.477 OA
BRANCH  17  18
ATOM     18  C   UNL A   1      33.254  22.177  28.089  1.00  0.00     0.231 C 
BRANCH  18  19
ATOM     19  C   UNL A   1      34.544  22.959  27.788  1.00  0.00     0.045 C 
BRANCH  19  20
ATOM     20  C   UNL A   1      35.130  22.761  26.376  1.00  0.00    -0.008 C 
ATOM     21  C   UNL A   1      36.358  23.643  26.129  1.00  0.00     0.004 C 
ATOM     22  C   UNL A   1      35.439  21.292  26.067  1.00  0.00     0.004 C 
ATOM     23  C   UNL A   1      36.858  23.493  24.691  1.00  0.00     0.000 C 
ATOM     24  C   UNL A   1      35.902  21.146  24.617  1.00  0.00     0.000 C 
ATOM     25  C   UNL A   1      37.109  22.034  24.321  1.00  0.00     0.000 C 
ENDBRANCH  19  20
ENDBRANCH  18  19
ENDBRANCH  17  18
ENDBRANCH  14  17
BRANCH  15  26
ATOM     26  O   UNL A   1      31.400  22.271  23.016  1.00  0.00    -0.477 OA
BRANCH  26  27
ATOM     27  C   UNL A   1      32.454  21.360  22.674  1.00  0.00     0.231 C 
BRANCH  27  28
ATOM     28  C   UNL A   1      31.898  19.987  22.240  1.00  0.00     0.045 C 
BRANCH  28  29
ATOM     29  C   UNL A   1      32.284  18.866  23.216  1.00  0.00    -0.008 C 
ATOM     30  C   UNL A   1      33.314  17.881  22.653  1.00  0.00     0.004 C 
ATOM     31  C   UNL A   1      32.731  19.344  24.594  1.00  0.00     0.004 C 
ATOM     32  C   UNL A   1      33.416  16.654  23.560  1.00  0.00     0.000 C 
ATOM     33  C   UNL A   1      32.711  18.143  25.542  1.00  0.00     0.000 C 
ATOM     34  C   UNL A   1      33.588  16.991  25.043  1.00  0.00     0.000 C 
ENDBRANCH  28  29
ENDBRANCH  27  28
ENDBRANCH  26  27
ENDBRANCH  15  26
ENDBRANCH  10  11
ENDBRANCH   5  10
ENDBRANCH   1   5
BRANCH   3  35
ATOM     35  C   UNL A   1      31.868  29.393  27.075  1.00  0.00     0.116 C 
BRANCH  35  36
ATOM     36  C   UNL A   1      31.983  30.638  26.197  1.00  0.00     0.023 C 
BRANCH  36  37
ATOM     37  C   UNL A   1      31.571  31.934  26.888  1.00  0.00     0.023 C 
BRANCH  37  38
ATOM     38  C   UNL A   1      32.730  32.769  27.412  1.00  0.00     0.116 C 
BRANCH  38  39
ATOM     39  N   UNL A   1      32.374  34.155  27.675  1.00  0.00    -0.352 N 
ATOM     40  C   UNL A   1      32.942  35.022  28.581  1.00  0.00     0.251 C 
ATOM     41  H   UNL A   1      31.634  34.519  27.136  1.00  0.00     0.163 HD
ATOM     42  O   UNL A   1      32.474  36.133  28.771  1.00  0.00    -0.269 OA
BRANCH  40  43
ATOM     43  C   UNL A   1      34.111  34.559  29.355  1.00  0.00     0.039 A 
ATOM     44  C   UNL A   1      33.909  34.055  30.640  1.00  0.00     0.014 A 
ATOM     45  C   UNL A   1      35.386  34.565  28.783  1.00  0.00     0.014 A 
ATOM     46  C   UNL A   1      34.981  33.487  31.329  1.00  0.00     0.010 A 
ATOM     47  C   UNL A   1      36.434  33.931  29.438  1.00  0.00     0.010 A 
ATOM     48  C   UNL A   1      36.241  33.387  30.717  1.00  0.00    -0.014 A 
BRANCH  48  49
ATOM     49  C   UNL A   1      37.375  32.718  31.399  1.00  0.00     0.031 A 
ATOM     50  C   UNL A   1      38.053  31.547  30.749  1.00  0.00     0.074 A 
ATOM     51  C   UNL A   1      37.742  33.120  32.631  1.00  0.00     0.049 A 
ATOM     52  N   UNL A   1      39.014  30.786  31.209  1.00  0.00    -0.248 NA
ATOM     53  C   UNL A   1      37.568  31.161  29.414  1.00  0.00     0.031 C 
ATOM     54  C   UNL A   1      37.119  34.207  33.388  1.00  0.00     0.029 A 
ATOM     55  N   UNL A   1      38.723  32.651  33.468  1.00  0.00    -0.354 N 
ATOM     56  C   UNL A   1      39.231  29.824  30.233  1.00  0.00     0.074 A 
ATOM     57  C   UNL A   1      38.271  30.062  29.179  1.00  0.00     0.031 C 
ATOM     58  C   UNL A   1      37.744  34.335  34.569  1.00  0.00     0.029 A 
ATOM     59  C   UNL A   1      38.791  33.322  34.665  1.00  0.00     0.049 A 
ATOM     60  H   UNL A   1      39.321  31.906  33.234  1.00  0.00     0.167 HD
ATOM     61  C   UNL A   1      40.166  28.845  30.209  1.00  0.00     0.037 A 
ATOM     62  C   UNL A   1      39.603  33.133  35.722  1.00  0.00     0.037 A 
ATOM     63  C   UNL A   1      41.141  28.633  31.244  1.00  0.00     0.049 A 
ATOM     64  C   UNL A   1      40.646  32.049  35.660  1.00  0.00     0.074 A 
ATOM     65  C   UNL A   1      42.175  27.714  31.282  1.00  0.00     0.029 A 
ATOM     66  N   UNL A   1      41.200  29.353  32.429  1.00  0.00    -0.354 N 
ATOM     67  N   UNL A   1      40.894  31.194  34.699  1.00  0.00    -0.248 NA
ATOM     68  C   UNL A   1      41.526  31.911  36.830  1.00  0.00     0.031 C 
ATOM     69  C   UNL A   1      42.837  27.852  32.506  1.00  0.00     0.029 A 
ATOM     70  C   UNL A   1      42.244  28.887  33.212  1.00  0.00     0.049 A 
ATOM     71  H   UNL A   1      40.592  30.086  32.675  1.00  0.00     0.167 HD
ATOM     72  C   UNL A   1      41.972  30.435  35.132  1.00  0.00     0.074 A 
ATOM     73  C   UNL A   1      42.341  30.941  36.439  1.00  0.00     0.031 C 
ATOM     74  C   UNL A   1      42.600  29.410  34.506  1.00  0.00     0.037 A 
BRANCH  61  75
ATOM     75  C   UNL A   1      40.182  27.935  29.016  1.00  0.00     0.064 A 
ATOM     76  C   UNL A   1      40.900  28.259  27.854  1.00  0.00     0.173 A 
ATOM     77  C   UNL A   1      39.500  26.710  29.044  1.00  0.00     0.173 A 
ATOM     78  F   UNL A   1      41.558  29.425  27.770  1.00  0.00    -0.203 F 
ATOM     79  C   UNL A   1      40.908  27.404  26.754  1.00  0.00     0.198 A 
ATOM     80  C   UNL A   1      39.535  25.844  27.956  1.00  0.00     0.198 A 
ATOM     81  F   UNL A   1      38.803  26.350  30.133  1.00  0.00    -0.203 F 
ATOM     82  F   UNL A   1      41.559  27.758  25.638  1.00  0.00    -0.200 F 
ATOM     83  C   UNL A   1      40.232  26.195  26.808  1.00  0.00     0.200 A 
ATOM     84  F   UNL A   1      38.892  24.670  28.013  1.00  0.00    -0.200 F 
ATOM     85  F   UNL A   1      40.247  25.370  25.752  1.00  0.00    -0.200 F 
ENDBRANCH  61  75
BRANCH  62  86
ATOM     86  C   UNL A   1      39.487  34.012  36.914  1.00  0.00     0.064 A 
ATOM     87  C   UNL A   1      40.123  35.260  36.950  1.00  0.00     0.173 A 
ATOM     88  C   UNL A   1      38.743  33.625  38.038  1.00  0.00     0.173 A 
ATOM     89  F   UNL A   1      40.863  35.665  35.907  1.00  0.00    -0.203 F 
ATOM     90  C   UNL A   1      40.038  36.080  38.074  1.00  0.00     0.198 A 
ATOM     91  C   UNL A   1      38.635  34.457  39.150  1.00  0.00     0.198 A 
ATOM     92  F   UNL A   1      38.110  32.443  38.050  1.00  0.00    -0.203 F 
ATOM     93  F   UNL A   1      40.692  37.249  38.098  1.00  0.00    -0.200 F 
ATOM     94  C   UNL A   1      39.289  35.680  39.171  1.00  0.00     0.200 A 
ATOM     95  F   UNL A   1      37.902  34.073  40.203  1.00  0.00    -0.200 F 
ATOM     96  F   UNL A   1      39.205  36.470  40.250  1.00  0.00    -0.200 F 
ENDBRANCH  62  86
BRANCH  74  97
ATOM     97  C   UNL A   1      43.771  28.790  35.210  1.00  0.00     0.064 A 
ATOM     98  C   UNL A   1      45.077  29.263  35.018  1.00  0.00     0.173 A 
ATOM     99  C   UNL A   1      43.576  27.738  36.117  1.00  0.00     0.173 A 
ATOM    100  F   UNL A   1      45.315  30.256  34.149  1.00  0.00    -0.203 F 
ATOM    101  C   UNL A   1      46.150  28.688  35.694  1.00  0.00     0.198 A 
ATOM    102  C   UNL A   1      44.648  27.185  36.811  1.00  0.00     0.198 A 
ATOM    103  F   UNL A   1      42.345  27.254  36.338  1.00  0.00    -0.203 F 
ATOM    104  F   UNL A   1      47.396  29.125  35.463  1.00  0.00    -0.200 F 
ATOM    105  C   UNL A   1      45.934  27.656  36.594  1.00  0.00     0.200 A 
ATOM    106  F   UNL A   1      44.437  26.195  37.690  1.00  0.00    -0.200 F 
ATOM    107  F   UNL A   1      46.968  27.109  37.248  1.00  0.00    -0.200 F 
ENDBRANCH  74  97
ENDBRANCH  48  49
ENDBRANCH  40  43
ENDBRANCH  38  39
ENDBRANCH  37  38
ENDBRANCH  36  37
ENDBRANCH  35  36
ENDBRANCH   3  35
TORSDOF 24
ENDMDL
MODEL 3
REMARK VINA RESULT:     -11.0      1.607      7.093
REMARK SMILES CCCC[C@@H](Sc1nc(OCCC2CCCCC2)cc(OCCC2CCCCC2)n1)C(=O)NCCCCNC(=O)c1ccc(-c2c3nc(c(-c4c(F)c(F)c(F)c(F)c4F)c4ccc([nH]4)c(-c4c(F)c(F)c(F)c(F)c4F)c4nc(c(-c5c(F)c(F)c(F)c(F)c5F)c5ccc2[nH]5)C=C4)C=C3)cc1
REMARK SMILES IDX 31 1 32 2 33 3 5 5 4 6 3 7 2 8 1 9 6 10 7 11 8 12 30 13 9 14
REMARK SMILES IDX 20 15 19 16 10 17 11 18 12 19 13 20 14 21 18 22 15 23 17 24
REMARK SMILES IDX 16 25 21 26 22 27 23 28 24 29 25 30 29 31 26 32 28 33 27 34
REMARK SMILES IDX 34 35 35 36 36 37 37 38 38 39 39 40 40 42 41 43 42 44 103 45
REMARK SMILES IDX 43 46 102 47 44 48 45 49 46 50 96 51 47 52 101 53 95 54
REMARK SMILES IDX 97 55 48 56 100 57 94 58 93 59 49 61 81 62 61 63 80 64 62 65
REMARK SMILES IDX 65 66 79 67 98 68 63 69 64 70 78 72 99 73 66 74 50 75 51 76
REMARK SMILES IDX 59 77 52 78 53 79 57 80 60 81 54 82 55 83 58 84 56 85 82 86
REMARK SMILES IDX 83 87 91 88 84 89 85 90 89 91 92 92 86 93 87 94 90 95 88 96
REMARK SMILES IDX 67 97 68 98 76 99 69 100 70 101 74 102 77 103 71 104 72 105
REMARK SMILES IDX 75 106 73 107
REMARK H PARENT 33 4 38 41 97 60 65 71
REMARK Flexibility Score: inf
ROOT
ATOM      1  C   UNL A   1      32.739  28.632  24.946  1.00  0.00     0.233 C 
ATOM      2  O   UNL A   1      33.935  28.383  24.771  1.00  0.00    -0.274 OA
ATOM      3  N   UNL A   1      32.379  29.948  25.112  1.00  0.00    -0.355 N 
ATOM      4  H   UNL A   1      33.127  30.588  25.106  1.00  0.00     0.163 HD
ENDROOT
BRANCH   1   5
ATOM      5  C   UNL A   1      31.684  27.501  25.007  1.00  0.00     0.144 C 
BRANCH   5   6
ATOM      6  C   UNL A   1      31.345  27.136  23.536  1.00  0.00     0.025 C 
BRANCH   6   7
ATOM      7  C   UNL A   1      30.980  28.185  22.481  1.00  0.00     0.001 C 
BRANCH   7   8
ATOM      8  C   UNL A   1      29.566  28.761  22.506  1.00  0.00    -0.003 C 
ATOM      9  C   UNL A   1      29.482  30.154  21.911  1.00  0.00     0.004 C 
ENDBRANCH   7   8
ENDBRANCH   6   7
ENDBRANCH   5   6
BRANCH   5  10
ATOM     10  S   UNL A   1      32.432  26.282  26.223  1.00  0.00    -0.073 SA
BRANCH  10  11
ATOM     11  C   UNL A   1      33.155  25.049  25.205  1.00  0.00     0.195 A 
ATOM     12  N   UNL A   1      34.477  24.985  25.194  1.00  0.00    -0.187 NA
ATOM     13  N   UNL A   1      32.341  24.161  24.616  1.00  0.00    -0.187 NA
ATOM     14  C   UNL A   1      35.034  23.930  24.612  1.00  0.00     0.221 A 
ATOM     15  C   UNL A   1      32.924  23.121  24.003  1.00  0.00     0.221 A 
ATOM     16  C   UNL A   1      34.287  22.963  23.995  1.00  0.00     0.136 A 
BRANCH  14  17
ATOM     17  O   UNL A   1      36.374  23.855  24.850  1.00  0.00    -0.477 OA
BRANCH  17  18
ATOM     18  C   UNL A   1      36.850  22.873  25.754  1.00  0.00     0.231 C 
BRANCH  18  19
ATOM     19  C   UNL A   1      37.503  21.676  25.043  1.00  0.00     0.045 C 
BRANCH  19  20
ATOM     20  C   UNL A   1      38.944  21.345  25.481  1.00  0.00    -0.008 C 
ATOM     21  C   UNL A   1      39.389  22.179  26.687  1.00  0.00     0.004 C 
ATOM     22  C   UNL A   1      39.151  19.849  25.741  1.00  0.00     0.004 C 
ATOM     23  C   UNL A   1      40.851  21.894  27.037  1.00  0.00     0.000 C 
ATOM     24  C   UNL A   1      40.622  19.570  26.053  1.00  0.00     0.000 C 
ATOM     25  C   UNL A   1      41.114  20.404  27.233  1.00  0.00     0.000 C 
ENDBRANCH  19  20
ENDBRANCH  18  19
ENDBRANCH  17  18
ENDBRANCH  14  17
BRANCH  15  26
ATOM     26  O   UNL A   1      32.040  22.272  23.391  1.00  0.00    -0.477 OA
BRANCH  26  27
ATOM     27  C   UNL A   1      32.336  20.871  23.297  1.00  0.00     0.231 C 
BRANCH  27  28
ATOM     28  C   UNL A   1      32.365  20.201  24.686  1.00  0.00     0.045 C 
BRANCH  28  29
ATOM     29  C   UNL A   1      32.699  18.705  24.606  1.00  0.00    -0.008 C 
ATOM     30  C   UNL A   1      33.999  18.399  23.855  1.00  0.00     0.004 C 
ATOM     31  C   UNL A   1      32.698  17.977  25.948  1.00  0.00     0.004 C 
ATOM     32  C   UNL A   1      34.099  16.900  23.571  1.00  0.00     0.000 C 
ATOM     33  C   UNL A   1      32.668  16.472  25.671  1.00  0.00     0.000 C 
ATOM     34  C   UNL A   1      33.836  16.017  24.793  1.00  0.00     0.000 C 
ENDBRANCH  28  29
ENDBRANCH  27  28
ENDBRANCH  26  27
ENDBRANCH  15  26
ENDBRANCH  10  11
ENDBRANCH   5  10
ENDBRANCH   1   5
BRANCH   3  35
ATOM     35  C   UNL A   1      31.062  30.540  25.292  1.00  0.00     0.116 C 
BRANCH  35  36
ATOM     36  C   UNL A   1      31.107  31.790  26.169  1.00  0.00     0.023 C 
BRANCH  36  37
ATOM     37  C   UNL A   1      32.142  31.735  27.287  1.00  0.00     0.023 C 
BRANCH  37  38
ATOM     38  C   UNL A   1      33.189  32.838  27.239  1.00  0.00     0.116 C 
BRANCH  38  39
ATOM     39  N   UNL A   1      32.679  34.140  27.640  1.00  0.00    -0.352 N 
ATOM     40  C   UNL A   1      33.092  34.929  28.690  1.00  0.00     0.251 C 
ATOM     41  H   UNL A   1      31.946  34.504  27.091  1.00  0.00     0.163 HD
ATOM     42  O   UNL A   1      32.503  35.958  28.977  1.00  0.00    -0.269 OA
BRANCH  40  43
ATOM     43  C   UNL A   1      34.244  34.476  29.496  1.00  0.00     0.039 A 
ATOM     44  C   UNL A   1      34.006  33.891  30.740  1.00  0.00     0.014 A 
ATOM     45  C   UNL A   1      35.543  34.571  28.988  1.00  0.00     0.014 A 
ATOM     46  C   UNL A   1      35.069  33.334  31.449  1.00  0.00     0.010 A 
ATOM     47  C   UNL A   1      36.587  33.949  29.659  1.00  0.00     0.010 A 
ATOM     48  C   UNL A   1      36.361  33.326  30.895  1.00  0.00    -0.014 A 
BRANCH  48  49
ATOM     49  C   UNL A   1      37.492  32.671  31.596  1.00  0.00     0.031 A 
ATOM     50  C   UNL A   1      38.181  31.495  30.966  1.00  0.00     0.074 A 
ATOM     51  C   UNL A   1      37.846  33.090  32.825  1.00  0.00     0.049 A 
ATOM     52  N   UNL A   1      39.141  30.745  31.445  1.00  0.00    -0.248 NA
ATOM     53  C   UNL A   1      37.710  31.089  29.633  1.00  0.00     0.031 C 
ATOM     54  C   UNL A   1      37.212  34.183  33.563  1.00  0.00     0.029 A 
ATOM     55  N   UNL A   1      38.822  32.637  33.677  1.00  0.00    -0.354 N 
ATOM     56  C   UNL A   1      39.372  29.772  30.483  1.00  0.00     0.074 A 
ATOM     57  C   UNL A   1      38.419  29.992  29.417  1.00  0.00     0.031 C 
ATOM     58  C   UNL A   1      37.826  34.329  34.748  1.00  0.00     0.029 A 
ATOM     59  C   UNL A   1      38.876  33.322  34.866  1.00  0.00     0.049 A 
ATOM     60  H   UNL A   1      39.425  31.891  33.457  1.00  0.00     0.167 HD
ATOM     61  C   UNL A   1      40.312  28.796  30.479  1.00  0.00     0.037 A 
ATOM     62  C   UNL A   1      39.680  33.151  35.932  1.00  0.00     0.037 A 
ATOM     63  C   UNL A   1      41.278  28.602  31.526  1.00  0.00     0.049 A 
ATOM     64  C   UNL A   1      40.728  32.071  35.893  1.00  0.00     0.074 A 
ATOM     65  C   UNL A   1      42.316  27.689  31.584  1.00  0.00     0.029 A 
ATOM     66  N   UNL A   1      41.324  29.337  32.701  1.00  0.00    -0.354 N 
ATOM     67  N   UNL A   1      40.989  31.206  34.945  1.00  0.00    -0.248 NA
ATOM     68  C   UNL A   1      41.599  31.952  37.072  1.00  0.00     0.031 C 
ATOM     69  C   UNL A   1      42.967  27.845  32.812  1.00  0.00     0.029 A 
ATOM     70  C   UNL A   1      42.362  28.886  33.500  1.00  0.00     0.049 A 
ATOM     71  H   UNL A   1      40.710  30.071  32.933  1.00  0.00     0.167 HD
ATOM     72  C   UNL A   1      42.067  30.457  35.398  1.00  0.00     0.074 A 
ATOM     73  C   UNL A   1      42.422  30.981  36.700  1.00  0.00     0.031 C 
ATOM     74  C   UNL A   1      42.705  29.427  34.790  1.00  0.00     0.037 A 
BRANCH  61  75
ATOM     75  C   UNL A   1      40.342  27.872  29.298  1.00  0.00     0.064 A 
ATOM     76  C   UNL A   1      39.533  26.726  29.240  1.00  0.00     0.173 A 
ATOM     77  C   UNL A   1      41.166  28.149  28.196  1.00  0.00     0.173 A 
ATOM     78  F   UNL A   1      38.738  26.408  30.272  1.00  0.00    -0.203 F 
ATOM     79  C   UNL A   1      39.570  25.878  28.136  1.00  0.00     0.198 A 
ATOM     80  C   UNL A   1      41.177  27.315  27.082  1.00  0.00     0.198 A 
ATOM     81  F   UNL A   1      41.955  29.234  28.199  1.00  0.00    -0.203 F 
ATOM     82  F   UNL A   1      38.825  24.763  28.125  1.00  0.00    -0.200 F 
ATOM     83  C   UNL A   1      40.386  26.176  27.056  1.00  0.00     0.200 A 
ATOM     84  F   UNL A   1      41.957  27.611  26.034  1.00  0.00    -0.200 F 
ATOM     85  F   UNL A   1      40.415  25.362  25.991  1.00  0.00    -0.200 F 
ENDBRANCH  61  75
BRANCH  62  86
ATOM     86  C   UNL A   1      39.549  34.044  37.112  1.00  0.00     0.064 A 
ATOM     87  C   UNL A   1      40.184  35.293  37.140  1.00  0.00     0.173 A 
ATOM     88  C   UNL A   1      38.793  33.670  38.232  1.00  0.00     0.173 A 
ATOM     89  F   UNL A   1      40.936  35.686  36.101  1.00  0.00    -0.203 F 
ATOM     90  C   UNL A   1      40.085  36.127  38.253  1.00  0.00     0.198 A 
ATOM     91  C   UNL A   1      38.671  34.516  39.333  1.00  0.00     0.198 A 
ATOM     92  F   UNL A   1      38.160  32.488  38.251  1.00  0.00    -0.203 F 
ATOM     93  F   UNL A   1      40.738  37.296  38.271  1.00  0.00    -0.200 F 
ATOM     94  C   UNL A   1      39.324  35.740  39.346  1.00  0.00     0.200 A 
ATOM     95  F   UNL A   1      37.926  34.145  40.382  1.00  0.00    -0.200 F 
ATOM     96  F   UNL A   1      39.226  36.543  40.414  1.00  0.00    -0.200 F 
ENDBRANCH  62  86
BRANCH  74  97
ATOM     97  C   UNL A   1      43.873  28.822  35.511  1.00  0.00     0.064 A 
ATOM     98  C   UNL A   1      45.176  29.310  35.338  1.00  0.00     0.173 A 
ATOM     99  C   UNL A   1      43.677  27.769  36.417  1.00  0.00     0.173 A 
ATOM    100  F   UNL A   1      45.415  30.304  34.471  1.00  0.00    -0.203 F 
ATOM    101  C   UNL A   1      46.245  28.748  36.030  1.00  0.00     0.198 A 
ATOM    102  C   UNL A   1      44.745  27.229  37.127  1.00  0.00     0.198 A 
ATOM    103  F   UNL A   1      42.449  27.271  36.621  1.00  0.00    -0.203 F 
ATOM    104  F   UNL A   1      47.490  29.199  35.817  1.00  0.00    -0.200 F 
ATOM    105  C   UNL A   1      46.029  27.714  36.929  1.00  0.00     0.200 A 
ATOM    106  F   UNL A   1      44.532  26.239  38.005  1.00  0.00    -0.200 F 
ATOM    107  F   UNL A   1      47.059  27.181  37.599  1.00  0.00    -0.200 F 
ENDBRANCH  74  97
ENDBRANCH  48  49
ENDBRANCH  40  43
ENDBRANCH  38  39
ENDBRANCH  37  38
ENDBRANCH  36  37
ENDBRANCH  35  36
ENDBRANCH   3  35
TORSDOF 24
ENDMDL
