MODEL 1
REMARK VINA RESULT:     -12.2      0.000      0.000
REMARK SMILES O=C(NCCCCNC(=O)[C@H](c1ccccc1)N1C(=O)/C(=C\c2ccc(Br)cc2)SC1=S)c1ccc(-c2c3nc(c(-c4c(F)c(F)c(F)c(F)c4F)c4ccc([nH]4)c(-c4c(F)c(F)c(F)c(F)c4F)c4nc(c(-c5c(F)c(F)c(F)c(F)c5F)c5ccc2[nH]5)C=C4)C=C3)cc1
REMARK SMILES IDX 5 1 4 2 3 3 1 4 2 5 33 7 34 8 95 9 35 10 94 11 36 12 37 13
REMARK SMILES IDX 38 14 88 15 39 16 93 17 87 18 89 19 40 20 92 21 86 22 85 23
REMARK SMILES IDX 41 25 73 26 53 27 72 28 54 29 57 30 71 31 90 32 55 33 56 34
REMARK SMILES IDX 70 36 91 37 58 38 42 39 43 40 51 41 44 42 45 43 49 44 52 45
REMARK SMILES IDX 46 46 47 47 50 48 48 49 74 50 75 51 83 52 76 53 77 54 81 55
REMARK SMILES IDX 84 56 78 57 79 58 82 59 80 60 59 61 60 62 68 63 61 64 62 65
REMARK SMILES IDX 66 66 69 67 63 68 64 69 67 70 65 71 6 72 7 73 8 74 9 75
REMARK SMILES IDX 10 77 11 78 18 79 19 80 31 81 20 82 21 83 30 84 32 85 22 86
REMARK SMILES IDX 23 87 24 88 29 89 25 90 28 91 26 92 27 93 12 94 13 95 17 96
REMARK SMILES IDX 14 97 16 98 15 99
REMARK H PARENT 3 6 89 24 57 35 8 76
REMARK Flexibility Score: inf
ROOT
ATOM      1  C   UNL A   1      33.556  31.631  26.900  1.00  0.00     0.023 C 
ENDROOT
BRANCH   1   2
ATOM      2  C   UNL A   1      32.330  32.145  27.629  1.00  0.00     0.116 C 
BRANCH   2   3
ATOM      3  N   UNL A   1      32.288  33.597  27.678  1.00  0.00    -0.352 N 
ATOM      4  O   UNL A   1      32.853  35.644  28.448  1.00  0.00    -0.269 OA
ATOM      5  C   UNL A   1      33.098  34.444  28.391  1.00  0.00     0.251 C 
ATOM      6  H   UNL A   1      31.592  34.027  27.131  1.00  0.00     0.163 HD
BRANCH   5   7
ATOM      7  C   UNL A   1      34.257  33.885  29.112  1.00  0.00     0.039 A 
ATOM      8  C   UNL A   1      34.068  33.019  30.194  1.00  0.00     0.014 A 
ATOM      9  C   UNL A   1      35.543  34.236  28.697  1.00  0.00     0.014 A 
ATOM     10  C   UNL A   1      35.165  32.578  30.922  1.00  0.00     0.010 A 
ATOM     11  C   UNL A   1      36.648  33.735  29.385  1.00  0.00     0.010 A 
ATOM     12  C   UNL A   1      36.463  32.910  30.506  1.00  0.00    -0.014 A 
BRANCH  12  13
ATOM     13  C   UNL A   1      37.621  32.282  31.179  1.00  0.00     0.031 A 
ATOM     14  C   UNL A   1      38.362  31.142  30.551  1.00  0.00     0.074 A 
ATOM     15  C   UNL A   1      37.976  32.754  32.388  1.00  0.00     0.049 A 
ATOM     16  N   UNL A   1      39.365  30.453  31.031  1.00  0.00    -0.248 NA
ATOM     17  C   UNL A   1      37.920  30.711  29.215  1.00  0.00     0.031 C 
ATOM     18  C   UNL A   1      37.301  33.847  33.094  1.00  0.00     0.029 A 
ATOM     19  N   UNL A   1      38.981  32.380  33.240  1.00  0.00    -0.354 N 
ATOM     20  C   UNL A   1      39.659  29.494  30.073  1.00  0.00     0.074 A 
ATOM     21  C   UNL A   1      38.725  29.681  28.984  1.00  0.00     0.031 C 
ATOM     22  C   UNL A   1      37.921  34.067  34.261  1.00  0.00     0.029 A 
ATOM     23  C   UNL A   1      38.996  33.095  34.412  1.00  0.00     0.049 A 
ATOM     24  H   UNL A   1      39.630  31.670  33.032  1.00  0.00     0.167 HD
ATOM     25  C   UNL A   1      40.626  28.547  30.111  1.00  0.00     0.037 A 
ATOM     26  C   UNL A   1      39.770  32.960  35.503  1.00  0.00     0.037 A 
ATOM     27  C   UNL A   1      41.571  28.397  31.187  1.00  0.00     0.049 A 
ATOM     28  C   UNL A   1      40.818  31.888  35.519  1.00  0.00     0.074 A 
ATOM     29  C   UNL A   1      42.652  27.537  31.272  1.00  0.00     0.029 A 
ATOM     30  N   UNL A   1      41.539  29.119  32.371  1.00  0.00    -0.354 N 
ATOM     31  N   UNL A   1      41.127  31.027  34.581  1.00  0.00    -0.248 NA
ATOM     32  C   UNL A   1      41.615  31.761  36.744  1.00  0.00     0.031 C 
ATOM     33  C   UNL A   1      43.247  27.707  32.527  1.00  0.00     0.029 A 
ATOM     34  C   UNL A   1      42.557  28.696  33.209  1.00  0.00     0.049 A 
ATOM     35  H   UNL A   1      40.889  29.827  32.584  1.00  0.00     0.167 HD
ATOM     36  C   UNL A   1      42.152  30.252  35.101  1.00  0.00     0.074 A 
ATOM     37  C   UNL A   1      42.430  30.764  36.429  1.00  0.00     0.031 C 
ATOM     38  C   UNL A   1      42.800  29.207  34.533  1.00  0.00     0.037 A 
BRANCH  25  39
ATOM     39  C   UNL A   1      40.716  27.585  28.965  1.00  0.00     0.064 A 
ATOM     40  C   UNL A   1      39.877  26.467  28.873  1.00  0.00     0.173 A 
ATOM     41  C   UNL A   1      41.601  27.835  27.905  1.00  0.00     0.173 A 
ATOM     42  F   UNL A   1      39.020  26.183  29.865  1.00  0.00    -0.203 F 
ATOM     43  C   UNL A   1      39.924  25.628  27.761  1.00  0.00     0.198 A 
ATOM     44  C   UNL A   1      41.633  27.004  26.788  1.00  0.00     0.198 A 
ATOM     45  F   UNL A   1      42.422  28.895  27.945  1.00  0.00    -0.203 F 
ATOM     46  F   UNL A   1      39.125  24.554  27.701  1.00  0.00    -0.200 F 
ATOM     47  C   UNL A   1      40.795  25.902  26.717  1.00  0.00     0.200 A 
ATOM     48  F   UNL A   1      42.469  27.275  25.776  1.00  0.00    -0.200 F 
ATOM     49  F   UNL A   1      40.828  25.102  25.642  1.00  0.00    -0.200 F 
ENDBRANCH  25  39
BRANCH  26  50
ATOM     50  C   UNL A   1      39.544  33.843  36.673  1.00  0.00     0.064 A 
ATOM     51  C   UNL A   1      38.747  33.429  37.747  1.00  0.00     0.173 A 
ATOM     52  C   UNL A   1      40.147  35.107  36.751  1.00  0.00     0.173 A 
ATOM     53  F   UNL A   1      38.137  32.235  37.707  1.00  0.00    -0.203 F 
ATOM     54  C   UNL A   1      38.556  34.251  38.855  1.00  0.00     0.198 A 
ATOM     55  C   UNL A   1      39.976  35.917  37.870  1.00  0.00     0.198 A 
ATOM     56  F   UNL A   1      40.924  35.544  35.750  1.00  0.00    -0.203 F 
ATOM     57  F   UNL A   1      37.765  33.845  39.858  1.00  0.00    -0.200 F 
ATOM     58  C   UNL A   1      39.176  35.491  38.920  1.00  0.00     0.200 A 
ATOM     59  F   UNL A   1      40.590  37.106  37.936  1.00  0.00    -0.200 F 
ATOM     60  F   UNL A   1      39.000  36.275  39.992  1.00  0.00    -0.200 F 
ENDBRANCH  26  50
BRANCH  38  61
ATOM     61  C   UNL A   1      43.861  28.544  35.355  1.00  0.00     0.064 A 
ATOM     62  C   UNL A   1      43.560  27.445  36.174  1.00  0.00     0.173 A 
ATOM     63  C   UNL A   1      45.189  28.988  35.304  1.00  0.00     0.173 A 
ATOM     64  F   UNL A   1      42.298  27.001  36.270  1.00  0.00    -0.203 F 
ATOM     65  C   UNL A   1      44.552  26.824  36.925  1.00  0.00     0.198 A 
ATOM     66  C   UNL A   1      46.183  28.350  36.039  1.00  0.00     0.198 A 
ATOM     67  F   UNL A   1      45.522  30.034  34.534  1.00  0.00    -0.203 F 
ATOM     68  F   UNL A   1      44.239  25.800  37.730  1.00  0.00    -0.200 F 
ATOM     69  C   UNL A   1      45.863  27.272  36.851  1.00  0.00     0.200 A 
ATOM     70  F   UNL A   1      47.450  28.778  35.963  1.00  0.00    -0.200 F 
ATOM     71  F   UNL A   1      46.819  26.669  37.572  1.00  0.00    -0.200 F 
ENDBRANCH  38  61
ENDBRANCH  12  13
ENDBRANCH   5   7
ENDBRANCH   2   3
ENDBRANCH   1   2
BRANCH   1  72
ATOM     72  C   UNL A   1      34.146  30.360  27.508  1.00  0.00     0.023 C 
BRANCH  72  73
ATOM     73  C   UNL A   1      34.205  29.160  26.552  1.00  0.00     0.116 C 
BRANCH  73  74
ATOM     74  N   UNL A   1      33.360  28.082  27.034  1.00  0.00    -0.354 N 
ATOM     75  C   UNL A   1      32.383  27.412  26.345  1.00  0.00     0.247 C 
ATOM     76  H   UNL A   1      33.508  27.799  27.966  1.00  0.00     0.163 HD
ATOM     77  O   UNL A   1      31.427  26.994  27.006  1.00  0.00    -0.272 OA
BRANCH  75  78
ATOM     78  C   UNL A   1      32.495  27.202  24.796  1.00  0.00     0.211 C 
BRANCH  78  79
ATOM     79  N   UNL A   1      32.051  25.829  24.441  1.00  0.00    -0.276 N 
ATOM     80  C   UNL A   1      32.812  24.742  24.814  1.00  0.00     0.267 C 
ATOM     81  C   UNL A   1      30.760  25.451  24.142  1.00  0.00     0.149 C 
ATOM     82  O   UNL A   1      33.592  24.708  25.756  1.00  0.00    -0.268 OA
ATOM     83  C   UNL A   1      32.386  23.537  24.060  1.00  0.00     0.081 C 
ATOM     84  S   UNL A   1      30.775  23.793  23.512  1.00  0.00    -0.054 SA
ATOM     85  S   UNL A   1      29.338  26.295  24.371  1.00  0.00    -0.052 S 
ATOM     86  C   UNL A   1      33.123  22.445  23.803  1.00  0.00     0.029 C 
BRANCH  86  87
ATOM     87  C   UNL A   1      34.513  22.257  24.244  1.00  0.00    -0.024 A 
ATOM     88  C   UNL A   1      35.558  22.898  23.569  1.00  0.00     0.009 A 
ATOM     89  C   UNL A   1      34.809  21.454  25.353  1.00  0.00     0.009 A 
ATOM     90  C   UNL A   1      36.875  22.772  24.025  1.00  0.00     0.016 A 
ATOM     91  C   UNL A   1      36.120  21.341  25.822  1.00  0.00     0.016 A 
ATOM     92  C   UNL A   1      37.147  22.004  25.158  1.00  0.00     0.018 A 
ATOM     93  Br  UNL A   1      38.918  21.873  25.805  1.00  0.00    -0.051 Br
ENDBRANCH  86  87
ENDBRANCH  78  79
BRANCH  78  94
ATOM     94  C   UNL A   1      31.645  28.274  24.100  1.00  0.00    -0.016 A 
ATOM     95  C   UNL A   1      31.471  28.266  22.703  1.00  0.00     0.006 A 
ATOM     96  C   UNL A   1      31.054  29.307  24.849  1.00  0.00     0.006 A 
ATOM     97  C   UNL A   1      30.681  29.235  22.083  1.00  0.00     0.000 A 
ATOM     98  C   UNL A   1      30.270  30.276  24.223  1.00  0.00     0.000 A 
ATOM     99  C   UNL A   1      30.076  30.233  22.844  1.00  0.00     0.000 A 
ENDBRANCH  78  94
ENDBRANCH  75  78
ENDBRANCH  73  74
ENDBRANCH  72  73
ENDBRANCH   1  72
TORSDOF 14
ENDMDL
MODEL 2
REMARK VINA RESULT:     -12.1      5.267     10.631
REMARK SMILES O=C(NCCCCNC(=O)[C@H](c1ccccc1)N1C(=O)/C(=C\c2ccc(Br)cc2)SC1=S)c1ccc(-c2c3nc(c(-c4c(F)c(F)c(F)c(F)c4F)c4ccc([nH]4)c(-c4c(F)c(F)c(F)c(F)c4F)c4nc(c(-c5c(F)c(F)c(F)c(F)c5F)c5ccc2[nH]5)C=C4)C=C3)cc1
REMARK SMILES IDX 5 1 4 2 3 3 1 4 2 5 33 7 34 8 95 9 35 10 94 11 36 12 37 13
REMARK SMILES IDX 38 14 88 15 39 16 93 17 87 18 89 19 40 20 92 21 86 22 85 23
REMARK SMILES IDX 41 25 73 26 53 27 72 28 54 29 57 30 71 31 90 32 55 33 56 34
REMARK SMILES IDX 70 36 91 37 58 38 42 39 43 40 51 41 44 42 45 43 49 44 52 45
REMARK SMILES IDX 46 46 47 47 50 48 48 49 74 50 75 51 83 52 76 53 77 54 81 55
REMARK SMILES IDX 84 56 78 57 79 58 82 59 80 60 59 61 60 62 68 63 61 64 62 65
REMARK SMILES IDX 66 66 69 67 63 68 64 69 67 70 65 71 6 72 7 73 8 74 9 75
REMARK SMILES IDX 10 77 11 78 18 79 19 80 31 81 20 82 21 83 30 84 32 85 22 86
REMARK SMILES IDX 23 87 24 88 29 89 25 90 28 91 26 92 27 93 12 94 13 95 17 96
REMARK SMILES IDX 14 97 16 98 15 99
REMARK H PARENT 3 6 89 24 57 35 8 76
REMARK Flexibility Score: inf
ROOT
ATOM      1  C   UNL A   1      38.797  21.045  25.289  1.00  0.00     0.023 C 
ENDROOT
BRANCH   1   2
ATOM      2  C   UNL A   1      39.303  20.202  26.444  1.00  0.00     0.116 C 
BRANCH   2   3
ATOM      3  N   UNL A   1      40.392  19.325  26.047  1.00  0.00    -0.352 N 
ATOM      4  O   UNL A   1      42.504  18.827  25.420  1.00  0.00    -0.269 OA
ATOM      5  C   UNL A   1      41.720  19.637  25.902  1.00  0.00     0.251 C 
ATOM      6  H   UNL A   1      40.147  18.391  25.859  1.00  0.00     0.163 HD
BRANCH   5   7
ATOM      7  C   UNL A   1      42.188  20.975  26.311  1.00  0.00     0.039 A 
ATOM      8  C   UNL A   1      42.446  21.959  25.351  1.00  0.00     0.014 A 
ATOM      9  C   UNL A   1      42.372  21.239  27.670  1.00  0.00     0.014 A 
ATOM     10  C   UNL A   1      42.977  23.180  25.743  1.00  0.00     0.010 A 
ATOM     11  C   UNL A   1      42.838  22.492  28.068  1.00  0.00     0.010 A 
ATOM     12  C   UNL A   1      43.150  23.465  27.106  1.00  0.00    -0.014 A 
BRANCH  12  13
ATOM     13  C   UNL A   1      43.541  24.832  27.515  1.00  0.00     0.031 A 
ATOM     14  C   UNL A   1      42.520  25.827  27.975  1.00  0.00     0.074 A 
ATOM     15  C   UNL A   1      44.843  25.162  27.441  1.00  0.00     0.049 A 
ATOM     16  N   UNL A   1      42.693  27.077  28.322  1.00  0.00    -0.248 NA
ATOM     17  C   UNL A   1      41.124  25.369  28.050  1.00  0.00     0.031 C 
ATOM     18  C   UNL A   1      45.911  24.268  26.983  1.00  0.00     0.029 A 
ATOM     19  N   UNL A   1      45.494  26.329  27.741  1.00  0.00    -0.354 N 
ATOM     20  C   UNL A   1      41.431  27.562  28.631  1.00  0.00     0.074 A 
ATOM     21  C   UNL A   1      40.496  26.477  28.426  1.00  0.00     0.031 C 
ATOM     22  C   UNL A   1      47.084  24.913  27.049  1.00  0.00     0.029 A 
ATOM     23  C   UNL A   1      46.843  26.279  27.496  1.00  0.00     0.049 A 
ATOM     24  H   UNL A   1      45.038  27.125  28.097  1.00  0.00     0.167 HD
ATOM     25  C   UNL A   1      41.095  28.805  29.050  1.00  0.00     0.037 A 
ATOM     26  C   UNL A   1      47.781  27.239  27.589  1.00  0.00     0.037 A 
ATOM     27  C   UNL A   1      42.042  29.864  29.283  1.00  0.00     0.049 A 
ATOM     28  C   UNL A   1      47.371  28.609  28.037  1.00  0.00     0.074 A 
ATOM     29  C   UNL A   1      41.815  31.126  29.806  1.00  0.00     0.029 A 
ATOM     30  N   UNL A   1      43.398  29.787  28.998  1.00  0.00    -0.354 N 
ATOM     31  N   UNL A   1      46.184  29.039  28.387  1.00  0.00    -0.248 NA
ATOM     32  C   UNL A   1      48.424  29.629  28.093  1.00  0.00     0.031 C 
ATOM     33  C   UNL A   1      43.025  31.828  29.795  1.00  0.00     0.029 A 
ATOM     34  C   UNL A   1      44.012  30.993  29.296  1.00  0.00     0.049 A 
ATOM     35  H   UNL A   1      43.855  28.994  28.637  1.00  0.00     0.167 HD
ATOM     36  C   UNL A   1      46.343  30.379  28.702  1.00  0.00     0.074 A 
ATOM     37  C   UNL A   1      47.749  30.685  28.526  1.00  0.00     0.031 C 
ATOM     38  C   UNL A   1      45.409  31.278  29.093  1.00  0.00     0.037 A 
BRANCH  25  39
ATOM     39  C   UNL A   1      39.645  29.105  29.276  1.00  0.00     0.064 A 
ATOM     40  C   UNL A   1      38.790  29.455  28.222  1.00  0.00     0.173 A 
ATOM     41  C   UNL A   1      39.087  28.960  30.556  1.00  0.00     0.173 A 
ATOM     42  F   UNL A   1      39.277  29.613  26.983  1.00  0.00    -0.203 F 
ATOM     43  C   UNL A   1      37.429  29.654  28.442  1.00  0.00     0.198 A 
ATOM     44  C   UNL A   1      37.723  29.142  30.769  1.00  0.00     0.198 A 
ATOM     45  F   UNL A   1      39.864  28.623  31.597  1.00  0.00    -0.203 F 
ATOM     46  F   UNL A   1      36.632  30.005  27.424  1.00  0.00    -0.200 F 
ATOM     47  C   UNL A   1      36.896  29.490  29.712  1.00  0.00     0.200 A 
ATOM     48  F   UNL A   1      37.209  28.975  31.995  1.00  0.00    -0.200 F 
ATOM     49  F   UNL A   1      35.583  29.668  29.919  1.00  0.00    -0.200 F 
ENDBRANCH  25  39
BRANCH  26  50
ATOM     50  C   UNL A   1      49.182  26.931  27.212  1.00  0.00     0.064 A 
ATOM     51  C   UNL A   1      50.117  26.533  28.176  1.00  0.00     0.173 A 
ATOM     52  C   UNL A   1      49.603  27.000  25.876  1.00  0.00     0.173 A 
ATOM     53  F   UNL A   1      49.762  26.470  29.467  1.00  0.00    -0.203 F 
ATOM     54  C   UNL A   1      51.426  26.221  27.816  1.00  0.00     0.198 A 
ATOM     55  C   UNL A   1      50.904  26.664  25.515  1.00  0.00     0.198 A 
ATOM     56  F   UNL A   1      48.741  27.371  24.919  1.00  0.00    -0.203 F 
ATOM     57  F   UNL A   1      52.311  25.871  28.759  1.00  0.00    -0.200 F 
ATOM     58  C   UNL A   1      51.818  26.280  26.485  1.00  0.00     0.200 A 
ATOM     59  F   UNL A   1      51.273  26.706  24.227  1.00  0.00    -0.200 F 
ATOM     60  F   UNL A   1      53.074  25.969  26.140  1.00  0.00    -0.200 F 
ENDBRANCH  26  50
BRANCH  38  61
ATOM     61  C   UNL A   1      45.880  32.676  29.344  1.00  0.00     0.064 A 
ATOM     62  C   UNL A   1      46.372  33.058  30.601  1.00  0.00     0.173 A 
ATOM     63  C   UNL A   1      45.869  33.631  28.319  1.00  0.00     0.173 A 
ATOM     64  F   UNL A   1      46.381  32.183  31.617  1.00  0.00    -0.203 F 
ATOM     65  C   UNL A   1      46.822  34.356  30.825  1.00  0.00     0.198 A 
ATOM     66  C   UNL A   1      46.341  34.921  28.540  1.00  0.00     0.198 A 
ATOM     67  F   UNL A   1      45.408  33.309  27.101  1.00  0.00    -0.203 F 
ATOM     68  F   UNL A   1      47.253  34.712  32.043  1.00  0.00    -0.200 F 
ATOM     69  C   UNL A   1      46.813  35.283  29.793  1.00  0.00     0.200 A 
ATOM     70  F   UNL A   1      46.338  35.815  27.542  1.00  0.00    -0.200 F 
ATOM     71  F   UNL A   1      47.251  36.531  30.009  1.00  0.00    -0.200 F 
ENDBRANCH  38  61
ENDBRANCH  12  13
ENDBRANCH   5   7
ENDBRANCH   2   3
ENDBRANCH   1   2
BRANCH   1  72
ATOM     72  C   UNL A   1      38.654  22.528  25.626  1.00  0.00     0.023 C 
BRANCH  72  73
ATOM     73  C   UNL A   1      37.207  23.008  25.804  1.00  0.00     0.116 C 
BRANCH  73  74
ATOM     74  N   UNL A   1      36.662  23.466  24.538  1.00  0.00    -0.354 N 
ATOM     75  C   UNL A   1      35.432  23.182  24.004  1.00  0.00     0.247 C 
ATOM     76  H   UNL A   1      37.246  24.047  23.999  1.00  0.00     0.163 HD
ATOM     77  O   UNL A   1      35.360  23.134  22.773  1.00  0.00    -0.272 OA
BRANCH  75  78
ATOM     78  C   UNL A   1      34.194  22.934  24.934  1.00  0.00     0.211 C 
BRANCH  78  79
ATOM     79  N   UNL A   1      32.999  23.620  24.375  1.00  0.00    -0.276 N 
ATOM     80  C   UNL A   1      32.919  24.996  24.406  1.00  0.00     0.267 C 
ATOM     81  C   UNL A   1      32.129  23.094  23.446  1.00  0.00     0.149 C 
ATOM     82  O   UNL A   1      33.870  25.764  24.453  1.00  0.00    -0.268 OA
ATOM     83  C   UNL A   1      31.526  25.433  24.141  1.00  0.00     0.081 C 
ATOM     84  S   UNL A   1      30.720  24.162  23.306  1.00  0.00    -0.054 SA
ATOM     85  S   UNL A   1      32.304  21.735  22.492  1.00  0.00    -0.052 S 
ATOM     86  C   UNL A   1      30.960  26.591  24.512  1.00  0.00     0.029 C 
BRANCH  86  87
ATOM     87  C   UNL A   1      31.651  27.652  25.260  1.00  0.00    -0.024 A 
ATOM     88  C   UNL A   1      32.193  28.750  24.583  1.00  0.00     0.009 A 
ATOM     89  C   UNL A   1      31.757  27.592  26.655  1.00  0.00     0.009 A 
ATOM     90  C   UNL A   1      32.795  29.793  25.298  1.00  0.00     0.016 A 
ATOM     91  C   UNL A   1      32.340  28.639  27.372  1.00  0.00     0.016 A 
ATOM     92  C   UNL A   1      32.853  29.737  26.690  1.00  0.00     0.018 A 
ATOM     93  Br  UNL A   1      33.619  31.167  27.660  1.00  0.00    -0.051 Br
ENDBRANCH  86  87
ENDBRANCH  78  79
BRANCH  78  94
ATOM     94  C   UNL A   1      33.977  21.420  25.056  1.00  0.00    -0.016 A 
ATOM     95  C   UNL A   1      32.819  20.901  25.665  1.00  0.00     0.006 A 
ATOM     96  C   UNL A   1      34.954  20.524  24.588  1.00  0.00     0.006 A 
ATOM     97  C   UNL A   1      32.623  19.523  25.754  1.00  0.00     0.000 A 
ATOM     98  C   UNL A   1      34.756  19.146  24.685  1.00  0.00     0.000 A 
ATOM     99  C   UNL A   1      33.587  18.648  25.258  1.00  0.00     0.000 A 
ENDBRANCH  78  94
ENDBRANCH  75  78
ENDBRANCH  73  74
ENDBRANCH  72  73
ENDBRANCH   1  72
TORSDOF 14
ENDMDL
MODEL 3
REMARK VINA RESULT:     -11.9      0.698      7.263
REMARK SMILES O=C(NCCCCNC(=O)[C@H](c1ccccc1)N1C(=O)/C(=C\c2ccc(Br)cc2)SC1=S)c1ccc(-c2c3nc(c(-c4c(F)c(F)c(F)c(F)c4F)c4ccc([nH]4)c(-c4c(F)c(F)c(F)c(F)c4F)c4nc(c(-c5c(F)c(F)c(F)c(F)c5F)c5ccc2[nH]5)C=C4)C=C3)cc1
REMARK SMILES IDX 5 1 4 2 3 3 1 4 2 5 33 7 34 8 95 9 35 10 94 11 36 12 37 13
REMARK SMILES IDX 38 14 88 15 39 16 93 17 87 18 89 19 40 20 92 21 86 22 85 23
REMARK SMILES IDX 41 25 73 26 53 27 72 28 54 29 57 30 71 31 90 32 55 33 56 34
REMARK SMILES IDX 70 36 91 37 58 38 42 39 43 40 51 41 44 42 45 43 49 44 52 45
REMARK SMILES IDX 46 46 47 47 50 48 48 49 74 50 75 51 83 52 76 53 77 54 81 55
REMARK SMILES IDX 84 56 78 57 79 58 82 59 80 60 59 61 60 62 68 63 61 64 62 65
REMARK SMILES IDX 66 66 69 67 63 68 64 69 67 70 65 71 6 72 7 73 8 74 9 75
REMARK SMILES IDX 10 77 11 78 18 79 19 80 31 81 20 82 21 83 30 84 32 85 22 86
REMARK SMILES IDX 23 87 24 88 29 89 25 90 28 91 26 92 27 93 12 94 13 95 17 96
REMARK SMILES IDX 14 97 16 98 15 99
REMARK H PARENT 3 6 89 24 57 35 8 76
REMARK Flexibility Score: inf
ROOT
ATOM      1  C   UNL A   1      33.651  31.479  26.877  1.00  0.00     0.023 C 
ENDROOT
BRANCH   1   2
ATOM      2  C   UNL A   1      32.461  32.090  27.592  1.00  0.00     0.116 C 
BRANCH   2   3
ATOM      3  N   UNL A   1      32.527  33.541  27.627  1.00  0.00    -0.352 N 
ATOM      4  O   UNL A   1      33.247  35.547  28.375  1.00  0.00    -0.269 OA
ATOM      5  C   UNL A   1      33.402  34.332  28.327  1.00  0.00     0.251 C 
ATOM      6  H   UNL A   1      31.861  34.017  27.080  1.00  0.00     0.163 HD
BRANCH   5   7
ATOM      7  C   UNL A   1      34.521  33.696  29.047  1.00  0.00     0.039 A 
ATOM      8  C   UNL A   1      34.274  32.812  30.103  1.00  0.00     0.014 A 
ATOM      9  C   UNL A   1      35.829  33.992  28.657  1.00  0.00     0.014 A 
ATOM     10  C   UNL A   1      35.337  32.296  30.831  1.00  0.00     0.010 A 
ATOM     11  C   UNL A   1      36.897  33.416  29.345  1.00  0.00     0.010 A 
ATOM     12  C   UNL A   1      36.656  32.572  30.440  1.00  0.00    -0.014 A 
BRANCH  12  13
ATOM     13  C   UNL A   1      37.771  31.869  31.110  1.00  0.00     0.031 A 
ATOM     14  C   UNL A   1      38.187  32.222  32.505  1.00  0.00     0.074 A 
ATOM     15  C   UNL A   1      38.417  30.912  30.418  1.00  0.00     0.049 A 
ATOM     16  N   UNL A   1      39.173  31.734  33.214  1.00  0.00    -0.248 NA
ATOM     17  C   UNL A   1      37.406  33.261  33.194  1.00  0.00     0.031 C 
ATOM     18  C   UNL A   1      38.100  30.512  29.044  1.00  0.00     0.029 A 
ATOM     19  N   UNL A   1      39.470  30.108  30.763  1.00  0.00    -0.354 N 
ATOM     20  C   UNL A   1      39.148  32.420  34.420  1.00  0.00     0.074 A 
ATOM     21  C   UNL A   1      38.055  33.365  34.348  1.00  0.00     0.031 C 
ATOM     22  C   UNL A   1      38.928  29.527  28.670  1.00  0.00     0.029 A 
ATOM     23  C   UNL A   1      39.869  29.269  29.753  1.00  0.00     0.049 A 
ATOM     24  H   UNL A   1      39.899  30.129  31.649  1.00  0.00     0.167 HD
ATOM     25  C   UNL A   1      39.969  32.264  35.485  1.00  0.00     0.037 A 
ATOM     26  C   UNL A   1      40.901  28.408  29.693  1.00  0.00     0.037 A 
ATOM     27  C   UNL A   1      41.030  31.294  35.554  1.00  0.00     0.049 A 
ATOM     28  C   UNL A   1      41.802  28.275  30.883  1.00  0.00     0.074 A 
ATOM     29  C   UNL A   1      41.851  30.987  36.625  1.00  0.00     0.029 A 
ATOM     30  N   UNL A   1      41.424  30.479  34.502  1.00  0.00    -0.354 N 
ATOM     31  N   UNL A   1      41.730  28.884  32.041  1.00  0.00    -0.248 NA
ATOM     32  C   UNL A   1      42.931  27.347  30.757  1.00  0.00     0.031 C 
ATOM     33  C   UNL A   1      42.771  30.019  36.207  1.00  0.00     0.029 A 
ATOM     34  C   UNL A   1      42.502  29.699  34.887  1.00  0.00     0.049 A 
ATOM     35  H   UNL A   1      41.001  30.459  33.613  1.00  0.00     0.167 HD
ATOM     36  C   UNL A   1      42.805  28.418  32.782  1.00  0.00     0.074 A 
ATOM     37  C   UNL A   1      43.498  27.453  31.951  1.00  0.00     0.031 C 
ATOM     38  C   UNL A   1      43.187  28.762  34.034  1.00  0.00     0.037 A 
BRANCH  25  39
ATOM     39  C   UNL A   1      39.771  33.164  36.666  1.00  0.00     0.064 A 
ATOM     40  C   UNL A   1      40.466  34.374  36.797  1.00  0.00     0.173 A 
ATOM     41  C   UNL A   1      38.809  32.848  37.638  1.00  0.00     0.173 A 
ATOM     42  F   UNL A   1      41.400  34.716  35.898  1.00  0.00    -0.203 F 
ATOM     43  C   UNL A   1      40.210  35.234  37.863  1.00  0.00     0.198 A 
ATOM     44  C   UNL A   1      38.543  33.718  38.692  1.00  0.00     0.198 A 
ATOM     45  F   UNL A   1      38.114  31.704  37.554  1.00  0.00    -0.203 F 
ATOM     46  F   UNL A   1      40.898  36.377  37.980  1.00  0.00    -0.200 F 
ATOM     47  C   UNL A   1      39.244  34.909  38.805  1.00  0.00     0.200 A 
ATOM     48  F   UNL A   1      37.604  33.406  39.596  1.00  0.00    -0.200 F 
ATOM     49  F   UNL A   1      38.989  35.744  39.822  1.00  0.00    -0.200 F 
ENDBRANCH  25  39
BRANCH  26  50
ATOM     50  C   UNL A   1      41.143  27.645  28.445  1.00  0.00     0.064 A 
ATOM     51  C   UNL A   1      42.014  28.128  27.461  1.00  0.00     0.173 A 
ATOM     52  C   UNL A   1      40.531  26.401  28.227  1.00  0.00     0.173 A 
ATOM     53  F   UNL A   1      42.608  29.320  27.619  1.00  0.00    -0.203 F 
ATOM     54  C   UNL A   1      42.259  27.398  26.300  1.00  0.00     0.198 A 
ATOM     55  C   UNL A   1      40.797  25.661  27.079  1.00  0.00     0.198 A 
ATOM     56  F   UNL A   1      39.695  25.895  29.145  1.00  0.00    -0.203 F 
ATOM     57  F   UNL A   1      43.074  27.895  25.359  1.00  0.00    -0.200 F 
ATOM     58  C   UNL A   1      41.656  26.162  26.113  1.00  0.00     0.200 A 
ATOM     59  F   UNL A   1      40.226  24.460  26.910  1.00  0.00    -0.200 F 
ATOM     60  F   UNL A   1      41.902  25.456  25.001  1.00  0.00    -0.200 F 
ENDBRANCH  26  50
BRANCH  38  61
ATOM     61  C   UNL A   1      44.417  28.099  34.571  1.00  0.00     0.064 A 
ATOM     62  C   UNL A   1      45.680  28.692  34.423  1.00  0.00     0.173 A 
ATOM     63  C   UNL A   1      44.332  26.882  35.260  1.00  0.00     0.173 A 
ATOM     64  F   UNL A   1      45.810  29.846  33.753  1.00  0.00    -0.203 F 
ATOM     65  C   UNL A   1      46.818  28.078  34.936  1.00  0.00     0.198 A 
ATOM     66  C   UNL A   1      45.470  26.282  35.790  1.00  0.00     0.198 A 
ATOM     67  F   UNL A   1      43.145  26.280  35.425  1.00  0.00    -0.203 F 
ATOM     68  F   UNL A   1      48.021  28.640  34.753  1.00  0.00    -0.200 F 
ATOM     69  C   UNL A   1      46.711  26.878  35.625  1.00  0.00     0.200 A 
ATOM     70  F   UNL A   1      45.366  25.127  36.461  1.00  0.00    -0.200 F 
ATOM     71  F   UNL A   1      47.808  26.290  36.122  1.00  0.00    -0.200 F 
ENDBRANCH  38  61
ENDBRANCH  12  13
ENDBRANCH   5   7
ENDBRANCH   2   3
ENDBRANCH   1   2
BRANCH   1  72
ATOM     72  C   UNL A   1      34.175  30.203  27.534  1.00  0.00     0.023 C 
BRANCH  72  73
ATOM     73  C   UNL A   1      34.221  28.979  26.608  1.00  0.00     0.116 C 
BRANCH  73  74
ATOM     74  N   UNL A   1      33.279  27.968  27.052  1.00  0.00    -0.354 N 
ATOM     75  C   UNL A   1      32.265  27.393  26.330  1.00  0.00     0.247 C 
ATOM     76  H   UNL A   1      33.380  27.659  27.982  1.00  0.00     0.163 HD
ATOM     77  O   UNL A   1      31.263  27.046  26.962  1.00  0.00    -0.272 OA
BRANCH  75  78
ATOM     78  C   UNL A   1      32.396  27.199  24.780  1.00  0.00     0.211 C 
BRANCH  78  79
ATOM     79  N   UNL A   1      31.941  25.835  24.403  1.00  0.00    -0.276 N 
ATOM     80  C   UNL A   1      32.690  24.736  24.766  1.00  0.00     0.267 C 
ATOM     81  C   UNL A   1      30.649  25.473  24.092  1.00  0.00     0.149 C 
ATOM     82  O   UNL A   1      33.464  24.682  25.712  1.00  0.00    -0.268 OA
ATOM     83  C   UNL A   1      32.258  23.545  23.993  1.00  0.00     0.081 C 
ATOM     84  S   UNL A   1      30.653  23.824  23.440  1.00  0.00    -0.054 SA
ATOM     85  S   UNL A   1      29.233  26.327  24.325  1.00  0.00    -0.052 S 
ATOM     86  C   UNL A   1      32.986  22.450  23.725  1.00  0.00     0.029 C 
BRANCH  86  87
ATOM     87  C   UNL A   1      34.371  22.242  24.172  1.00  0.00    -0.024 A 
ATOM     88  C   UNL A   1      35.427  22.876  23.506  1.00  0.00     0.009 A 
ATOM     89  C   UNL A   1      34.653  21.430  25.277  1.00  0.00     0.009 A 
ATOM     90  C   UNL A   1      36.740  22.731  23.967  1.00  0.00     0.016 A 
ATOM     91  C   UNL A   1      35.960  21.298  25.751  1.00  0.00     0.016 A 
ATOM     92  C   UNL A   1      36.998  21.953  25.096  1.00  0.00     0.018 A 
ATOM     93  Br  UNL A   1      38.764  21.797  25.751  1.00  0.00    -0.051 Br
ENDBRANCH  86  87
ENDBRANCH  78  79
BRANCH  78  94
ATOM     94  C   UNL A   1      31.569  28.289  24.085  1.00  0.00    -0.016 A 
ATOM     95  C   UNL A   1      31.366  28.265  22.692  1.00  0.00     0.006 A 
ATOM     96  C   UNL A   1      31.028  29.351  24.829  1.00  0.00     0.006 A 
ATOM     97  C   UNL A   1      30.596  29.250  22.073  1.00  0.00     0.000 A 
ATOM     98  C   UNL A   1      30.264  30.336  24.204  1.00  0.00     0.000 A 
ATOM     99  C   UNL A   1      30.040  30.279  22.830  1.00  0.00     0.000 A 
ENDBRANCH  78  94
ENDBRANCH  75  78
ENDBRANCH  73  74
ENDBRANCH  72  73
ENDBRANCH   1  72
TORSDOF 14
ENDMDL
