MODEL 1
REMARK VINA RESULT:     -13.2      0.000      0.000
REMARK SMILES C[C@@H]1Cc2ccccc2N1C(=O)CSc1ncc(C(=O)NCCCCNC(=O)c2ccc(-c3c4nc(c(-c5c(F)c(F)c(F)c(F)c5F)c5ccc([nH]5)c(-c5c(F)c(F)c(F)c(F)c5F)c5nc(c(-c6c(F)c(F)c(F)c(F)c6F)c6ccc3[nH]6)C=C5)C=C4)cc2)n1-c1ccc(F)cc1
REMARK SMILES IDX 22 1 21 2 19 3 20 4 18 6 15 7 16 8 92 9 17 10 14 11 13 12
REMARK SMILES IDX 11 13 12 14 10 15 1 16 2 17 3 18 4 19 9 20 5 21 8 22 6 23
REMARK SMILES IDX 7 24 93 25 94 26 99 27 95 28 98 29 96 30 97 31 23 32 24 33
REMARK SMILES IDX 25 34 26 35 27 36 28 38 29 39 30 40 91 41 31 42 90 43 32 44
REMARK SMILES IDX 33 45 34 46 84 47 35 48 89 49 83 50 85 51 36 52 88 53 82 54
REMARK SMILES IDX 81 55 37 57 69 58 49 59 68 60 50 61 53 62 67 63 86 64 51 65
REMARK SMILES IDX 52 66 66 68 87 69 54 70 38 71 39 72 47 73 40 74 41 75 45 76
REMARK SMILES IDX 48 77 42 78 43 79 46 80 44 81 70 82 71 83 79 84 72 85 73 86
REMARK SMILES IDX 77 87 80 88 74 89 75 90 78 91 76 92 55 93 56 94 64 95 57 96
REMARK SMILES IDX 58 97 62 98 65 99 59 100 60 101 63 102 61 103
REMARK H PARENT 21 5 26 37 85 56 53 67
REMARK Flexibility Score: inf
ROOT
ATOM      1  C   UNL A   1      37.517  24.026  26.078  1.00  0.00     0.116 C 
ENDROOT
BRANCH   1   2
ATOM      2  N   UNL A   1      37.548  23.566  24.706  1.00  0.00    -0.351 N 
ATOM      3  C   UNL A   1      36.688  22.809  23.946  1.00  0.00     0.269 C 
ATOM      4  O   UNL A   1      36.984  22.756  22.762  1.00  0.00    -0.268 OA
ATOM      5  H   UNL A   1      38.351  23.855  24.215  1.00  0.00     0.163 HD
BRANCH   3   6
ATOM      6  C   UNL A   1      35.511  22.184  24.520  1.00  0.00     0.132 A 
ATOM      7  C   UNL A   1      33.451  21.958  25.330  1.00  0.00     0.173 A 
ATOM      8  N   UNL A   1      34.123  20.965  25.855  1.00  0.00    -0.230 NA
ATOM      9  N   UNL A   1      34.194  22.654  24.384  1.00  0.00    -0.283 N 
ATOM     10  C   UNL A   1      35.367  21.059  25.310  1.00  0.00     0.146 A 
BRANCH   7  11
ATOM     11  S   UNL A   1      31.797  22.258  25.722  1.00  0.00    -0.078 SA
BRANCH  11  12
ATOM     12  C   UNL A   1      31.868  23.847  26.586  1.00  0.00     0.178 C 
BRANCH  12  13
ATOM     13  C   UNL A   1      30.659  24.749  26.407  1.00  0.00     0.237 C 
ATOM     14  O   UNL A   1      29.618  24.433  27.002  1.00  0.00    -0.274 OA
BRANCH  13  15
ATOM     15  N   UNL A   1      30.700  25.920  25.668  1.00  0.00    -0.308 N 
ATOM     16  C   UNL A   1      29.957  24.956  23.434  1.00  0.00     0.032 C 
ATOM     17  C   UNL A   1      29.834  26.081  24.464  1.00  0.00     0.092 C 
ATOM     18  C   UNL A   1      30.211  27.426  23.813  1.00  0.00     0.063 C 
ATOM     19  C   UNL A   1      31.207  27.979  24.776  1.00  0.00    -0.022 A 
ATOM     20  C   UNL A   1      31.406  27.128  25.864  1.00  0.00     0.047 A 
ATOM     21  C   UNL A   1      31.874  29.192  24.651  1.00  0.00     0.006 A 
ATOM     22  C   UNL A   1      32.194  27.566  26.916  1.00  0.00     0.026 A 
ATOM     23  C   UNL A   1      32.741  29.580  25.667  1.00  0.00     0.000 A 
ATOM     24  C   UNL A   1      32.882  28.781  26.805  1.00  0.00     0.002 A 
ENDBRANCH  13  15
ENDBRANCH  12  13
ENDBRANCH  11  12
ENDBRANCH   7  11
BRANCH   9  25
ATOM     25  C   UNL A   1      33.695  23.547  23.388  1.00  0.00     0.049 A 
ATOM     26  C   UNL A   1      33.203  23.075  22.162  1.00  0.00     0.030 A 
ATOM     27  C   UNL A   1      33.752  24.929  23.626  1.00  0.00     0.030 A 
ATOM     28  C   UNL A   1      32.774  23.983  21.189  1.00  0.00     0.041 A 
ATOM     29  C   UNL A   1      33.319  25.830  22.651  1.00  0.00     0.041 A 
ATOM     30  C   UNL A   1      32.837  25.349  21.442  1.00  0.00     0.123 A 
ATOM     31  F   UNL A   1      32.423  26.214  20.506  1.00  0.00    -0.207 F 
ENDBRANCH   9  25
ENDBRANCH   3   6
ENDBRANCH   1   2
BRANCH   1  32
ATOM     32  C   UNL A   1      38.824  23.698  26.798  1.00  0.00     0.023 C 
BRANCH  32  33
ATOM     33  C   UNL A   1      39.408  22.317  26.453  1.00  0.00     0.023 C 
BRANCH  33  34
ATOM     34  C   UNL A   1      40.855  22.101  26.912  1.00  0.00     0.116 C 
BRANCH  34  35
ATOM     35  N   UNL A   1      41.832  22.467  25.905  1.00  0.00    -0.352 N 
ATOM     36  C   UNL A   1      42.572  23.581  25.629  1.00  0.00     0.251 C 
ATOM     37  H   UNL A   1      42.002  21.737  25.267  1.00  0.00     0.163 HD
ATOM     38  O   UNL A   1      43.391  23.468  24.714  1.00  0.00    -0.269 OA
BRANCH  36  39
ATOM     39  C   UNL A   1      42.445  24.898  26.310  1.00  0.00     0.039 A 
ATOM     40  C   UNL A   1      43.027  25.240  27.530  1.00  0.00     0.014 A 
ATOM     41  C   UNL A   1      41.612  25.845  25.678  1.00  0.00     0.014 A 
ATOM     42  C   UNL A   1      42.741  26.464  28.127  1.00  0.00     0.010 A 
ATOM     43  C   UNL A   1      41.327  27.073  26.269  1.00  0.00     0.010 A 
ATOM     44  C   UNL A   1      41.865  27.368  27.515  1.00  0.00    -0.014 A 
BRANCH  44  45
ATOM     45  C   UNL A   1      41.605  28.622  28.218  1.00  0.00     0.031 A 
ATOM     46  C   UNL A   1      42.661  29.665  28.081  1.00  0.00     0.074 A 
ATOM     47  C   UNL A   1      40.487  28.879  28.924  1.00  0.00     0.049 A 
ATOM     48  N   UNL A   1      43.409  30.168  29.011  1.00  0.00    -0.248 NA
ATOM     49  C   UNL A   1      42.983  30.142  26.729  1.00  0.00     0.031 C 
ATOM     50  C   UNL A   1      39.241  28.111  28.969  1.00  0.00     0.029 A 
ATOM     51  N   UNL A   1      40.215  29.959  29.716  1.00  0.00    -0.354 N 
ATOM     52  C   UNL A   1      44.205  31.131  28.394  1.00  0.00     0.074 A 
ATOM     53  C   UNL A   1      43.975  31.001  26.978  1.00  0.00     0.031 C 
ATOM     54  C   UNL A   1      38.283  28.850  29.573  1.00  0.00     0.029 A 
ATOM     55  C   UNL A   1      38.884  30.070  30.085  1.00  0.00     0.049 A 
ATOM     56  H   UNL A   1      40.905  30.601  30.000  1.00  0.00     0.167 HD
ATOM     57  C   UNL A   1      44.867  32.079  29.116  1.00  0.00     0.037 A 
ATOM     58  C   UNL A   1      38.308  31.118  30.719  1.00  0.00     0.037 A 
ATOM     59  C   UNL A   1      44.990  31.694  30.495  1.00  0.00     0.049 A 
ATOM     60  C   UNL A   1      39.376  31.856  31.434  1.00  0.00     0.074 A 
ATOM     61  C   UNL A   1      45.637  30.684  31.179  1.00  0.00     0.029 A 
ATOM     62  N   UNL A   1      44.129  32.264  31.395  1.00  0.00    -0.354 N 
ATOM     63  N   UNL A   1      40.027  31.392  32.463  1.00  0.00    -0.248 NA
ATOM     64  C   UNL A   1      39.989  32.995  30.768  1.00  0.00     0.031 C 
ATOM     65  C   UNL A   1      44.807  30.408  32.305  1.00  0.00     0.029 A 
ATOM     66  C   UNL A   1      43.721  31.282  32.256  1.00  0.00     0.049 A 
ATOM     67  H   UNL A   1      43.852  33.209  31.418  1.00  0.00     0.167 HD
ATOM     68  C   UNL A   1      41.312  31.890  32.319  1.00  0.00     0.074 A 
ATOM     69  C   UNL A   1      41.195  32.964  31.339  1.00  0.00     0.031 C 
ATOM     70  C   UNL A   1      42.386  31.203  32.800  1.00  0.00     0.037 A 
BRANCH  57  71
ATOM     71  C   UNL A   1      45.086  33.510  28.676  1.00  0.00     0.064 A 
ATOM     72  C   UNL A   1      43.964  34.306  28.357  1.00  0.00     0.173 A 
ATOM     73  C   UNL A   1      46.328  34.011  28.236  1.00  0.00     0.173 A 
ATOM     74  F   UNL A   1      42.729  33.932  28.728  1.00  0.00    -0.203 F 
ATOM     75  C   UNL A   1      44.068  35.446  27.557  1.00  0.00     0.198 A 
ATOM     76  C   UNL A   1      46.433  35.179  27.481  1.00  0.00     0.198 A 
ATOM     77  F   UNL A   1      47.471  33.341  28.417  1.00  0.00    -0.203 F 
ATOM     78  F   UNL A   1      42.958  36.084  27.158  1.00  0.00    -0.200 F 
ATOM     79  C   UNL A   1      45.302  35.874  27.107  1.00  0.00     0.200 A 
ATOM     80  F   UNL A   1      47.638  35.573  27.044  1.00  0.00    -0.200 F 
ATOM     81  F   UNL A   1      45.399  36.921  26.278  1.00  0.00    -0.200 F 
ENDBRANCH  57  71
BRANCH  58  82
ATOM     82  C   UNL A   1      36.960  31.690  30.493  1.00  0.00     0.064 A 
ATOM     83  C   UNL A   1      36.018  31.767  31.532  1.00  0.00     0.173 A 
ATOM     84  C   UNL A   1      36.671  32.432  29.330  1.00  0.00     0.173 A 
ATOM     85  F   UNL A   1      36.238  31.128  32.690  1.00  0.00    -0.203 F 
ATOM     86  C   UNL A   1      34.873  32.564  31.426  1.00  0.00     0.198 A 
ATOM     87  C   UNL A   1      35.524  33.219  29.223  1.00  0.00     0.198 A 
ATOM     88  F   UNL A   1      37.545  32.489  28.315  1.00  0.00    -0.203 F 
ATOM     89  F   UNL A   1      34.033  32.668  32.465  1.00  0.00    -0.200 F 
ATOM     90  C   UNL A   1      34.634  33.297  30.275  1.00  0.00     0.200 A 
ATOM     91  F   UNL A   1      35.325  33.953  28.119  1.00  0.00    -0.200 F 
ATOM     92  F   UNL A   1      33.572  34.111  30.199  1.00  0.00    -0.200 F 
ENDBRANCH  58  82
BRANCH  70  93
ATOM     93  C   UNL A   1      42.134  30.090  33.772  1.00  0.00     0.064 A 
ATOM     94  C   UNL A   1      41.760  28.790  33.394  1.00  0.00     0.173 A 
ATOM     95  C   UNL A   1      42.465  30.306  35.118  1.00  0.00     0.173 A 
ATOM     96  F   UNL A   1      41.520  28.488  32.112  1.00  0.00    -0.203 F 
ATOM     97  C   UNL A   1      41.700  27.760  34.330  1.00  0.00     0.198 A 
ATOM     98  C   UNL A   1      42.439  29.268  36.042  1.00  0.00     0.198 A 
ATOM     99  F   UNL A   1      42.881  31.517  35.521  1.00  0.00    -0.203 F 
ATOM    100  F   UNL A   1      41.346  26.524  33.947  1.00  0.00    -0.200 F 
ATOM    101  C   UNL A   1      42.051  27.997  35.649  1.00  0.00     0.200 A 
ATOM    102  F   UNL A   1      42.829  29.489  37.305  1.00  0.00    -0.200 F 
ATOM    103  F   UNL A   1      42.050  26.992  36.537  1.00  0.00    -0.200 F 
ENDBRANCH  70  93
ENDBRANCH  44  45
ENDBRANCH  36  39
ENDBRANCH  34  35
ENDBRANCH  33  34
ENDBRANCH  32  33
ENDBRANCH   1  32
TORSDOF 16
ENDMDL
MODEL 2
REMARK VINA RESULT:     -13.0      1.431      2.274
REMARK SMILES C[C@@H]1Cc2ccccc2N1C(=O)CSc1ncc(C(=O)NCCCCNC(=O)c2ccc(-c3c4nc(c(-c5c(F)c(F)c(F)c(F)c5F)c5ccc([nH]5)c(-c5c(F)c(F)c(F)c(F)c5F)c5nc(c(-c6c(F)c(F)c(F)c(F)c6F)c6ccc3[nH]6)C=C5)C=C4)cc2)n1-c1ccc(F)cc1
REMARK SMILES IDX 22 1 21 2 19 3 20 4 18 6 15 7 16 8 92 9 17 10 14 11 13 12
REMARK SMILES IDX 11 13 12 14 10 15 1 16 2 17 3 18 4 19 9 20 5 21 8 22 6 23
REMARK SMILES IDX 7 24 93 25 94 26 99 27 95 28 98 29 96 30 97 31 23 32 24 33
REMARK SMILES IDX 25 34 26 35 27 36 28 38 29 39 30 40 91 41 31 42 90 43 32 44
REMARK SMILES IDX 33 45 34 46 84 47 35 48 89 49 83 50 85 51 36 52 88 53 82 54
REMARK SMILES IDX 81 55 37 57 69 58 49 59 68 60 50 61 53 62 67 63 86 64 51 65
REMARK SMILES IDX 52 66 66 68 87 69 54 70 38 71 39 72 47 73 40 74 41 75 45 76
REMARK SMILES IDX 48 77 42 78 43 79 46 80 44 81 70 82 71 83 79 84 72 85 73 86
REMARK SMILES IDX 77 87 80 88 74 89 75 90 78 91 76 92 55 93 56 94 64 95 57 96
REMARK SMILES IDX 58 97 62 98 65 99 59 100 60 101 63 102 61 103
REMARK H PARENT 21 5 26 37 85 56 53 67
REMARK Flexibility Score: inf
ROOT
ATOM      1  C   UNL A   1      37.538  21.830  25.717  1.00  0.00     0.116 C 
ENDROOT
BRANCH   1   2
ATOM      2  N   UNL A   1      37.184  22.171  24.356  1.00  0.00    -0.351 N 
ATOM      3  C   UNL A   1      36.176  22.928  23.805  1.00  0.00     0.269 C 
ATOM      4  O   UNL A   1      36.293  23.116  22.604  1.00  0.00    -0.268 OA
ATOM      5  H   UNL A   1      37.791  21.782  23.685  1.00  0.00     0.163 HD
BRANCH   3   6
ATOM      6  C   UNL A   1      35.108  23.482  24.616  1.00  0.00     0.132 A 
ATOM      7  C   UNL A   1      33.056  24.046  25.266  1.00  0.00     0.173 A 
ATOM      8  N   UNL A   1      33.842  24.890  25.885  1.00  0.00    -0.230 NA
ATOM      9  N   UNL A   1      33.768  23.059  24.594  1.00  0.00    -0.283 N 
ATOM     10  C   UNL A   1      35.103  24.507  25.544  1.00  0.00     0.146 A 
BRANCH   7  11
ATOM     11  S   UNL A   1      31.337  24.128  25.392  1.00  0.00    -0.078 SA
BRANCH  11  12
ATOM     12  C   UNL A   1      30.847  24.829  23.796  1.00  0.00     0.178 C 
BRANCH  12  13
ATOM     13  C   UNL A   1      30.791  26.345  23.732  1.00  0.00     0.237 C 
ATOM     14  O   UNL A   1      29.703  26.865  23.443  1.00  0.00    -0.274 OA
BRANCH  13  15
ATOM     15  N   UNL A   1      31.875  27.149  24.042  1.00  0.00    -0.308 N 
ATOM     16  C   UNL A   1      33.458  26.324  22.229  1.00  0.00     0.032 C 
ATOM     17  C   UNL A   1      32.868  27.514  22.990  1.00  0.00     0.092 C 
ATOM     18  C   UNL A   1      33.997  28.299  23.686  1.00  0.00     0.063 C 
ATOM     19  C   UNL A   1      33.494  28.408  25.086  1.00  0.00    -0.022 A 
ATOM     20  C   UNL A   1      32.244  27.807  25.238  1.00  0.00     0.047 A 
ATOM     21  C   UNL A   1      34.151  29.029  26.142  1.00  0.00     0.006 A 
ATOM     22  C   UNL A   1      31.579  27.948  26.445  1.00  0.00     0.026 A 
ATOM     23  C   UNL A   1      33.518  29.081  27.379  1.00  0.00     0.000 A 
ATOM     24  C   UNL A   1      32.229  28.563  27.523  1.00  0.00     0.002 A 
ENDBRANCH  13  15
ENDBRANCH  12  13
ENDBRANCH  11  12
ENDBRANCH   7  11
BRANCH   9  25
ATOM     25  C   UNL A   1      33.265  21.812  24.115  1.00  0.00     0.049 A 
ATOM     26  C   UNL A   1      33.497  20.615  24.808  1.00  0.00     0.030 A 
ATOM     27  C   UNL A   1      32.571  21.785  22.894  1.00  0.00     0.030 A 
ATOM     28  C   UNL A   1      33.035  19.405  24.278  1.00  0.00     0.041 A 
ATOM     29  C   UNL A   1      32.111  20.574  22.374  1.00  0.00     0.041 A 
ATOM     30  C   UNL A   1      32.349  19.396  23.069  1.00  0.00     0.123 A 
ATOM     31  F   UNL A   1      31.908  18.234  22.569  1.00  0.00    -0.207 F 
ENDBRANCH   9  25
ENDBRANCH   3   6
ENDBRANCH   1   2
BRANCH   1  32
ATOM     32  C   UNL A   1      38.974  22.243  26.033  1.00  0.00     0.023 C 
BRANCH  32  33
ATOM     33  C   UNL A   1      39.889  21.081  26.459  1.00  0.00     0.023 C 
BRANCH  33  34
ATOM     34  C   UNL A   1      41.217  21.511  27.092  1.00  0.00     0.116 C 
BRANCH  34  35
ATOM     35  N   UNL A   1      42.161  22.043  26.128  1.00  0.00    -0.352 N 
ATOM     36  C   UNL A   1      42.677  23.277  25.854  1.00  0.00     0.251 C 
ATOM     37  H   UNL A   1      42.514  21.347  25.528  1.00  0.00     0.163 HD
ATOM     38  O   UNL A   1      43.557  23.311  24.991  1.00  0.00    -0.269 OA
BRANCH  36  39
ATOM     39  C   UNL A   1      42.244  24.557  26.477  1.00  0.00     0.039 A 
ATOM     40  C   UNL A   1      41.369  25.481  25.909  1.00  0.00     0.014 A 
ATOM     41  C   UNL A   1      42.826  24.867  27.725  1.00  0.00     0.014 A 
ATOM     42  C   UNL A   1      41.128  26.700  26.536  1.00  0.00     0.010 A 
ATOM     43  C   UNL A   1      42.584  26.083  28.358  1.00  0.00     0.010 A 
ATOM     44  C   UNL A   1      41.760  27.017  27.744  1.00  0.00    -0.014 A 
BRANCH  44  45
ATOM     45  C   UNL A   1      41.467  28.325  28.325  1.00  0.00     0.031 A 
ATOM     46  C   UNL A   1      42.491  29.380  28.080  1.00  0.00     0.074 A 
ATOM     47  C   UNL A   1      40.346  28.616  29.014  1.00  0.00     0.049 A 
ATOM     48  N   UNL A   1      43.229  29.991  28.950  1.00  0.00    -0.248 NA
ATOM     49  C   UNL A   1      42.791  29.734  26.686  1.00  0.00     0.031 C 
ATOM     50  C   UNL A   1      39.123  27.821  29.143  1.00  0.00     0.029 A 
ATOM     51  N   UNL A   1      40.047  29.759  29.701  1.00  0.00    -0.354 N 
ATOM     52  C   UNL A   1      43.993  30.913  28.236  1.00  0.00     0.074 A 
ATOM     53  C   UNL A   1      43.758  30.641  26.841  1.00  0.00     0.031 C 
ATOM     54  C   UNL A   1      38.148  28.587  29.682  1.00  0.00     0.029 A 
ATOM     55  C   UNL A   1      38.716  29.867  30.069  1.00  0.00     0.049 A 
ATOM     56  H   UNL A   1      40.720  30.445  29.915  1.00  0.00     0.167 HD
ATOM     57  C   UNL A   1      44.631  31.944  28.858  1.00  0.00     0.037 A 
ATOM     58  C   UNL A   1      38.113  30.954  30.605  1.00  0.00     0.037 A 
ATOM     59  C   UNL A   1      44.774  31.698  30.267  1.00  0.00     0.049 A 
ATOM     60  C   UNL A   1      39.163  31.787  31.236  1.00  0.00     0.074 A 
ATOM     61  C   UNL A   1      45.454  30.778  31.039  1.00  0.00     0.029 A 
ATOM     62  N   UNL A   1      43.902  32.327  31.115  1.00  0.00    -0.354 N 
ATOM     63  N   UNL A   1      39.834  31.444  32.299  1.00  0.00    -0.248 NA
ATOM     64  C   UNL A   1      39.739  32.875  30.458  1.00  0.00     0.031 C 
ATOM     65  C   UNL A   1      44.641  30.587  32.194  1.00  0.00     0.029 A 
ATOM     66  C   UNL A   1      43.529  31.421  32.070  1.00  0.00     0.049 A 
ATOM     67  H   UNL A   1      43.598  33.261  31.050  1.00  0.00     0.167 HD
ATOM     68  C   UNL A   1      41.103  31.963  32.096  1.00  0.00     0.074 A 
ATOM     69  C   UNL A   1      40.948  32.933  31.018  1.00  0.00     0.031 C 
ATOM     70  C   UNL A   1      42.200  31.356  32.631  1.00  0.00     0.037 A 
BRANCH  57  71
ATOM     71  C   UNL A   1      44.806  33.332  28.281  1.00  0.00     0.064 A 
ATOM     72  C   UNL A   1      46.110  33.789  27.985  1.00  0.00     0.173 A 
ATOM     73  C   UNL A   1      43.811  34.329  28.329  1.00  0.00     0.173 A 
ATOM     74  F   UNL A   1      47.137  32.930  27.908  1.00  0.00    -0.203 F 
ATOM     75  C   UNL A   1      46.408  35.149  27.868  1.00  0.00     0.198 A 
ATOM     76  C   UNL A   1      44.106  35.683  28.160  1.00  0.00     0.198 A 
ATOM     77  F   UNL A   1      42.543  34.056  28.650  1.00  0.00    -0.203 F 
ATOM     78  F   UNL A   1      47.684  35.541  27.735  1.00  0.00    -0.200 F 
ATOM     79  C   UNL A   1      45.409  36.096  27.970  1.00  0.00     0.200 A 
ATOM     80  F   UNL A   1      43.124  36.589  28.273  1.00  0.00    -0.200 F 
ATOM     81  F   UNL A   1      45.701  37.402  27.935  1.00  0.00    -0.200 F 
ENDBRANCH  57  71
BRANCH  58  82
ATOM     82  C   UNL A   1      36.747  31.462  30.337  1.00  0.00     0.064 A 
ATOM     83  C   UNL A   1      35.963  32.014  31.362  1.00  0.00     0.173 A 
ATOM     84  C   UNL A   1      36.299  31.679  29.018  1.00  0.00     0.173 A 
ATOM     85  F   UNL A   1      36.343  31.894  32.642  1.00  0.00    -0.203 F 
ATOM     86  C   UNL A   1      34.815  32.766  31.083  1.00  0.00     0.198 A 
ATOM     87  C   UNL A   1      35.149  32.420  28.743  1.00  0.00     0.198 A 
ATOM     88  F   UNL A   1      37.020  31.263  27.968  1.00  0.00    -0.203 F 
ATOM     89  F   UNL A   1      34.130  33.335  32.084  1.00  0.00    -0.200 F 
ATOM     90  C   UNL A   1      34.416  32.976  29.773  1.00  0.00     0.200 A 
ATOM     91  F   UNL A   1      34.797  32.648  27.470  1.00  0.00    -0.200 F 
ATOM     92  F   UNL A   1      33.355  33.749  29.503  1.00  0.00    -0.200 F 
ENDBRANCH  58  82
BRANCH  70  93
ATOM     93  C   UNL A   1      41.987  30.335  33.708  1.00  0.00     0.064 A 
ATOM     94  C   UNL A   1      41.697  28.983  33.459  1.00  0.00     0.173 A 
ATOM     95  C   UNL A   1      42.270  30.706  35.031  1.00  0.00     0.173 A 
ATOM     96  F   UNL A   1      41.508  28.539  32.210  1.00  0.00    -0.203 F 
ATOM     97  C   UNL A   1      41.672  28.052  34.495  1.00  0.00     0.198 A 
ATOM     98  C   UNL A   1      42.280  29.768  36.057  1.00  0.00     0.198 A 
ATOM     99  F   UNL A   1      42.606  31.975  35.314  1.00  0.00    -0.203 F 
ATOM    100  F   UNL A   1      41.399  26.765  34.235  1.00  0.00    -0.200 F 
ATOM    101  C   UNL A   1      41.975  28.443  35.789  1.00  0.00     0.200 A 
ATOM    102  F   UNL A   1      42.623  30.140  37.297  1.00  0.00    -0.200 F 
ATOM    103  F   UNL A   1      42.009  27.535  36.776  1.00  0.00    -0.200 F 
ENDBRANCH  70  93
ENDBRANCH  44  45
ENDBRANCH  36  39
ENDBRANCH  34  35
ENDBRANCH  33  34
ENDBRANCH  32  33
ENDBRANCH   1  32
TORSDOF 16
ENDMDL
MODEL 3
REMARK VINA RESULT:     -12.9      1.473      2.216
REMARK SMILES C[C@@H]1Cc2ccccc2N1C(=O)CSc1ncc(C(=O)NCCCCNC(=O)c2ccc(-c3c4nc(c(-c5c(F)c(F)c(F)c(F)c5F)c5ccc([nH]5)c(-c5c(F)c(F)c(F)c(F)c5F)c5nc(c(-c6c(F)c(F)c(F)c(F)c6F)c6ccc3[nH]6)C=C5)C=C4)cc2)n1-c1ccc(F)cc1
REMARK SMILES IDX 22 1 21 2 19 3 20 4 18 6 15 7 16 8 92 9 17 10 14 11 13 12
REMARK SMILES IDX 11 13 12 14 10 15 1 16 2 17 3 18 4 19 9 20 5 21 8 22 6 23
REMARK SMILES IDX 7 24 93 25 94 26 99 27 95 28 98 29 96 30 97 31 23 32 24 33
REMARK SMILES IDX 25 34 26 35 27 36 28 38 29 39 30 40 91 41 31 42 90 43 32 44
REMARK SMILES IDX 33 45 34 46 84 47 35 48 89 49 83 50 85 51 36 52 88 53 82 54
REMARK SMILES IDX 81 55 37 57 69 58 49 59 68 60 50 61 53 62 67 63 86 64 51 65
REMARK SMILES IDX 52 66 66 68 87 69 54 70 38 71 39 72 47 73 40 74 41 75 45 76
REMARK SMILES IDX 48 77 42 78 43 79 46 80 44 81 70 82 71 83 79 84 72 85 73 86
REMARK SMILES IDX 77 87 80 88 74 89 75 90 78 91 76 92 55 93 56 94 64 95 57 96
REMARK SMILES IDX 58 97 62 98 65 99 59 100 60 101 63 102 61 103
REMARK H PARENT 21 5 26 37 85 56 53 67
REMARK Flexibility Score: inf
ROOT
ATOM      1  C   UNL A   1      37.483  21.446  25.420  1.00  0.00     0.116 C 
ENDROOT
BRANCH   1   2
ATOM      2  N   UNL A   1      37.078  22.002  24.146  1.00  0.00    -0.351 N 
ATOM      3  C   UNL A   1      36.071  22.859  23.768  1.00  0.00     0.269 C 
ATOM      4  O   UNL A   1      36.139  23.226  22.605  1.00  0.00    -0.268 OA
ATOM      5  H   UNL A   1      37.640  21.705  23.394  1.00  0.00     0.163 HD
BRANCH   3   6
ATOM      6  C   UNL A   1      35.060  23.309  24.707  1.00  0.00     0.132 A 
ATOM      7  C   UNL A   1      33.056  23.676  25.602  1.00  0.00     0.173 A 
ATOM      8  N   UNL A   1      33.828  24.588  26.135  1.00  0.00    -0.230 NA
ATOM      9  N   UNL A   1      33.772  22.762  24.837  1.00  0.00    -0.283 N 
ATOM     10  C   UNL A   1      35.070  24.326  25.642  1.00  0.00     0.146 A 
BRANCH   7  11
ATOM     11  S   UNL A   1      31.364  23.595  25.931  1.00  0.00    -0.078 SA
BRANCH  11  12
ATOM     12  C   UNL A   1      30.656  24.700  24.683  1.00  0.00     0.178 C 
BRANCH  12  13
ATOM     13  C   UNL A   1      30.580  26.166  25.070  1.00  0.00     0.237 C 
ATOM     14  O   UNL A   1      30.445  26.434  26.273  1.00  0.00    -0.274 OA
BRANCH  13  15
ATOM     15  N   UNL A   1      30.719  27.192  24.150  1.00  0.00    -0.308 N 
ATOM     16  C   UNL A   1      33.091  27.890  24.752  1.00  0.00     0.032 C 
ATOM     17  C   UNL A   1      32.071  27.580  23.653  1.00  0.00     0.092 C 
ATOM     18  C   UNL A   1      31.885  28.818  22.753  1.00  0.00     0.063 C 
ATOM     19  C   UNL A   1      30.401  28.973  22.727  1.00  0.00    -0.022 A 
ATOM     20  C   UNL A   1      29.762  27.982  23.473  1.00  0.00     0.047 A 
ATOM     21  C   UNL A   1      29.698  29.963  22.052  1.00  0.00     0.006 A 
ATOM     22  C   UNL A   1      28.380  27.906  23.432  1.00  0.00     0.026 A 
ATOM     23  C   UNL A   1      28.308  29.936  22.096  1.00  0.00     0.000 A 
ATOM     24  C   UNL A   1      27.652  28.899  22.764  1.00  0.00     0.002 A 
ENDBRANCH  13  15
ENDBRANCH  12  13
ENDBRANCH  11  12
ENDBRANCH   7  11
BRANCH   9  25
ATOM     25  C   UNL A   1      33.334  21.474  24.405  1.00  0.00     0.049 A 
ATOM     26  C   UNL A   1      33.710  20.306  25.084  1.00  0.00     0.030 A 
ATOM     27  C   UNL A   1      32.555  21.379  23.240  1.00  0.00     0.030 A 
ATOM     28  C   UNL A   1      33.306  19.058  24.598  1.00  0.00     0.041 A 
ATOM     29  C   UNL A   1      32.153  20.130  22.763  1.00  0.00     0.041 A 
ATOM     30  C   UNL A   1      32.534  18.982  23.444  1.00  0.00     0.123 A 
ATOM     31  F   UNL A   1      32.150  17.784  22.984  1.00  0.00    -0.207 F 
ENDBRANCH   9  25
ENDBRANCH   3   6
ENDBRANCH   1   2
BRANCH   1  32
ATOM     32  C   UNL A   1      38.759  22.112  25.930  1.00  0.00     0.023 C 
BRANCH  32  33
ATOM     33  C   UNL A   1      39.884  21.128  26.299  1.00  0.00     0.023 C 
BRANCH  33  34
ATOM     34  C   UNL A   1      41.132  21.780  26.904  1.00  0.00     0.116 C 
BRANCH  34  35
ATOM     35  N   UNL A   1      42.024  22.336  25.906  1.00  0.00    -0.352 N 
ATOM     36  C   UNL A   1      42.530  23.577  25.638  1.00  0.00     0.251 C 
ATOM     37  H   UNL A   1      42.342  21.657  25.269  1.00  0.00     0.163 HD
ATOM     38  O   UNL A   1      43.362  23.632  24.730  1.00  0.00    -0.269 OA
BRANCH  36  39
ATOM     39  C   UNL A   1      42.135  24.840  26.319  1.00  0.00     0.039 A 
ATOM     40  C   UNL A   1      41.288  25.814  25.795  1.00  0.00     0.014 A 
ATOM     41  C   UNL A   1      42.728  25.076  27.578  1.00  0.00     0.014 A 
ATOM     42  C   UNL A   1      41.084  27.010  26.476  1.00  0.00     0.010 A 
ATOM     43  C   UNL A   1      42.524  26.270  28.266  1.00  0.00     0.010 A 
ATOM     44  C   UNL A   1      41.727  27.254  27.695  1.00  0.00    -0.014 A 
BRANCH  44  45
ATOM     45  C   UNL A   1      41.474  28.543  28.335  1.00  0.00     0.031 A 
ATOM     46  C   UNL A   1      42.540  29.569  28.154  1.00  0.00     0.074 A 
ATOM     47  C   UNL A   1      40.355  28.843  29.023  1.00  0.00     0.049 A 
ATOM     48  N   UNL A   1      43.287  30.110  29.061  1.00  0.00    -0.248 NA
ATOM     49  C   UNL A   1      42.872  29.978  26.782  1.00  0.00     0.031 C 
ATOM     50  C   UNL A   1      39.102  28.088  29.099  1.00  0.00     0.029 A 
ATOM     51  N   UNL A   1      40.088  29.962  29.760  1.00  0.00    -0.354 N 
ATOM     52  C   UNL A   1      44.095  31.036  28.402  1.00  0.00     0.074 A 
ATOM     53  C   UNL A   1      43.870  30.839  26.993  1.00  0.00     0.031 C 
ATOM     54  C   UNL A   1      38.148  28.863  29.662  1.00  0.00     0.029 A 
ATOM     55  C   UNL A   1      38.757  30.102  30.116  1.00  0.00     0.049 A 
ATOM     56  H   UNL A   1      40.783  30.611  30.016  1.00  0.00     0.167 HD
ATOM     57  C   UNL A   1      44.761  32.012  29.081  1.00  0.00     0.037 A 
ATOM     58  C   UNL A   1      38.187  31.184  30.697  1.00  0.00     0.037 A 
ATOM     59  C   UNL A   1      44.875  31.694  30.478  1.00  0.00     0.049 A 
ATOM     60  C   UNL A   1      39.257  31.947  31.380  1.00  0.00     0.074 A 
ATOM     61  C   UNL A   1      45.509  30.713  31.214  1.00  0.00     0.029 A 
ATOM     62  N   UNL A   1      44.014  32.314  31.345  1.00  0.00    -0.354 N 
ATOM     63  N   UNL A   1      39.900  31.528  32.434  1.00  0.00    -0.248 NA
ATOM     64  C   UNL A   1      39.884  33.047  30.662  1.00  0.00     0.031 C 
ATOM     65  C   UNL A   1      44.673  30.498  32.348  1.00  0.00     0.029 A 
ATOM     66  C   UNL A   1      43.594  31.378  32.250  1.00  0.00     0.049 A 
ATOM     67  H   UNL A   1      43.746  33.261  31.321  1.00  0.00     0.167 HD
ATOM     68  C   UNL A   1      41.190  32.008  32.271  1.00  0.00     0.074 A 
ATOM     69  C   UNL A   1      41.086  33.034  31.240  1.00  0.00     0.031 C 
ATOM     70  C   UNL A   1      42.256  31.336  32.791  1.00  0.00     0.037 A 
BRANCH  57  71
ATOM     71  C   UNL A   1      44.995  33.418  28.574  1.00  0.00     0.064 A 
ATOM     72  C   UNL A   1      43.878  34.228  28.268  1.00  0.00     0.173 A 
ATOM     73  C   UNL A   1      46.228  33.870  28.063  1.00  0.00     0.173 A 
ATOM     74  F   UNL A   1      42.652  33.900  28.705  1.00  0.00    -0.203 F 
ATOM     75  C   UNL A   1      43.975  35.332  27.418  1.00  0.00     0.198 A 
ATOM     76  C   UNL A   1      46.328  35.004  27.256  1.00  0.00     0.198 A 
ATOM     77  F   UNL A   1      47.362  33.180  28.224  1.00  0.00    -0.203 F 
ATOM     78  F   UNL A   1      42.864  35.980  27.039  1.00  0.00    -0.200 F 
ATOM     79  C   UNL A   1      45.198  35.711  26.900  1.00  0.00     0.200 A 
ATOM     80  F   UNL A   1      47.522  35.350  26.754  1.00  0.00    -0.200 F 
ATOM     81  F   UNL A   1      45.285  36.720  26.025  1.00  0.00    -0.200 F 
ENDBRANCH  57  71
BRANCH  58  82
ATOM     82  C   UNL A   1      36.845  31.755  30.436  1.00  0.00     0.064 A 
ATOM     83  C   UNL A   1      35.944  32.004  31.484  1.00  0.00     0.173 A 
ATOM     84  C   UNL A   1      36.530  32.333  29.189  1.00  0.00     0.173 A 
ATOM     85  F   UNL A   1      36.192  31.530  32.713  1.00  0.00    -0.203 F 
ATOM     86  C   UNL A   1      34.814  32.810  31.304  1.00  0.00     0.198 A 
ATOM     87  C   UNL A   1      35.399  33.128  29.009  1.00  0.00     0.198 A 
ATOM     88  F   UNL A   1      37.367  32.221  28.148  1.00  0.00    -0.203 F 
ATOM     89  F   UNL A   1      34.016  33.083  32.345  1.00  0.00    -0.200 F 
ATOM     90  C   UNL A   1      34.549  33.380  30.069  1.00  0.00     0.200 A 
ATOM     91  F   UNL A   1      35.175  33.704  27.819  1.00  0.00    -0.200 F 
ATOM     92  F   UNL A   1      33.504  34.204  29.913  1.00  0.00    -0.200 F 
ENDBRANCH  58  82
BRANCH  70  93
ATOM     93  C   UNL A   1      41.990  30.273  33.815  1.00  0.00     0.064 A 
ATOM     94  C   UNL A   1      41.607  28.960  33.498  1.00  0.00     0.173 A 
ATOM     95  C   UNL A   1      42.317  30.552  35.150  1.00  0.00     0.173 A 
ATOM     96  F   UNL A   1      41.370  28.598  32.230  1.00  0.00    -0.203 F 
ATOM     97  C   UNL A   1      41.534  27.977  34.482  1.00  0.00     0.198 A 
ATOM     98  C   UNL A   1      42.277  29.560  36.124  1.00  0.00     0.198 A 
ATOM     99  F   UNL A   1      42.740  31.778  35.496  1.00  0.00    -0.203 F 
ATOM    100  F   UNL A   1      41.172  26.727  34.158  1.00  0.00    -0.200 F 
ATOM    101  C   UNL A   1      41.881  28.275  35.790  1.00  0.00     0.200 A 
ATOM    102  F   UNL A   1      42.663  29.839  37.375  1.00  0.00    -0.200 F 
ATOM    103  F   UNL A   1      41.867  27.314  36.726  1.00  0.00    -0.200 F 
ENDBRANCH  70  93
ENDBRANCH  44  45
ENDBRANCH  36  39
ENDBRANCH  34  35
ENDBRANCH  33  34
ENDBRANCH  32  33
ENDBRANCH   1  32
TORSDOF 16
ENDMDL
