MODEL 1
REMARK VINA RESULT:     -14.2      0.000      0.000
REMARK SMILES CC1(C)Oc2ccc(NC(=O)[C@H]3CC=CC[C@@H]3C(=O)NCCCCNC(=O)c3ccc(-c4c5nc(c(-c6c(F)c(F)c(F)c(F)c6F)c6ccc([nH]6)c(-c6c(F)c(F)c(F)c(F)c6F)c6nc(c(-c7c(F)c(F)c(F)c(F)c7F)c7ccc4[nH]7)C=C6)C=C5)cc3)cc2NC1=O
REMARK SMILES IDX 22 1 21 2 20 3 18 4 19 5 17 7 12 8 13 9 14 10 16 11 15 12
REMARK SMILES IDX 10 13 9 14 11 16 8 17 1 18 2 19 3 20 4 21 94 22 5 23 93 24
REMARK SMILES IDX 95 25 6 26 92 27 7 29 91 30 23 31 24 32 25 33 26 34 27 36
REMARK SMILES IDX 28 37 29 38 90 39 30 40 89 41 31 42 32 43 33 44 83 45 34 46
REMARK SMILES IDX 88 47 82 48 84 49 35 50 87 51 81 52 80 53 36 55 68 56 48 57
REMARK SMILES IDX 67 58 49 59 52 60 66 61 85 62 50 63 51 64 65 66 86 67 53 68
REMARK SMILES IDX 37 69 38 70 46 71 39 72 40 73 44 74 47 75 41 76 42 77 45 78
REMARK SMILES IDX 43 79 69 80 70 81 78 82 71 83 72 84 76 85 79 86 73 87 74 88
REMARK SMILES IDX 77 89 75 90 54 91 55 92 63 93 56 94 57 95 61 96 64 97 58 98
REMARK SMILES IDX 59 99 62 100 60 101
REMARK H PARENT 20 6 9 15 93 28 25 35 84 54 52 65
REMARK Flexibility Score: inf
ROOT
ATOM      1  C   UNL A   1      31.475  27.453  27.095  1.00  0.00     0.023 C 
ENDROOT
BRANCH   1   2
ATOM      2  C   UNL A   1      30.744  26.199  26.609  1.00  0.00     0.116 C 
BRANCH   2   3
ATOM      3  N   UNL A   1      31.504  24.999  26.882  1.00  0.00    -0.356 N 
ATOM      4  C   UNL A   1      32.554  24.404  26.267  1.00  0.00     0.224 C 
ATOM      5  O   UNL A   1      33.010  23.425  26.864  1.00  0.00    -0.275 OA
ATOM      6  H   UNL A   1      31.193  24.514  27.680  1.00  0.00     0.163 HD
BRANCH   4   7
ATOM      7  C   UNL A   1      33.119  24.895  24.925  1.00  0.00     0.095 C 
ATOM      8  C   UNL A   1      32.579  24.036  23.756  1.00  0.00     0.095 C 
ATOM      9  C   UNL A   1      33.074  22.569  23.882  1.00  0.00     0.041 C 
ATOM     10  C   UNL A   1      34.522  22.447  24.275  1.00  0.00    -0.030 C 
ATOM     11  C   UNL A   1      34.662  24.839  24.995  1.00  0.00     0.041 C 
ATOM     12  C   UNL A   1      35.243  23.475  24.746  1.00  0.00    -0.030 C 
BRANCH   8  13
ATOM     13  C   UNL A   1      33.026  24.559  22.385  1.00  0.00     0.228 C 
ATOM     14  N   UNL A   1      32.701  25.759  21.853  1.00  0.00    -0.326 N 
ATOM     15  H   UNL A   1      33.004  25.822  20.918  1.00  0.00     0.169 HD
ATOM     16  O   UNL A   1      33.722  23.866  21.630  1.00  0.00    -0.274 OA
BRANCH  14  17
ATOM     17  C   UNL A   1      32.060  26.937  22.245  1.00  0.00     0.043 A 
ATOM     18  C   UNL A   1      27.710  31.414  23.446  1.00  0.00     0.067 C 
ATOM     19  C   UNL A   1      28.390  30.259  22.704  1.00  0.00     0.182 C 
ATOM     20  C   UNL A   1      28.169  30.442  21.191  1.00  0.00     0.067 C 
ATOM     21  O   UNL A   1      29.796  30.367  22.980  1.00  0.00    -0.476 OA
ATOM     22  C   UNL A   1      27.731  28.924  23.120  1.00  0.00     0.268 C 
ATOM     23  C   UNL A   1      30.500  29.212  22.774  1.00  0.00     0.144 A 
ATOM     24  N   UNL A   1      28.536  27.824  22.968  1.00  0.00    -0.319 N 
ATOM     25  O   UNL A   1      26.555  28.802  23.453  1.00  0.00    -0.270 OA
ATOM     26  C   UNL A   1      31.882  29.319  22.641  1.00  0.00     0.051 A 
ATOM     27  C   UNL A   1      29.903  27.956  22.724  1.00  0.00     0.086 A 
ATOM     28  H   UNL A   1      28.142  26.924  23.034  1.00  0.00     0.170 HD
ATOM     29  C   UNL A   1      32.661  28.181  22.385  1.00  0.00     0.030 A 
ATOM     30  C   UNL A   1      30.674  26.828  22.456  1.00  0.00     0.056 A 
ENDBRANCH  14  17
ENDBRANCH   8  13
ENDBRANCH   4   7
ENDBRANCH   2   3
ENDBRANCH   1   2
BRANCH   1  31
ATOM     31  C   UNL A   1      31.411  28.665  26.159  1.00  0.00     0.023 C 
BRANCH  31  32
ATOM     32  C   UNL A   1      32.663  29.536  26.104  1.00  0.00     0.116 C 
BRANCH  32  33
ATOM     33  N   UNL A   1      32.420  30.916  26.491  1.00  0.00    -0.352 N 
ATOM     34  C   UNL A   1      33.191  31.766  27.255  1.00  0.00     0.251 C 
ATOM     35  H   UNL A   1      31.580  31.303  26.156  1.00  0.00     0.163 HD
ATOM     36  O   UNL A   1      32.758  32.867  27.567  1.00  0.00    -0.269 OA
BRANCH  34  37
ATOM     37  C   UNL A   1      34.522  31.333  27.742  1.00  0.00     0.039 A 
ATOM     38  C   UNL A   1      34.791  29.994  28.026  1.00  0.00     0.014 A 
ATOM     39  C   UNL A   1      35.518  32.299  27.933  1.00  0.00     0.014 A 
ATOM     40  C   UNL A   1      35.980  29.647  28.666  1.00  0.00     0.010 A 
ATOM     41  C   UNL A   1      36.743  31.936  28.503  1.00  0.00     0.010 A 
ATOM     42  C   UNL A   1      36.961  30.617  28.930  1.00  0.00    -0.014 A 
BRANCH  42  43
ATOM     43  C   UNL A   1      38.185  30.237  29.686  1.00  0.00     0.031 A 
ATOM     44  C   UNL A   1      38.386  30.709  31.102  1.00  0.00     0.074 A 
ATOM     45  C   UNL A   1      39.085  29.407  29.125  1.00  0.00     0.049 A 
ATOM     46  N   UNL A   1      39.371  30.451  31.929  1.00  0.00    -0.248 NA
ATOM     47  C   UNL A   1      37.349  31.586  31.669  1.00  0.00     0.031 C 
ATOM     48  C   UNL A   1      38.998  28.867  27.768  1.00  0.00     0.029 A 
ATOM     49  N   UNL A   1      40.232  28.850  29.634  1.00  0.00    -0.354 N 
ATOM     50  C   UNL A   1      39.078  31.139  33.099  1.00  0.00     0.074 A 
ATOM     51  C   UNL A   1      37.842  31.855  32.871  1.00  0.00     0.031 C 
ATOM     52  C   UNL A   1      40.017  28.015  27.569  1.00  0.00     0.029 A 
ATOM     53  C   UNL A   1      40.857  27.991  28.762  1.00  0.00     0.049 A 
ATOM     54  H   UNL A   1      40.574  29.047  30.535  1.00  0.00     0.167 HD
ATOM     55  C   UNL A   1      39.768  31.159  34.265  1.00  0.00     0.037 A 
ATOM     56  C   UNL A   1      41.985  27.268  28.905  1.00  0.00     0.037 A 
ATOM     57  C   UNL A   1      40.985  30.428  34.506  1.00  0.00     0.049 A 
ATOM     58  C   UNL A   1      42.755  27.346  30.194  1.00  0.00     0.074 A 
ATOM     59  C   UNL A   1      41.742  30.373  35.664  1.00  0.00     0.029 A 
ATOM     60  N   UNL A   1      41.618  29.620  33.576  1.00  0.00    -0.354 N 
ATOM     61  N   UNL A   1      42.464  27.999  31.291  1.00  0.00    -0.248 NA
ATOM     62  C   UNL A   1      44.016  26.593  30.258  1.00  0.00     0.031 C 
ATOM     63  C   UNL A   1      42.854  29.562  35.422  1.00  0.00     0.029 A 
ATOM     64  C   UNL A   1      42.768  29.078  34.128  1.00  0.00     0.049 A 
ATOM     65  H   UNL A   1      41.300  29.455  32.659  1.00  0.00     0.167 HD
ATOM     66  C   UNL A   1      43.496  27.731  32.180  1.00  0.00     0.074 A 
ATOM     67  C   UNL A   1      44.412  26.836  31.501  1.00  0.00     0.031 C 
ATOM     68  C   UNL A   1      43.671  28.190  33.441  1.00  0.00     0.037 A 
BRANCH  55  69
ATOM     69  C   UNL A   1      39.228  31.999  35.386  1.00  0.00     0.064 A 
ATOM     70  C   UNL A   1      38.432  31.445  36.398  1.00  0.00     0.173 A 
ATOM     71  C   UNL A   1      39.578  33.355  35.491  1.00  0.00     0.173 A 
ATOM     72  F   UNL A   1      38.062  30.157  36.337  1.00  0.00    -0.203 F 
ATOM     73  C   UNL A   1      37.996  32.219  37.470  1.00  0.00     0.198 A 
ATOM     74  C   UNL A   1      39.160  34.119  36.577  1.00  0.00     0.198 A 
ATOM     75  F   UNL A   1      40.343  33.931  34.553  1.00  0.00    -0.203 F 
ATOM     76  F   UNL A   1      37.213  31.676  38.413  1.00  0.00    -0.200 F 
ATOM     77  C   UNL A   1      38.368  33.552  37.564  1.00  0.00     0.200 A 
ATOM     78  F   UNL A   1      39.530  35.404  36.673  1.00  0.00    -0.200 F 
ATOM     79  F   UNL A   1      37.961  34.291  38.606  1.00  0.00    -0.200 F 
ENDBRANCH  55  69
BRANCH  56  80
ATOM     80  C   UNL A   1      42.447  26.400  27.791  1.00  0.00     0.064 A 
ATOM     81  C   UNL A   1      41.979  25.086  27.664  1.00  0.00     0.173 A 
ATOM     82  C   UNL A   1      43.346  26.873  26.824  1.00  0.00     0.173 A 
ATOM     83  F   UNL A   1      41.136  24.584  28.577  1.00  0.00    -0.203 F 
ATOM     84  C   UNL A   1      42.397  24.275  26.610  1.00  0.00     0.198 A 
ATOM     85  C   UNL A   1      43.741  26.070  25.757  1.00  0.00     0.198 A 
ATOM     86  F   UNL A   1      43.822  28.125  26.903  1.00  0.00    -0.203 F 
ATOM     87  F   UNL A   1      41.958  23.011  26.528  1.00  0.00    -0.200 F 
ATOM     88  C   UNL A   1      43.269  24.769  25.654  1.00  0.00     0.200 A 
ATOM     89  F   UNL A   1      44.574  26.557  24.827  1.00  0.00    -0.200 F 
ATOM     90  F   UNL A   1      43.660  23.993  24.634  1.00  0.00    -0.200 F 
ENDBRANCH  56  80
BRANCH  68  91
ATOM     91  C   UNL A   1      44.892  27.732  34.182  1.00  0.00     0.064 A 
ATOM     92  C   UNL A   1      46.076  28.484  34.169  1.00  0.00     0.173 A 
ATOM     93  C   UNL A   1      44.858  26.570  34.967  1.00  0.00     0.173 A 
ATOM     94  F   UNL A   1      46.161  29.597  33.423  1.00  0.00    -0.203 F 
ATOM     95  C   UNL A   1      47.187  28.080  34.905  1.00  0.00     0.198 A 
ATOM     96  C   UNL A   1      45.962  26.182  35.720  1.00  0.00     0.198 A 
ATOM     97  F   UNL A   1      43.745  25.821  35.017  1.00  0.00    -0.203 F 
ATOM     98  F   UNL A   1      48.318  28.796  34.853  1.00  0.00    -0.200 F 
ATOM     99  C   UNL A   1      47.126  26.935  35.685  1.00  0.00     0.200 A 
ATOM    100  F   UNL A   1      45.898  25.083  36.484  1.00  0.00    -0.200 F 
ATOM    101  F   UNL A   1      48.193  26.556  36.404  1.00  0.00    -0.200 F 
ENDBRANCH  68  91
ENDBRANCH  42  43
ENDBRANCH  34  37
ENDBRANCH  32  33
ENDBRANCH  31  32
ENDBRANCH   1  31
TORSDOF 13
ENDMDL
MODEL 2
REMARK VINA RESULT:     -14.1      0.187      1.551
REMARK SMILES CC1(C)Oc2ccc(NC(=O)[C@H]3CC=CC[C@@H]3C(=O)NCCCCNC(=O)c3ccc(-c4c5nc(c(-c6c(F)c(F)c(F)c(F)c6F)c6ccc([nH]6)c(-c6c(F)c(F)c(F)c(F)c6F)c6nc(c(-c7c(F)c(F)c(F)c(F)c7F)c7ccc4[nH]7)C=C6)C=C5)cc3)cc2NC1=O
REMARK SMILES IDX 22 1 21 2 20 3 18 4 19 5 17 7 12 8 13 9 14 10 16 11 15 12
REMARK SMILES IDX 10 13 9 14 11 16 8 17 1 18 2 19 3 20 4 21 94 22 5 23 93 24
REMARK SMILES IDX 95 25 6 26 92 27 7 29 91 30 23 31 24 32 25 33 26 34 27 36
REMARK SMILES IDX 28 37 29 38 90 39 30 40 89 41 31 42 32 43 33 44 83 45 34 46
REMARK SMILES IDX 88 47 82 48 84 49 35 50 87 51 81 52 80 53 36 55 68 56 48 57
REMARK SMILES IDX 67 58 49 59 52 60 66 61 85 62 50 63 51 64 65 66 86 67 53 68
REMARK SMILES IDX 37 69 38 70 46 71 39 72 40 73 44 74 47 75 41 76 42 77 45 78
REMARK SMILES IDX 43 79 69 80 70 81 78 82 71 83 72 84 76 85 79 86 73 87 74 88
REMARK SMILES IDX 77 89 75 90 54 91 55 92 63 93 56 94 57 95 61 96 64 97 58 98
REMARK SMILES IDX 59 99 62 100 60 101
REMARK H PARENT 20 6 9 15 93 28 25 35 84 54 52 65
REMARK Flexibility Score: inf
ROOT
ATOM      1  C   UNL A   1      31.813  27.329  26.959  1.00  0.00     0.023 C 
ENDROOT
BRANCH   1   2
ATOM      2  C   UNL A   1      30.859  26.168  26.664  1.00  0.00     0.116 C 
BRANCH   2   3
ATOM      3  N   UNL A   1      31.497  24.887  26.879  1.00  0.00    -0.356 N 
ATOM      4  C   UNL A   1      32.484  24.222  26.233  1.00  0.00     0.224 C 
ATOM      5  O   UNL A   1      32.841  23.175  26.782  1.00  0.00    -0.275 OA
ATOM      6  H   UNL A   1      31.138  24.398  27.654  1.00  0.00     0.163 HD
BRANCH   4   7
ATOM      7  C   UNL A   1      33.097  24.718  24.914  1.00  0.00     0.095 C 
ATOM      8  C   UNL A   1      32.443  24.006  23.705  1.00  0.00     0.095 C 
ATOM      9  C   UNL A   1      32.748  22.484  23.736  1.00  0.00     0.041 C 
ATOM     10  C   UNL A   1      34.172  22.155  24.099  1.00  0.00    -0.030 C 
ATOM     11  C   UNL A   1      34.621  24.462  24.957  1.00  0.00     0.041 C 
ATOM     12  C   UNL A   1      35.021  23.053  24.619  1.00  0.00    -0.030 C 
BRANCH   8  13
ATOM     13  C   UNL A   1      32.943  24.550  22.361  1.00  0.00     0.228 C 
ATOM     14  N   UNL A   1      32.654  25.766  21.843  1.00  0.00    -0.326 N 
ATOM     15  H   UNL A   1      32.988  25.843  20.920  1.00  0.00     0.169 HD
ATOM     16  O   UNL A   1      33.653  23.862  21.614  1.00  0.00    -0.274 OA
BRANCH  14  17
ATOM     17  C   UNL A   1      32.018  26.946  22.239  1.00  0.00     0.043 A 
ATOM     18  C   UNL A   1      27.686  31.430  23.475  1.00  0.00     0.067 C 
ATOM     19  C   UNL A   1      28.357  30.273  22.728  1.00  0.00     0.182 C 
ATOM     20  C   UNL A   1      28.120  30.452  21.218  1.00  0.00     0.067 C 
ATOM     21  O   UNL A   1      29.766  30.380  22.990  1.00  0.00    -0.476 OA
ATOM     22  C   UNL A   1      27.701  28.939  23.154  1.00  0.00     0.268 C 
ATOM     23  C   UNL A   1      30.467  29.223  22.779  1.00  0.00     0.144 A 
ATOM     24  N   UNL A   1      28.504  27.838  22.997  1.00  0.00    -0.319 N 
ATOM     25  O   UNL A   1      26.528  28.820  23.501  1.00  0.00    -0.270 OA
ATOM     26  C   UNL A   1      31.847  29.329  22.632  1.00  0.00     0.051 A 
ATOM     27  C   UNL A   1      29.867  27.969  22.738  1.00  0.00     0.086 A 
ATOM     28  H   UNL A   1      28.109  26.939  23.069  1.00  0.00     0.170 HD
ATOM     29  C   UNL A   1      32.622  28.190  22.370  1.00  0.00     0.030 A 
ATOM     30  C   UNL A   1      30.634  26.839  22.465  1.00  0.00     0.056 A 
ENDBRANCH  14  17
ENDBRANCH   8  13
ENDBRANCH   4   7
ENDBRANCH   2   3
ENDBRANCH   1   2
BRANCH   1  31
ATOM     31  C   UNL A   1      31.446  28.671  26.314  1.00  0.00     0.023 C 
BRANCH  31  32
ATOM     32  C   UNL A   1      32.609  29.615  26.024  1.00  0.00     0.116 C 
BRANCH  32  33
ATOM     33  N   UNL A   1      32.361  30.982  26.451  1.00  0.00    -0.352 N 
ATOM     34  C   UNL A   1      33.120  31.807  27.252  1.00  0.00     0.251 C 
ATOM     35  H   UNL A   1      31.524  31.378  26.119  1.00  0.00     0.163 HD
ATOM     36  O   UNL A   1      32.683  32.898  27.593  1.00  0.00    -0.269 OA
BRANCH  34  37
ATOM     37  C   UNL A   1      34.446  31.361  27.742  1.00  0.00     0.039 A 
ATOM     38  C   UNL A   1      34.708  30.015  28.001  1.00  0.00     0.014 A 
ATOM     39  C   UNL A   1      35.443  32.319  27.960  1.00  0.00     0.014 A 
ATOM     40  C   UNL A   1      35.890  29.652  28.644  1.00  0.00     0.010 A 
ATOM     41  C   UNL A   1      36.662  31.941  28.534  1.00  0.00     0.010 A 
ATOM     42  C   UNL A   1      36.872  30.612  28.936  1.00  0.00    -0.014 A 
BRANCH  42  43
ATOM     43  C   UNL A   1      38.088  30.213  29.695  1.00  0.00     0.031 A 
ATOM     44  C   UNL A   1      38.287  30.672  31.116  1.00  0.00     0.074 A 
ATOM     45  C   UNL A   1      38.982  29.379  29.131  1.00  0.00     0.049 A 
ATOM     46  N   UNL A   1      39.265  30.397  31.945  1.00  0.00    -0.248 NA
ATOM     47  C   UNL A   1      37.257  31.555  31.685  1.00  0.00     0.031 C 
ATOM     48  C   UNL A   1      38.897  28.851  27.770  1.00  0.00     0.029 A 
ATOM     49  N   UNL A   1      40.120  28.805  29.641  1.00  0.00    -0.354 N 
ATOM     50  C   UNL A   1      38.974  31.079  33.119  1.00  0.00     0.074 A 
ATOM     51  C   UNL A   1      37.747  31.809  32.891  1.00  0.00     0.031 C 
ATOM     52  C   UNL A   1      39.907  27.990  27.569  1.00  0.00     0.029 A 
ATOM     53  C   UNL A   1      40.741  27.947  28.766  1.00  0.00     0.049 A 
ATOM     54  H   UNL A   1      40.460  28.992  30.546  1.00  0.00     0.167 HD
ATOM     55  C   UNL A   1      39.658  31.082  34.289  1.00  0.00     0.037 A 
ATOM     56  C   UNL A   1      41.861  27.211  28.908  1.00  0.00     0.037 A 
ATOM     57  C   UNL A   1      40.865  30.336  34.530  1.00  0.00     0.049 A 
ATOM     58  C   UNL A   1      42.625  27.270  30.202  1.00  0.00     0.074 A 
ATOM     59  C   UNL A   1      41.616  30.264  35.692  1.00  0.00     0.029 A 
ATOM     60  N   UNL A   1      41.495  29.529  33.596  1.00  0.00    -0.354 N 
ATOM     61  N   UNL A   1      42.336  27.918  31.303  1.00  0.00    -0.248 NA
ATOM     62  C   UNL A   1      43.877  26.503  30.266  1.00  0.00     0.031 C 
ATOM     63  C   UNL A   1      42.721  29.443  35.448  1.00  0.00     0.029 A 
ATOM     64  C   UNL A   1      42.636  28.970  34.150  1.00  0.00     0.049 A 
ATOM     65  H   UNL A   1      41.180  29.375  32.676  1.00  0.00     0.167 HD
ATOM     66  C   UNL A   1      43.360  27.631  32.194  1.00  0.00     0.074 A 
ATOM     67  C   UNL A   1      44.269  26.733  31.513  1.00  0.00     0.031 C 
ATOM     68  C   UNL A   1      43.534  28.078  33.460  1.00  0.00     0.037 A 
BRANCH  55  69
ATOM     69  C   UNL A   1      39.122  31.919  35.414  1.00  0.00     0.064 A 
ATOM     70  C   UNL A   1      38.321  31.363  36.422  1.00  0.00     0.173 A 
ATOM     71  C   UNL A   1      39.479  33.272  35.527  1.00  0.00     0.173 A 
ATOM     72  F   UNL A   1      37.944  30.078  36.353  1.00  0.00    -0.203 F 
ATOM     73  C   UNL A   1      37.888  32.134  37.497  1.00  0.00     0.198 A 
ATOM     74  C   UNL A   1      39.064  34.032  36.617  1.00  0.00     0.198 A 
ATOM     75  F   UNL A   1      40.249  33.848  34.594  1.00  0.00    -0.203 F 
ATOM     76  F   UNL A   1      37.100  31.590  38.436  1.00  0.00    -0.200 F 
ATOM     77  C   UNL A   1      38.268  33.464  37.600  1.00  0.00     0.200 A 
ATOM     78  F   UNL A   1      39.442  35.315  36.721  1.00  0.00    -0.200 F 
ATOM     79  F   UNL A   1      37.863  34.199  38.645  1.00  0.00    -0.200 F 
ENDBRANCH  55  69
BRANCH  56  80
ATOM     80  C   UNL A   1      42.318  26.347  27.790  1.00  0.00     0.064 A 
ATOM     81  C   UNL A   1      43.305  26.789  26.899  1.00  0.00     0.173 A 
ATOM     82  C   UNL A   1      41.795  25.060  27.603  1.00  0.00     0.173 A 
ATOM     83  F   UNL A   1      43.817  28.022  27.025  1.00  0.00    -0.203 F 
ATOM     84  C   UNL A   1      43.749  25.975  25.859  1.00  0.00     0.198 A 
ATOM     85  C   UNL A   1      42.260  24.237  26.580  1.00  0.00     0.198 A 
ATOM     86  F   UNL A   1      40.849  24.591  28.431  1.00  0.00    -0.203 F 
ATOM     87  F   UNL A   1      44.672  26.433  25.001  1.00  0.00    -0.200 F 
ATOM     88  C   UNL A   1      43.233  24.697  25.705  1.00  0.00     0.200 A 
ATOM     89  F   UNL A   1      41.768  22.998  26.444  1.00  0.00    -0.200 F 
ATOM     90  F   UNL A   1      43.671  23.911  24.713  1.00  0.00    -0.200 F 
ENDBRANCH  56  80
BRANCH  68  91
ATOM     91  C   UNL A   1      44.746  27.602  34.204  1.00  0.00     0.064 A 
ATOM     92  C   UNL A   1      44.728  26.406  34.935  1.00  0.00     0.173 A 
ATOM     93  C   UNL A   1      45.955  28.311  34.127  1.00  0.00     0.173 A 
ATOM     94  F   UNL A   1      43.592  25.700  35.048  1.00  0.00    -0.203 F 
ATOM     95  C   UNL A   1      45.874  25.944  35.577  1.00  0.00     0.198 A 
ATOM     96  C   UNL A   1      47.104  27.833  34.749  1.00  0.00     0.198 A 
ATOM     97  F   UNL A   1      46.023  29.457  33.433  1.00  0.00    -0.203 F 
ATOM     98  F   UNL A   1      45.827  24.815  36.297  1.00  0.00    -0.200 F 
ATOM     99  C   UNL A   1      47.062  26.652  35.476  1.00  0.00     0.200 A 
ATOM    100  F   UNL A   1      48.255  28.511  34.640  1.00  0.00    -0.200 F 
ATOM    101  F   UNL A   1      48.168  26.198  36.083  1.00  0.00    -0.200 F 
ENDBRANCH  68  91
ENDBRANCH  42  43
ENDBRANCH  34  37
ENDBRANCH  32  33
ENDBRANCH  31  32
ENDBRANCH   1  31
TORSDOF 13
ENDMDL
MODEL 3
REMARK VINA RESULT:     -14.1      2.470      3.691
REMARK SMILES CC1(C)Oc2ccc(NC(=O)[C@H]3CC=CC[C@@H]3C(=O)NCCCCNC(=O)c3ccc(-c4c5nc(c(-c6c(F)c(F)c(F)c(F)c6F)c6ccc([nH]6)c(-c6c(F)c(F)c(F)c(F)c6F)c6nc(c(-c7c(F)c(F)c(F)c(F)c7F)c7ccc4[nH]7)C=C6)C=C5)cc3)cc2NC1=O
REMARK SMILES IDX 22 1 21 2 20 3 18 4 19 5 17 7 12 8 13 9 14 10 16 11 15 12
REMARK SMILES IDX 10 13 9 14 11 16 8 17 1 18 2 19 3 20 4 21 94 22 5 23 93 24
REMARK SMILES IDX 95 25 6 26 92 27 7 29 91 30 23 31 24 32 25 33 26 34 27 36
REMARK SMILES IDX 28 37 29 38 90 39 30 40 89 41 31 42 32 43 33 44 83 45 34 46
REMARK SMILES IDX 88 47 82 48 84 49 35 50 87 51 81 52 80 53 36 55 68 56 48 57
REMARK SMILES IDX 67 58 49 59 52 60 66 61 85 62 50 63 51 64 65 66 86 67 53 68
REMARK SMILES IDX 37 69 38 70 46 71 39 72 40 73 44 74 47 75 41 76 42 77 45 78
REMARK SMILES IDX 43 79 69 80 70 81 78 82 71 83 72 84 76 85 79 86 73 87 74 88
REMARK SMILES IDX 77 89 75 90 54 91 55 92 63 93 56 94 57 95 61 96 64 97 58 98
REMARK SMILES IDX 59 99 62 100 60 101
REMARK H PARENT 20 6 9 15 93 28 25 35 84 54 52 65
REMARK Flexibility Score: inf
ROOT
ATOM      1  C   UNL A   1      31.401  27.158  26.235  1.00  0.00     0.023 C 
ENDROOT
BRANCH   1   2
ATOM      2  C   UNL A   1      30.700  25.820  26.485  1.00  0.00     0.116 C 
BRANCH   2   3
ATOM      3  N   UNL A   1      31.643  24.783  26.842  1.00  0.00    -0.356 N 
ATOM      4  C   UNL A   1      32.793  24.339  26.280  1.00  0.00     0.224 C 
ATOM      5  O   UNL A   1      33.392  23.487  26.941  1.00  0.00    -0.275 OA
ATOM      6  H   UNL A   1      31.398  24.299  27.663  1.00  0.00     0.163 HD
BRANCH   4   7
ATOM      7  C   UNL A   1      33.301  24.841  24.919  1.00  0.00     0.095 C 
ATOM      8  C   UNL A   1      32.688  24.012  23.765  1.00  0.00     0.095 C 
ATOM      9  C   UNL A   1      33.158  22.534  23.845  1.00  0.00     0.041 C 
ATOM     10  C   UNL A   1      34.621  22.377  24.163  1.00  0.00    -0.030 C 
ATOM     11  C   UNL A   1      34.844  24.754  24.912  1.00  0.00     0.041 C 
ATOM     12  C   UNL A   1      35.385  23.384  24.614  1.00  0.00    -0.030 C 
BRANCH   8  13
ATOM     13  C   UNL A   1      33.077  24.548  22.382  1.00  0.00     0.228 C 
ATOM     14  N   UNL A   1      32.715  25.746  21.868  1.00  0.00    -0.326 N 
ATOM     15  H   UNL A   1      32.983  25.817  20.923  1.00  0.00     0.169 HD
ATOM     16  O   UNL A   1      33.756  23.870  21.599  1.00  0.00    -0.274 OA
BRANCH  14  17
ATOM     17  C   UNL A   1      32.071  26.912  22.289  1.00  0.00     0.043 A 
ATOM     18  C   UNL A   1      27.716  31.365  23.560  1.00  0.00     0.067 C 
ATOM     19  C   UNL A   1      28.407  30.234  22.790  1.00  0.00     0.182 C 
ATOM     20  C   UNL A   1      28.220  30.473  21.281  1.00  0.00     0.067 C 
ATOM     21  O   UNL A   1      29.807  30.325  23.101  1.00  0.00    -0.476 OA
ATOM     22  C   UNL A   1      27.733  28.888  23.142  1.00  0.00     0.268 C 
ATOM     23  C   UNL A   1      30.510  29.174  22.867  1.00  0.00     0.144 A 
ATOM     24  N   UNL A   1      28.536  27.790  22.968  1.00  0.00    -0.319 N 
ATOM     25  O   UNL A   1      26.549  28.760  23.446  1.00  0.00    -0.270 OA
ATOM     26  C   UNL A   1      31.895  29.279  22.769  1.00  0.00     0.051 A 
ATOM     27  C   UNL A   1      29.908  27.924  22.758  1.00  0.00     0.086 A 
ATOM     28  H   UNL A   1      28.137  26.891  22.992  1.00  0.00     0.170 HD
ATOM     29  C   UNL A   1      32.674  28.147  22.488  1.00  0.00     0.030 A 
ATOM     30  C   UNL A   1      30.680  26.803  22.466  1.00  0.00     0.056 A 
ENDBRANCH  14  17
ENDBRANCH   8  13
ENDBRANCH   4   7
ENDBRANCH   2   3
ENDBRANCH   1   2
BRANCH   1  31
ATOM     31  C   UNL A   1      32.009  27.831  27.472  1.00  0.00     0.023 C 
BRANCH  31  32
ATOM     32  C   UNL A   1      33.370  28.491  27.275  1.00  0.00     0.116 C 
BRANCH  32  33
ATOM     33  N   UNL A   1      33.379  29.904  27.613  1.00  0.00    -0.352 N 
ATOM     34  C   UNL A   1      34.393  30.681  28.132  1.00  0.00     0.251 C 
ATOM     35  H   UNL A   1      32.533  30.379  27.447  1.00  0.00     0.163 HD
ATOM     36  O   UNL A   1      34.169  31.839  28.457  1.00  0.00    -0.269 OA
BRANCH  34  37
ATOM     37  C   UNL A   1      35.742  30.105  28.342  1.00  0.00     0.039 A 
ATOM     38  C   UNL A   1      36.090  29.491  29.546  1.00  0.00     0.014 A 
ATOM     39  C   UNL A   1      36.685  30.199  27.311  1.00  0.00     0.014 A 
ATOM     40  C   UNL A   1      37.417  29.139  29.784  1.00  0.00     0.010 A 
ATOM     41  C   UNL A   1      38.000  29.773  27.525  1.00  0.00     0.010 A 
ATOM     42  C   UNL A   1      38.392  29.293  28.785  1.00  0.00    -0.014 A 
BRANCH  42  43
ATOM     43  C   UNL A   1      39.815  28.986  29.092  1.00  0.00     0.031 A 
ATOM     44  C   UNL A   1      40.614  29.888  29.996  1.00  0.00     0.074 A 
ATOM     45  C   UNL A   1      40.371  27.857  28.615  1.00  0.00     0.049 A 
ATOM     46  N   UNL A   1      41.853  29.763  30.404  1.00  0.00    -0.248 NA
ATOM     47  C   UNL A   1      39.937  31.089  30.512  1.00  0.00     0.031 C 
ATOM     48  C   UNL A   1      39.700  26.893  27.742  1.00  0.00     0.029 A 
ATOM     49  N   UNL A   1      41.616  27.314  28.818  1.00  0.00    -0.354 N 
ATOM     50  C   UNL A   1      42.104  30.867  31.209  1.00  0.00     0.074 A 
ATOM     51  C   UNL A   1      40.903  31.672  31.208  1.00  0.00     0.031 C 
ATOM     52  C   UNL A   1      40.519  25.851  27.529  1.00  0.00     0.029 A 
ATOM     53  C   UNL A   1      41.790  26.098  28.202  1.00  0.00     0.049 A 
ATOM     54  H   UNL A   1      42.315  27.753  29.353  1.00  0.00     0.167 HD
ATOM     55  C   UNL A   1      43.229  31.174  31.900  1.00  0.00     0.037 A 
ATOM     56  C   UNL A   1      42.857  25.276  28.176  1.00  0.00     0.037 A 
ATOM     57  C   UNL A   1      44.417  30.362  31.925  1.00  0.00     0.049 A 
ATOM     58  C   UNL A   1      44.108  25.664  28.915  1.00  0.00     0.074 A 
ATOM     59  C   UNL A   1      45.598  30.584  32.615  1.00  0.00     0.029 A 
ATOM     60  N   UNL A   1      44.575  29.170  31.237  1.00  0.00    -0.354 N 
ATOM     61  N   UNL A   1      44.329  26.710  29.672  1.00  0.00    -0.248 NA
ATOM     62  C   UNL A   1      45.261  24.761  28.786  1.00  0.00     0.031 C 
ATOM     63  C   UNL A   1      46.484  29.546  32.311  1.00  0.00     0.029 A 
ATOM     64  C   UNL A   1      45.841  28.655  31.469  1.00  0.00     0.049 A 
ATOM     65  H   UNL A   1      43.891  28.750  30.667  1.00  0.00     0.167 HD
ATOM     66  C   UNL A   1      45.637  26.588  30.118  1.00  0.00     0.074 A 
ATOM     67  C   UNL A   1      46.156  25.355  29.564  1.00  0.00     0.031 C 
ATOM     68  C   UNL A   1      46.346  27.427  30.910  1.00  0.00     0.037 A 
BRANCH  55  69
ATOM     69  C   UNL A   1      43.238  32.445  32.697  1.00  0.00     0.064 A 
ATOM     70  C   UNL A   1      43.592  33.672  32.117  1.00  0.00     0.173 A 
ATOM     71  C   UNL A   1      42.811  32.449  34.035  1.00  0.00     0.173 A 
ATOM     72  F   UNL A   1      44.018  33.718  30.846  1.00  0.00    -0.203 F 
ATOM     73  C   UNL A   1      43.528  34.854  32.849  1.00  0.00     0.198 A 
ATOM     74  C   UNL A   1      42.725  33.637  34.755  1.00  0.00     0.198 A 
ATOM     75  F   UNL A   1      42.454  31.304  34.634  1.00  0.00    -0.203 F 
ATOM     76  F   UNL A   1      43.898  36.012  32.282  1.00  0.00    -0.200 F 
ATOM     77  C   UNL A   1      43.085  34.838  34.163  1.00  0.00     0.200 A 
ATOM     78  F   UNL A   1      42.285  33.622  36.022  1.00  0.00    -0.200 F 
ATOM     79  F   UNL A   1      43.009  35.981  34.860  1.00  0.00    -0.200 F 
ENDBRANCH  55  69
BRANCH  56  80
ATOM     80  C   UNL A   1      42.780  23.996  27.426  1.00  0.00     0.064 A 
ATOM     81  C   UNL A   1      43.108  23.940  26.066  1.00  0.00     0.173 A 
ATOM     82  C   UNL A   1      42.397  22.803  28.057  1.00  0.00     0.173 A 
ATOM     83  F   UNL A   1      43.458  25.059  25.415  1.00  0.00    -0.203 F 
ATOM     84  C   UNL A   1      43.053  22.738  25.363  1.00  0.00     0.198 A 
ATOM     85  C   UNL A   1      42.369  21.599  27.361  1.00  0.00     0.198 A 
ATOM     86  F   UNL A   1      42.073  22.806  29.359  1.00  0.00    -0.203 F 
ATOM     87  F   UNL A   1      43.343  22.716  24.054  1.00  0.00    -0.200 F 
ATOM     88  C   UNL A   1      42.693  21.567  26.012  1.00  0.00     0.200 A 
ATOM     89  F   UNL A   1      42.033  20.467  27.996  1.00  0.00    -0.200 F 
ATOM     90  F   UNL A   1      42.653  20.410  25.339  1.00  0.00    -0.200 F 
ENDBRANCH  56  80
BRANCH  68  91
ATOM     91  C   UNL A   1      47.759  27.045  31.237  1.00  0.00     0.064 A 
ATOM     92  C   UNL A   1      48.049  26.159  32.284  1.00  0.00     0.173 A 
ATOM     93  C   UNL A   1      48.825  27.513  30.454  1.00  0.00     0.173 A 
ATOM     94  F   UNL A   1      47.064  25.695  33.068  1.00  0.00    -0.203 F 
ATOM     95  C   UNL A   1      49.359  25.766  32.545  1.00  0.00     0.198 A 
ATOM     96  C   UNL A   1      50.130  27.099  30.702  1.00  0.00     0.198 A 
ATOM     97  F   UNL A   1      48.596  28.357  29.435  1.00  0.00    -0.203 F 
ATOM     98  F   UNL A   1      49.618  24.944  33.570  1.00  0.00    -0.200 F 
ATOM     99  C   UNL A   1      50.396  26.230  31.749  1.00  0.00     0.200 A 
ATOM    100  F   UNL A   1      51.130  27.537  29.924  1.00  0.00    -0.200 F 
ATOM    101  F   UNL A   1      51.655  25.839  31.994  1.00  0.00    -0.200 F 
ENDBRANCH  68  91
ENDBRANCH  42  43
ENDBRANCH  34  37
ENDBRANCH  32  33
ENDBRANCH  31  32
ENDBRANCH   1  31
TORSDOF 13
ENDMDL
