MODEL 1
REMARK VINA RESULT:     -12.7      0.000      0.000
REMARK SMILES C[C@@H](C(=O)NCCCCNC(=O)c1ccc(-c2c3nc(c(-c4c(F)c(F)c(F)c(F)c4F)c4ccc([nH]4)c(-c4c(F)c(F)c(F)c(F)c4F)c4nc(c(-c5c(F)c(F)c(F)c(F)c5F)c5ccc2[nH]5)C=C4)C=C3)cc1)c1ccc(N[C@H]2CCC[C@@H]2O)cc1F
REMARK SMILES IDX 6 1 5 2 3 3 4 4 2 6 1 7 76 8 77 9 88 10 78 11 87 12 89 13
REMARK SMILES IDX 79 14 80 15 81 17 82 18 85 19 83 20 84 21 86 22 7 24 8 25
REMARK SMILES IDX 9 26 10 27 11 28 12 30 13 31 14 32 75 33 15 34 74 35 16 36
REMARK SMILES IDX 17 37 18 38 68 39 19 40 73 41 67 42 69 43 20 44 72 45 66 46
REMARK SMILES IDX 65 47 21 49 53 50 33 51 52 52 34 53 37 54 51 55 70 56 35 57
REMARK SMILES IDX 36 58 50 60 71 61 38 62 22 63 23 64 31 65 24 66 25 67 29 68
REMARK SMILES IDX 32 69 26 70 27 71 30 72 28 73 54 74 55 75 63 76 56 77 57 78
REMARK SMILES IDX 61 79 64 80 58 81 59 82 62 83 60 84 39 85 40 86 48 87 41 88
REMARK SMILES IDX 42 89 46 90 49 91 43 92 44 93 47 94 45 95
REMARK H PARENT 5 5 80 16 86 23 10 29 69 48 37 59
REMARK Flexibility Score: inf
ROOT
ATOM      1  C   UNL A   1      32.656  29.886  25.702  1.00  0.00     0.116 C 
ENDROOT
BRANCH   1   2
ATOM      2  N   UNL A   1      31.794  29.306  24.693  1.00  0.00    -0.356 N 
ATOM      3  C   UNL A   1      32.120  28.564  23.592  1.00  0.00     0.227 C 
ATOM      4  O   UNL A   1      31.246  28.458  22.729  1.00  0.00    -0.274 OA
ATOM      5  H   UNL A   1      30.832  29.469  24.819  1.00  0.00     0.163 HD
BRANCH   3   6
ATOM      6  C   UNL A   1      33.516  27.922  23.485  1.00  0.00     0.108 C 
ATOM      7  C   UNL A   1      34.084  28.305  22.111  1.00  0.00     0.023 C 
BRANCH   6   8
ATOM      8  C   UNL A   1      33.548  26.412  23.735  1.00  0.00     0.000 A 
ATOM      9  C   UNL A   1      33.350  25.482  22.707  1.00  0.00     0.009 A 
ATOM     10  C   UNL A   1      33.734  25.880  25.014  1.00  0.00     0.129 A 
ATOM     11  C   UNL A   1      33.486  24.103  22.931  1.00  0.00     0.026 A 
ATOM     12  C   UNL A   1      33.867  24.508  25.236  1.00  0.00     0.065 A 
ATOM     13  F   UNL A   1      33.791  26.679  26.089  1.00  0.00    -0.207 F 
ATOM     14  C   UNL A   1      33.806  23.591  24.186  1.00  0.00     0.037 A 
BRANCH  14  15
ATOM     15  N   UNL A   1      34.016  22.256  24.465  1.00  0.00    -0.380 N 
ATOM     16  H   UNL A   1      34.957  21.977  24.522  1.00  0.00     0.160 HD
BRANCH  15  17
ATOM     17  C   UNL A   1      33.033  21.202  24.684  1.00  0.00     0.107 C 
ATOM     18  C   UNL A   1      32.451  20.612  23.395  1.00  0.00     0.027 C 
ATOM     19  C   UNL A   1      33.524  20.009  25.530  1.00  0.00     0.136 C 
ATOM     20  C   UNL A   1      32.466  19.096  23.586  1.00  0.00     0.005 C 
ATOM     21  C   UNL A   1      32.603  18.879  25.085  1.00  0.00     0.034 C 
BRANCH  19  22
ATOM     22  O   UNL A   1      33.414  20.232  26.932  1.00  0.00    -0.391 OA
ATOM     23  H   UNL A   1      34.283  20.472  27.290  1.00  0.00     0.211 HD
ENDBRANCH  19  22
ENDBRANCH  15  17
ENDBRANCH  14  15
ENDBRANCH   6   8
ENDBRANCH   3   6
ENDBRANCH   1   2
BRANCH   1  24
ATOM     24  C   UNL A   1      31.837  30.443  26.872  1.00  0.00     0.023 C 
BRANCH  24  25
ATOM     25  C   UNL A   1      31.617  31.956  26.842  1.00  0.00     0.023 C 
BRANCH  25  26
ATOM     26  C   UNL A   1      32.802  32.780  27.318  1.00  0.00     0.116 C 
BRANCH  26  27
ATOM     27  N   UNL A   1      32.438  34.149  27.648  1.00  0.00    -0.352 N 
ATOM     28  C   UNL A   1      32.978  34.970  28.608  1.00  0.00     0.251 C 
ATOM     29  H   UNL A   1      31.709  34.539  27.113  1.00  0.00     0.163 HD
ATOM     30  O   UNL A   1      32.475  36.059  28.859  1.00  0.00    -0.269 OA
BRANCH  28  31
ATOM     31  C   UNL A   1      34.161  34.507  29.359  1.00  0.00     0.039 A 
ATOM     32  C   UNL A   1      33.983  33.924  30.616  1.00  0.00     0.014 A 
ATOM     33  C   UNL A   1      35.435  34.616  28.797  1.00  0.00     0.014 A 
ATOM     34  C   UNL A   1      35.083  33.388  31.286  1.00  0.00     0.010 A 
ATOM     35  C   UNL A   1      36.516  34.020  29.433  1.00  0.00     0.010 A 
ATOM     36  C   UNL A   1      36.351  33.403  30.684  1.00  0.00    -0.014 A 
BRANCH  36  37
ATOM     37  C   UNL A   1      37.539  32.810  31.343  1.00  0.00     0.031 A 
ATOM     38  C   UNL A   1      38.257  31.671  30.680  1.00  0.00     0.074 A 
ATOM     39  C   UNL A   1      37.902  33.219  32.574  1.00  0.00     0.049 A 
ATOM     40  N   UNL A   1      39.198  30.895  31.151  1.00  0.00    -0.248 NA
ATOM     41  C   UNL A   1      37.827  31.336  29.313  1.00  0.00     0.031 C 
ATOM     42  C   UNL A   1      37.258  34.291  33.334  1.00  0.00     0.029 A 
ATOM     43  N   UNL A   1      38.886  32.759  33.411  1.00  0.00    -0.354 N 
ATOM     44  C   UNL A   1      39.446  29.961  30.155  1.00  0.00     0.074 A 
ATOM     45  C   UNL A   1      38.529  30.240  29.071  1.00  0.00     0.031 C 
ATOM     46  C   UNL A   1      37.868  34.410  34.525  1.00  0.00     0.029 A 
ATOM     47  C   UNL A   1      38.916  33.397  34.627  1.00  0.00     0.049 A 
ATOM     48  H   UNL A   1      39.512  32.041  33.164  1.00  0.00     0.167 HD
ATOM     49  C   UNL A   1      40.369  28.969  30.140  1.00  0.00     0.037 A 
ATOM     50  C   UNL A   1      39.689  33.176  35.707  1.00  0.00     0.037 A 
ATOM     51  C   UNL A   1      41.303  28.723  31.205  1.00  0.00     0.049 A 
ATOM     52  C   UNL A   1      40.719  32.081  35.661  1.00  0.00     0.074 A 
ATOM     53  C   UNL A   1      42.319  27.786  31.263  1.00  0.00     0.029 A 
ATOM     54  N   UNL A   1      41.336  29.425  32.402  1.00  0.00    -0.354 N 
ATOM     55  N   UNL A   1      40.981  31.233  34.696  1.00  0.00    -0.248 NA
ATOM     56  C   UNL A   1      41.563  31.914  36.852  1.00  0.00     0.031 C 
ATOM     57  C   UNL A   1      42.944  27.897  32.510  1.00  0.00     0.029 A 
ATOM     58  C   UNL A   1      42.347  28.934  33.210  1.00  0.00     0.049 A 
ATOM     59  H   UNL A   1      40.730  30.164  32.640  1.00  0.00     0.167 HD
ATOM     60  C   UNL A   1      42.038  30.455  35.147  1.00  0.00     0.074 A 
ATOM     61  C   UNL A   1      42.372  30.934  36.473  1.00  0.00     0.031 C 
ATOM     62  C   UNL A   1      42.677  29.438  34.519  1.00  0.00     0.037 A 
BRANCH  49  63
ATOM     63  C   UNL A   1      40.401  28.076  28.934  1.00  0.00     0.064 A 
ATOM     64  C   UNL A   1      39.679  26.874  28.886  1.00  0.00     0.173 A 
ATOM     65  C   UNL A   1      41.159  28.431  27.808  1.00  0.00     0.173 A 
ATOM     66  F   UNL A   1      38.950  26.482  29.942  1.00  0.00    -0.203 F 
ATOM     67  C   UNL A   1      39.745  26.043  27.772  1.00  0.00     0.198 A 
ATOM     68  C   UNL A   1      41.197  27.612  26.683  1.00  0.00     0.198 A 
ATOM     69  F   UNL A   1      41.866  29.572  27.800  1.00  0.00    -0.203 F 
ATOM     70  F   UNL A   1      39.095  24.871  27.773  1.00  0.00    -0.200 F 
ATOM     71  C   UNL A   1      40.499  26.414  26.670  1.00  0.00     0.200 A 
ATOM     72  F   UNL A   1      41.918  27.979  25.614  1.00  0.00    -0.200 F 
ATOM     73  F   UNL A   1      40.562  25.613  25.597  1.00  0.00    -0.200 F 
ENDBRANCH  49  63
BRANCH  50  74
ATOM     74  C   UNL A   1      39.531  34.029  36.911  1.00  0.00     0.064 A 
ATOM     75  C   UNL A   1      38.752  33.600  37.995  1.00  0.00     0.173 A 
ATOM     76  C   UNL A   1      40.166  35.275  37.015  1.00  0.00     0.173 A 
ATOM     77  F   UNL A   1      38.109  32.425  37.933  1.00  0.00    -0.203 F 
ATOM     78  C   UNL A   1      38.604  34.391  39.132  1.00  0.00     0.198 A 
ATOM     79  C   UNL A   1      40.038  36.054  38.164  1.00  0.00     0.198 A 
ATOM     80  F   UNL A   1      40.927  35.726  36.008  1.00  0.00    -0.203 F 
ATOM     81  F   UNL A   1      37.827  33.972  40.140  1.00  0.00    -0.200 F 
ATOM     82  C   UNL A   1      39.253  35.614  39.218  1.00  0.00     0.200 A 
ATOM     83  F   UNL A   1      40.677  37.229  38.249  1.00  0.00    -0.200 F 
ATOM     84  F   UNL A   1      39.118  36.370  40.317  1.00  0.00    -0.200 F 
ENDBRANCH  50  74
BRANCH  62  85
ATOM     85  C   UNL A   1      43.835  28.805  35.230  1.00  0.00     0.064 A 
ATOM     86  C   UNL A   1      45.145  29.278  35.071  1.00  0.00     0.173 A 
ATOM     87  C   UNL A   1      43.620  27.752  36.131  1.00  0.00     0.173 A 
ATOM     88  F   UNL A   1      45.403  30.274  34.209  1.00  0.00    -0.203 F 
ATOM     89  C   UNL A   1      46.200  28.709  35.778  1.00  0.00     0.198 A 
ATOM     90  C   UNL A   1      44.673  27.202  36.856  1.00  0.00     0.198 A 
ATOM     91  F   UNL A   1      42.382  27.269  36.323  1.00  0.00    -0.203 F 
ATOM     92  F   UNL A   1      47.450  29.153  35.586  1.00  0.00    -0.200 F 
ATOM     93  C   UNL A   1      45.962  27.678  36.677  1.00  0.00     0.200 A 
ATOM     94  F   UNL A   1      44.438  26.216  37.732  1.00  0.00    -0.200 F 
ATOM     95  F   UNL A   1      46.978  27.141  37.366  1.00  0.00    -0.200 F 
ENDBRANCH  62  85
ENDBRANCH  36  37
ENDBRANCH  28  31
ENDBRANCH  26  27
ENDBRANCH  25  26
ENDBRANCH  24  25
ENDBRANCH   1  24
TORSDOF 15
ENDMDL
MODEL 2
REMARK VINA RESULT:     -12.7      0.182      1.959
REMARK SMILES C[C@@H](C(=O)NCCCCNC(=O)c1ccc(-c2c3nc(c(-c4c(F)c(F)c(F)c(F)c4F)c4ccc([nH]4)c(-c4c(F)c(F)c(F)c(F)c4F)c4nc(c(-c5c(F)c(F)c(F)c(F)c5F)c5ccc2[nH]5)C=C4)C=C3)cc1)c1ccc(N[C@H]2CCC[C@@H]2O)cc1F
REMARK SMILES IDX 6 1 5 2 3 3 4 4 2 6 1 7 76 8 77 9 88 10 78 11 87 12 89 13
REMARK SMILES IDX 79 14 80 15 81 17 82 18 85 19 83 20 84 21 86 22 7 24 8 25
REMARK SMILES IDX 9 26 10 27 11 28 12 30 13 31 14 32 75 33 15 34 74 35 16 36
REMARK SMILES IDX 17 37 18 38 68 39 19 40 73 41 67 42 69 43 20 44 72 45 66 46
REMARK SMILES IDX 65 47 21 49 53 50 33 51 52 52 34 53 37 54 51 55 70 56 35 57
REMARK SMILES IDX 36 58 50 60 71 61 38 62 22 63 23 64 31 65 24 66 25 67 29 68
REMARK SMILES IDX 32 69 26 70 27 71 30 72 28 73 54 74 55 75 63 76 56 77 57 78
REMARK SMILES IDX 61 79 64 80 58 81 59 82 62 83 60 84 39 85 40 86 48 87 41 88
REMARK SMILES IDX 42 89 46 90 49 91 43 92 44 93 47 94 45 95
REMARK H PARENT 5 5 80 16 86 23 10 29 69 48 37 59
REMARK Flexibility Score: inf
ROOT
ATOM      1  C   UNL A   1      32.716  29.950  25.689  1.00  0.00     0.116 C 
ENDROOT
BRANCH   1   2
ATOM      2  N   UNL A   1      31.908  29.460  24.591  1.00  0.00    -0.356 N 
ATOM      3  C   UNL A   1      32.284  28.761  23.478  1.00  0.00     0.227 C 
ATOM      4  O   UNL A   1      31.474  28.738  22.549  1.00  0.00    -0.274 OA
ATOM      5  H   UNL A   1      30.947  29.658  24.656  1.00  0.00     0.163 HD
BRANCH   3   6
ATOM      6  C   UNL A   1      33.658  28.064  23.436  1.00  0.00     0.108 C 
ATOM      7  C   UNL A   1      34.255  28.328  22.046  1.00  0.00     0.023 C 
BRANCH   6   8
ATOM      8  C   UNL A   1      33.633  26.576  23.794  1.00  0.00     0.000 A 
ATOM      9  C   UNL A   1      33.269  25.593  22.865  1.00  0.00     0.009 A 
ATOM     10  C   UNL A   1      33.931  26.122  25.081  1.00  0.00     0.129 A 
ATOM     11  C   UNL A   1      33.351  24.227  23.176  1.00  0.00     0.026 A 
ATOM     12  C   UNL A   1      34.011  24.763  25.390  1.00  0.00     0.065 A 
ATOM     13  F   UNL A   1      34.153  26.987  26.081  1.00  0.00    -0.207 F 
ATOM     14  C   UNL A   1      33.781  23.782  24.424  1.00  0.00     0.037 A 
BRANCH  14  15
ATOM     15  N   UNL A   1      33.945  22.458  24.778  1.00  0.00    -0.380 N 
ATOM     16  H   UNL A   1      34.852  22.203  25.061  1.00  0.00     0.160 HD
BRANCH  15  17
ATOM     17  C   UNL A   1      32.958  21.385  24.788  1.00  0.00     0.107 C 
ATOM     18  C   UNL A   1      32.394  21.043  23.405  1.00  0.00     0.027 C 
ATOM     19  C   UNL A   1      33.437  20.056  25.408  1.00  0.00     0.136 C 
ATOM     20  C   UNL A   1      32.405  19.516  23.316  1.00  0.00     0.005 C 
ATOM     21  C   UNL A   1      32.521  19.029  24.752  1.00  0.00     0.034 C 
BRANCH  19  22
ATOM     22  O   UNL A   1      33.308  20.020  26.825  1.00  0.00    -0.391 OA
ATOM     23  H   UNL A   1      33.000  19.142  27.100  1.00  0.00     0.211 HD
ENDBRANCH  19  22
ENDBRANCH  15  17
ENDBRANCH  14  15
ENDBRANCH   6   8
ENDBRANCH   3   6
ENDBRANCH   1   2
BRANCH   1  24
ATOM     24  C   UNL A   1      31.836  30.490  26.821  1.00  0.00     0.023 C 
BRANCH  24  25
ATOM     25  C   UNL A   1      31.648  32.008  26.822  1.00  0.00     0.023 C 
BRANCH  25  26
ATOM     26  C   UNL A   1      32.829  32.794  27.369  1.00  0.00     0.116 C 
BRANCH  26  27
ATOM     27  N   UNL A   1      32.488  34.172  27.686  1.00  0.00    -0.352 N 
ATOM     28  C   UNL A   1      33.044  34.993  28.636  1.00  0.00     0.251 C 
ATOM     29  H   UNL A   1      31.764  34.569  27.150  1.00  0.00     0.163 HD
ATOM     30  O   UNL A   1      32.559  36.092  28.878  1.00  0.00    -0.269 OA
BRANCH  28  31
ATOM     31  C   UNL A   1      34.223  34.519  29.388  1.00  0.00     0.039 A 
ATOM     32  C   UNL A   1      34.035  33.901  30.627  1.00  0.00     0.014 A 
ATOM     33  C   UNL A   1      35.502  34.651  28.844  1.00  0.00     0.014 A 
ATOM     34  C   UNL A   1      35.131  33.355  31.295  1.00  0.00     0.010 A 
ATOM     35  C   UNL A   1      36.580  34.045  29.476  1.00  0.00     0.010 A 
ATOM     36  C   UNL A   1      36.405  33.394  30.708  1.00  0.00    -0.014 A 
BRANCH  36  37
ATOM     37  C   UNL A   1      37.590  32.792  31.364  1.00  0.00     0.031 A 
ATOM     38  C   UNL A   1      38.299  31.649  30.699  1.00  0.00     0.074 A 
ATOM     39  C   UNL A   1      37.957  33.197  32.595  1.00  0.00     0.049 A 
ATOM     40  N   UNL A   1      39.236  30.866  31.167  1.00  0.00    -0.248 NA
ATOM     41  C   UNL A   1      37.865  31.320  29.331  1.00  0.00     0.031 C 
ATOM     42  C   UNL A   1      37.322  34.272  33.358  1.00  0.00     0.029 A 
ATOM     43  N   UNL A   1      38.940  32.729  33.431  1.00  0.00    -0.354 N 
ATOM     44  C   UNL A   1      39.476  29.932  30.169  1.00  0.00     0.074 A 
ATOM     45  C   UNL A   1      38.560  30.220  29.087  1.00  0.00     0.031 C 
ATOM     46  C   UNL A   1      37.934  34.385  34.549  1.00  0.00     0.029 A 
ATOM     47  C   UNL A   1      38.975  33.364  34.647  1.00  0.00     0.049 A 
ATOM     48  H   UNL A   1      39.560  32.007  33.182  1.00  0.00     0.167 HD
ATOM     49  C   UNL A   1      40.392  28.934  30.151  1.00  0.00     0.037 A 
ATOM     50  C   UNL A   1      39.748  33.136  35.726  1.00  0.00     0.037 A 
ATOM     51  C   UNL A   1      41.326  28.680  31.215  1.00  0.00     0.049 A 
ATOM     52  C   UNL A   1      40.771  32.034  35.677  1.00  0.00     0.074 A 
ATOM     53  C   UNL A   1      42.336  27.736  31.270  1.00  0.00     0.029 A 
ATOM     54  N   UNL A   1      41.365  29.380  32.413  1.00  0.00    -0.354 N 
ATOM     55  N   UNL A   1      41.025  31.186  34.710  1.00  0.00    -0.248 NA
ATOM     56  C   UNL A   1      41.615  31.860  36.866  1.00  0.00     0.031 C 
ATOM     57  C   UNL A   1      42.963  27.840  32.516  1.00  0.00     0.029 A 
ATOM     58  C   UNL A   1      42.374  28.880  33.219  1.00  0.00     0.049 A 
ATOM     59  H   UNL A   1      40.765  30.122  32.653  1.00  0.00     0.167 HD
ATOM     60  C   UNL A   1      42.078  30.400  35.159  1.00  0.00     0.074 A 
ATOM     61  C   UNL A   1      42.417  30.875  36.485  1.00  0.00     0.031 C 
ATOM     62  C   UNL A   1      42.709  29.380  34.528  1.00  0.00     0.037 A 
BRANCH  49  63
ATOM     63  C   UNL A   1      40.417  28.043  28.944  1.00  0.00     0.064 A 
ATOM     64  C   UNL A   1      41.166  28.369  27.803  1.00  0.00     0.173 A 
ATOM     65  C   UNL A   1      39.687  26.845  28.930  1.00  0.00     0.173 A 
ATOM     66  F   UNL A   1      41.869  29.510  27.760  1.00  0.00    -0.203 F 
ATOM     67  C   UNL A   1      41.153  27.547  26.679  1.00  0.00     0.198 A 
ATOM     68  C   UNL A   1      39.702  26.010  27.816  1.00  0.00     0.198 A 
ATOM     69  F   UNL A   1      38.957  26.484  29.996  1.00  0.00    -0.203 F 
ATOM     70  F   UNL A   1      41.827  27.909  25.579  1.00  0.00    -0.200 F 
ATOM     71  C   UNL A   1      40.426  26.367  26.688  1.00  0.00     0.200 A 
ATOM     72  F   UNL A   1      39.008  24.864  27.831  1.00  0.00    -0.200 F 
ATOM     73  F   UNL A   1      40.414  25.576  25.605  1.00  0.00    -0.200 F 
ENDBRANCH  49  63
BRANCH  50  74
ATOM     74  C   UNL A   1      39.597  33.988  36.932  1.00  0.00     0.064 A 
ATOM     75  C   UNL A   1      40.222  35.241  37.006  1.00  0.00     0.173 A 
ATOM     76  C   UNL A   1      38.814  33.583  38.023  1.00  0.00     0.173 A 
ATOM     77  F   UNL A   1      40.997  35.662  35.996  1.00  0.00    -0.203 F 
ATOM     78  C   UNL A   1      40.081  36.050  38.131  1.00  0.00     0.198 A 
ATOM     79  C   UNL A   1      38.653  34.405  39.137  1.00  0.00     0.198 A 
ATOM     80  F   UNL A   1      38.191  32.396  37.997  1.00  0.00    -0.203 F 
ATOM     81  F   UNL A   1      40.716  37.228  38.190  1.00  0.00    -0.200 F 
ATOM     82  C   UNL A   1      39.291  35.634  39.192  1.00  0.00     0.200 A 
ATOM     83  F   UNL A   1      37.878  34.005  40.155  1.00  0.00    -0.200 F 
ATOM     84  F   UNL A   1      39.147  36.418  40.270  1.00  0.00    -0.200 F 
ENDBRANCH  50  74
BRANCH  62  85
ATOM     85  C   UNL A   1      43.864  28.738  35.236  1.00  0.00     0.064 A 
ATOM     86  C   UNL A   1      43.687  27.637  36.086  1.00  0.00     0.173 A 
ATOM     87  C   UNL A   1      45.171  29.192  35.009  1.00  0.00     0.173 A 
ATOM     88  F   UNL A   1      42.454  27.175  36.346  1.00  0.00    -0.203 F 
ATOM     89  C   UNL A   1      44.778  27.024  36.695  1.00  0.00     0.198 A 
ATOM     90  C   UNL A   1      46.262  28.560  35.598  1.00  0.00     0.198 A 
ATOM     91  F   UNL A   1      45.392  30.238  34.198  1.00  0.00    -0.203 F 
ATOM     92  F   UNL A   1      44.586  25.994  37.531  1.00  0.00    -0.200 F 
ATOM     93  C   UNL A   1      46.065  27.479  36.443  1.00  0.00     0.200 A 
ATOM     94  F   UNL A   1      47.504  28.995  35.344  1.00  0.00    -0.200 F 
ATOM     95  F   UNL A   1      47.115  26.879  37.020  1.00  0.00    -0.200 F 
ENDBRANCH  62  85
ENDBRANCH  36  37
ENDBRANCH  28  31
ENDBRANCH  26  27
ENDBRANCH  25  26
ENDBRANCH  24  25
ENDBRANCH   1  24
TORSDOF 15
ENDMDL
MODEL 3
REMARK VINA RESULT:     -12.5      4.674     10.875
REMARK SMILES C[C@@H](C(=O)NCCCCNC(=O)c1ccc(-c2c3nc(c(-c4c(F)c(F)c(F)c(F)c4F)c4ccc([nH]4)c(-c4c(F)c(F)c(F)c(F)c4F)c4nc(c(-c5c(F)c(F)c(F)c(F)c5F)c5ccc2[nH]5)C=C4)C=C3)cc1)c1ccc(N[C@H]2CCC[C@@H]2O)cc1F
REMARK SMILES IDX 6 1 5 2 3 3 4 4 2 6 1 7 76 8 77 9 88 10 78 11 87 12 89 13
REMARK SMILES IDX 79 14 80 15 81 17 82 18 85 19 83 20 84 21 86 22 7 24 8 25
REMARK SMILES IDX 9 26 10 27 11 28 12 30 13 31 14 32 75 33 15 34 74 35 16 36
REMARK SMILES IDX 17 37 18 38 68 39 19 40 73 41 67 42 69 43 20 44 72 45 66 46
REMARK SMILES IDX 65 47 21 49 53 50 33 51 52 52 34 53 37 54 51 55 70 56 35 57
REMARK SMILES IDX 36 58 50 60 71 61 38 62 22 63 23 64 31 65 24 66 25 67 29 68
REMARK SMILES IDX 32 69 26 70 27 71 30 72 28 73 54 74 55 75 63 76 56 77 57 78
REMARK SMILES IDX 61 79 64 80 58 81 59 82 62 83 60 84 39 85 40 86 48 87 41 88
REMARK SMILES IDX 42 89 46 90 49 91 43 92 44 93 47 94 45 95
REMARK H PARENT 5 5 80 16 86 23 10 29 69 48 37 59
REMARK Flexibility Score: inf
ROOT
ATOM      1  C   UNL A   1      37.529  33.124  30.652  1.00  0.00     0.116 C 
ENDROOT
BRANCH   1   2
ATOM      2  N   UNL A   1      37.970  34.075  31.652  1.00  0.00    -0.356 N 
ATOM      3  C   UNL A   1      37.785  34.063  33.006  1.00  0.00     0.227 C 
ATOM      4  O   UNL A   1      37.977  35.131  33.592  1.00  0.00    -0.274 OA
ATOM      5  H   UNL A   1      38.479  34.843  31.305  1.00  0.00     0.163 HD
BRANCH   3   6
ATOM      6  C   UNL A   1      37.354  32.762  33.711  1.00  0.00     0.108 C 
ATOM      7  C   UNL A   1      36.939  33.140  35.140  1.00  0.00     0.023 C 
BRANCH   6   8
ATOM      8  C   UNL A   1      38.395  31.641  33.677  1.00  0.00     0.000 A 
ATOM      9  C   UNL A   1      39.723  31.845  34.072  1.00  0.00     0.009 A 
ATOM     10  C   UNL A   1      38.086  30.361  33.207  1.00  0.00     0.129 A 
ATOM     11  C   UNL A   1      40.639  30.783  34.136  1.00  0.00     0.026 A 
ATOM     12  C   UNL A   1      38.998  29.306  33.269  1.00  0.00     0.065 A 
ATOM     13  F   UNL A   1      36.885  30.097  32.674  1.00  0.00    -0.207 F 
ATOM     14  C   UNL A   1      40.280  29.481  33.793  1.00  0.00     0.037 A 
BRANCH  14  15
ATOM     15  N   UNL A   1      41.108  28.382  33.889  1.00  0.00    -0.380 N 
ATOM     16  H   UNL A   1      40.662  27.532  34.106  1.00  0.00     0.160 HD
BRANCH  15  17
ATOM     17  C   UNL A   1      42.553  28.307  33.715  1.00  0.00     0.107 C 
ATOM     18  C   UNL A   1      43.341  28.288  35.030  1.00  0.00     0.027 C 
ATOM     19  C   UNL A   1      43.056  27.107  32.885  1.00  0.00     0.136 C 
ATOM     20  C   UNL A   1      44.390  27.187  34.872  1.00  0.00     0.005 C 
ATOM     21  C   UNL A   1      44.489  26.934  33.375  1.00  0.00     0.034 C 
BRANCH  19  22
ATOM     22  O   UNL A   1      43.023  27.342  31.482  1.00  0.00    -0.391 OA
ATOM     23  H   UNL A   1      43.879  27.103  31.094  1.00  0.00     0.211 HD
ENDBRANCH  19  22
ENDBRANCH  15  17
ENDBRANCH  14  15
ENDBRANCH   6   8
ENDBRANCH   3   6
ENDBRANCH   1   2
BRANCH   1  24
ATOM     24  C   UNL A   1      37.216  33.826  29.326  1.00  0.00     0.023 C 
BRANCH  24  25
ATOM     25  C   UNL A   1      35.843  33.503  28.734  1.00  0.00     0.023 C 
BRANCH  25  26
ATOM     26  C   UNL A   1      35.040  32.476  29.516  1.00  0.00     0.116 C 
BRANCH  26  27
ATOM     27  N   UNL A   1      34.256  31.603  28.655  1.00  0.00    -0.352 N 
ATOM     28  C   UNL A   1      34.657  30.466  27.998  1.00  0.00     0.251 C 
ATOM     29  H   UNL A   1      33.314  31.861  28.528  1.00  0.00     0.163 HD
ATOM     30  O   UNL A   1      33.914  29.908  27.198  1.00  0.00    -0.269 OA
BRANCH  28  31
ATOM     31  C   UNL A   1      36.013  29.939  28.245  1.00  0.00     0.039 A 
ATOM     32  C   UNL A   1      36.995  30.104  27.265  1.00  0.00     0.014 A 
ATOM     33  C   UNL A   1      36.316  29.322  29.461  1.00  0.00     0.014 A 
ATOM     34  C   UNL A   1      38.305  29.705  27.532  1.00  0.00     0.010 A 
ATOM     35  C   UNL A   1      37.632  28.991  29.750  1.00  0.00     0.010 A 
ATOM     36  C   UNL A   1      38.639  29.176  28.788  1.00  0.00    -0.014 A 
BRANCH  36  37
ATOM     37  C   UNL A   1      40.025  28.776  29.128  1.00  0.00     0.031 A 
ATOM     38  C   UNL A   1      40.919  29.749  29.839  1.00  0.00     0.074 A 
ATOM     39  C   UNL A   1      40.507  27.591  28.706  1.00  0.00     0.049 A 
ATOM     40  N   UNL A   1      42.203  29.678  30.075  1.00  0.00    -0.248 NA
ATOM     41  C   UNL A   1      40.286  30.990  30.315  1.00  0.00     0.031 C 
ATOM     42  C   UNL A   1      39.745  26.579  27.974  1.00  0.00     0.029 A 
ATOM     43  N   UNL A   1      41.765  27.054  28.809  1.00  0.00    -0.354 N 
ATOM     44  C   UNL A   1      42.537  30.876  30.692  1.00  0.00     0.074 A 
ATOM     45  C   UNL A   1      41.331  31.672  30.756  1.00  0.00     0.031 C 
ATOM     46  C   UNL A   1      40.550  25.540  27.698  1.00  0.00     0.029 A 
ATOM     47  C   UNL A   1      41.892  25.832  28.197  1.00  0.00     0.049 A 
ATOM     48  H   UNL A   1      42.506  27.502  29.278  1.00  0.00     0.167 HD
ATOM     49  C   UNL A   1      43.740  31.269  31.176  1.00  0.00     0.037 A 
ATOM     50  C   UNL A   1      42.974  25.045  28.040  1.00  0.00     0.037 A 
ATOM     51  C   UNL A   1      44.925  30.455  31.143  1.00  0.00     0.049 A 
ATOM     52  C   UNL A   1      44.295  25.493  28.602  1.00  0.00     0.074 A 
ATOM     53  C   UNL A   1      46.177  30.732  31.662  1.00  0.00     0.029 A 
ATOM     54  N   UNL A   1      45.001  29.198  30.559  1.00  0.00    -0.354 N 
ATOM     55  N   UNL A   1      44.592  26.607  29.227  1.00  0.00    -0.248 NA
ATOM     56  C   UNL A   1      45.430  24.575  28.440  1.00  0.00     0.031 C 
ATOM     57  C   UNL A   1      47.021  29.658  31.361  1.00  0.00     0.029 A 
ATOM     58  C   UNL A   1      46.283  28.692  30.694  1.00  0.00     0.049 A 
ATOM     59  H   UNL A   1      44.255  28.735  30.115  1.00  0.00     0.167 HD
ATOM     60  C   UNL A   1      45.936  26.511  29.561  1.00  0.00     0.074 A 
ATOM     61  C   UNL A   1      46.397  25.227  29.073  1.00  0.00     0.031 C 
ATOM     62  C   UNL A   1      46.717  27.403  30.218  1.00  0.00     0.037 A 
BRANCH  49  63
ATOM     63  C   UNL A   1      43.826  32.642  31.774  1.00  0.00     0.064 A 
ATOM     64  C   UNL A   1      43.741  32.850  33.159  1.00  0.00     0.173 A 
ATOM     65  C   UNL A   1      44.004  33.766  30.951  1.00  0.00     0.173 A 
ATOM     66  F   UNL A   1      43.557  31.812  33.987  1.00  0.00    -0.203 F 
ATOM     67  C   UNL A   1      43.792  34.135  33.694  1.00  0.00     0.198 A 
ATOM     68  C   UNL A   1      44.086  35.045  31.494  1.00  0.00     0.198 A 
ATOM     69  F   UNL A   1      44.096  33.622  29.620  1.00  0.00    -0.203 F 
ATOM     70  F   UNL A   1      43.647  34.313  35.015  1.00  0.00    -0.200 F 
ATOM     71  C   UNL A   1      43.969  35.229  32.863  1.00  0.00     0.200 A 
ATOM     72  F   UNL A   1      44.269  36.101  30.689  1.00  0.00    -0.200 F 
ATOM     73  F   UNL A   1      44.018  36.465  33.380  1.00  0.00    -0.200 F 
ENDBRANCH  49  63
BRANCH  50  74
ATOM     74  C   UNL A   1      42.841  23.742  27.342  1.00  0.00     0.064 A 
ATOM     75  C   UNL A   1      43.212  23.610  25.997  1.00  0.00     0.173 A 
ATOM     76  C   UNL A   1      42.362  22.602  28.003  1.00  0.00     0.173 A 
ATOM     77  F   UNL A   1      43.657  24.678  25.318  1.00  0.00    -0.203 F 
ATOM     78  C   UNL A   1      43.098  22.389  25.336  1.00  0.00     0.198 A 
ATOM     79  C   UNL A   1      42.272  21.375  27.347  1.00  0.00     0.198 A 
ATOM     80  F   UNL A   1      42.000  22.676  29.292  1.00  0.00    -0.203 F 
ATOM     81  F   UNL A   1      43.428  22.298  24.040  1.00  0.00    -0.200 F 
ATOM     82  C   UNL A   1      42.634  21.272  26.013  1.00  0.00     0.200 A 
ATOM     83  F   UNL A   1      41.835  20.295  28.009  1.00  0.00    -0.200 F 
ATOM     84  F   UNL A   1      42.533  20.096  25.379  1.00  0.00    -0.200 F 
ENDBRANCH  50  74
BRANCH  62  85
ATOM     85  C   UNL A   1      48.136  27.008  30.494  1.00  0.00     0.064 A 
ATOM     86  C   UNL A   1      48.484  26.250  31.621  1.00  0.00     0.173 A 
ATOM     87  C   UNL A   1      49.151  27.339  29.583  1.00  0.00     0.173 A 
ATOM     88  F   UNL A   1      47.552  25.922  32.528  1.00  0.00    -0.203 F 
ATOM     89  C   UNL A   1      49.801  25.851  31.834  1.00  0.00     0.198 A 
ATOM     90  C   UNL A   1      50.461  26.916  29.785  1.00  0.00     0.198 A 
ATOM     91  F   UNL A   1      48.866  28.057  28.486  1.00  0.00    -0.203 F 
ATOM     92  F   UNL A   1      50.119  25.156  32.934  1.00  0.00    -0.200 F 
ATOM     93  C   UNL A   1      50.786  26.176  30.911  1.00  0.00     0.200 A 
ATOM     94  F   UNL A   1      51.407  27.220  28.887  1.00  0.00    -0.200 F 
ATOM     95  F   UNL A   1      52.050  25.779  31.111  1.00  0.00    -0.200 F 
ENDBRANCH  62  85
ENDBRANCH  36  37
ENDBRANCH  28  31
ENDBRANCH  26  27
ENDBRANCH  25  26
ENDBRANCH  24  25
ENDBRANCH   1  24
TORSDOF 15
ENDMDL
