MODEL 1
REMARK VINA RESULT:     -12.8      0.000      0.000
REMARK SMILES O=C(NCCCCNC(=O)[C@@]12CCC(=O)N1c1cc(Cl)ccc1S2)c1ccc(-c2c3nc(c(-c4c(F)c(F)c(F)c(F)c4F)c4ccc([nH]4)c(-c4c(F)c(F)c(F)c(F)c4F)c4nc(c(-c5c(F)c(F)c(F)c(F)c5F)c5ccc2[nH]5)C=C4)C=C3)cc1
REMARK SMILES IDX 4 1 3 2 1 3 2 4 25 6 26 7 87 8 27 9 86 10 28 11 29 12 30 13
REMARK SMILES IDX 80 14 31 15 85 16 79 17 81 18 32 19 84 20 78 21 77 22 33 24
REMARK SMILES IDX 65 25 45 26 64 27 46 28 49 29 63 30 82 31 47 32 48 33 62 35
REMARK SMILES IDX 83 36 50 37 34 38 35 39 43 40 36 41 37 42 41 43 44 44 38 45
REMARK SMILES IDX 39 46 42 47 40 48 66 49 67 50 75 51 68 52 69 53 73 54 76 55
REMARK SMILES IDX 70 56 71 57 74 58 72 59 51 60 52 61 60 62 53 63 54 64 58 65
REMARK SMILES IDX 61 66 55 67 56 68 59 69 57 70 5 71 6 72 7 73 8 74 9 75 10 77
REMARK SMILES IDX 11 78 12 79 16 80 24 81 13 82 14 83 17 84 23 85 15 86 18 87
REMARK SMILES IDX 22 88 19 89 21 90 20 91
REMARK H PARENT 3 5 81 23 49 34 8 76
REMARK Flexibility Score: inf
ROOT
ATOM      1  C   UNL A   1      32.510  32.840  27.094  1.00  0.00     0.116 C 
ENDROOT
BRANCH   1   2
ATOM      2  N   UNL A   1      32.323  34.181  27.623  1.00  0.00    -0.352 N 
ATOM      3  O   UNL A   1      32.665  35.950  28.966  1.00  0.00    -0.269 OA
ATOM      4  C   UNL A   1      33.023  34.832  28.609  1.00  0.00     0.251 C 
ATOM      5  H   UNL A   1      31.590  34.697  27.215  1.00  0.00     0.163 HD
BRANCH   4   6
ATOM      6  C   UNL A   1      34.182  34.186  29.263  1.00  0.00     0.039 A 
ATOM      7  C   UNL A   1      35.465  34.494  28.797  1.00  0.00     0.014 A 
ATOM      8  C   UNL A   1      34.023  33.258  30.295  1.00  0.00     0.014 A 
ATOM      9  C   UNL A   1      36.580  33.890  29.379  1.00  0.00     0.010 A 
ATOM     10  C   UNL A   1      35.138  32.724  30.934  1.00  0.00     0.010 A 
ATOM     11  C   UNL A   1      36.425  33.005  30.458  1.00  0.00    -0.014 A 
BRANCH  11  12
ATOM     12  C   UNL A   1      37.591  32.288  31.029  1.00  0.00     0.031 A 
ATOM     13  C   UNL A   1      38.066  32.630  32.415  1.00  0.00     0.074 A 
ATOM     14  C   UNL A   1      38.229  31.347  30.308  1.00  0.00     0.049 A 
ATOM     15  N   UNL A   1      39.064  32.128  33.096  1.00  0.00    -0.248 NA
ATOM     16  C   UNL A   1      37.341  33.701  33.119  1.00  0.00     0.031 C 
ATOM     17  C   UNL A   1      37.890  30.959  28.938  1.00  0.00     0.029 A 
ATOM     18  N   UNL A   1      39.292  30.543  30.630  1.00  0.00    -0.354 N 
ATOM     19  C   UNL A   1      39.090  32.830  34.294  1.00  0.00     0.074 A 
ATOM     20  C   UNL A   1      38.060  33.840  34.221  1.00  0.00     0.031 C 
ATOM     21  C   UNL A   1      38.701  29.959  28.555  1.00  0.00     0.029 A 
ATOM     22  C   UNL A   1      39.632  29.656  29.640  1.00  0.00     0.049 A 
ATOM     23  H   UNL A   1      39.767  30.596  31.491  1.00  0.00     0.167 HD
ATOM     24  C   UNL A   1      39.875  32.623  35.377  1.00  0.00     0.037 A 
ATOM     25  C   UNL A   1      40.578  28.698  29.617  1.00  0.00     0.037 A 
ATOM     26  C   UNL A   1      40.859  31.581  35.469  1.00  0.00     0.049 A 
ATOM     27  C   UNL A   1      41.448  28.492  30.827  1.00  0.00     0.074 A 
ATOM     28  C   UNL A   1      41.641  31.230  36.553  1.00  0.00     0.029 A 
ATOM     29  N   UNL A   1      41.190  30.720  34.435  1.00  0.00    -0.354 N 
ATOM     30  N   UNL A   1      41.414  29.111  31.982  1.00  0.00    -0.248 NA
ATOM     31  C   UNL A   1      42.490  27.459  30.731  1.00  0.00     0.031 C 
ATOM     32  C   UNL A   1      42.477  30.180  36.162  1.00  0.00     0.029 A 
ATOM     33  C   UNL A   1      42.190  29.855  34.845  1.00  0.00     0.049 A 
ATOM     34  H   UNL A   1      40.776  30.724  33.541  1.00  0.00     0.167 HD
ATOM     35  C   UNL A   1      42.417  28.538  32.753  1.00  0.00     0.074 A 
ATOM     36  C   UNL A   1      43.032  27.510  31.940  1.00  0.00     0.031 C 
ATOM     37  C   UNL A   1      42.793  28.841  34.019  1.00  0.00     0.037 A 
BRANCH  24  38
ATOM     38  C   UNL A   1      39.676  33.525  36.558  1.00  0.00     0.064 A 
ATOM     39  C   UNL A   1      40.316  34.771  36.644  1.00  0.00     0.173 A 
ATOM     40  C   UNL A   1      38.816  33.155  37.603  1.00  0.00     0.173 A 
ATOM     41  F   UNL A   1      41.159  35.164  35.677  1.00  0.00    -0.203 F 
ATOM     42  C   UNL A   1      40.131  35.598  37.748  1.00  0.00     0.198 A 
ATOM     43  C   UNL A   1      38.610  33.998  38.692  1.00  0.00     0.198 A 
ATOM     44  F   UNL A   1      38.175  31.978  37.566  1.00  0.00    -0.203 F 
ATOM     45  F   UNL A   1      40.796  36.758  37.833  1.00  0.00    -0.200 F 
ATOM     46  C   UNL A   1      39.273  35.214  38.768  1.00  0.00     0.200 A 
ATOM     47  F   UNL A   1      37.773  33.631  39.672  1.00  0.00    -0.200 F 
ATOM     48  F   UNL A   1      39.093  36.013  39.829  1.00  0.00    -0.200 F 
ENDBRANCH  24  38
BRANCH  25  49
ATOM     49  C   UNL A   1      40.711  27.830  28.419  1.00  0.00     0.064 A 
ATOM     50  C   UNL A   1      40.023  26.611  28.342  1.00  0.00     0.173 A 
ATOM     51  C   UNL A   1      41.488  28.213  27.317  1.00  0.00     0.173 A 
ATOM     52  F   UNL A   1      39.282  26.195  29.380  1.00  0.00    -0.203 F 
ATOM     53  C   UNL A   1      40.107  25.808  27.208  1.00  0.00     0.198 A 
ATOM     54  C   UNL A   1      41.554  27.418  26.173  1.00  0.00     0.198 A 
ATOM     55  F   UNL A   1      42.162  29.372  27.341  1.00  0.00    -0.203 F 
ATOM     56  F   UNL A   1      39.454  24.639  27.167  1.00  0.00    -0.200 F 
ATOM     57  C   UNL A   1      40.865  26.216  26.121  1.00  0.00     0.200 A 
ATOM     58  F   UNL A   1      42.278  27.822  25.120  1.00  0.00    -0.200 F 
ATOM     59  F   UNL A   1      40.933  25.451  25.023  1.00  0.00    -0.200 F 
ENDBRANCH  25  49
BRANCH  37  60
ATOM     60  C   UNL A   1      43.932  28.070  34.614  1.00  0.00     0.064 A 
ATOM     61  C   UNL A   1      45.237  28.582  34.595  1.00  0.00     0.173 A 
ATOM     62  C   UNL A   1      43.701  26.874  35.309  1.00  0.00     0.173 A 
ATOM     63  F   UNL A   1      45.507  29.716  33.932  1.00  0.00    -0.203 F 
ATOM     64  C   UNL A   1      46.270  27.925  35.258  1.00  0.00     0.198 A 
ATOM     65  C   UNL A   1      44.731  26.233  35.990  1.00  0.00     0.198 A 
ATOM     66  F   UNL A   1      42.466  26.352  35.362  1.00  0.00    -0.203 F 
ATOM     67  F   UNL A   1      47.513  28.426  35.220  1.00  0.00    -0.200 F 
ATOM     68  C   UNL A   1      46.013  26.760  35.965  1.00  0.00     0.200 A 
ATOM     69  F   UNL A   1      44.478  25.116  36.686  1.00  0.00    -0.200 F 
ATOM     70  F   UNL A   1      47.004  26.145  36.627  1.00  0.00    -0.200 F 
ENDBRANCH  37  60
ENDBRANCH  11  12
ENDBRANCH   4   6
ENDBRANCH   1   2
BRANCH   1  71
ATOM     71  C   UNL A   1      31.232  32.195  26.570  1.00  0.00     0.023 C 
BRANCH  71  72
ATOM     72  C   UNL A   1      31.405  30.838  25.883  1.00  0.00     0.023 C 
BRANCH  72  73
ATOM     73  C   UNL A   1      32.703  30.100  26.208  1.00  0.00     0.116 C 
BRANCH  73  74
ATOM     74  N   UNL A   1      33.509  29.674  25.072  1.00  0.00    -0.353 N 
ATOM     75  C   UNL A   1      33.353  28.691  24.124  1.00  0.00     0.257 C 
ATOM     76  H   UNL A   1      34.335  30.197  24.961  1.00  0.00     0.163 HD
ATOM     77  O   UNL A   1      34.024  28.849  23.095  1.00  0.00    -0.271 OA
BRANCH  75  78
ATOM     78  C   UNL A   1      32.529  27.375  24.369  1.00  0.00     0.177 C 
ATOM     79  C   UNL A   1      31.025  27.591  24.564  1.00  0.00     0.061 C 
ATOM     80  N   UNL A   1      32.545  26.451  23.226  1.00  0.00    -0.287 N 
ATOM     81  S   UNL A   1      33.401  26.490  25.748  1.00  0.00    -0.085 SA
ATOM     82  C   UNL A   1      30.333  27.038  23.315  1.00  0.00     0.104 C 
ATOM     83  C   UNL A   1      31.454  26.656  22.394  1.00  0.00     0.228 C 
ATOM     84  C   UNL A   1      32.907  25.118  23.558  1.00  0.00     0.061 A 
ATOM     85  C   UNL A   1      33.397  24.970  24.855  1.00  0.00     0.034 A 
ATOM     86  O   UNL A   1      31.323  26.358  21.219  1.00  0.00    -0.274 OA
ATOM     87  C   UNL A   1      32.584  23.995  22.801  1.00  0.00     0.048 A 
ATOM     88  C   UNL A   1      33.621  23.717  25.407  1.00  0.00     0.019 A 
ATOM     89  C   UNL A   1      32.732  22.734  23.378  1.00  0.00     0.043 A 
ATOM     90  C   UNL A   1      33.265  22.590  24.665  1.00  0.00     0.022 A 
ATOM     91  Cl  UNL A   1      32.156  21.344  22.542  1.00  0.00    -0.084 Cl
ENDBRANCH  75  78
ENDBRANCH  73  74
ENDBRANCH  72  73
ENDBRANCH  71  72
ENDBRANCH   1  71
TORSDOF 11
ENDMDL
MODEL 2
REMARK VINA RESULT:     -12.8      0.157      1.150
REMARK SMILES O=C(NCCCCNC(=O)[C@@]12CCC(=O)N1c1cc(Cl)ccc1S2)c1ccc(-c2c3nc(c(-c4c(F)c(F)c(F)c(F)c4F)c4ccc([nH]4)c(-c4c(F)c(F)c(F)c(F)c4F)c4nc(c(-c5c(F)c(F)c(F)c(F)c5F)c5ccc2[nH]5)C=C4)C=C3)cc1
REMARK SMILES IDX 4 1 3 2 1 3 2 4 25 6 26 7 87 8 27 9 86 10 28 11 29 12 30 13
REMARK SMILES IDX 80 14 31 15 85 16 79 17 81 18 32 19 84 20 78 21 77 22 33 24
REMARK SMILES IDX 65 25 45 26 64 27 46 28 49 29 63 30 82 31 47 32 48 33 62 35
REMARK SMILES IDX 83 36 50 37 34 38 35 39 43 40 36 41 37 42 41 43 44 44 38 45
REMARK SMILES IDX 39 46 42 47 40 48 66 49 67 50 75 51 68 52 69 53 73 54 76 55
REMARK SMILES IDX 70 56 71 57 74 58 72 59 51 60 52 61 60 62 53 63 54 64 58 65
REMARK SMILES IDX 61 66 55 67 56 68 59 69 57 70 5 71 6 72 7 73 8 74 9 75 10 77
REMARK SMILES IDX 11 78 12 79 16 80 24 81 13 82 14 83 17 84 23 85 15 86 18 87
REMARK SMILES IDX 22 88 19 89 21 90 20 91
REMARK H PARENT 3 5 81 23 49 34 8 76
REMARK Flexibility Score: inf
ROOT
ATOM      1  C   UNL A   1      32.515  32.839  27.098  1.00  0.00     0.116 C 
ENDROOT
BRANCH   1   2
ATOM      2  N   UNL A   1      32.330  34.180  27.626  1.00  0.00    -0.352 N 
ATOM      3  O   UNL A   1      32.673  35.949  28.970  1.00  0.00    -0.269 OA
ATOM      4  C   UNL A   1      33.030  34.830  28.613  1.00  0.00     0.251 C 
ATOM      5  H   UNL A   1      31.597  34.697  27.218  1.00  0.00     0.163 HD
BRANCH   4   6
ATOM      6  C   UNL A   1      34.188  34.183  29.267  1.00  0.00     0.039 A 
ATOM      7  C   UNL A   1      35.472  34.507  28.818  1.00  0.00     0.014 A 
ATOM      8  C   UNL A   1      34.027  33.239  30.284  1.00  0.00     0.014 A 
ATOM      9  C   UNL A   1      36.587  33.902  29.401  1.00  0.00     0.010 A 
ATOM     10  C   UNL A   1      35.140  32.703  30.925  1.00  0.00     0.010 A 
ATOM     11  C   UNL A   1      36.429  33.001  30.465  1.00  0.00    -0.014 A 
BRANCH  11  12
ATOM     12  C   UNL A   1      37.595  32.283  31.036  1.00  0.00     0.031 A 
ATOM     13  C   UNL A   1      38.069  32.625  32.422  1.00  0.00     0.074 A 
ATOM     14  C   UNL A   1      38.233  31.343  30.314  1.00  0.00     0.049 A 
ATOM     15  N   UNL A   1      39.068  32.123  33.102  1.00  0.00    -0.248 NA
ATOM     16  C   UNL A   1      37.345  33.696  33.126  1.00  0.00     0.031 C 
ATOM     17  C   UNL A   1      37.893  30.954  28.945  1.00  0.00     0.029 A 
ATOM     18  N   UNL A   1      39.296  30.538  30.637  1.00  0.00    -0.354 N 
ATOM     19  C   UNL A   1      39.094  32.825  34.301  1.00  0.00     0.074 A 
ATOM     20  C   UNL A   1      38.064  33.835  34.228  1.00  0.00     0.031 C 
ATOM     21  C   UNL A   1      38.704  29.954  28.561  1.00  0.00     0.029 A 
ATOM     22  C   UNL A   1      39.635  29.651  29.646  1.00  0.00     0.049 A 
ATOM     23  H   UNL A   1      39.771  30.592  31.498  1.00  0.00     0.167 HD
ATOM     24  C   UNL A   1      39.879  32.618  35.384  1.00  0.00     0.037 A 
ATOM     25  C   UNL A   1      40.582  28.693  29.623  1.00  0.00     0.037 A 
ATOM     26  C   UNL A   1      40.863  31.576  35.476  1.00  0.00     0.049 A 
ATOM     27  C   UNL A   1      41.452  28.487  30.833  1.00  0.00     0.074 A 
ATOM     28  C   UNL A   1      41.645  31.225  36.560  1.00  0.00     0.029 A 
ATOM     29  N   UNL A   1      41.194  30.715  34.441  1.00  0.00    -0.354 N 
ATOM     30  N   UNL A   1      41.418  29.106  31.988  1.00  0.00    -0.248 NA
ATOM     31  C   UNL A   1      42.493  27.454  30.737  1.00  0.00     0.031 C 
ATOM     32  C   UNL A   1      42.481  30.174  36.168  1.00  0.00     0.029 A 
ATOM     33  C   UNL A   1      42.194  29.850  34.852  1.00  0.00     0.049 A 
ATOM     34  H   UNL A   1      40.780  30.719  33.548  1.00  0.00     0.167 HD
ATOM     35  C   UNL A   1      42.420  28.533  32.759  1.00  0.00     0.074 A 
ATOM     36  C   UNL A   1      43.036  27.505  31.946  1.00  0.00     0.031 C 
ATOM     37  C   UNL A   1      42.796  28.836  34.025  1.00  0.00     0.037 A 
BRANCH  24  38
ATOM     38  C   UNL A   1      39.680  33.520  36.565  1.00  0.00     0.064 A 
ATOM     39  C   UNL A   1      40.327  34.762  36.655  1.00  0.00     0.173 A 
ATOM     40  C   UNL A   1      38.814  33.153  37.606  1.00  0.00     0.173 A 
ATOM     41  F   UNL A   1      41.175  35.152  35.692  1.00  0.00    -0.203 F 
ATOM     42  C   UNL A   1      40.141  35.589  37.759  1.00  0.00     0.198 A 
ATOM     43  C   UNL A   1      38.607  33.997  38.695  1.00  0.00     0.198 A 
ATOM     44  F   UNL A   1      38.166  31.980  37.565  1.00  0.00    -0.203 F 
ATOM     45  F   UNL A   1      40.813  36.745  37.848  1.00  0.00    -0.200 F 
ATOM     46  C   UNL A   1      39.278  35.208  38.775  1.00  0.00     0.200 A 
ATOM     47  F   UNL A   1      37.764  33.633  39.671  1.00  0.00    -0.200 F 
ATOM     48  F   UNL A   1      39.097  36.008  39.836  1.00  0.00    -0.200 F 
ENDBRANCH  24  38
BRANCH  25  49
ATOM     49  C   UNL A   1      40.715  27.826  28.425  1.00  0.00     0.064 A 
ATOM     50  C   UNL A   1      40.013  26.615  28.341  1.00  0.00     0.173 A 
ATOM     51  C   UNL A   1      41.504  28.201  27.330  1.00  0.00     0.173 A 
ATOM     52  F   UNL A   1      39.260  26.206  29.373  1.00  0.00    -0.203 F 
ATOM     53  C   UNL A   1      40.098  25.812  27.206  1.00  0.00     0.198 A 
ATOM     54  C   UNL A   1      41.571  27.408  26.186  1.00  0.00     0.198 A 
ATOM     55  F   UNL A   1      42.191  29.353  27.361  1.00  0.00    -0.203 F 
ATOM     56  F   UNL A   1      39.432  24.650  27.159  1.00  0.00    -0.200 F 
ATOM     57  C   UNL A   1      40.869  26.213  26.127  1.00  0.00     0.200 A 
ATOM     58  F   UNL A   1      42.307  27.805  25.139  1.00  0.00    -0.200 F 
ATOM     59  F   UNL A   1      40.937  25.448  25.028  1.00  0.00    -0.200 F 
ENDBRANCH  25  49
BRANCH  37  60
ATOM     60  C   UNL A   1      43.936  28.065  34.620  1.00  0.00     0.064 A 
ATOM     61  C   UNL A   1      43.722  26.829  35.245  1.00  0.00     0.173 A 
ATOM     62  C   UNL A   1      45.258  28.504  34.458  1.00  0.00     0.173 A 
ATOM     63  F   UNL A   1      42.474  26.374  35.432  1.00  0.00    -0.203 F 
ATOM     64  C   UNL A   1      44.794  26.056  35.683  1.00  0.00     0.198 A 
ATOM     65  C   UNL A   1      46.328  27.719  34.875  1.00  0.00     0.198 A 
ATOM     66  F   UNL A   1      45.511  29.676  33.856  1.00  0.00    -0.203 F 
ATOM     67  F   UNL A   1      44.568  24.882  36.288  1.00  0.00    -0.200 F 
ATOM     68  C   UNL A   1      46.095  26.496  35.486  1.00  0.00     0.200 A 
ATOM     69  F   UNL A   1      47.585  28.137  34.670  1.00  0.00    -0.200 F 
ATOM     70  F   UNL A   1      47.127  25.737  35.883  1.00  0.00    -0.200 F 
ENDBRANCH  37  60
ENDBRANCH  11  12
ENDBRANCH   4   6
ENDBRANCH   1   2
BRANCH   1  71
ATOM     71  C   UNL A   1      31.248  32.216  26.524  1.00  0.00     0.023 C 
BRANCH  71  72
ATOM     72  C   UNL A   1      31.418  30.842  25.871  1.00  0.00     0.023 C 
BRANCH  72  73
ATOM     73  C   UNL A   1      32.729  30.124  26.188  1.00  0.00     0.116 C 
BRANCH  73  74
ATOM     74  N   UNL A   1      33.524  29.690  25.047  1.00  0.00    -0.353 N 
ATOM     75  C   UNL A   1      33.349  28.713  24.096  1.00  0.00     0.257 C 
ATOM     76  H   UNL A   1      34.356  30.202  24.933  1.00  0.00     0.163 HD
ATOM     77  O   UNL A   1      34.017  28.864  23.065  1.00  0.00    -0.271 OA
BRANCH  75  78
ATOM     78  C   UNL A   1      32.508  27.408  24.342  1.00  0.00     0.177 C 
ATOM     79  C   UNL A   1      31.000  27.638  24.481  1.00  0.00     0.061 C 
ATOM     80  N   UNL A   1      32.556  26.459  23.220  1.00  0.00    -0.287 N 
ATOM     81  S   UNL A   1      33.326  26.548  25.768  1.00  0.00    -0.085 SA
ATOM     82  C   UNL A   1      30.347  27.062  23.221  1.00  0.00     0.104 C 
ATOM     83  C   UNL A   1      31.496  26.653  22.347  1.00  0.00     0.228 C 
ATOM     84  C   UNL A   1      32.897  25.131  23.592  1.00  0.00     0.061 A 
ATOM     85  C   UNL A   1      33.342  25.008  24.908  1.00  0.00     0.034 A 
ATOM     86  O   UNL A   1      31.403  26.330  21.175  1.00  0.00    -0.274 OA
ATOM     87  C   UNL A   1      32.592  23.994  22.849  1.00  0.00     0.048 A 
ATOM     88  C   UNL A   1      33.538  23.767  25.494  1.00  0.00     0.019 A 
ATOM     89  C   UNL A   1      32.712  22.745  23.458  1.00  0.00     0.043 A 
ATOM     90  C   UNL A   1      33.200  22.626  24.765  1.00  0.00     0.022 A 
ATOM     91  Cl  UNL A   1      32.154  21.341  22.633  1.00  0.00    -0.084 Cl
ENDBRANCH  75  78
ENDBRANCH  73  74
ENDBRANCH  72  73
ENDBRANCH  71  72
ENDBRANCH   1  71
TORSDOF 11
ENDMDL
MODEL 3
REMARK VINA RESULT:     -12.8      0.114      1.614
REMARK SMILES O=C(NCCCCNC(=O)[C@@]12CCC(=O)N1c1cc(Cl)ccc1S2)c1ccc(-c2c3nc(c(-c4c(F)c(F)c(F)c(F)c4F)c4ccc([nH]4)c(-c4c(F)c(F)c(F)c(F)c4F)c4nc(c(-c5c(F)c(F)c(F)c(F)c5F)c5ccc2[nH]5)C=C4)C=C3)cc1
REMARK SMILES IDX 4 1 3 2 1 3 2 4 25 6 26 7 87 8 27 9 86 10 28 11 29 12 30 13
REMARK SMILES IDX 80 14 31 15 85 16 79 17 81 18 32 19 84 20 78 21 77 22 33 24
REMARK SMILES IDX 65 25 45 26 64 27 46 28 49 29 63 30 82 31 47 32 48 33 62 35
REMARK SMILES IDX 83 36 50 37 34 38 35 39 43 40 36 41 37 42 41 43 44 44 38 45
REMARK SMILES IDX 39 46 42 47 40 48 66 49 67 50 75 51 68 52 69 53 73 54 76 55
REMARK SMILES IDX 70 56 71 57 74 58 72 59 51 60 52 61 60 62 53 63 54 64 58 65
REMARK SMILES IDX 61 66 55 67 56 68 59 69 57 70 5 71 6 72 7 73 8 74 9 75 10 77
REMARK SMILES IDX 11 78 12 79 16 80 24 81 13 82 14 83 17 84 23 85 15 86 18 87
REMARK SMILES IDX 22 88 19 89 21 90 20 91
REMARK H PARENT 3 5 81 23 49 34 8 76
REMARK Flexibility Score: inf
ROOT
ATOM      1  C   UNL A   1      32.479  32.810  27.109  1.00  0.00     0.116 C 
ENDROOT
BRANCH   1   2
ATOM      2  N   UNL A   1      32.304  34.155  27.630  1.00  0.00    -0.352 N 
ATOM      3  O   UNL A   1      32.667  35.931  28.959  1.00  0.00    -0.269 OA
ATOM      4  C   UNL A   1      33.016  34.808  28.606  1.00  0.00     0.251 C 
ATOM      5  H   UNL A   1      31.570  34.672  27.226  1.00  0.00     0.163 HD
BRANCH   4   6
ATOM      6  C   UNL A   1      34.177  34.160  29.255  1.00  0.00     0.039 A 
ATOM      7  C   UNL A   1      35.454  34.429  28.752  1.00  0.00     0.014 A 
ATOM      8  C   UNL A   1      34.024  33.267  30.318  1.00  0.00     0.014 A 
ATOM      9  C   UNL A   1      36.571  33.822  29.328  1.00  0.00     0.010 A 
ATOM     10  C   UNL A   1      35.142  32.731  30.949  1.00  0.00     0.010 A 
ATOM     11  C   UNL A   1      36.424  32.973  30.436  1.00  0.00    -0.014 A 
BRANCH  11  12
ATOM     12  C   UNL A   1      37.588  32.251  31.004  1.00  0.00     0.031 A 
ATOM     13  C   UNL A   1      38.051  32.571  32.399  1.00  0.00     0.074 A 
ATOM     14  C   UNL A   1      38.236  31.326  30.272  1.00  0.00     0.049 A 
ATOM     15  N   UNL A   1      39.047  32.063  33.079  1.00  0.00    -0.248 NA
ATOM     16  C   UNL A   1      37.316  33.627  33.116  1.00  0.00     0.031 C 
ATOM     17  C   UNL A   1      37.908  30.959  28.894  1.00  0.00     0.029 A 
ATOM     18  N   UNL A   1      39.300  30.521  30.589  1.00  0.00    -0.354 N 
ATOM     19  C   UNL A   1      39.060  32.744  34.289  1.00  0.00     0.074 A 
ATOM     20  C   UNL A   1      38.027  33.750  34.226  1.00  0.00     0.031 C 
ATOM     21  C   UNL A   1      38.727  29.969  28.499  1.00  0.00     0.029 A 
ATOM     22  C   UNL A   1      39.651  29.652  29.586  1.00  0.00     0.049 A 
ATOM     23  H   UNL A   1      39.768  30.561  31.454  1.00  0.00     0.167 HD
ATOM     24  C   UNL A   1      39.838  32.521  35.375  1.00  0.00     0.037 A 
ATOM     25  C   UNL A   1      40.602  28.699  29.554  1.00  0.00     0.037 A 
ATOM     26  C   UNL A   1      40.826  31.483  35.457  1.00  0.00     0.049 A 
ATOM     27  C   UNL A   1      41.463  28.476  30.767  1.00  0.00     0.074 A 
ATOM     28  C   UNL A   1      41.601  31.117  36.540  1.00  0.00     0.029 A 
ATOM     29  N   UNL A   1      41.168  30.641  34.410  1.00  0.00    -0.354 N 
ATOM     30  N   UNL A   1      41.418  29.075  31.932  1.00  0.00    -0.248 NA
ATOM     31  C   UNL A   1      42.510  27.449  30.661  1.00  0.00     0.031 C 
ATOM     32  C   UNL A   1      42.445  30.077  36.137  1.00  0.00     0.029 A 
ATOM     33  C   UNL A   1      42.170  29.773  34.813  1.00  0.00     0.049 A 
ATOM     34  H   UNL A   1      40.762  30.658  33.514  1.00  0.00     0.167 HD
ATOM     35  C   UNL A   1      42.417  28.493  32.701  1.00  0.00     0.074 A 
ATOM     36  C   UNL A   1      43.044  27.481  31.875  1.00  0.00     0.031 C 
ATOM     37  C   UNL A   1      42.782  28.776  33.974  1.00  0.00     0.037 A 
BRANCH  24  38
ATOM     38  C   UNL A   1      39.626  33.403  36.569  1.00  0.00     0.064 A 
ATOM     39  C   UNL A   1      38.768  33.027  37.615  1.00  0.00     0.173 A 
ATOM     40  C   UNL A   1      40.305  34.625  36.685  1.00  0.00     0.173 A 
ATOM     41  F   UNL A   1      38.085  31.874  37.544  1.00  0.00    -0.203 F 
ATOM     42  C   UNL A   1      38.572  33.855  38.715  1.00  0.00     0.198 A 
ATOM     43  C   UNL A   1      40.130  35.437  37.802  1.00  0.00     0.198 A 
ATOM     44  F   UNL A   1      41.141  35.028  35.717  1.00  0.00    -0.203 F 
ATOM     45  F   UNL A   1      37.706  33.499  39.674  1.00  0.00    -0.200 F 
ATOM     46  C   UNL A   1      39.257  35.057  38.811  1.00  0.00     0.200 A 
ATOM     47  F   UNL A   1      40.800  36.594  37.899  1.00  0.00    -0.200 F 
ATOM     48  F   UNL A   1      39.070  35.852  39.873  1.00  0.00    -0.200 F 
ENDBRANCH  24  38
BRANCH  25  49
ATOM     49  C   UNL A   1      40.748  27.852  28.342  1.00  0.00     0.064 A 
ATOM     50  C   UNL A   1      41.580  28.254  27.288  1.00  0.00     0.173 A 
ATOM     51  C   UNL A   1      40.100  26.615  28.229  1.00  0.00     0.173 A 
ATOM     52  F   UNL A   1      42.206  29.439  27.345  1.00  0.00    -0.203 F 
ATOM     53  C   UNL A   1      41.757  27.450  26.165  1.00  0.00     0.198 A 
ATOM     54  C   UNL A   1      40.295  25.801  27.114  1.00  0.00     0.198 A 
ATOM     55  F   UNL A   1      39.297  26.184  29.213  1.00  0.00    -0.203 F 
ATOM     56  F   UNL A   1      42.543  27.866  25.163  1.00  0.00    -0.200 F 
ATOM     57  C   UNL A   1      41.122  26.220  26.083  1.00  0.00     0.200 A 
ATOM     58  F   UNL A   1      39.689  24.608  27.044  1.00  0.00    -0.200 F 
ATOM     59  F   UNL A   1      41.305  25.439  25.009  1.00  0.00    -0.200 F 
ENDBRANCH  25  49
BRANCH  37  60
ATOM     60  C   UNL A   1      43.921  28.000  34.565  1.00  0.00     0.064 A 
ATOM     61  C   UNL A   1      45.223  28.518  34.565  1.00  0.00     0.173 A 
ATOM     62  C   UNL A   1      43.689  26.791  35.238  1.00  0.00     0.173 A 
ATOM     63  F   UNL A   1      45.494  29.665  33.924  1.00  0.00    -0.203 F 
ATOM     64  C   UNL A   1      46.254  27.854  35.225  1.00  0.00     0.198 A 
ATOM     65  C   UNL A   1      44.717  26.143  35.916  1.00  0.00     0.198 A 
ATOM     66  F   UNL A   1      42.456  26.262  35.271  1.00  0.00    -0.203 F 
ATOM     67  F   UNL A   1      47.495  28.361  35.205  1.00  0.00    -0.200 F 
ATOM     68  C   UNL A   1      45.997  26.675  35.909  1.00  0.00     0.200 A 
ATOM     69  F   UNL A   1      44.464  25.013  36.590  1.00  0.00    -0.200 F 
ATOM     70  F   UNL A   1      46.986  26.053  36.568  1.00  0.00    -0.200 F 
ENDBRANCH  37  60
ENDBRANCH  11  12
ENDBRANCH   4   6
ENDBRANCH   1   2
BRANCH   1  71
ATOM     71  C   UNL A   1      31.217  32.210  26.500  1.00  0.00     0.023 C 
BRANCH  71  72
ATOM     72  C   UNL A   1      31.383  30.838  25.842  1.00  0.00     0.023 C 
BRANCH  72  73
ATOM     73  C   UNL A   1      32.683  30.105  26.173  1.00  0.00     0.116 C 
BRANCH  73  74
ATOM     74  N   UNL A   1      33.491  29.675  25.041  1.00  0.00    -0.353 N 
ATOM     75  C   UNL A   1      33.333  28.695  24.090  1.00  0.00     0.257 C 
ATOM     76  H   UNL A   1      34.321  30.193  24.933  1.00  0.00     0.163 HD
ATOM     77  O   UNL A   1      34.009  28.849  23.065  1.00  0.00    -0.271 OA
BRANCH  75  78
ATOM     78  C   UNL A   1      32.498  27.384  24.329  1.00  0.00     0.177 C 
ATOM     79  C   UNL A   1      30.990  27.606  24.476  1.00  0.00     0.061 C 
ATOM     80  N   UNL A   1      32.546  26.444  23.201  1.00  0.00    -0.287 N 
ATOM     81  S   UNL A   1      33.326  26.518  25.746  1.00  0.00    -0.085 SA
ATOM     82  C   UNL A   1      30.334  27.036  23.215  1.00  0.00     0.104 C 
ATOM     83  C   UNL A   1      31.481  26.639  22.334  1.00  0.00     0.228 C 
ATOM     84  C   UNL A   1      32.895  25.114  23.562  1.00  0.00     0.061 A 
ATOM     85  C   UNL A   1      33.345  24.984  24.876  1.00  0.00     0.034 A 
ATOM     86  O   UNL A   1      31.385  26.324  21.159  1.00  0.00    -0.274 OA
ATOM     87  C   UNL A   1      32.591  23.981  22.812  1.00  0.00     0.048 A 
ATOM     88  C   UNL A   1      33.549  23.740  25.452  1.00  0.00     0.019 A 
ATOM     89  C   UNL A   1      32.720  22.729  23.412  1.00  0.00     0.043 A 
ATOM     90  C   UNL A   1      33.213  22.602  24.715  1.00  0.00     0.022 A 
ATOM     91  Cl  UNL A   1      32.165  21.328  22.579  1.00  0.00    -0.084 Cl
ENDBRANCH  75  78
ENDBRANCH  73  74
ENDBRANCH  72  73
ENDBRANCH  71  72
ENDBRANCH   1  71
TORSDOF 11
ENDMDL
