MODEL 1
REMARK VINA RESULT:     -13.7      0.000      0.000
REMARK SMILES CC(=O)N[C@@H](CS[C@@H]1CC(=O)N(c2cccc3ccccc23)C1=O)C(=O)NCCCCNC(=O)c1ccc(-c2c3nc(c(-c4c(F)c(F)c(F)c(F)c4F)c4ccc([nH]4)c(-c4c(F)c(F)c(F)c(F)c4F)c4nc(c(-c5c(F)c(F)c(F)c(F)c5F)c5ccc2[nH]5)C=C4)C=C3)cc1
REMARK SMILES IDX 28 1 27 2 25 3 26 4 5 6 4 7 1 8 2 9 3 10 6 12 7 13 8 14 9 15
REMARK SMILES IDX 23 16 10 17 12 18 24 19 11 20 13 21 14 22 22 23 15 24 17 25
REMARK SMILES IDX 21 26 16 27 18 28 20 29 19 30 29 31 30 32 31 33 32 34 33 35
REMARK SMILES IDX 34 37 35 38 36 39 97 40 37 41 96 42 38 43 39 44 40 45 90 46
REMARK SMILES IDX 41 47 95 48 89 49 91 50 42 51 94 52 88 53 87 54 43 56 75 57
REMARK SMILES IDX 55 58 74 59 56 60 59 61 73 62 92 63 57 64 58 65 72 67 93 68
REMARK SMILES IDX 60 69 44 70 45 71 53 72 46 73 47 74 51 75 54 76 48 77 49 78
REMARK SMILES IDX 52 79 50 80 76 81 77 82 85 83 78 84 79 85 83 86 86 87 80 88
REMARK SMILES IDX 81 89 84 90 82 91 61 92 62 93 70 94 63 95 64 96 68 97 71 98
REMARK SMILES IDX 65 99 66 100 69 101 67 102
REMARK H PARENT 27 5 4 11 32 36 91 55 59 66
REMARK Flexibility Score: inf
ROOT
ATOM      1  C   UNL A   1      31.709  29.477  25.827  1.00  0.00     0.116 C 
ENDROOT
BRANCH   1   2
ATOM      2  N   UNL A   1      32.780  29.217  24.901  1.00  0.00    -0.354 N 
ATOM      3  C   UNL A   1      32.697  29.013  23.553  1.00  0.00     0.243 C 
ATOM      4  O   UNL A   1      33.703  29.271  22.883  1.00  0.00    -0.273 OA
ATOM      5  H   UNL A   1      33.685  29.181  25.286  1.00  0.00     0.163 HD
BRANCH   3   6
ATOM      6  C   UNL A   1      31.407  28.513  22.851  1.00  0.00     0.181 C 
BRANCH   6   7
ATOM      7  N   UNL A   1      30.784  29.525  22.005  1.00  0.00    -0.344 N 
ATOM      8  C   UNL A   1      28.487  29.140  22.845  1.00  0.00     0.114 C 
ATOM      9  C   UNL A   1      29.465  29.875  21.967  1.00  0.00     0.217 C 
ATOM     10  O   UNL A   1      29.117  30.772  21.204  1.00  0.00    -0.275 OA
ATOM     11  H   UNL A   1      31.382  30.010  21.393  1.00  0.00     0.164 HD
ENDBRANCH   6   7
BRANCH   6  12
ATOM     12  C   UNL A   1      31.432  27.096  22.242  1.00  0.00     0.105 C 
BRANCH  12  13
ATOM     13  S   UNL A   1      32.709  25.815  22.573  1.00  0.00    -0.145 SA
BRANCH  13  14
ATOM     14  C   UNL A   1      31.773  24.302  23.077  1.00  0.00     0.146 C 
ATOM     15  C   UNL A   1      31.286  24.242  24.505  1.00  0.00     0.125 C 
ATOM     16  C   UNL A   1      32.732  23.133  22.965  1.00  0.00     0.247 C 
ATOM     17  C   UNL A   1      32.150  23.208  25.162  1.00  0.00     0.235 C 
ATOM     18  N   UNL A   1      33.003  22.677  24.228  1.00  0.00    -0.249 N 
ATOM     19  O   UNL A   1      33.126  22.689  21.893  1.00  0.00    -0.273 OA
ATOM     20  O   UNL A   1      32.044  22.925  26.345  1.00  0.00    -0.274 OA
BRANCH  18  21
ATOM     21  C   UNL A   1      33.978  21.696  24.536  1.00  0.00     0.060 A 
ATOM     22  C   UNL A   1      35.264  22.133  24.897  1.00  0.00     0.027 A 
ATOM     23  C   UNL A   1      33.710  20.299  24.392  1.00  0.00     0.006 A 
ATOM     24  C   UNL A   1      36.283  21.220  25.143  1.00  0.00     0.003 A 
ATOM     25  C   UNL A   1      34.777  19.388  24.611  1.00  0.00    -0.016 A 
ATOM     26  C   UNL A   1      32.474  19.745  23.969  1.00  0.00     0.011 A 
ATOM     27  C   UNL A   1      36.040  19.860  24.996  1.00  0.00     0.009 A 
ATOM     28  C   UNL A   1      34.587  18.010  24.411  1.00  0.00     0.009 A 
ATOM     29  C   UNL A   1      32.300  18.372  23.777  1.00  0.00     0.001 A 
ATOM     30  C   UNL A   1      33.358  17.504  23.993  1.00  0.00     0.001 A 
ENDBRANCH  18  21
ENDBRANCH  13  14
ENDBRANCH  12  13
ENDBRANCH   6  12
ENDBRANCH   3   6
ENDBRANCH   1   2
BRANCH   1  31
ATOM     31  C   UNL A   1      32.093  30.333  27.024  1.00  0.00     0.023 C 
BRANCH  31  32
ATOM     32  C   UNL A   1      31.810  31.820  26.860  1.00  0.00     0.023 C 
BRANCH  32  33
ATOM     33  C   UNL A   1      32.916  32.758  27.333  1.00  0.00     0.116 C 
BRANCH  33  34
ATOM     34  N   UNL A   1      32.474  34.109  27.641  1.00  0.00    -0.352 N 
ATOM     35  C   UNL A   1      32.978  34.978  28.585  1.00  0.00     0.251 C 
ATOM     36  H   UNL A   1      31.717  34.447  27.109  1.00  0.00     0.163 HD
ATOM     37  O   UNL A   1      32.444  36.062  28.792  1.00  0.00    -0.269 OA
BRANCH  35  38
ATOM     38  C   UNL A   1      34.144  34.567  29.395  1.00  0.00     0.039 A 
ATOM     39  C   UNL A   1      33.923  34.065  30.679  1.00  0.00     0.014 A 
ATOM     40  C   UNL A   1      35.437  34.608  28.866  1.00  0.00     0.014 A 
ATOM     41  C   UNL A   1      34.987  33.514  31.393  1.00  0.00     0.010 A 
ATOM     42  C   UNL A   1      36.477  33.978  29.541  1.00  0.00     0.010 A 
ATOM     43  C   UNL A   1      36.260  33.415  30.807  1.00  0.00    -0.014 A 
BRANCH  43  44
ATOM     44  C   UNL A   1      37.359  32.694  31.497  1.00  0.00     0.031 A 
ATOM     45  C   UNL A   1      38.043  31.531  30.839  1.00  0.00     0.074 A 
ATOM     46  C   UNL A   1      37.698  33.056  32.751  1.00  0.00     0.049 A 
ATOM     47  N   UNL A   1      39.022  30.786  31.289  1.00  0.00    -0.248 NA
ATOM     48  C   UNL A   1      37.545  31.130  29.514  1.00  0.00     0.031 C 
ATOM     49  C   UNL A   1      37.050  34.113  33.532  1.00  0.00     0.029 A 
ATOM     50  N   UNL A   1      38.673  32.576  33.589  1.00  0.00    -0.354 N 
ATOM     51  C   UNL A   1      39.246  29.827  30.310  1.00  0.00     0.074 A 
ATOM     52  C   UNL A   1      38.264  30.044  29.272  1.00  0.00     0.031 C 
ATOM     53  C   UNL A   1      37.670  34.227  34.717  1.00  0.00     0.029 A 
ATOM     54  C   UNL A   1      38.740  33.238  34.791  1.00  0.00     0.049 A 
ATOM     55  H   UNL A   1      39.268  31.829  33.352  1.00  0.00     0.167 HD
ATOM     56  C   UNL A   1      40.205  28.872  30.269  1.00  0.00     0.037 A 
ATOM     57  C   UNL A   1      39.579  33.073  35.831  1.00  0.00     0.037 A 
ATOM     58  C   UNL A   1      41.201  28.678  31.289  1.00  0.00     0.049 A 
ATOM     59  C   UNL A   1      40.658  32.030  35.743  1.00  0.00     0.074 A 
ATOM     60  C   UNL A   1      42.264  27.792  31.303  1.00  0.00     0.029 A 
ATOM     61  N   UNL A   1      41.256  29.387  32.481  1.00  0.00    -0.354 N 
ATOM     62  N   UNL A   1      40.921  31.191  34.771  1.00  0.00    -0.248 NA
ATOM     63  C   UNL A   1      41.565  31.919  36.894  1.00  0.00     0.031 C 
ATOM     64  C   UNL A   1      42.938  27.935  32.521  1.00  0.00     0.029 A 
ATOM     65  C   UNL A   1      42.322  28.941  33.247  1.00  0.00     0.049 A 
ATOM     66  H   UNL A   1      40.630  30.100  32.744  1.00  0.00     0.167 HD
ATOM     67  C   UNL A   1      42.031  30.468  35.181  1.00  0.00     0.074 A 
ATOM     68  C   UNL A   1      42.408  30.983  36.481  1.00  0.00     0.031 C 
ATOM     69  C   UNL A   1      42.679  29.462  34.541  1.00  0.00     0.037 A 
BRANCH  56  70
ATOM     70  C   UNL A   1      40.231  27.971  29.068  1.00  0.00     0.064 A 
ATOM     71  C   UNL A   1      40.970  28.299  27.921  1.00  0.00     0.173 A 
ATOM     72  C   UNL A   1      39.537  26.752  29.076  1.00  0.00     0.173 A 
ATOM     73  F   UNL A   1      41.641  29.460  27.859  1.00  0.00    -0.203 F 
ATOM     74  C   UNL A   1      40.989  27.454  26.814  1.00  0.00     0.198 A 
ATOM     75  C   UNL A   1      39.581  25.896  27.978  1.00  0.00     0.198 A 
ATOM     76  F   UNL A   1      38.819  26.388  30.148  1.00  0.00    -0.203 F 
ATOM     77  F   UNL A   1      41.660  27.812  25.712  1.00  0.00    -0.200 F 
ATOM     78  C   UNL A   1      40.300  26.250  26.846  1.00  0.00     0.200 A 
ATOM     79  F   UNL A   1      38.925  24.728  28.014  1.00  0.00    -0.200 F 
ATOM     80  F   UNL A   1      40.324  25.436  25.783  1.00  0.00    -0.200 F 
ENDBRANCH  56  70
BRANCH  57  81
ATOM     81  C   UNL A   1      39.460  33.948  37.026  1.00  0.00     0.064 A 
ATOM     82  C   UNL A   1      40.065  35.213  37.051  1.00  0.00     0.173 A 
ATOM     83  C   UNL A   1      38.745  33.544  38.161  1.00  0.00     0.173 A 
ATOM     84  F   UNL A   1      40.776  35.636  35.995  1.00  0.00    -0.203 F 
ATOM     85  C   UNL A   1      39.975  36.032  38.175  1.00  0.00     0.198 A 
ATOM     86  C   UNL A   1      38.634  34.374  39.274  1.00  0.00     0.198 A 
ATOM     87  F   UNL A   1      38.144  32.345  38.184  1.00  0.00    -0.203 F 
ATOM     88  F   UNL A   1      40.598  37.218  38.188  1.00  0.00    -0.200 F 
ATOM     89  C   UNL A   1      39.255  35.614  39.283  1.00  0.00     0.200 A 
ATOM     90  F   UNL A   1      37.926  33.973  40.339  1.00  0.00    -0.200 F 
ATOM     91  F   UNL A   1      39.165  36.403  40.363  1.00  0.00    -0.200 F 
ENDBRANCH  57  81
BRANCH  69  92
ATOM     92  C   UNL A   1      43.866  28.866  35.237  1.00  0.00     0.064 A 
ATOM     93  C   UNL A   1      43.731  27.781  36.117  1.00  0.00     0.173 A 
ATOM     94  C   UNL A   1      45.154  29.371  35.007  1.00  0.00     0.173 A 
ATOM     95  F   UNL A   1      42.518  27.274  36.381  1.00  0.00    -0.203 F 
ATOM     96  C   UNL A   1      44.841  27.243  36.763  1.00  0.00     0.198 A 
ATOM     97  C   UNL A   1      46.265  28.812  35.633  1.00  0.00     0.198 A 
ATOM     98  F   UNL A   1      45.337  30.404  34.170  1.00  0.00    -0.203 F 
ATOM     99  F   UNL A   1      44.682  26.242  37.640  1.00  0.00    -0.200 F 
ATOM    100  C   UNL A   1      46.106  27.756  36.517  1.00  0.00     0.200 A 
ATOM    101  F   UNL A   1      47.488  29.299  35.385  1.00  0.00    -0.200 F 
ATOM    102  F   UNL A   1      47.173  27.236  37.140  1.00  0.00    -0.200 F 
ENDBRANCH  69  92
ENDBRANCH  43  44
ENDBRANCH  35  38
ENDBRANCH  33  34
ENDBRANCH  32  33
ENDBRANCH  31  32
ENDBRANCH   1  31
TORSDOF 16
ENDMDL
MODEL 2
REMARK VINA RESULT:     -13.7      0.722      2.146
REMARK SMILES CC(=O)N[C@@H](CS[C@@H]1CC(=O)N(c2cccc3ccccc23)C1=O)C(=O)NCCCCNC(=O)c1ccc(-c2c3nc(c(-c4c(F)c(F)c(F)c(F)c4F)c4ccc([nH]4)c(-c4c(F)c(F)c(F)c(F)c4F)c4nc(c(-c5c(F)c(F)c(F)c(F)c5F)c5ccc2[nH]5)C=C4)C=C3)cc1
REMARK SMILES IDX 28 1 27 2 25 3 26 4 5 6 4 7 1 8 2 9 3 10 6 12 7 13 8 14 9 15
REMARK SMILES IDX 23 16 10 17 12 18 24 19 11 20 13 21 14 22 22 23 15 24 17 25
REMARK SMILES IDX 21 26 16 27 18 28 20 29 19 30 29 31 30 32 31 33 32 34 33 35
REMARK SMILES IDX 34 37 35 38 36 39 97 40 37 41 96 42 38 43 39 44 40 45 90 46
REMARK SMILES IDX 41 47 95 48 89 49 91 50 42 51 94 52 88 53 87 54 43 56 75 57
REMARK SMILES IDX 55 58 74 59 56 60 59 61 73 62 92 63 57 64 58 65 72 67 93 68
REMARK SMILES IDX 60 69 44 70 45 71 53 72 46 73 47 74 51 75 54 76 48 77 49 78
REMARK SMILES IDX 52 79 50 80 76 81 77 82 85 83 78 84 79 85 83 86 86 87 80 88
REMARK SMILES IDX 81 89 84 90 82 91 61 92 62 93 70 94 63 95 64 96 68 97 71 98
REMARK SMILES IDX 65 99 66 100 69 101 67 102
REMARK H PARENT 27 5 4 11 32 36 91 55 59 66
REMARK Flexibility Score: inf
ROOT
ATOM      1  C   UNL A   1      31.401  29.583  25.835  1.00  0.00     0.116 C 
ENDROOT
BRANCH   1   2
ATOM      2  N   UNL A   1      32.144  29.208  24.660  1.00  0.00    -0.354 N 
ATOM      3  C   UNL A   1      31.668  28.965  23.404  1.00  0.00     0.243 C 
ATOM      4  O   UNL A   1      32.456  29.120  22.465  1.00  0.00    -0.273 OA
ATOM      5  H   UNL A   1      33.117  29.115  24.777  1.00  0.00     0.163 HD
BRANCH   3   6
ATOM      6  C   UNL A   1      30.202  28.543  23.122  1.00  0.00     0.181 C 
BRANCH   6   7
ATOM      7  N   UNL A   1      29.623  29.216  21.965  1.00  0.00    -0.344 N 
ATOM      8  C   UNL A   1      27.619  30.042  23.162  1.00  0.00     0.114 C 
ATOM      9  C   UNL A   1      28.462  29.933  21.918  1.00  0.00     0.217 C 
ATOM     10  O   UNL A   1      28.135  30.455  20.856  1.00  0.00    -0.275 OA
ATOM     11  H   UNL A   1      30.126  29.145  21.122  1.00  0.00     0.164 HD
ENDBRANCH   6   7
BRANCH   6  12
ATOM     12  C   UNL A   1      29.860  27.042  23.228  1.00  0.00     0.105 C 
BRANCH  12  13
ATOM     13  S   UNL A   1      30.570  25.870  24.455  1.00  0.00    -0.145 SA
BRANCH  13  14
ATOM     14  C   UNL A   1      32.347  25.678  23.982  1.00  0.00     0.146 C 
ATOM     15  C   UNL A   1      32.643  25.397  22.528  1.00  0.00     0.125 C 
ATOM     16  C   UNL A   1      32.865  24.450  24.706  1.00  0.00     0.247 C 
ATOM     17  C   UNL A   1      33.090  23.967  22.495  1.00  0.00     0.235 C 
ATOM     18  N   UNL A   1      33.115  23.476  23.776  1.00  0.00    -0.249 N 
ATOM     19  O   UNL A   1      33.048  24.413  25.917  1.00  0.00    -0.273 OA
ATOM     20  O   UNL A   1      33.384  23.399  21.456  1.00  0.00    -0.274 OA
BRANCH  18  21
ATOM     21  C   UNL A   1      33.461  22.137  24.087  1.00  0.00     0.060 A 
ATOM     22  C   UNL A   1      32.420  21.215  24.288  1.00  0.00     0.027 A 
ATOM     23  C   UNL A   1      34.819  21.741  24.295  1.00  0.00     0.006 A 
ATOM     24  C   UNL A   1      32.692  19.905  24.664  1.00  0.00     0.003 A 
ATOM     25  C   UNL A   1      35.069  20.408  24.717  1.00  0.00    -0.016 A 
ATOM     26  C   UNL A   1      35.944  22.599  24.189  1.00  0.00     0.011 A 
ATOM     27  C   UNL A   1      34.006  19.509  24.881  1.00  0.00     0.009 A 
ATOM     28  C   UNL A   1      36.379  19.989  25.006  1.00  0.00     0.009 A 
ATOM     29  C   UNL A   1      37.241  22.166  24.479  1.00  0.00     0.001 A 
ATOM     30  C   UNL A   1      37.458  20.862  24.892  1.00  0.00     0.001 A 
ENDBRANCH  18  21
ENDBRANCH  13  14
ENDBRANCH  12  13
ENDBRANCH   6  12
ENDBRANCH   3   6
ENDBRANCH   1   2
BRANCH   1  31
ATOM     31  C   UNL A   1      32.180  30.403  26.851  1.00  0.00     0.023 C 
BRANCH  31  32
ATOM     32  C   UNL A   1      31.811  31.880  26.894  1.00  0.00     0.023 C 
BRANCH  32  33
ATOM     33  C   UNL A   1      32.922  32.823  27.345  1.00  0.00     0.116 C 
BRANCH  33  34
ATOM     34  N   UNL A   1      32.478  34.172  27.667  1.00  0.00    -0.352 N 
ATOM     35  C   UNL A   1      32.983  35.032  28.617  1.00  0.00     0.251 C 
ATOM     36  H   UNL A   1      31.720  34.512  27.139  1.00  0.00     0.163 HD
ATOM     37  O   UNL A   1      32.447  36.113  28.835  1.00  0.00    -0.269 OA
BRANCH  35  38
ATOM     38  C   UNL A   1      34.151  34.617  29.421  1.00  0.00     0.039 A 
ATOM     39  C   UNL A   1      33.937  34.140  30.715  1.00  0.00     0.014 A 
ATOM     40  C   UNL A   1      35.438  34.628  28.877  1.00  0.00     0.014 A 
ATOM     41  C   UNL A   1      35.000  33.584  31.427  1.00  0.00     0.010 A 
ATOM     42  C   UNL A   1      36.476  33.992  29.551  1.00  0.00     0.010 A 
ATOM     43  C   UNL A   1      36.264  33.455  30.829  1.00  0.00    -0.014 A 
BRANCH  43  44
ATOM     44  C   UNL A   1      37.359  32.727  31.519  1.00  0.00     0.031 A 
ATOM     45  C   UNL A   1      38.040  31.564  30.859  1.00  0.00     0.074 A 
ATOM     46  C   UNL A   1      37.697  33.084  32.774  1.00  0.00     0.049 A 
ATOM     47  N   UNL A   1      39.015  30.813  31.308  1.00  0.00    -0.248 NA
ATOM     48  C   UNL A   1      37.544  31.168  29.532  1.00  0.00     0.031 C 
ATOM     49  C   UNL A   1      37.052  34.141  33.557  1.00  0.00     0.029 A 
ATOM     50  N   UNL A   1      38.669  32.599  33.613  1.00  0.00    -0.354 N 
ATOM     51  C   UNL A   1      39.238  29.857  30.328  1.00  0.00     0.074 A 
ATOM     52  C   UNL A   1      38.258  30.081  29.288  1.00  0.00     0.031 C 
ATOM     53  C   UNL A   1      37.670  34.251  34.744  1.00  0.00     0.029 A 
ATOM     54  C   UNL A   1      38.736  33.257  34.817  1.00  0.00     0.049 A 
ATOM     55  H   UNL A   1      39.262  31.850  33.375  1.00  0.00     0.167 HD
ATOM     56  C   UNL A   1      40.193  28.898  30.285  1.00  0.00     0.037 A 
ATOM     57  C   UNL A   1      39.573  33.086  35.858  1.00  0.00     0.037 A 
ATOM     58  C   UNL A   1      41.186  28.698  31.306  1.00  0.00     0.049 A 
ATOM     59  C   UNL A   1      40.648  32.039  35.769  1.00  0.00     0.074 A 
ATOM     60  C   UNL A   1      42.246  27.807  31.320  1.00  0.00     0.029 A 
ATOM     61  N   UNL A   1      41.242  29.403  32.501  1.00  0.00    -0.354 N 
ATOM     62  N   UNL A   1      40.909  31.202  34.795  1.00  0.00    -0.248 NA
ATOM     63  C   UNL A   1      41.552  31.922  36.921  1.00  0.00     0.031 C 
ATOM     64  C   UNL A   1      42.918  27.945  32.539  1.00  0.00     0.029 A 
ATOM     65  C   UNL A   1      42.305  28.951  33.267  1.00  0.00     0.049 A 
ATOM     66  H   UNL A   1      40.619  30.118  32.764  1.00  0.00     0.167 HD
ATOM     67  C   UNL A   1      42.016  30.473  35.205  1.00  0.00     0.074 A 
ATOM     68  C   UNL A   1      42.392  30.984  36.508  1.00  0.00     0.031 C 
ATOM     69  C   UNL A   1      42.661  29.468  34.563  1.00  0.00     0.037 A 
BRANCH  56  70
ATOM     70  C   UNL A   1      40.218  28.000  29.082  1.00  0.00     0.064 A 
ATOM     71  C   UNL A   1      40.948  28.336  27.931  1.00  0.00     0.173 A 
ATOM     72  C   UNL A   1      39.532  26.777  29.090  1.00  0.00     0.173 A 
ATOM     73  F   UNL A   1      41.611  29.501  27.869  1.00  0.00    -0.203 F 
ATOM     74  C   UNL A   1      40.966  27.494  26.822  1.00  0.00     0.198 A 
ATOM     75  C   UNL A   1      39.576  25.924  27.990  1.00  0.00     0.198 A 
ATOM     76  F   UNL A   1      38.823  26.406  30.166  1.00  0.00    -0.203 F 
ATOM     77  F   UNL A   1      41.629  27.860  25.717  1.00  0.00    -0.200 F 
ATOM     78  C   UNL A   1      40.286  26.286  26.855  1.00  0.00     0.200 A 
ATOM     79  F   UNL A   1      38.927  24.752  28.027  1.00  0.00    -0.200 F 
ATOM     80  F   UNL A   1      40.309  25.474  25.790  1.00  0.00    -0.200 F 
ENDBRANCH  56  70
BRANCH  57  81
ATOM     81  C   UNL A   1      39.455  33.958  37.055  1.00  0.00     0.064 A 
ATOM     82  C   UNL A   1      38.762  33.524  38.193  1.00  0.00     0.173 A 
ATOM     83  C   UNL A   1      40.029  35.236  37.088  1.00  0.00     0.173 A 
ATOM     84  F   UNL A   1      38.178  32.315  38.201  1.00  0.00    -0.203 F 
ATOM     85  C   UNL A   1      38.630  34.343  39.312  1.00  0.00     0.198 A 
ATOM     86  C   UNL A   1      39.918  36.045  38.218  1.00  0.00     0.198 A 
ATOM     87  F   UNL A   1      40.708  35.696  36.027  1.00  0.00    -0.203 F 
ATOM     88  F   UNL A   1      37.925  33.920  40.370  1.00  0.00    -0.200 F 
ATOM     89  C   UNL A   1      39.213  35.601  39.325  1.00  0.00     0.200 A 
ATOM     90  F   UNL A   1      40.495  37.255  38.233  1.00  0.00    -0.200 F 
ATOM     91  F   UNL A   1      39.089  36.387  40.404  1.00  0.00    -0.200 F 
ENDBRANCH  57  81
BRANCH  69  92
ATOM     92  C   UNL A   1      43.845  28.864  35.260  1.00  0.00     0.064 A 
ATOM     93  C   UNL A   1      45.145  29.348  35.046  1.00  0.00     0.173 A 
ATOM     94  C   UNL A   1      43.677  27.805  36.163  1.00  0.00     0.173 A 
ATOM     95  F   UNL A   1      45.359  30.349  34.179  1.00  0.00    -0.203 F 
ATOM     96  C   UNL A   1      46.236  28.773  35.692  1.00  0.00     0.198 A 
ATOM     97  C   UNL A   1      44.767  27.252  36.829  1.00  0.00     0.198 A 
ATOM     98  F   UNL A   1      42.453  27.311  36.406  1.00  0.00    -0.203 F 
ATOM     99  F   UNL A   1      47.475  29.215  35.433  1.00  0.00    -0.200 F 
ATOM    100  C   UNL A   1      46.046  27.730  36.586  1.00  0.00     0.200 A 
ATOM    101  F   UNL A   1      44.581  26.252  37.702  1.00  0.00    -0.200 F 
ATOM    102  F   UNL A   1      47.098  27.178  37.207  1.00  0.00    -0.200 F 
ENDBRANCH  69  92
ENDBRANCH  43  44
ENDBRANCH  35  38
ENDBRANCH  33  34
ENDBRANCH  32  33
ENDBRANCH  31  32
ENDBRANCH   1  31
TORSDOF 16
ENDMDL
MODEL 3
REMARK VINA RESULT:     -13.7      5.485     11.417
REMARK SMILES CC(=O)N[C@@H](CS[C@@H]1CC(=O)N(c2cccc3ccccc23)C1=O)C(=O)NCCCCNC(=O)c1ccc(-c2c3nc(c(-c4c(F)c(F)c(F)c(F)c4F)c4ccc([nH]4)c(-c4c(F)c(F)c(F)c(F)c4F)c4nc(c(-c5c(F)c(F)c(F)c(F)c5F)c5ccc2[nH]5)C=C4)C=C3)cc1
REMARK SMILES IDX 28 1 27 2 25 3 26 4 5 6 4 7 1 8 2 9 3 10 6 12 7 13 8 14 9 15
REMARK SMILES IDX 23 16 10 17 12 18 24 19 11 20 13 21 14 22 22 23 15 24 17 25
REMARK SMILES IDX 21 26 16 27 18 28 20 29 19 30 29 31 30 32 31 33 32 34 33 35
REMARK SMILES IDX 34 37 35 38 36 39 97 40 37 41 96 42 38 43 39 44 40 45 90 46
REMARK SMILES IDX 41 47 95 48 89 49 91 50 42 51 94 52 88 53 87 54 43 56 75 57
REMARK SMILES IDX 55 58 74 59 56 60 59 61 73 62 92 63 57 64 58 65 72 67 93 68
REMARK SMILES IDX 60 69 44 70 45 71 53 72 46 73 47 74 51 75 54 76 48 77 49 78
REMARK SMILES IDX 52 79 50 80 76 81 77 82 85 83 78 84 79 85 83 86 86 87 80 88
REMARK SMILES IDX 81 89 84 90 82 91 61 92 62 93 70 94 63 95 64 96 68 97 71 98
REMARK SMILES IDX 65 99 66 100 69 101 67 102
REMARK H PARENT 27 5 4 11 32 36 91 55 59 66
REMARK Flexibility Score: inf
ROOT
ATOM      1  C   UNL A   1      36.004  21.525  24.600  1.00  0.00     0.116 C 
ENDROOT
BRANCH   1   2
ATOM      2  N   UNL A   1      35.178  21.749  25.757  1.00  0.00    -0.354 N 
ATOM      3  C   UNL A   1      34.122  21.002  26.195  1.00  0.00     0.243 C 
ATOM      4  O   UNL A   1      33.852  21.064  27.399  1.00  0.00    -0.273 OA
ATOM      5  H   UNL A   1      35.400  22.540  26.300  1.00  0.00     0.163 HD
BRANCH   3   6
ATOM      6  C   UNL A   1      33.294  20.079  25.263  1.00  0.00     0.181 C 
BRANCH   6   7
ATOM      7  N   UNL A   1      32.940  18.806  25.882  1.00  0.00    -0.344 N 
ATOM      8  C   UNL A   1      33.398  17.440  23.868  1.00  0.00     0.114 C 
ATOM      9  C   UNL A   1      32.984  17.567  25.311  1.00  0.00     0.217 C 
ATOM     10  O   UNL A   1      32.669  16.594  25.991  1.00  0.00    -0.275 OA
ATOM     11  H   UNL A   1      32.634  18.846  26.816  1.00  0.00     0.164 HD
ENDBRANCH   6   7
BRANCH   6  12
ATOM     12  C   UNL A   1      32.162  20.729  24.441  1.00  0.00     0.105 C 
BRANCH  12  13
ATOM     13  S   UNL A   1      32.118  22.481  23.885  1.00  0.00    -0.145 SA
BRANCH  13  14
ATOM     14  C   UNL A   1      32.174  23.491  25.432  1.00  0.00     0.146 C 
ATOM     15  C   UNL A   1      30.925  23.513  26.282  1.00  0.00     0.125 C 
ATOM     16  C   UNL A   1      32.354  24.936  25.009  1.00  0.00     0.247 C 
ATOM     17  C   UNL A   1      30.362  24.890  26.105  1.00  0.00     0.235 C 
ATOM     18  N   UNL A   1      31.201  25.617  25.299  1.00  0.00    -0.249 N 
ATOM     19  O   UNL A   1      33.397  25.370  24.534  1.00  0.00    -0.273 OA
ATOM     20  O   UNL A   1      29.322  25.243  26.637  1.00  0.00    -0.274 OA
BRANCH  18  21
ATOM     21  C   UNL A   1      30.936  26.953  24.906  1.00  0.00     0.060 A 
ATOM     22  C   UNL A   1      30.235  27.161  23.706  1.00  0.00     0.027 A 
ATOM     23  C   UNL A   1      31.446  28.068  25.641  1.00  0.00     0.006 A 
ATOM     24  C   UNL A   1      30.005  28.447  23.230  1.00  0.00     0.003 A 
ATOM     25  C   UNL A   1      31.231  29.369  25.115  1.00  0.00    -0.016 A 
ATOM     26  C   UNL A   1      32.222  27.977  26.825  1.00  0.00     0.011 A 
ATOM     27  C   UNL A   1      30.503  29.540  23.929  1.00  0.00     0.009 A 
ATOM     28  C   UNL A   1      31.774  30.494  25.759  1.00  0.00     0.009 A 
ATOM     29  C   UNL A   1      32.754  29.106  27.455  1.00  0.00     0.001 A 
ATOM     30  C   UNL A   1      32.533  30.365  26.920  1.00  0.00     0.001 A 
ENDBRANCH  18  21
ENDBRANCH  13  14
ENDBRANCH  12  13
ENDBRANCH   6  12
ENDBRANCH   3   6
ENDBRANCH   1   2
BRANCH   1  31
ATOM     31  C   UNL A   1      37.499  21.664  24.845  1.00  0.00     0.023 C 
BRANCH  31  32
ATOM     32  C   UNL A   1      38.235  20.348  25.052  1.00  0.00     0.023 C 
BRANCH  32  33
ATOM     33  C   UNL A   1      39.383  20.386  26.055  1.00  0.00     0.116 C 
BRANCH  33  34
ATOM     34  N   UNL A   1      40.289  19.249  25.982  1.00  0.00    -0.352 N 
ATOM     35  C   UNL A   1      41.661  19.241  26.109  1.00  0.00     0.251 C 
ATOM     36  H   UNL A   1      39.868  18.373  25.821  1.00  0.00     0.163 HD
ATOM     37  O   UNL A   1      42.303  18.211  25.938  1.00  0.00    -0.269 OA
BRANCH  35  38
ATOM     38  C   UNL A   1      42.367  20.507  26.399  1.00  0.00     0.039 A 
ATOM     39  C   UNL A   1      42.879  21.247  25.331  1.00  0.00     0.014 A 
ATOM     40  C   UNL A   1      42.459  20.996  27.705  1.00  0.00     0.014 A 
ATOM     41  C   UNL A   1      43.395  22.522  25.564  1.00  0.00     0.010 A 
ATOM     42  C   UNL A   1      42.889  22.301  27.922  1.00  0.00     0.010 A 
ATOM     43  C   UNL A   1      43.353  23.080  26.853  1.00  0.00    -0.014 A 
BRANCH  43  44
ATOM     44  C   UNL A   1      43.756  24.490  27.082  1.00  0.00     0.031 A 
ATOM     45  C   UNL A   1      42.754  25.510  27.539  1.00  0.00     0.074 A 
ATOM     46  C   UNL A   1      45.025  24.863  26.817  1.00  0.00     0.049 A 
ATOM     47  N   UNL A   1      42.926  26.783  27.792  1.00  0.00    -0.248 NA
ATOM     48  C   UNL A   1      41.366  25.049  27.704  1.00  0.00     0.031 C 
ATOM     49  C   UNL A   1      46.072  23.986  26.286  1.00  0.00     0.029 A 
ATOM     50  N   UNL A   1      45.651  26.076  26.959  1.00  0.00    -0.354 N 
ATOM     51  C   UNL A   1      41.674  27.273  28.135  1.00  0.00     0.074 A 
ATOM     52  C   UNL A   1      40.739  26.178  27.998  1.00  0.00     0.031 C 
ATOM     53  C   UNL A   1      47.217  24.678  26.185  1.00  0.00     0.029 A 
ATOM     54  C   UNL A   1      46.982  26.051  26.619  1.00  0.00     0.049 A 
ATOM     55  H   UNL A   1      45.191  26.886  27.276  1.00  0.00     0.167 HD
ATOM     56  C   UNL A   1      41.339  28.516  28.555  1.00  0.00     0.037 A 
ATOM     57  C   UNL A   1      47.911  27.025  26.664  1.00  0.00     0.037 A 
ATOM     58  C   UNL A   1      42.276  29.595  28.721  1.00  0.00     0.049 A 
ATOM     59  C   UNL A   1      47.521  28.386  27.170  1.00  0.00     0.074 A 
ATOM     60  C   UNL A   1      42.052  30.867  29.218  1.00  0.00     0.029 A 
ATOM     61  N   UNL A   1      43.623  29.526  28.393  1.00  0.00    -0.354 N 
ATOM     62  N   UNL A   1      46.352  28.812  27.581  1.00  0.00    -0.248 NA
ATOM     63  C   UNL A   1      48.584  29.399  27.228  1.00  0.00     0.031 C 
ATOM     64  C   UNL A   1      43.254  31.581  29.152  1.00  0.00     0.029 A 
ATOM     65  C   UNL A   1      44.236  30.741  28.657  1.00  0.00     0.049 A 
ATOM     66  H   UNL A   1      44.076  28.732  28.028  1.00  0.00     0.167 HD
ATOM     67  C   UNL A   1      46.540  30.132  27.965  1.00  0.00     0.074 A 
ATOM     68  C   UNL A   1      47.943  30.429  27.760  1.00  0.00     0.031 C 
ATOM     69  C   UNL A   1      45.632  31.020  28.441  1.00  0.00     0.037 A 
BRANCH  56  70
ATOM     70  C   UNL A   1      39.896  28.770  28.881  1.00  0.00     0.064 A 
ATOM     71  C   UNL A   1      39.386  28.553  30.171  1.00  0.00     0.173 A 
ATOM     72  C   UNL A   1      39.020  29.266  27.904  1.00  0.00     0.173 A 
ATOM     73  F   UNL A   1      40.180  28.067  31.138  1.00  0.00    -0.203 F 
ATOM     74  C   UNL A   1      38.046  28.795  30.463  1.00  0.00     0.198 A 
ATOM     75  C   UNL A   1      37.688  29.534  28.207  1.00  0.00     0.198 A 
ATOM     76  F   UNL A   1      39.457  29.495  26.657  1.00  0.00    -0.203 F 
ATOM     77  F   UNL A   1      37.572  28.533  31.688  1.00  0.00    -0.200 F 
ATOM     78  C   UNL A   1      37.200  29.292  29.483  1.00  0.00     0.200 A 
ATOM     79  F   UNL A   1      36.873  30.024  27.263  1.00  0.00    -0.200 F 
ATOM     80  F   UNL A   1      35.912  29.529  29.766  1.00  0.00    -0.200 F 
ENDBRANCH  56  70
BRANCH  57  81
ATOM     81  C   UNL A   1      49.310  26.734  26.260  1.00  0.00     0.064 A 
ATOM     82  C   UNL A   1      49.738  26.957  24.943  1.00  0.00     0.173 A 
ATOM     83  C   UNL A   1      50.246  26.231  27.173  1.00  0.00     0.173 A 
ATOM     84  F   UNL A   1      48.872  27.419  24.027  1.00  0.00    -0.203 F 
ATOM     85  C   UNL A   1      51.043  26.668  24.551  1.00  0.00     0.198 A 
ATOM     86  C   UNL A   1      51.558  25.967  26.786  1.00  0.00     0.198 A 
ATOM     87  F   UNL A   1      49.888  26.007  28.446  1.00  0.00    -0.203 F 
ATOM     88  F   UNL A   1      51.413  26.850  23.276  1.00  0.00    -0.200 F 
ATOM     89  C   UNL A   1      51.953  26.178  25.475  1.00  0.00     0.200 A 
ATOM     90  F   UNL A   1      52.440  25.507  27.685  1.00  0.00    -0.200 F 
ATOM     91  F   UNL A   1      53.210  25.904  25.098  1.00  0.00    -0.200 F 
ENDBRANCH  57  81
BRANCH  69  92
ATOM     92  C   UNL A   1      46.136  32.392  28.781  1.00  0.00     0.064 A 
ATOM     93  C   UNL A   1      46.614  32.700  30.063  1.00  0.00     0.173 A 
ATOM     94  C   UNL A   1      46.158  33.404  27.809  1.00  0.00     0.173 A 
ATOM     95  F   UNL A   1      46.598  31.771  31.030  1.00  0.00    -0.203 F 
ATOM     96  C   UNL A   1      47.070  33.980  30.367  1.00  0.00     0.198 A 
ATOM     97  C   UNL A   1      46.641  34.674  28.109  1.00  0.00     0.198 A 
ATOM     98  F   UNL A   1      45.717  33.157  26.566  1.00  0.00    -0.203 F 
ATOM     99  F   UNL A   1      47.472  34.267  31.613  1.00  0.00    -0.200 F 
ATOM    100  C   UNL A   1      47.087  34.964  29.390  1.00  0.00     0.200 A 
ATOM    101  F   UNL A   1      46.669  35.620  27.161  1.00  0.00    -0.200 F 
ATOM    102  F   UNL A   1      47.527  36.195  29.685  1.00  0.00    -0.200 F 
ENDBRANCH  69  92
ENDBRANCH  43  44
ENDBRANCH  35  38
ENDBRANCH  33  34
ENDBRANCH  32  33
ENDBRANCH  31  32
ENDBRANCH   1  31
TORSDOF 16
ENDMDL
