MODEL 1
REMARK VINA RESULT:     -12.0      0.000      0.000
REMARK SMILES CC(C)C[C@@H](NC(=O)Cn1nc(O)ccc1=O)C(=O)NCCCCNC(=O)c1ccc(-c2c3nc(c(-c4c(F)c(F)c(F)c(F)c4F)c4ccc([nH]4)c(-c4c(F)c(F)c(F)c(F)c4F)c4nc(c(-c5c(F)c(F)c(F)c(F)c5F)c5ccc2[nH]5)C=C4)C=C3)cc1
REMARK SMILES IDX 21 1 20 2 18 3 19 4 5 6 4 7 2 8 1 9 3 10 6 11 7 12 8 14 9 15
REMARK SMILES IDX 10 16 11 17 16 18 12 19 15 20 17 21 14 22 13 23 22 25 23 26
REMARK SMILES IDX 24 27 25 28 26 29 27 31 28 32 29 33 90 34 30 35 89 36 31 37
REMARK SMILES IDX 32 38 33 39 83 40 34 41 88 42 82 43 84 44 35 45 87 46 81 47
REMARK SMILES IDX 80 48 36 50 68 51 48 52 67 53 49 54 52 55 66 56 85 57 50 58
REMARK SMILES IDX 51 59 65 61 86 62 53 63 37 64 38 65 46 66 39 67 40 68 44 69
REMARK SMILES IDX 47 70 41 71 42 72 45 73 43 74 69 75 70 76 78 77 71 78 72 79
REMARK SMILES IDX 76 80 79 81 73 82 74 83 77 84 75 85 54 86 55 87 63 88 56 89
REMARK SMILES IDX 57 90 61 91 64 92 58 93 59 94 62 95 60 96
REMARK H PARENT 20 5 6 13 13 24 25 30 84 49 52 60
REMARK Flexibility Score: inf
ROOT
ATOM      1  C   UNL A   1      36.856  22.511  25.413  1.00  0.00     0.116 C 
ENDROOT
BRANCH   1   2
ATOM      2  N   UNL A   1      35.849  22.106  26.379  1.00  0.00    -0.354 N 
ATOM      3  C   UNL A   1      34.681  21.409  26.205  1.00  0.00     0.242 C 
ATOM      4  O   UNL A   1      34.025  21.174  27.226  1.00  0.00    -0.273 OA
ATOM      5  H   UNL A   1      36.035  22.375  27.308  1.00  0.00     0.163 HD
BRANCH   3   6
ATOM      6  C   UNL A   1      34.072  21.114  24.805  1.00  0.00     0.171 C 
BRANCH   6   7
ATOM      7  C   UNL A   1      33.937  19.569  24.741  1.00  0.00     0.038 C 
BRANCH   7   8
ATOM      8  C   UNL A   1      32.573  18.913  24.453  1.00  0.00    -0.015 C 
ATOM      9  C   UNL A   1      32.397  18.568  22.974  1.00  0.00     0.007 C 
ATOM     10  C   UNL A   1      32.468  17.628  25.289  1.00  0.00     0.007 C 
ENDBRANCH   7   8
ENDBRANCH   6   7
BRANCH   6  11
ATOM     11  N   UNL A   1      32.857  21.865  24.509  1.00  0.00    -0.343 N 
ATOM     12  C   UNL A   1      32.671  22.803  23.522  1.00  0.00     0.242 C 
ATOM     13  H   UNL A   1      32.079  21.678  25.082  1.00  0.00     0.164 HD
ATOM     14  O   UNL A   1      31.507  23.098  23.233  1.00  0.00    -0.273 OA
BRANCH  12  15
ATOM     15  C   UNL A   1      33.864  23.480  22.835  1.00  0.00     0.248 C 
BRANCH  15  16
ATOM     16  N   UNL A   1      33.883  24.906  23.127  1.00  0.00    -0.217 N 
ATOM     17  N   UNL A   1      33.854  25.754  22.043  1.00  0.00    -0.131 NA
ATOM     18  C   UNL A   1      33.972  25.352  24.443  1.00  0.00     0.267 A 
ATOM     19  C   UNL A   1      33.713  26.995  22.312  1.00  0.00     0.229 A 
ATOM     20  C   UNL A   1      33.699  26.798  24.651  1.00  0.00     0.079 A 
ATOM     21  O   UNL A   1      34.213  24.638  25.410  1.00  0.00    -0.268 OA
ATOM     22  C   UNL A   1      33.557  27.624  23.611  1.00  0.00     0.075 A 
BRANCH  19  23
ATOM     23  O   UNL A   1      33.635  27.848  21.292  1.00  0.00    -0.492 OA
ATOM     24  H   UNL A   1      33.732  27.538  20.413  1.00  0.00     0.295 HD
ENDBRANCH  19  23
ENDBRANCH  15  16
ENDBRANCH  12  15
ENDBRANCH   6  11
ENDBRANCH   3   6
ENDBRANCH   1   2
BRANCH   1  25
ATOM     25  C   UNL A   1      37.326  21.391  24.470  1.00  0.00     0.023 C 
BRANCH  25  26
ATOM     26  C   UNL A   1      38.012  20.128  25.020  1.00  0.00     0.023 C 
BRANCH  26  27
ATOM     27  C   UNL A   1      39.242  20.214  25.930  1.00  0.00     0.116 C 
BRANCH  27  28
ATOM     28  N   UNL A   1      40.206  19.136  25.870  1.00  0.00    -0.352 N 
ATOM     29  C   UNL A   1      41.568  19.248  26.100  1.00  0.00     0.251 C 
ATOM     30  H   UNL A   1      39.862  18.242  25.646  1.00  0.00     0.163 HD
ATOM     31  O   UNL A   1      42.308  18.272  26.012  1.00  0.00    -0.269 OA
BRANCH  29  32
ATOM     32  C   UNL A   1      42.143  20.578  26.415  1.00  0.00     0.039 A 
ATOM     33  C   UNL A   1      42.276  20.999  27.738  1.00  0.00     0.014 A 
ATOM     34  C   UNL A   1      42.541  21.425  25.377  1.00  0.00     0.014 A 
ATOM     35  C   UNL A   1      42.678  22.306  28.027  1.00  0.00     0.010 A 
ATOM     36  C   UNL A   1      42.990  22.722  25.668  1.00  0.00     0.010 A 
ATOM     37  C   UNL A   1      43.019  23.192  26.993  1.00  0.00    -0.014 A 
BRANCH  37  38
ATOM     38  C   UNL A   1      43.362  24.612  27.298  1.00  0.00     0.031 A 
ATOM     39  C   UNL A   1      44.754  25.130  27.032  1.00  0.00     0.074 A 
ATOM     40  C   UNL A   1      42.429  25.454  27.784  1.00  0.00     0.049 A 
ATOM     41  N   UNL A   1      45.259  26.316  27.270  1.00  0.00    -0.248 NA
ATOM     42  C   UNL A   1      45.703  24.192  26.415  1.00  0.00     0.031 C 
ATOM     43  C   UNL A   1      41.038  25.100  28.060  1.00  0.00     0.029 A 
ATOM     44  N   UNL A   1      42.509  26.783  28.125  1.00  0.00    -0.354 N 
ATOM     45  C   UNL A   1      46.583  26.261  26.848  1.00  0.00     0.074 A 
ATOM     46  C   UNL A   1      46.812  24.917  26.364  1.00  0.00     0.031 C 
ATOM     47  C   UNL A   1      40.389  26.188  28.504  1.00  0.00     0.029 A 
ATOM     48  C   UNL A   1      41.327  27.303  28.596  1.00  0.00     0.049 A 
ATOM     49  H   UNL A   1      43.334  27.313  28.041  1.00  0.00     0.167 HD
ATOM     50  C   UNL A   1      47.517  27.242  26.853  1.00  0.00     0.037 A 
ATOM     51  C   UNL A   1      41.034  28.533  29.068  1.00  0.00     0.037 A 
ATOM     52  C   UNL A   1      47.290  28.587  27.317  1.00  0.00     0.049 A 
ATOM     53  C   UNL A   1      42.108  29.586  29.124  1.00  0.00     0.074 A 
ATOM     54  C   UNL A   1      48.176  29.651  27.343  1.00  0.00     0.029 A 
ATOM     55  N   UNL A   1      46.092  29.056  27.835  1.00  0.00    -0.354 N 
ATOM     56  N   UNL A   1      43.353  29.518  28.725  1.00  0.00    -0.248 NA
ATOM     57  C   UNL A   1      41.736  30.885  29.706  1.00  0.00     0.031 C 
ATOM     58  C   UNL A   1      47.532  30.748  27.918  1.00  0.00     0.029 A 
ATOM     59  C   UNL A   1      46.226  30.386  28.203  1.00  0.00     0.049 A 
ATOM     60  H   UNL A   1      45.269  28.523  27.927  1.00  0.00     0.167 HD
ATOM     61  C   UNL A   1      43.909  30.763  28.990  1.00  0.00     0.074 A 
ATOM     62  C   UNL A   1      42.859  31.576  29.568  1.00  0.00     0.031 C 
ATOM     63  C   UNL A   1      45.177  31.190  28.776  1.00  0.00     0.037 A 
BRANCH  50  64
ATOM     64  C   UNL A   1      48.889  26.909  26.341  1.00  0.00     0.064 A 
ATOM     65  C   UNL A   1      49.862  26.333  27.172  1.00  0.00     0.173 A 
ATOM     66  C   UNL A   1      49.208  27.090  24.987  1.00  0.00     0.173 A 
ATOM     67  F   UNL A   1      49.612  26.148  28.477  1.00  0.00    -0.203 F 
ATOM     68  C   UNL A   1      51.107  25.962  26.668  1.00  0.00     0.198 A 
ATOM     69  C   UNL A   1      50.443  26.693  24.480  1.00  0.00     0.198 A 
ATOM     70  F   UNL A   1      48.311  27.629  24.147  1.00  0.00    -0.203 F 
ATOM     71  F   UNL A   1      52.031  25.443  27.486  1.00  0.00    -0.200 F 
ATOM     72  C   UNL A   1      51.393  26.133  25.321  1.00  0.00     0.200 A 
ATOM     73  F   UNL A   1      50.712  26.845  23.176  1.00  0.00    -0.200 F 
ATOM     74  F   UNL A   1      52.584  25.761  24.835  1.00  0.00    -0.200 F 
ENDBRANCH  50  64
BRANCH  51  75
ATOM     75  C   UNL A   1      39.651  28.833  29.526  1.00  0.00     0.064 A 
ATOM     76  C   UNL A   1      38.705  29.380  28.649  1.00  0.00     0.173 A 
ATOM     77  C   UNL A   1      39.245  28.567  30.843  1.00  0.00     0.173 A 
ATOM     78  F   UNL A   1      39.055  29.679  27.389  1.00  0.00    -0.203 F 
ATOM     79  C   UNL A   1      37.404  29.650  29.071  1.00  0.00     0.198 A 
ATOM     80  C   UNL A   1      37.936  28.811  31.254  1.00  0.00     0.198 A 
ATOM     81  F   UNL A   1      40.113  28.051  31.723  1.00  0.00    -0.203 F 
ATOM     82  F   UNL A   1      36.529  30.203  28.221  1.00  0.00    -0.200 F 
ATOM     83  C   UNL A   1      37.018  29.355  30.370  1.00  0.00     0.200 A 
ATOM     84  F   UNL A   1      37.564  28.514  32.507  1.00  0.00    -0.200 F 
ATOM     85  F   UNL A   1      35.763  29.601  30.770  1.00  0.00    -0.200 F 
ENDBRANCH  51  75
BRANCH  63  86
ATOM     86  C   UNL A   1      45.511  32.606  29.151  1.00  0.00     0.064 A 
ATOM     87  C   UNL A   1      46.047  32.923  30.407  1.00  0.00     0.173 A 
ATOM     88  C   UNL A   1      45.363  33.644  28.219  1.00  0.00     0.173 A 
ATOM     89  F   UNL A   1      46.197  31.968  31.338  1.00  0.00    -0.203 F 
ATOM     90  C   UNL A   1      46.409  34.231  30.722  1.00  0.00     0.198 A 
ATOM     91  C   UNL A   1      45.752  34.945  28.526  1.00  0.00     0.198 A 
ATOM     92  F   UNL A   1      44.863  33.392  26.999  1.00  0.00    -0.203 F 
ATOM     93  F   UNL A   1      46.888  34.517  31.940  1.00  0.00    -0.200 F 
ATOM     94  C   UNL A   1      46.270  35.238  29.779  1.00  0.00     0.200 A 
ATOM     95  F   UNL A   1      45.631  35.914  27.608  1.00  0.00    -0.200 F 
ATOM     96  F   UNL A   1      46.634  36.493  30.077  1.00  0.00    -0.200 F 
ENDBRANCH  63  86
ENDBRANCH  37  38
ENDBRANCH  29  32
ENDBRANCH  27  28
ENDBRANCH  26  27
ENDBRANCH  25  26
ENDBRANCH   1  25
TORSDOF 17
ENDMDL
MODEL 2
REMARK VINA RESULT:     -11.8      5.293     10.883
REMARK SMILES CC(C)C[C@@H](NC(=O)Cn1nc(O)ccc1=O)C(=O)NCCCCNC(=O)c1ccc(-c2c3nc(c(-c4c(F)c(F)c(F)c(F)c4F)c4ccc([nH]4)c(-c4c(F)c(F)c(F)c(F)c4F)c4nc(c(-c5c(F)c(F)c(F)c(F)c5F)c5ccc2[nH]5)C=C4)C=C3)cc1
REMARK SMILES IDX 21 1 20 2 18 3 19 4 5 6 4 7 2 8 1 9 3 10 6 11 7 12 8 14 9 15
REMARK SMILES IDX 10 16 11 17 16 18 12 19 15 20 17 21 14 22 13 23 22 25 23 26
REMARK SMILES IDX 24 27 25 28 26 29 27 31 28 32 29 33 90 34 30 35 89 36 31 37
REMARK SMILES IDX 32 38 33 39 83 40 34 41 88 42 82 43 84 44 35 45 87 46 81 47
REMARK SMILES IDX 80 48 36 50 68 51 48 52 67 53 49 54 52 55 66 56 85 57 50 58
REMARK SMILES IDX 51 59 65 61 86 62 53 63 37 64 38 65 46 66 39 67 40 68 44 69
REMARK SMILES IDX 47 70 41 71 42 72 45 73 43 74 69 75 70 76 78 77 71 78 72 79
REMARK SMILES IDX 76 80 79 81 73 82 74 83 77 84 75 85 54 86 55 87 63 88 56 89
REMARK SMILES IDX 57 90 61 91 64 92 58 93 59 94 62 95 60 96
REMARK H PARENT 20 5 6 13 13 24 25 30 84 49 52 60
REMARK Flexibility Score: inf
ROOT
ATOM      1  C   UNL A   1      33.230  29.695  26.244  1.00  0.00     0.116 C 
ENDROOT
BRANCH   1   2
ATOM      2  N   UNL A   1      33.322  29.705  24.795  1.00  0.00    -0.354 N 
ATOM      3  C   UNL A   1      32.867  28.802  23.870  1.00  0.00     0.242 C 
ATOM      4  O   UNL A   1      33.060  29.087  22.682  1.00  0.00    -0.273 OA
ATOM      5  H   UNL A   1      33.787  30.486  24.415  1.00  0.00     0.163 HD
BRANCH   3   6
ATOM      6  C   UNL A   1      32.338  27.390  24.254  1.00  0.00     0.171 C 
BRANCH   6   7
ATOM      7  C   UNL A   1      30.793  27.502  24.175  1.00  0.00     0.038 C 
BRANCH   7   8
ATOM      8  C   UNL A   1      29.907  26.252  24.348  1.00  0.00    -0.015 C 
ATOM      9  C   UNL A   1      29.907  25.738  25.788  1.00  0.00     0.007 C 
ATOM     10  C   UNL A   1      28.472  26.616  23.939  1.00  0.00     0.007 C 
ENDBRANCH   7   8
ENDBRANCH   6   7
BRANCH   6  11
ATOM     11  N   UNL A   1      32.931  26.299  23.488  1.00  0.00    -0.343 N 
ATOM     12  C   UNL A   1      33.706  25.267  23.962  1.00  0.00     0.242 C 
ATOM     13  H   UNL A   1      32.755  26.301  22.520  1.00  0.00     0.164 HD
ATOM     14  O   UNL A   1      33.854  24.286  23.226  1.00  0.00    -0.273 OA
BRANCH  12  15
ATOM     15  C   UNL A   1      34.386  25.349  25.333  1.00  0.00     0.248 C 
BRANCH  15  16
ATOM     16  N   UNL A   1      34.122  24.147  26.112  1.00  0.00    -0.217 N 
ATOM     17  N   UNL A   1      32.847  24.009  26.612  1.00  0.00    -0.131 NA
ATOM     18  C   UNL A   1      35.141  23.230  26.353  1.00  0.00     0.267 A 
ATOM     19  C   UNL A   1      32.583  22.884  27.156  1.00  0.00     0.229 A 
ATOM     20  C   UNL A   1      34.708  21.918  26.902  1.00  0.00     0.079 A 
ATOM     21  O   UNL A   1      36.328  23.420  26.109  1.00  0.00    -0.268 OA
ATOM     22  C   UNL A   1      33.446  21.724  27.294  1.00  0.00     0.075 A 
BRANCH  19  23
ATOM     23  O   UNL A   1      31.348  22.689  27.615  1.00  0.00    -0.492 OA
ATOM     24  H   UNL A   1      30.967  23.303  28.211  1.00  0.00     0.295 HD
ENDBRANCH  19  23
ENDBRANCH  15  16
ENDBRANCH  12  15
ENDBRANCH   6  11
ENDBRANCH   3   6
ENDBRANCH   1   2
BRANCH   1  25
ATOM     25  C   UNL A   1      31.919  30.268  26.807  1.00  0.00     0.023 C 
BRANCH  25  26
ATOM     26  C   UNL A   1      31.651  31.783  26.805  1.00  0.00     0.023 C 
BRANCH  26  27
ATOM     27  C   UNL A   1      32.744  32.792  27.176  1.00  0.00     0.116 C 
BRANCH  27  28
ATOM     28  N   UNL A   1      32.331  34.118  27.583  1.00  0.00    -0.352 N 
ATOM     29  C   UNL A   1      32.947  34.903  28.545  1.00  0.00     0.251 C 
ATOM     30  H   UNL A   1      31.542  34.498  27.134  1.00  0.00     0.163 HD
ATOM     31  O   UNL A   1      32.511  36.016  28.830  1.00  0.00    -0.269 OA
BRANCH  29  32
ATOM     32  C   UNL A   1      34.124  34.369  29.272  1.00  0.00     0.039 A 
ATOM     33  C   UNL A   1      35.415  34.588  28.790  1.00  0.00     0.014 A 
ATOM     34  C   UNL A   1      33.940  33.626  30.441  1.00  0.00     0.014 A 
ATOM     35  C   UNL A   1      36.509  33.960  29.392  1.00  0.00     0.010 A 
ATOM     36  C   UNL A   1      35.042  33.034  31.073  1.00  0.00     0.010 A 
ATOM     37  C   UNL A   1      36.334  33.156  30.529  1.00  0.00    -0.014 A 
BRANCH  37  38
ATOM     38  C   UNL A   1      37.489  32.417  31.116  1.00  0.00     0.031 A 
ATOM     39  C   UNL A   1      37.988  32.762  32.497  1.00  0.00     0.074 A 
ATOM     40  C   UNL A   1      38.079  31.414  30.436  1.00  0.00     0.049 A 
ATOM     41  N   UNL A   1      39.003  32.267  33.162  1.00  0.00    -0.248 NA
ATOM     42  C   UNL A   1      37.247  33.800  33.229  1.00  0.00     0.031 C 
ATOM     43  C   UNL A   1      37.684  30.952  29.107  1.00  0.00     0.029 A 
ATOM     44  N   UNL A   1      39.134  30.599  30.773  1.00  0.00    -0.354 N 
ATOM     45  C   UNL A   1      39.031  32.941  34.378  1.00  0.00     0.074 A 
ATOM     46  C   UNL A   1      37.948  33.900  34.349  1.00  0.00     0.031 C 
ATOM     47  C   UNL A   1      38.466  29.921  28.750  1.00  0.00     0.029 A 
ATOM     48  C   UNL A   1      39.455  29.683  29.800  1.00  0.00     0.049 A 
ATOM     49  H   UNL A   1      39.615  30.666  31.628  1.00  0.00     0.167 HD
ATOM     50  C   UNL A   1      39.873  32.770  35.425  1.00  0.00     0.037 A 
ATOM     51  C   UNL A   1      40.443  28.766  29.747  1.00  0.00     0.037 A 
ATOM     52  C   UNL A   1      40.942  31.804  35.467  1.00  0.00     0.049 A 
ATOM     53  C   UNL A   1      41.407  28.641  30.896  1.00  0.00     0.074 A 
ATOM     54  C   UNL A   1      41.834  31.551  36.496  1.00  0.00     0.029 A 
ATOM     55  N   UNL A   1      41.264  30.933  34.438  1.00  0.00    -0.354 N 
ATOM     56  N   UNL A   1      41.422  29.286  32.036  1.00  0.00    -0.248 NA
ATOM     57  C   UNL A   1      42.497  27.665  30.747  1.00  0.00     0.031 C 
ATOM     58  C   UNL A   1      42.724  30.560  36.073  1.00  0.00     0.029 A 
ATOM     59  C   UNL A   1      42.355  30.157  34.801  1.00  0.00     0.049 A 
ATOM     60  H   UNL A   1      40.788  30.872  33.579  1.00  0.00     0.167 HD
ATOM     61  C   UNL A   1      42.506  28.787  32.745  1.00  0.00     0.074 A 
ATOM     62  C   UNL A   1      43.116  27.769  31.915  1.00  0.00     0.031 C 
ATOM     63  C   UNL A   1      42.956  29.144  33.971  1.00  0.00     0.037 A 
BRANCH  50  64
ATOM     64  C   UNL A   1      39.685  33.647  36.630  1.00  0.00     0.064 A 
ATOM     65  C   UNL A   1      40.271  34.919  36.710  1.00  0.00     0.173 A 
ATOM     66  C   UNL A   1      38.842  33.247  37.678  1.00  0.00     0.173 A 
ATOM     67  F   UNL A   1      41.094  35.346  35.740  1.00  0.00    -0.203 F 
ATOM     68  C   UNL A   1      40.031  35.751  37.801  1.00  0.00     0.198 A 
ATOM     69  C   UNL A   1      38.582  34.092  38.754  1.00  0.00     0.198 A 
ATOM     70  F   UNL A   1      38.249  32.043  37.648  1.00  0.00    -0.203 F 
ATOM     71  F   UNL A   1      40.627  36.949  37.872  1.00  0.00    -0.200 F 
ATOM     72  C   UNL A   1      39.179  35.342  38.816  1.00  0.00     0.200 A 
ATOM     73  F   UNL A   1      37.747  33.701  39.727  1.00  0.00    -0.200 F 
ATOM     74  F   UNL A   1      38.936  36.151  39.856  1.00  0.00    -0.200 F 
ENDBRANCH  50  64
BRANCH  51  75
ATOM     75  C   UNL A   1      40.569  27.889  28.552  1.00  0.00     0.064 A 
ATOM     76  C   UNL A   1      39.922  26.647  28.500  1.00  0.00     0.173 A 
ATOM     77  C   UNL A   1      41.323  28.280  27.435  1.00  0.00     0.173 A 
ATOM     78  F   UNL A   1      39.214  26.217  29.555  1.00  0.00    -0.203 F 
ATOM     79  C   UNL A   1      40.026  25.828  27.377  1.00  0.00     0.198 A 
ATOM     80  C   UNL A   1      41.401  27.474  26.302  1.00  0.00     0.198 A 
ATOM     81  F   UNL A   1      41.966  29.456  27.437  1.00  0.00    -0.203 F 
ATOM     82  F   UNL A   1      39.425  24.631  27.367  1.00  0.00    -0.200 F 
ATOM     83  C   UNL A   1      40.756  26.247  26.275  1.00  0.00     0.200 A 
ATOM     84  F   UNL A   1      42.099  27.887  25.235  1.00  0.00    -0.200 F 
ATOM     85  F   UNL A   1      40.842  25.465  25.189  1.00  0.00    -0.200 F 
ENDBRANCH  51  75
BRANCH  63  86
ATOM     86  C   UNL A   1      44.159  28.426  34.512  1.00  0.00     0.064 A 
ATOM     87  C   UNL A   1      44.038  27.208  35.197  1.00  0.00     0.173 A 
ATOM     88  C   UNL A   1      45.451  28.923  34.282  1.00  0.00     0.173 A 
ATOM     89  F   UNL A   1      42.825  26.697  35.453  1.00  0.00    -0.203 F 
ATOM     90  C   UNL A   1      45.165  26.522  35.641  1.00  0.00     0.198 A 
ATOM     91  C   UNL A   1      46.577  28.221  34.703  1.00  0.00     0.198 A 
ATOM     92  F   UNL A   1      45.622  30.081  33.624  1.00  0.00    -0.203 F 
ATOM     93  F   UNL A   1      45.024  25.376  36.322  1.00  0.00    -0.200 F 
ATOM     94  C   UNL A   1      46.433  27.023  35.386  1.00  0.00     0.200 A 
ATOM     95  F   UNL A   1      47.801  28.700  34.442  1.00  0.00    -0.200 F 
ATOM     96  F   UNL A   1      47.517  26.353  35.800  1.00  0.00    -0.200 F 
ENDBRANCH  63  86
ENDBRANCH  37  38
ENDBRANCH  29  32
ENDBRANCH  27  28
ENDBRANCH  26  27
ENDBRANCH  25  26
ENDBRANCH   1  25
TORSDOF 17
ENDMDL
MODEL 3
REMARK VINA RESULT:     -11.8      5.334      9.831
REMARK SMILES CC(C)C[C@@H](NC(=O)Cn1nc(O)ccc1=O)C(=O)NCCCCNC(=O)c1ccc(-c2c3nc(c(-c4c(F)c(F)c(F)c(F)c4F)c4ccc([nH]4)c(-c4c(F)c(F)c(F)c(F)c4F)c4nc(c(-c5c(F)c(F)c(F)c(F)c5F)c5ccc2[nH]5)C=C4)C=C3)cc1
REMARK SMILES IDX 21 1 20 2 18 3 19 4 5 6 4 7 2 8 1 9 3 10 6 11 7 12 8 14 9 15
REMARK SMILES IDX 10 16 11 17 16 18 12 19 15 20 17 21 14 22 13 23 22 25 23 26
REMARK SMILES IDX 24 27 25 28 26 29 27 31 28 32 29 33 90 34 30 35 89 36 31 37
REMARK SMILES IDX 32 38 33 39 83 40 34 41 88 42 82 43 84 44 35 45 87 46 81 47
REMARK SMILES IDX 80 48 36 50 68 51 48 52 67 53 49 54 52 55 66 56 85 57 50 58
REMARK SMILES IDX 51 59 65 61 86 62 53 63 37 64 38 65 46 66 39 67 40 68 44 69
REMARK SMILES IDX 47 70 41 71 42 72 45 73 43 74 69 75 70 76 78 77 71 78 72 79
REMARK SMILES IDX 76 80 79 81 73 82 74 83 77 84 75 85 54 86 55 87 63 88 56 89
REMARK SMILES IDX 57 90 61 91 64 92 58 93 59 94 62 95 60 96
REMARK H PARENT 20 5 6 13 13 24 25 30 84 49 52 60
REMARK Flexibility Score: inf
ROOT
ATOM      1  C   UNL A   1      31.973  29.233  25.664  1.00  0.00     0.116 C 
ENDROOT
BRANCH   1   2
ATOM      2  N   UNL A   1      33.156  29.300  24.824  1.00  0.00    -0.354 N 
ATOM      3  C   UNL A   1      33.342  28.918  23.520  1.00  0.00     0.242 C 
ATOM      4  O   UNL A   1      34.464  29.125  23.042  1.00  0.00    -0.273 OA
ATOM      5  H   UNL A   1      33.952  29.681  25.260  1.00  0.00     0.163 HD
BRANCH   3   6
ATOM      6  C   UNL A   1      32.306  28.068  22.731  1.00  0.00     0.171 C 
BRANCH   6   7
ATOM      7  C   UNL A   1      31.180  29.063  22.343  1.00  0.00     0.038 C 
BRANCH   7   8
ATOM      8  C   UNL A   1      29.703  28.725  22.630  1.00  0.00    -0.015 C 
ATOM      9  C   UNL A   1      29.553  27.451  23.462  1.00  0.00     0.007 C 
ATOM     10  C   UNL A   1      29.075  29.904  23.389  1.00  0.00     0.007 C 
ENDBRANCH   7   8
ENDBRANCH   6   7
BRANCH   6  11
ATOM     11  N   UNL A   1      32.875  27.300  21.629  1.00  0.00    -0.343 N 
ATOM     12  C   UNL A   1      32.712  25.961  21.368  1.00  0.00     0.242 C 
ATOM     13  H   UNL A   1      33.441  27.799  20.997  1.00  0.00     0.164 HD
ATOM     14  O   UNL A   1      33.011  25.563  20.237  1.00  0.00    -0.273 OA
BRANCH  12  15
ATOM     15  C   UNL A   1      32.213  24.997  22.451  1.00  0.00     0.248 C 
BRANCH  15  16
ATOM     16  N   UNL A   1      33.305  24.598  23.328  1.00  0.00    -0.217 N 
ATOM     17  N   UNL A   1      34.304  23.842  22.757  1.00  0.00    -0.131 NA
ATOM     18  C   UNL A   1      33.285  24.946  24.676  1.00  0.00     0.267 A 
ATOM     19  C   UNL A   1      35.329  23.632  23.490  1.00  0.00     0.229 A 
ATOM     20  C   UNL A   1      34.561  24.744  25.410  1.00  0.00     0.079 A 
ATOM     21  O   UNL A   1      32.321  25.428  25.261  1.00  0.00    -0.268 OA
ATOM     22  C   UNL A   1      35.587  24.108  24.838  1.00  0.00     0.075 A 
BRANCH  19  23
ATOM     23  O   UNL A   1      36.340  22.942  22.965  1.00  0.00    -0.492 OA
ATOM     24  H   UNL A   1      36.167  22.186  22.439  1.00  0.00     0.295 HD
ENDBRANCH  19  23
ENDBRANCH  15  16
ENDBRANCH  12  15
ENDBRANCH   6  11
ENDBRANCH   3   6
ENDBRANCH   1   2
BRANCH   1  25
ATOM     25  C   UNL A   1      32.020  30.133  26.910  1.00  0.00     0.023 C 
BRANCH  25  26
ATOM     26  C   UNL A   1      31.763  31.646  26.804  1.00  0.00     0.023 C 
BRANCH  26  27
ATOM     27  C   UNL A   1      32.812  32.672  27.246  1.00  0.00     0.116 C 
BRANCH  27  28
ATOM     28  N   UNL A   1      32.357  34.005  27.579  1.00  0.00    -0.352 N 
ATOM     29  C   UNL A   1      32.946  34.860  28.499  1.00  0.00     0.251 C 
ATOM     30  H   UNL A   1      31.558  34.335  27.110  1.00  0.00     0.163 HD
ATOM     31  O   UNL A   1      32.475  35.972  28.721  1.00  0.00    -0.269 OA
BRANCH  29  32
ATOM     32  C   UNL A   1      34.138  34.403  29.254  1.00  0.00     0.039 A 
ATOM     33  C   UNL A   1      35.418  34.568  28.727  1.00  0.00     0.014 A 
ATOM     34  C   UNL A   1      33.977  33.787  30.498  1.00  0.00     0.014 A 
ATOM     35  C   UNL A   1      36.525  34.005  29.369  1.00  0.00     0.010 A 
ATOM     36  C   UNL A   1      35.092  33.263  31.167  1.00  0.00     0.010 A 
ATOM     37  C   UNL A   1      36.372  33.325  30.588  1.00  0.00    -0.014 A 
BRANCH  37  38
ATOM     38  C   UNL A   1      37.539  32.650  31.227  1.00  0.00     0.031 A 
ATOM     39  C   UNL A   1      38.241  31.517  30.519  1.00  0.00     0.074 A 
ATOM     40  C   UNL A   1      37.999  33.062  32.424  1.00  0.00     0.049 A 
ATOM     41  N   UNL A   1      39.242  30.775  30.927  1.00  0.00    -0.248 NA
ATOM     42  C   UNL A   1      37.753  31.172  29.176  1.00  0.00     0.031 C 
ATOM     43  C   UNL A   1      37.440  34.163  33.207  1.00  0.00     0.029 A 
ATOM     44  N   UNL A   1      39.047  32.607  33.189  1.00  0.00    -0.354 N 
ATOM     45  C   UNL A   1      39.493  29.871  29.901  1.00  0.00     0.074 A 
ATOM     46  C   UNL A   1      38.521  30.138  28.862  1.00  0.00     0.031 C 
ATOM     47  C   UNL A   1      38.164  34.315  34.328  1.00  0.00     0.029 A 
ATOM     48  C   UNL A   1      39.204  33.290  34.371  1.00  0.00     0.049 A 
ATOM     49  H   UNL A   1      39.629  31.862  32.917  1.00  0.00     0.167 HD
ATOM     50  C   UNL A   1      40.450  28.916  29.825  1.00  0.00     0.037 A 
ATOM     51  C   UNL A   1      40.072  33.103  35.386  1.00  0.00     0.037 A 
ATOM     52  C   UNL A   1      41.431  28.657  30.849  1.00  0.00     0.049 A 
ATOM     53  C   UNL A   1      41.084  31.991  35.308  1.00  0.00     0.074 A 
ATOM     54  C   UNL A   1      42.449  27.719  30.848  1.00  0.00     0.029 A 
ATOM     55  N   UNL A   1      41.520  29.339  32.053  1.00  0.00    -0.354 N 
ATOM     56  N   UNL A   1      41.306  31.145  34.334  1.00  0.00    -0.248 NA
ATOM     57  C   UNL A   1      41.960  31.805  36.474  1.00  0.00     0.031 C 
ATOM     58  C   UNL A   1      43.124  27.800  32.069  1.00  0.00     0.029 A 
ATOM     59  C   UNL A   1      42.561  28.825  32.810  1.00  0.00     0.049 A 
ATOM     60  H   UNL A   1      40.932  30.078  32.328  1.00  0.00     0.167 HD
ATOM     61  C   UNL A   1      42.353  30.337  34.759  1.00  0.00     0.074 A 
ATOM     62  C   UNL A   1      42.736  30.807  36.074  1.00  0.00     0.031 C 
ATOM     63  C   UNL A   1      42.939  29.298  34.118  1.00  0.00     0.037 A 
BRANCH  50  64
ATOM     64  C   UNL A   1      40.495  28.061  28.592  1.00  0.00     0.064 A 
ATOM     65  C   UNL A   1      41.253  28.430  27.470  1.00  0.00     0.173 A 
ATOM     66  C   UNL A   1      39.843  26.819  28.562  1.00  0.00     0.173 A 
ATOM     67  F   UNL A   1      41.888  29.611  27.443  1.00  0.00    -0.203 F 
ATOM     68  C   UNL A   1      41.344  27.594  26.360  1.00  0.00     0.198 A 
ATOM     69  C   UNL A   1      39.958  25.972  27.461  1.00  0.00     0.198 A 
ATOM     70  F   UNL A   1      39.112  26.413  29.612  1.00  0.00    -0.203 F 
ATOM     71  F   UNL A   1      42.047  27.980  25.287  1.00  0.00    -0.200 F 
ATOM     72  C   UNL A   1      40.705  26.362  26.360  1.00  0.00     0.200 A 
ATOM     73  F   UNL A   1      39.353  24.777  27.470  1.00  0.00    -0.200 F 
ATOM     74  F   UNL A   1      40.808  25.551  25.298  1.00  0.00    -0.200 F 
ENDBRANCH  50  64
BRANCH  51  75
ATOM     75  C   UNL A   1      40.020  33.999  36.573  1.00  0.00     0.064 A 
ATOM     76  C   UNL A   1      39.219  33.683  37.677  1.00  0.00     0.173 A 
ATOM     77  C   UNL A   1      40.779  35.178  36.631  1.00  0.00     0.173 A 
ATOM     78  F   UNL A   1      38.453  32.583  37.656  1.00  0.00    -0.203 F 
ATOM     79  C   UNL A   1      39.178  34.513  38.797  1.00  0.00     0.198 A 
ATOM     80  C   UNL A   1      40.759  35.990  37.763  1.00  0.00     0.198 A 
ATOM     81  F   UNL A   1      41.557  35.529  35.598  1.00  0.00    -0.203 F 
ATOM     82  F   UNL A   1      38.378  34.204  39.827  1.00  0.00    -0.200 F 
ATOM     83  C   UNL A   1      39.956  35.659  38.843  1.00  0.00     0.200 A 
ATOM     84  F   UNL A   1      41.521  37.092  37.808  1.00  0.00    -0.200 F 
ATOM     85  F   UNL A   1      39.927  36.448  39.927  1.00  0.00    -0.200 F 
ENDBRANCH  51  75
BRANCH  63  86
ATOM     86  C   UNL A   1      44.071  28.596  34.811  1.00  0.00     0.064 A 
ATOM     87  C   UNL A   1      43.856  27.445  35.583  1.00  0.00     0.173 A 
ATOM     88  C   UNL A   1      45.393  29.036  34.643  1.00  0.00     0.173 A 
ATOM     89  F   UNL A   1      42.610  26.991  35.784  1.00  0.00    -0.203 F 
ATOM     90  C   UNL A   1      44.921  26.768  36.172  1.00  0.00     0.198 A 
ATOM     91  C   UNL A   1      46.458  28.341  35.210  1.00  0.00     0.198 A 
ATOM     92  F   UNL A   1      45.654  30.127  33.907  1.00  0.00    -0.203 F 
ATOM     93  F   UNL A   1      44.689  25.689  36.932  1.00  0.00    -0.200 F 
ATOM     94  C   UNL A   1      46.221  27.211  35.977  1.00  0.00     0.200 A 
ATOM     95  F   UNL A   1      47.715  28.762  35.008  1.00  0.00    -0.200 F 
ATOM     96  F   UNL A   1      47.246  26.549  36.531  1.00  0.00    -0.200 F 
ENDBRANCH  63  86
ENDBRANCH  37  38
ENDBRANCH  29  32
ENDBRANCH  27  28
ENDBRANCH  26  27
ENDBRANCH  25  26
ENDBRANCH   1  25
TORSDOF 17
ENDMDL
