MODEL 1
REMARK VINA RESULT:     -12.4      0.000      0.000
REMARK SMILES CC1(C)CCC[C@@]1(CC(=O)NCCCCNC(=O)c1ccc(-c2c3nc(c(-c4c(F)c(F)c(F)c(F)c4F)c4ccc([nH]4)c(-c4c(F)c(F)c(F)c(F)c4F)c4nc(c(-c5c(F)c(F)c(F)c(F)c5F)c5ccc2[nH]5)C=C4)C=C3)cc1)[NH+]1CCCCC1
REMARK SMILES IDX 13 1 12 2 11 3 9 4 10 5 8 7 7 8 1 9 2 10 3 11 4 12 5 13 6 14
REMARK SMILES IDX 82 15 83 16 87 17 84 19 86 20 85 21 14 22 15 23 16 24 17 25
REMARK SMILES IDX 18 27 19 28 20 29 81 30 21 31 80 32 22 33 23 34 24 35 74 36
REMARK SMILES IDX 25 37 79 38 73 39 75 40 26 41 78 42 72 43 71 44 27 46 59 47
REMARK SMILES IDX 39 48 58 49 40 50 43 51 57 52 76 53 41 54 42 55 56 57 77 58
REMARK SMILES IDX 44 59 28 60 29 61 37 62 30 63 31 64 35 65 38 66 32 67 33 68
REMARK SMILES IDX 36 69 34 70 60 71 61 72 69 73 62 74 63 75 67 76 70 77 64 78
REMARK SMILES IDX 65 79 68 80 66 81 45 82 46 83 54 84 47 85 48 86 52 87 55 88
REMARK SMILES IDX 49 89 50 90 53 91 51 92
REMARK H PARENT 11 6 82 18 16 26 75 45 43 56
REMARK Flexibility Score: inf
ROOT
ATOM      1  C   UNL A   1      32.005  30.490  26.876  1.00  0.00     0.023 C 
ENDROOT
BRANCH   1   2
ATOM      2  C   UNL A   1      33.417  30.078  26.443  1.00  0.00     0.116 C 
BRANCH   2   3
ATOM      3  N   UNL A   1      33.400  29.629  25.066  1.00  0.00    -0.356 N 
ATOM      4  C   UNL A   1      33.546  28.392  24.517  1.00  0.00     0.226 C 
ATOM      5  O   UNL A   1      33.488  28.353  23.284  1.00  0.00    -0.275 OA
ATOM      6  H   UNL A   1      33.258  30.349  24.409  1.00  0.00     0.163 HD
BRANCH   4   7
ATOM      7  C   UNL A   1      33.635  27.117  25.372  1.00  0.00     0.169 C 
BRANCH   7   8
ATOM      8  C   UNL A   1      32.703  25.845  25.128  1.00  0.00     0.112 C 
ATOM      9  C   UNL A   1      30.301  26.829  24.554  1.00  0.00     0.018 C 
ATOM     10  C   UNL A   1      31.192  26.193  25.630  1.00  0.00     0.020 C 
ATOM     11  C   UNL A   1      31.122  27.140  26.864  1.00  0.00     0.018 C 
ATOM     12  C   UNL A   1      30.606  24.844  26.107  1.00  0.00     0.013 C 
ATOM     13  C   UNL A   1      31.776  24.098  26.709  1.00  0.00     0.007 C 
ATOM     14  C   UNL A   1      33.037  24.720  26.126  1.00  0.00     0.070 C 
BRANCH   8  15
ATOM     15  N   UNL A   1      32.731  25.401  23.688  1.00  0.00    -0.329 N 
ATOM     16  C   UNL A   1      31.743  24.456  23.154  1.00  0.00     0.262 C 
ATOM     17  C   UNL A   1      34.028  25.038  23.091  1.00  0.00     0.262 C 
ATOM     18  H   UNL A   1      32.436  26.332  23.398  1.00  0.00     0.348 HD
ATOM     19  C   UNL A   1      32.034  22.974  23.402  1.00  0.00     0.062 C 
ATOM     20  C   UNL A   1      34.503  23.640  23.486  1.00  0.00     0.062 C 
ATOM     21  C   UNL A   1      33.478  22.578  23.092  1.00  0.00     0.012 C 
ENDBRANCH   8  15
ENDBRANCH   7   8
ENDBRANCH   4   7
ENDBRANCH   2   3
ENDBRANCH   1   2
BRANCH   1  22
ATOM     22  C   UNL A   1      31.731  31.980  26.813  1.00  0.00     0.023 C 
BRANCH  22  23
ATOM     23  C   UNL A   1      32.891  32.834  27.280  1.00  0.00     0.116 C 
BRANCH  23  24
ATOM     24  N   UNL A   1      32.512  34.200  27.626  1.00  0.00    -0.352 N 
ATOM     25  C   UNL A   1      33.032  34.998  28.617  1.00  0.00     0.251 C 
ATOM     26  H   UNL A   1      31.795  34.599  27.082  1.00  0.00     0.163 HD
ATOM     27  O   UNL A   1      32.551  36.096  28.869  1.00  0.00    -0.269 OA
BRANCH  25  28
ATOM     28  C   UNL A   1      34.161  34.471  29.403  1.00  0.00     0.039 A 
ATOM     29  C   UNL A   1      33.903  33.720  30.549  1.00  0.00     0.014 A 
ATOM     30  C   UNL A   1      35.460  34.607  28.908  1.00  0.00     0.014 A 
ATOM     31  C   UNL A   1      34.951  33.028  31.155  1.00  0.00     0.010 A 
ATOM     32  C   UNL A   1      36.469  33.823  29.438  1.00  0.00     0.010 A 
ATOM     33  C   UNL A   1      36.230  33.037  30.576  1.00  0.00    -0.014 A 
BRANCH  33  34
ATOM     34  C   UNL A   1      37.356  32.269  31.156  1.00  0.00     0.031 A 
ATOM     35  C   UNL A   1      37.849  32.622  32.531  1.00  0.00     0.074 A 
ATOM     36  C   UNL A   1      37.985  31.331  30.422  1.00  0.00     0.049 A 
ATOM     37  N   UNL A   1      38.890  32.171  33.182  1.00  0.00    -0.248 NA
ATOM     38  C   UNL A   1      37.097  33.662  33.254  1.00  0.00     0.031 C 
ATOM     39  C   UNL A   1      37.645  30.954  29.049  1.00  0.00     0.029 A 
ATOM     40  N   UNL A   1      39.056  30.531  30.730  1.00  0.00    -0.354 N 
ATOM     41  C   UNL A   1      38.933  32.896  34.364  1.00  0.00     0.074 A 
ATOM     42  C   UNL A   1      37.862  33.864  34.314  1.00  0.00     0.031 C 
ATOM     43  C   UNL A   1      38.471  29.975  28.644  1.00  0.00     0.029 A 
ATOM     44  C   UNL A   1      39.419  29.680  29.714  1.00  0.00     0.049 A 
ATOM     45  H   UNL A   1      39.522  30.563  31.597  1.00  0.00     0.167 HD
ATOM     46  C   UNL A   1      39.768  32.742  35.418  1.00  0.00     0.037 A 
ATOM     47  C   UNL A   1      40.406  28.766  29.660  1.00  0.00     0.037 A 
ATOM     48  C   UNL A   1      40.792  31.737  35.486  1.00  0.00     0.049 A 
ATOM     49  C   UNL A   1      41.289  28.578  30.863  1.00  0.00     0.074 A 
ATOM     50  C   UNL A   1      41.647  31.443  36.532  1.00  0.00     0.029 A 
ATOM     51  N   UNL A   1      41.089  30.851  34.460  1.00  0.00    -0.354 N 
ATOM     52  N   UNL A   1      41.279  29.221  32.005  1.00  0.00    -0.248 NA
ATOM     53  C   UNL A   1      42.314  27.528  30.774  1.00  0.00     0.031 C 
ATOM     54  C   UNL A   1      42.481  30.395  36.129  1.00  0.00     0.029 A 
ATOM     55  C   UNL A   1      42.120  30.012  34.846  1.00  0.00     0.049 A 
ATOM     56  H   UNL A   1      40.635  30.823  33.587  1.00  0.00     0.167 HD
ATOM     57  C   UNL A   1      42.275  28.643  32.779  1.00  0.00     0.074 A 
ATOM     58  C   UNL A   1      42.860  27.584  31.981  1.00  0.00     0.031 C 
ATOM     59  C   UNL A   1      42.674  28.959  34.036  1.00  0.00     0.037 A 
BRANCH  46  60
ATOM     60  C   UNL A   1      39.585  33.669  36.584  1.00  0.00     0.064 A 
ATOM     61  C   UNL A   1      40.227  34.916  36.640  1.00  0.00     0.173 A 
ATOM     62  C   UNL A   1      38.758  33.310  37.658  1.00  0.00     0.173 A 
ATOM     63  F   UNL A   1      41.045  35.298  35.647  1.00  0.00    -0.203 F 
ATOM     64  C   UNL A   1      40.077  35.752  37.742  1.00  0.00     0.198 A 
ATOM     65  C   UNL A   1      38.584  34.163  38.745  1.00  0.00     0.198 A 
ATOM     66  F   UNL A   1      38.120  32.129  37.655  1.00  0.00    -0.203 F 
ATOM     67  F   UNL A   1      40.752  36.909  37.800  1.00  0.00    -0.200 F 
ATOM     68  C   UNL A   1      39.251  35.378  38.791  1.00  0.00     0.200 A 
ATOM     69  F   UNL A   1      37.778  33.804  39.753  1.00  0.00    -0.200 F 
ATOM     70  F   UNL A   1      39.107  36.183  39.852  1.00  0.00    -0.200 F 
ENDBRANCH  46  60
BRANCH  47  71
ATOM     71  C   UNL A   1      40.581  27.933  28.442  1.00  0.00     0.064 A 
ATOM     72  C   UNL A   1      41.362  28.388  27.369  1.00  0.00     0.173 A 
ATOM     73  C   UNL A   1      39.983  26.671  28.324  1.00  0.00     0.173 A 
ATOM     74  F   UNL A   1      41.941  29.596  27.428  1.00  0.00    -0.203 F 
ATOM     75  C   UNL A   1      41.521  27.620  26.218  1.00  0.00     0.198 A 
ATOM     76  C   UNL A   1      40.162  25.894  27.181  1.00  0.00     0.198 A 
ATOM     77  F   UNL A   1      39.232  26.187  29.324  1.00  0.00    -0.203 F 
ATOM     78  F   UNL A   1      42.240  28.097  25.192  1.00  0.00    -0.200 F 
ATOM     79  C   UNL A   1      40.925  26.371  26.126  1.00  0.00     0.200 A 
ATOM     80  F   UNL A   1      39.597  24.681  27.102  1.00  0.00    -0.200 F 
ATOM     81  F   UNL A   1      41.083  25.632  25.020  1.00  0.00    -0.200 F 
ENDBRANCH  47  71
BRANCH  59  82
ATOM     82  C   UNL A   1      43.769  28.130  34.636  1.00  0.00     0.064 A 
ATOM     83  C   UNL A   1      45.117  28.491  34.503  1.00  0.00     0.173 A 
ATOM     84  C   UNL A   1      43.461  26.993  35.397  1.00  0.00     0.173 A 
ATOM     85  F   UNL A   1      45.461  29.563  33.772  1.00  0.00    -0.203 F 
ATOM     86  C   UNL A   1      46.121  27.728  35.093  1.00  0.00     0.198 A 
ATOM     87  C   UNL A   1      44.465  26.249  36.009  1.00  0.00     0.198 A 
ATOM     88  F   UNL A   1      42.184  26.613  35.559  1.00  0.00    -0.203 F 
ATOM     89  F   UNL A   1      47.406  28.066  34.920  1.00  0.00    -0.200 F 
ATOM     90  C   UNL A   1      45.794  26.613  35.851  1.00  0.00     0.200 A 
ATOM     91  F   UNL A   1      44.147  25.180  36.752  1.00  0.00    -0.200 F 
ATOM     92  F   UNL A   1      46.761  25.886  36.427  1.00  0.00    -0.200 F 
ENDBRANCH  59  82
ENDBRANCH  33  34
ENDBRANCH  25  28
ENDBRANCH  23  24
ENDBRANCH  22  23
ENDBRANCH   1  22
TORSDOF 13
ENDMDL
MODEL 2
REMARK VINA RESULT:     -12.4      1.775      2.807
REMARK SMILES CC1(C)CCC[C@@]1(CC(=O)NCCCCNC(=O)c1ccc(-c2c3nc(c(-c4c(F)c(F)c(F)c(F)c4F)c4ccc([nH]4)c(-c4c(F)c(F)c(F)c(F)c4F)c4nc(c(-c5c(F)c(F)c(F)c(F)c5F)c5ccc2[nH]5)C=C4)C=C3)cc1)[NH+]1CCCCC1
REMARK SMILES IDX 13 1 12 2 11 3 9 4 10 5 8 7 7 8 1 9 2 10 3 11 4 12 5 13 6 14
REMARK SMILES IDX 82 15 83 16 87 17 84 19 86 20 85 21 14 22 15 23 16 24 17 25
REMARK SMILES IDX 18 27 19 28 20 29 81 30 21 31 80 32 22 33 23 34 24 35 74 36
REMARK SMILES IDX 25 37 79 38 73 39 75 40 26 41 78 42 72 43 71 44 27 46 59 47
REMARK SMILES IDX 39 48 58 49 40 50 43 51 57 52 76 53 41 54 42 55 56 57 77 58
REMARK SMILES IDX 44 59 28 60 29 61 37 62 30 63 31 64 35 65 38 66 32 67 33 68
REMARK SMILES IDX 36 69 34 70 60 71 61 72 69 73 62 74 63 75 67 76 70 77 64 78
REMARK SMILES IDX 65 79 68 80 66 81 45 82 46 83 54 84 47 85 48 86 52 87 55 88
REMARK SMILES IDX 49 89 50 90 53 91 51 92
REMARK H PARENT 11 6 82 18 16 26 75 45 43 56
REMARK Flexibility Score: inf
ROOT
ATOM      1  C   UNL A   1      32.469  28.921  23.662  1.00  0.00     0.023 C 
ENDROOT
BRANCH   1   2
ATOM      2  C   UNL A   1      31.524  28.103  22.773  1.00  0.00     0.116 C 
BRANCH   2   3
ATOM      3  N   UNL A   1      32.291  27.300  21.844  1.00  0.00    -0.356 N 
ATOM      4  C   UNL A   1      32.577  25.969  21.822  1.00  0.00     0.226 C 
ATOM      5  O   UNL A   1      33.278  25.597  20.876  1.00  0.00    -0.275 OA
ATOM      6  H   UNL A   1      32.674  27.809  21.093  1.00  0.00     0.163 HD
BRANCH   4   7
ATOM      7  C   UNL A   1      31.959  24.977  22.820  1.00  0.00     0.169 C 
BRANCH   7   8
ATOM      8  C   UNL A   1      32.607  24.666  24.244  1.00  0.00     0.112 C 
ATOM      9  C   UNL A   1      30.652  23.591  25.689  1.00  0.00     0.018 C 
ATOM     10  C   UNL A   1      31.469  24.856  25.395  1.00  0.00     0.020 C 
ATOM     11  C   UNL A   1      30.432  25.981  25.101  1.00  0.00     0.018 C 
ATOM     12  C   UNL A   1      32.241  25.320  26.652  1.00  0.00     0.013 C 
ATOM     13  C   UNL A   1      33.369  26.181  26.126  1.00  0.00     0.007 C 
ATOM     14  C   UNL A   1      33.571  25.791  24.668  1.00  0.00     0.070 C 
BRANCH   8  15
ATOM     15  N   UNL A   1      33.229  23.294  24.287  1.00  0.00    -0.329 N 
ATOM     16  C   UNL A   1      34.097  22.875  25.393  1.00  0.00     0.262 C 
ATOM     17  C   UNL A   1      33.828  22.756  23.053  1.00  0.00     0.262 C 
ATOM     18  H   UNL A   1      32.311  22.886  24.462  1.00  0.00     0.348 HD
ATOM     19  C   UNL A   1      35.561  23.309  25.294  1.00  0.00     0.062 C 
ATOM     20  C   UNL A   1      35.214  23.328  22.759  1.00  0.00     0.062 C 
ATOM     21  C   UNL A   1      36.177  23.062  23.917  1.00  0.00     0.012 C 
ENDBRANCH   8  15
ENDBRANCH   7   8
ENDBRANCH   4   7
ENDBRANCH   2   3
ENDBRANCH   1   2
BRANCH   1  22
ATOM     22  C   UNL A   1      31.866  29.386  24.972  1.00  0.00     0.023 C 
BRANCH  22  23
ATOM     23  C   UNL A   1      32.885  29.908  25.962  1.00  0.00     0.116 C 
BRANCH  23  24
ATOM     24  N   UNL A   1      32.600  31.256  26.441  1.00  0.00    -0.352 N 
ATOM     25  C   UNL A   1      33.346  32.023  27.305  1.00  0.00     0.251 C 
ATOM     26  H   UNL A   1      31.772  31.667  26.105  1.00  0.00     0.163 HD
ATOM     27  O   UNL A   1      32.940  33.107  27.709  1.00  0.00    -0.269 OA
BRANCH  25  28
ATOM     28  C   UNL A   1      34.634  31.481  27.770  1.00  0.00     0.039 A 
ATOM     29  C   UNL A   1      35.698  32.353  28.001  1.00  0.00     0.014 A 
ATOM     30  C   UNL A   1      34.723  30.129  28.110  1.00  0.00     0.014 A 
ATOM     31  C   UNL A   1      36.832  31.878  28.659  1.00  0.00     0.010 A 
ATOM     32  C   UNL A   1      35.795  29.694  28.870  1.00  0.00     0.010 A 
ATOM     33  C   UNL A   1      36.867  30.558  29.140  1.00  0.00    -0.014 A 
BRANCH  33  34
ATOM     34  C   UNL A   1      38.029  30.032  29.894  1.00  0.00     0.031 A 
ATOM     35  C   UNL A   1      38.246  30.487  31.309  1.00  0.00     0.074 A 
ATOM     36  C   UNL A   1      38.923  29.229  29.287  1.00  0.00     0.049 A 
ATOM     37  N   UNL A   1      39.254  30.256  32.111  1.00  0.00    -0.248 NA
ATOM     38  C   UNL A   1      37.214  31.366  31.886  1.00  0.00     0.031 C 
ATOM     39  C   UNL A   1      38.857  28.781  27.895  1.00  0.00     0.029 A 
ATOM     40  N   UNL A   1      40.075  28.659  29.765  1.00  0.00    -0.354 N 
ATOM     41  C   UNL A   1      38.990  30.986  33.261  1.00  0.00     0.074 A 
ATOM     42  C   UNL A   1      37.770  31.724  33.032  1.00  0.00     0.031 C 
ATOM     43  C   UNL A   1      39.906  27.979  27.641  1.00  0.00     0.029 A 
ATOM     44  C   UNL A   1      40.735  27.887  28.839  1.00  0.00     0.049 A 
ATOM     45  H   UNL A   1      40.400  28.789  30.685  1.00  0.00     0.167 HD
ATOM     46  C   UNL A   1      39.684  31.009  34.423  1.00  0.00     0.037 A 
ATOM     47  C   UNL A   1      41.877  27.184  28.952  1.00  0.00     0.037 A 
ATOM     48  C   UNL A   1      40.864  30.226  34.665  1.00  0.00     0.049 A 
ATOM     49  C   UNL A   1      42.604  27.184  30.269  1.00  0.00     0.074 A 
ATOM     50  C   UNL A   1      41.604  30.115  35.827  1.00  0.00     0.029 A 
ATOM     51  N   UNL A   1      41.467  29.406  33.721  1.00  0.00    -0.354 N 
ATOM     52  N   UNL A   1      42.310  27.824  31.375  1.00  0.00    -0.248 NA
ATOM     53  C   UNL A   1      43.814  26.356  30.357  1.00  0.00     0.031 C 
ATOM     54  C   UNL A   1      42.674  29.248  35.578  1.00  0.00     0.029 A 
ATOM     55  C   UNL A   1      42.577  28.790  34.273  1.00  0.00     0.049 A 
ATOM     56  H   UNL A   1      41.153  29.282  32.796  1.00  0.00     0.167 HD
ATOM     57  C   UNL A   1      43.281  27.459  32.298  1.00  0.00     0.074 A 
ATOM     58  C   UNL A   1      44.165  26.529  31.625  1.00  0.00     0.031 C 
ATOM     59  C   UNL A   1      43.431  27.859  33.584  1.00  0.00     0.037 A 
BRANCH  46  60
ATOM     60  C   UNL A   1      39.164  31.892  35.519  1.00  0.00     0.064 A 
ATOM     61  C   UNL A   1      39.494  33.255  35.584  1.00  0.00     0.173 A 
ATOM     62  C   UNL A   1      38.324  31.374  36.515  1.00  0.00     0.173 A 
ATOM     63  F   UNL A   1      40.311  33.796  34.666  1.00  0.00    -0.203 F 
ATOM     64  C   UNL A   1      39.035  34.056  36.625  1.00  0.00     0.198 A 
ATOM     65  C   UNL A   1      37.839  32.186  37.537  1.00  0.00     0.198 A 
ATOM     66  F   UNL A   1      37.977  30.078  36.500  1.00  0.00    -0.203 F 
ATOM     67  F   UNL A   1      39.417  35.339  36.700  1.00  0.00    -0.200 F 
ATOM     68  C   UNL A   1      38.203  33.523  37.597  1.00  0.00     0.200 A 
ATOM     69  F   UNL A   1      37.028  31.671  38.471  1.00  0.00    -0.200 F 
ATOM     70  F   UNL A   1      37.760  34.294  38.598  1.00  0.00    -0.200 F 
ENDBRANCH  46  60
BRANCH  47  71
ATOM     71  C   UNL A   1      42.378  26.391  27.800  1.00  0.00     0.064 A 
ATOM     72  C   UNL A   1      43.342  26.922  26.930  1.00  0.00     0.173 A 
ATOM     73  C   UNL A   1      41.915  25.093  27.545  1.00  0.00     0.173 A 
ATOM     74  F   UNL A   1      43.804  28.166  27.122  1.00  0.00    -0.203 F 
ATOM     75  C   UNL A   1      43.808  26.191  25.839  1.00  0.00     0.198 A 
ATOM     76  C   UNL A   1      42.400  24.354  26.468  1.00  0.00     0.198 A 
ATOM     77  F   UNL A   1      40.999  24.537  28.351  1.00  0.00    -0.203 F 
ATOM     78  F   UNL A   1      44.700  26.738  25.001  1.00  0.00    -0.200 F 
ATOM     79  C   UNL A   1      43.341  24.906  25.611  1.00  0.00     0.200 A 
ATOM     80  F   UNL A   1      41.957  23.107  26.259  1.00  0.00    -0.200 F 
ATOM     81  F   UNL A   1      43.793  24.202  24.565  1.00  0.00    -0.200 F 
ENDBRANCH  47  71
BRANCH  59  82
ATOM     82  C   UNL A   1      44.572  27.268  34.357  1.00  0.00     0.064 A 
ATOM     83  C   UNL A   1      44.434  26.063  35.059  1.00  0.00     0.173 A 
ATOM     84  C   UNL A   1      45.829  27.889  34.349  1.00  0.00     0.173 A 
ATOM     85  F   UNL A   1      43.246  25.440  35.106  1.00  0.00    -0.203 F 
ATOM     86  C   UNL A   1      45.511  25.511  35.746  1.00  0.00     0.198 A 
ATOM     87  C   UNL A   1      46.911  27.320  35.013  1.00  0.00     0.198 A 
ATOM     88  F   UNL A   1      46.012  29.039  33.683  1.00  0.00    -0.203 F 
ATOM     89  F   UNL A   1      45.349  24.380  36.446  1.00  0.00    -0.200 F 
ATOM     90  C   UNL A   1      46.750  26.135  35.716  1.00  0.00     0.200 A 
ATOM     91  F   UNL A   1      48.110  27.917  34.972  1.00  0.00    -0.200 F 
ATOM     92  F   UNL A   1      47.788  25.597  36.370  1.00  0.00    -0.200 F 
ENDBRANCH  59  82
ENDBRANCH  33  34
ENDBRANCH  25  28
ENDBRANCH  23  24
ENDBRANCH  22  23
ENDBRANCH   1  22
TORSDOF 13
ENDMDL
MODEL 3
REMARK VINA RESULT:     -12.3      1.787      3.042
REMARK SMILES CC1(C)CCC[C@@]1(CC(=O)NCCCCNC(=O)c1ccc(-c2c3nc(c(-c4c(F)c(F)c(F)c(F)c4F)c4ccc([nH]4)c(-c4c(F)c(F)c(F)c(F)c4F)c4nc(c(-c5c(F)c(F)c(F)c(F)c5F)c5ccc2[nH]5)C=C4)C=C3)cc1)[NH+]1CCCCC1
REMARK SMILES IDX 13 1 12 2 11 3 9 4 10 5 8 7 7 8 1 9 2 10 3 11 4 12 5 13 6 14
REMARK SMILES IDX 82 15 83 16 87 17 84 19 86 20 85 21 14 22 15 23 16 24 17 25
REMARK SMILES IDX 18 27 19 28 20 29 81 30 21 31 80 32 22 33 23 34 24 35 74 36
REMARK SMILES IDX 25 37 79 38 73 39 75 40 26 41 78 42 72 43 71 44 27 46 59 47
REMARK SMILES IDX 39 48 58 49 40 50 43 51 57 52 76 53 41 54 42 55 56 57 77 58
REMARK SMILES IDX 44 59 28 60 29 61 37 62 30 63 31 64 35 65 38 66 32 67 33 68
REMARK SMILES IDX 36 69 34 70 60 71 61 72 69 73 62 74 63 75 67 76 70 77 64 78
REMARK SMILES IDX 65 79 68 80 66 81 45 82 46 83 54 84 47 85 48 86 52 87 55 88
REMARK SMILES IDX 49 89 50 90 53 91 51 92
REMARK H PARENT 11 6 82 18 16 26 75 45 43 56
REMARK Flexibility Score: inf
ROOT
ATOM      1  C   UNL A   1      32.559  28.892  23.757  1.00  0.00     0.023 C 
ENDROOT
BRANCH   1   2
ATOM      2  C   UNL A   1      31.593  28.143  22.830  1.00  0.00     0.116 C 
BRANCH   2   3
ATOM      3  N   UNL A   1      32.338  27.320  21.901  1.00  0.00    -0.356 N 
ATOM      4  C   UNL A   1      32.599  25.983  21.887  1.00  0.00     0.226 C 
ATOM      5  O   UNL A   1      33.286  25.591  20.939  1.00  0.00    -0.275 OA
ATOM      6  H   UNL A   1      32.726  27.815  21.144  1.00  0.00     0.163 HD
BRANCH   4   7
ATOM      7  C   UNL A   1      31.969  25.011  22.897  1.00  0.00     0.169 C 
BRANCH   7   8
ATOM      8  C   UNL A   1      32.616  24.702  24.322  1.00  0.00     0.112 C 
ATOM      9  C   UNL A   1      30.652  23.659  25.778  1.00  0.00     0.018 C 
ATOM     10  C   UNL A   1      31.483  24.913  25.474  1.00  0.00     0.020 C 
ATOM     11  C   UNL A   1      30.459  26.047  25.175  1.00  0.00     0.018 C 
ATOM     12  C   UNL A   1      32.263  25.376  26.726  1.00  0.00     0.013 C 
ATOM     13  C   UNL A   1      33.399  26.221  26.191  1.00  0.00     0.007 C 
ATOM     14  C   UNL A   1      33.594  25.819  24.735  1.00  0.00     0.070 C 
BRANCH   8  15
ATOM     15  N   UNL A   1      33.222  23.323  24.372  1.00  0.00    -0.329 N 
ATOM     16  C   UNL A   1      34.094  22.904  25.476  1.00  0.00     0.262 C 
ATOM     17  C   UNL A   1      33.806  22.767  23.139  1.00  0.00     0.262 C 
ATOM     18  H   UNL A   1      32.301  22.928  24.557  1.00  0.00     0.348 HD
ATOM     19  C   UNL A   1      35.563  23.320  25.362  1.00  0.00     0.062 C 
ATOM     20  C   UNL A   1      35.197  23.320  22.830  1.00  0.00     0.062 C 
ATOM     21  C   UNL A   1      36.164  23.054  23.982  1.00  0.00     0.012 C 
ENDBRANCH   8  15
ENDBRANCH   7   8
ENDBRANCH   4   7
ENDBRANCH   2   3
ENDBRANCH   1   2
BRANCH   1  22
ATOM     22  C   UNL A   1      31.917  29.493  24.991  1.00  0.00     0.023 C 
BRANCH  22  23
ATOM     23  C   UNL A   1      32.913  29.957  26.033  1.00  0.00     0.116 C 
BRANCH  23  24
ATOM     24  N   UNL A   1      32.655  31.304  26.532  1.00  0.00    -0.352 N 
ATOM     25  C   UNL A   1      33.421  32.046  27.400  1.00  0.00     0.251 C 
ATOM     26  H   UNL A   1      31.831  31.733  26.209  1.00  0.00     0.163 HD
ATOM     27  O   UNL A   1      33.037  33.131  27.821  1.00  0.00    -0.269 OA
BRANCH  25  28
ATOM     28  C   UNL A   1      34.704  31.475  27.846  1.00  0.00     0.039 A 
ATOM     29  C   UNL A   1      35.805  32.316  28.009  1.00  0.00     0.014 A 
ATOM     30  C   UNL A   1      34.755  30.136  28.238  1.00  0.00     0.014 A 
ATOM     31  C   UNL A   1      36.941  31.826  28.651  1.00  0.00     0.010 A 
ATOM     32  C   UNL A   1      35.835  29.692  28.981  1.00  0.00     0.010 A 
ATOM     33  C   UNL A   1      36.945  30.526  29.183  1.00  0.00    -0.014 A 
BRANCH  33  34
ATOM     34  C   UNL A   1      38.111  29.988  29.922  1.00  0.00     0.031 A 
ATOM     35  C   UNL A   1      38.352  30.440  31.335  1.00  0.00     0.074 A 
ATOM     36  C   UNL A   1      38.989  29.175  29.303  1.00  0.00     0.049 A 
ATOM     37  N   UNL A   1      39.368  30.198  32.123  1.00  0.00    -0.248 NA
ATOM     38  C   UNL A   1      37.336  31.329  31.925  1.00  0.00     0.031 C 
ATOM     39  C   UNL A   1      38.901  28.728  27.912  1.00  0.00     0.029 A 
ATOM     40  N   UNL A   1      40.141  28.593  29.766  1.00  0.00    -0.354 N 
ATOM     41  C   UNL A   1      39.126  30.930  33.277  1.00  0.00     0.074 A 
ATOM     42  C   UNL A   1      37.911  31.681  33.063  1.00  0.00     0.031 C 
ATOM     43  C   UNL A   1      39.937  27.916  27.644  1.00  0.00     0.029 A 
ATOM     44  C   UNL A   1      40.780  27.815  28.831  1.00  0.00     0.049 A 
ATOM     45  H   UNL A   1      40.480  28.720  30.682  1.00  0.00     0.167 HD
ATOM     46  C   UNL A   1      39.835  30.946  34.429  1.00  0.00     0.037 A 
ATOM     47  C   UNL A   1      41.917  27.100  28.929  1.00  0.00     0.037 A 
ATOM     48  C   UNL A   1      41.010  30.150  34.655  1.00  0.00     0.049 A 
ATOM     49  C   UNL A   1      42.661  27.092  30.237  1.00  0.00     0.074 A 
ATOM     50  C   UNL A   1      41.764  30.031  35.808  1.00  0.00     0.029 A 
ATOM     51  N   UNL A   1      41.592  29.325  33.704  1.00  0.00    -0.354 N 
ATOM     52  N   UNL A   1      42.388  27.734  31.347  1.00  0.00    -0.248 NA
ATOM     53  C   UNL A   1      43.864  26.251  30.309  1.00  0.00     0.031 C 
ATOM     54  C   UNL A   1      42.822  29.154  35.545  1.00  0.00     0.029 A 
ATOM     55  C   UNL A   1      42.703  28.697  34.241  1.00  0.00     0.049 A 
ATOM     56  H   UNL A   1      41.265  29.204  32.783  1.00  0.00     0.167 HD
ATOM     57  C   UNL A   1      43.367  27.360  32.256  1.00  0.00     0.074 A 
ATOM     58  C   UNL A   1      44.232  26.420  31.572  1.00  0.00     0.031 C 
ATOM     59  C   UNL A   1      43.538  27.757  33.541  1.00  0.00     0.037 A 
BRANCH  46  60
ATOM     60  C   UNL A   1      39.339  31.834  35.532  1.00  0.00     0.064 A 
ATOM     61  C   UNL A   1      38.462  31.358  36.520  1.00  0.00     0.173 A 
ATOM     62  C   UNL A   1      39.742  33.175  35.605  1.00  0.00     0.173 A 
ATOM     63  F   UNL A   1      38.030  30.088  36.484  1.00  0.00    -0.203 F 
ATOM     64  C   UNL A   1      37.979  32.200  37.517  1.00  0.00     0.198 A 
ATOM     65  C   UNL A   1      39.283  34.006  36.624  1.00  0.00     0.198 A 
ATOM     66  F   UNL A   1      40.578  33.680  34.686  1.00  0.00    -0.203 F 
ATOM     67  F   UNL A   1      37.094  31.738  38.411  1.00  0.00    -0.200 F 
ATOM     68  C   UNL A   1      38.395  33.522  37.572  1.00  0.00     0.200 A 
ATOM     69  F   UNL A   1      39.693  35.280  36.681  1.00  0.00    -0.200 F 
ATOM     70  F   UNL A   1      37.931  34.331  38.533  1.00  0.00    -0.200 F 
ENDBRANCH  46  60
BRANCH  47  71
ATOM     71  C   UNL A   1      42.395  26.302  27.771  1.00  0.00     0.064 A 
ATOM     72  C   UNL A   1      41.857  25.035  27.503  1.00  0.00     0.173 A 
ATOM     73  C   UNL A   1      43.388  26.784  26.907  1.00  0.00     0.173 A 
ATOM     74  F   UNL A   1      40.916  24.523  28.310  1.00  0.00    -0.203 F 
ATOM     75  C   UNL A   1      42.308  24.273  26.427  1.00  0.00     0.198 A 
ATOM     76  C   UNL A   1      43.822  26.032  25.817  1.00  0.00     0.198 A 
ATOM     77  F   UNL A   1      43.930  27.993  27.115  1.00  0.00    -0.203 F 
ATOM     78  F   UNL A   1      41.804  23.049  26.218  1.00  0.00    -0.200 F 
ATOM     79  C   UNL A   1      43.287  24.774  25.582  1.00  0.00     0.200 A 
ATOM     80  F   UNL A   1      44.757  26.524  24.994  1.00  0.00    -0.200 F 
ATOM     81  F   UNL A   1      43.717  24.043  24.545  1.00  0.00    -0.200 F 
ENDBRANCH  47  71
BRANCH  59  82
ATOM     82  C   UNL A   1      44.683  27.154  34.298  1.00  0.00     0.064 A 
ATOM     83  C   UNL A   1      45.937  27.777  34.349  1.00  0.00     0.173 A 
ATOM     84  C   UNL A   1      44.504  25.966  35.023  1.00  0.00     0.173 A 
ATOM     85  F   UNL A   1      46.158  28.907  33.660  1.00  0.00    -0.203 F 
ATOM     86  C   UNL A   1      46.981  27.220  35.083  1.00  0.00     0.198 A 
ATOM     87  C   UNL A   1      45.541  25.427  35.778  1.00  0.00     0.198 A 
ATOM     88  F   UNL A   1      43.319  25.338  35.011  1.00  0.00    -0.203 F 
ATOM     89  F   UNL A   1      48.184  27.810  35.087  1.00  0.00    -0.200 F 
ATOM     90  C   UNL A   1      46.779  26.051  35.803  1.00  0.00     0.200 A 
ATOM     91  F   UNL A   1      45.342  24.305  36.483  1.00  0.00    -0.200 F 
ATOM     92  F   UNL A   1      47.783  25.522  36.517  1.00  0.00    -0.200 F 
ENDBRANCH  59  82
ENDBRANCH  33  34
ENDBRANCH  25  28
ENDBRANCH  23  24
ENDBRANCH  22  23
ENDBRANCH   1  22
TORSDOF 13
ENDMDL
