MODEL 1
REMARK VINA RESULT:     -12.8      0.000      0.000
REMARK SMILES CC(=O)N[C@@H](CSCc1ccnc2ccccc12)C(=O)NCCCCNC(=O)c1ccc(-c2c3nc(c(-c4c(F)c(F)c(F)c(F)c4F)c4ccc([nH]4)c(-c4c(F)c(F)c(F)c(F)c4F)c4nc(c(-c5c(F)c(F)c(F)c(F)c5F)c5ccc2[nH]5)C=C4)C=C3)cc1
REMARK SMILES IDX 22 1 21 2 19 3 20 4 5 6 4 7 1 8 2 9 3 10 6 12 7 13 8 14 9 15
REMARK SMILES IDX 10 16 18 17 11 18 13 19 17 20 12 21 14 22 16 23 15 24 23 25
REMARK SMILES IDX 24 26 25 27 26 28 27 29 28 31 29 32 30 33 91 34 31 35 90 36
REMARK SMILES IDX 32 37 33 38 34 39 84 40 35 41 89 42 83 43 85 44 36 45 88 46
REMARK SMILES IDX 82 47 81 48 37 50 69 51 49 52 68 53 50 54 53 55 67 56 86 57
REMARK SMILES IDX 51 58 52 59 66 61 87 62 54 63 38 64 39 65 47 66 40 67 41 68
REMARK SMILES IDX 45 69 48 70 42 71 43 72 46 73 44 74 70 75 71 76 79 77 72 78
REMARK SMILES IDX 73 79 77 80 80 81 74 82 75 83 78 84 76 85 55 86 56 87 64 88
REMARK SMILES IDX 57 89 58 90 62 91 65 92 59 93 60 94 63 95 61 96
REMARK H PARENT 21 5 4 11 26 30 85 49 53 60
REMARK Flexibility Score: inf
ROOT
ATOM      1  C   UNL A   1      31.795  29.888  25.552  1.00  0.00     0.116 C 
ENDROOT
BRANCH   1   2
ATOM      2  N   UNL A   1      32.939  29.619  24.718  1.00  0.00    -0.354 N 
ATOM      3  C   UNL A   1      32.977  28.988  23.507  1.00  0.00     0.243 C 
ATOM      4  O   UNL A   1      34.004  29.106  22.834  1.00  0.00    -0.273 OA
ATOM      5  H   UNL A   1      33.805  29.929  25.067  1.00  0.00     0.163 HD
BRANCH   3   6
ATOM      6  C   UNL A   1      31.779  28.175  22.971  1.00  0.00     0.181 C 
BRANCH   6   7
ATOM      7  N   UNL A   1      31.046  28.947  21.967  1.00  0.00    -0.344 N 
ATOM      8  C   UNL A   1      28.819  28.909  23.052  1.00  0.00     0.114 C 
ATOM      9  C   UNL A   1      29.759  29.390  21.984  1.00  0.00     0.217 C 
ATOM     10  O   UNL A   1      29.404  30.181  21.113  1.00  0.00    -0.275 OA
ATOM     11  H   UNL A   1      31.560  29.182  21.160  1.00  0.00     0.164 HD
ENDBRANCH   6   7
BRANCH   6  12
ATOM     12  C   UNL A   1      32.070  26.683  22.653  1.00  0.00     0.105 C 
BRANCH  12  13
ATOM     13  S   UNL A   1      32.954  25.448  23.718  1.00  0.00    -0.154 SA
BRANCH  13  14
ATOM     14  C   UNL A   1      33.062  23.929  22.715  1.00  0.00     0.105 C 
BRANCH  14  15
ATOM     15  C   UNL A   1      33.298  22.648  23.475  1.00  0.00    -0.027 A 
ATOM     16  C   UNL A   1      32.190  21.884  23.862  1.00  0.00     0.025 A 
ATOM     17  C   UNL A   1      34.588  22.229  23.891  1.00  0.00     0.004 A 
ATOM     18  C   UNL A   1      32.397  20.758  24.634  1.00  0.00     0.112 A 
ATOM     19  C   UNL A   1      34.686  21.047  24.656  1.00  0.00     0.070 A 
ATOM     20  C   UNL A   1      35.773  22.936  23.602  1.00  0.00     0.010 A 
ATOM     21  N   UNL A   1      33.613  20.329  25.026  1.00  0.00    -0.256 NA
ATOM     22  C   UNL A   1      35.945  20.613  25.056  1.00  0.00     0.029 A 
ATOM     23  C   UNL A   1      37.025  22.480  24.000  1.00  0.00     0.001 A 
ATOM     24  C   UNL A   1      37.111  21.308  24.727  1.00  0.00     0.002 A 
ENDBRANCH  14  15
ENDBRANCH  13  14
ENDBRANCH  12  13
ENDBRANCH   6  12
ENDBRANCH   3   6
ENDBRANCH   1   2
BRANCH   1  25
ATOM     25  C   UNL A   1      32.121  30.588  26.860  1.00  0.00     0.023 C 
BRANCH  25  26
ATOM     26  C   UNL A   1      31.815  32.078  26.872  1.00  0.00     0.023 C 
BRANCH  26  27
ATOM     27  C   UNL A   1      32.915  32.956  27.452  1.00  0.00     0.116 C 
BRANCH  27  28
ATOM     28  N   UNL A   1      32.490  34.315  27.768  1.00  0.00    -0.352 N 
ATOM     29  C   UNL A   1      33.027  35.164  28.709  1.00  0.00     0.251 C 
ATOM     30  H   UNL A   1      31.731  34.666  27.248  1.00  0.00     0.163 HD
ATOM     31  O   UNL A   1      32.533  36.264  28.930  1.00  0.00    -0.269 OA
BRANCH  29  32
ATOM     32  C   UNL A   1      34.188  34.692  29.487  1.00  0.00     0.039 A 
ATOM     33  C   UNL A   1      33.970  34.085  30.724  1.00  0.00     0.014 A 
ATOM     34  C   UNL A   1      35.464  34.728  28.920  1.00  0.00     0.014 A 
ATOM     35  C   UNL A   1      35.027  33.430  31.357  1.00  0.00     0.010 A 
ATOM     36  C   UNL A   1      36.491  34.003  29.508  1.00  0.00     0.010 A 
ATOM     37  C   UNL A   1      36.281  33.340  30.729  1.00  0.00    -0.014 A 
BRANCH  37  38
ATOM     38  C   UNL A   1      37.388  32.553  31.324  1.00  0.00     0.031 A 
ATOM     39  C   UNL A   1      37.899  32.901  32.693  1.00  0.00     0.074 A 
ATOM     40  C   UNL A   1      37.989  31.589  30.601  1.00  0.00     0.049 A 
ATOM     41  N   UNL A   1      38.912  32.399  33.352  1.00  0.00    -0.248 NA
ATOM     42  C   UNL A   1      37.200  33.986  33.401  1.00  0.00     0.031 C 
ATOM     43  C   UNL A   1      37.630  31.203  29.236  1.00  0.00     0.029 A 
ATOM     44  N   UNL A   1      39.044  30.764  30.911  1.00  0.00    -0.354 N 
ATOM     45  C   UNL A   1      38.984  33.121  34.535  1.00  0.00     0.074 A 
ATOM     46  C   UNL A   1      37.953  34.132  34.481  1.00  0.00     0.031 C 
ATOM     47  C   UNL A   1      38.433  30.204  28.834  1.00  0.00     0.029 A 
ATOM     48  C   UNL A   1      39.384  29.899  29.900  1.00  0.00     0.049 A 
ATOM     49  H   UNL A   1      39.511  30.791  31.777  1.00  0.00     0.167 HD
ATOM     50  C   UNL A   1      39.820  32.939  35.584  1.00  0.00     0.037 A 
ATOM     51  C   UNL A   1      40.354  28.968  29.840  1.00  0.00     0.037 A 
ATOM     52  C   UNL A   1      40.818  31.905  35.652  1.00  0.00     0.049 A 
ATOM     53  C   UNL A   1      41.251  28.766  31.031  1.00  0.00     0.074 A 
ATOM     54  C   UNL A   1      41.660  31.586  36.702  1.00  0.00     0.029 A 
ATOM     55  N   UNL A   1      41.105  31.019  34.625  1.00  0.00    -0.354 N 
ATOM     56  N   UNL A   1      41.259  29.401  32.178  1.00  0.00    -0.248 NA
ATOM     57  C   UNL A   1      42.267  27.710  30.923  1.00  0.00     0.031 C 
ATOM     58  C   UNL A   1      42.483  30.531  36.297  1.00  0.00     0.029 A 
ATOM     59  C   UNL A   1      42.125  30.165  35.009  1.00  0.00     0.049 A 
ATOM     60  H   UNL A   1      40.652  31.002  33.750  1.00  0.00     0.167 HD
ATOM     61  C   UNL A   1      42.260  28.809  32.935  1.00  0.00     0.074 A 
ATOM     62  C   UNL A   1      42.828  27.753  32.125  1.00  0.00     0.031 C 
ATOM     63  C   UNL A   1      42.671  29.114  34.190  1.00  0.00     0.037 A 
BRANCH  50  64
ATOM     64  C   UNL A   1      39.680  33.876  36.748  1.00  0.00     0.064 A 
ATOM     65  C   UNL A   1      40.327  35.122  36.770  1.00  0.00     0.173 A 
ATOM     66  C   UNL A   1      38.875  33.534  37.844  1.00  0.00     0.173 A 
ATOM     67  F   UNL A   1      41.121  35.488  35.752  1.00  0.00    -0.203 F 
ATOM     68  C   UNL A   1      40.199  35.976  37.861  1.00  0.00     0.198 A 
ATOM     69  C   UNL A   1      38.724  34.405  38.920  1.00  0.00     0.198 A 
ATOM     70  F   UNL A   1      38.232  32.358  37.870  1.00  0.00    -0.203 F 
ATOM     71  F   UNL A   1      40.870  37.136  37.885  1.00  0.00    -0.200 F 
ATOM     72  C   UNL A   1      39.393  35.620  38.932  1.00  0.00     0.200 A 
ATOM     73  F   UNL A   1      37.937  34.065  39.949  1.00  0.00    -0.200 F 
ATOM     74  F   UNL A   1      39.267  36.445  39.981  1.00  0.00    -0.200 F 
ENDBRANCH  50  64
BRANCH  51  75
ATOM     75  C   UNL A   1      40.506  28.132  28.621  1.00  0.00     0.064 A 
ATOM     76  C   UNL A   1      39.853  26.896  28.514  1.00  0.00     0.173 A 
ATOM     77  C   UNL A   1      41.300  28.547  27.544  1.00  0.00     0.173 A 
ATOM     78  F   UNL A   1      39.100  26.447  29.528  1.00  0.00    -0.203 F 
ATOM     79  C   UNL A   1      40.004  26.098  27.382  1.00  0.00     0.198 A 
ATOM     80  C   UNL A   1      41.430  27.760  26.401  1.00  0.00     0.198 A 
ATOM     81  F   UNL A   1      41.941  29.725  27.594  1.00  0.00    -0.203 F 
ATOM     82  F   UNL A   1      39.403  24.903  27.323  1.00  0.00    -0.200 F 
ATOM     83  C   UNL A   1      40.788  26.533  26.324  1.00  0.00     0.200 A 
ATOM     84  F   UNL A   1      42.177  28.189  25.375  1.00  0.00    -0.200 F 
ATOM     85  F   UNL A   1      40.929  25.768  25.233  1.00  0.00    -0.200 F 
ENDBRANCH  51  75
BRANCH  63  86
ATOM     86  C   UNL A   1      43.768  28.274  34.776  1.00  0.00     0.064 A 
ATOM     87  C   UNL A   1      43.494  27.082  35.462  1.00  0.00     0.173 A 
ATOM     88  C   UNL A   1      45.111  28.646  34.611  1.00  0.00     0.173 A 
ATOM     89  F   UNL A   1      42.225  26.693  35.659  1.00  0.00    -0.203 F 
ATOM     90  C   UNL A   1      44.525  26.303  35.979  1.00  0.00     0.198 A 
ATOM     91  C   UNL A   1      46.140  27.850  35.105  1.00  0.00     0.198 A 
ATOM     92  F   UNL A   1      45.424  29.774  33.957  1.00  0.00    -0.203 F 
ATOM     93  F   UNL A   1      44.238  25.188  36.667  1.00  0.00    -0.200 F 
ATOM     94  C   UNL A   1      45.845  26.682  35.794  1.00  0.00     0.200 A 
ATOM     95  F   UNL A   1      47.415  28.212  34.915  1.00  0.00    -0.200 F 
ATOM     96  F   UNL A   1      46.837  25.926  36.285  1.00  0.00    -0.200 F 
ENDBRANCH  63  86
ENDBRANCH  37  38
ENDBRANCH  29  32
ENDBRANCH  27  28
ENDBRANCH  26  27
ENDBRANCH  25  26
ENDBRANCH   1  25
TORSDOF 16
ENDMDL
MODEL 2
REMARK VINA RESULT:     -12.7      0.361      1.615
REMARK SMILES CC(=O)N[C@@H](CSCc1ccnc2ccccc12)C(=O)NCCCCNC(=O)c1ccc(-c2c3nc(c(-c4c(F)c(F)c(F)c(F)c4F)c4ccc([nH]4)c(-c4c(F)c(F)c(F)c(F)c4F)c4nc(c(-c5c(F)c(F)c(F)c(F)c5F)c5ccc2[nH]5)C=C4)C=C3)cc1
REMARK SMILES IDX 22 1 21 2 19 3 20 4 5 6 4 7 1 8 2 9 3 10 6 12 7 13 8 14 9 15
REMARK SMILES IDX 10 16 18 17 11 18 13 19 17 20 12 21 14 22 16 23 15 24 23 25
REMARK SMILES IDX 24 26 25 27 26 28 27 29 28 31 29 32 30 33 91 34 31 35 90 36
REMARK SMILES IDX 32 37 33 38 34 39 84 40 35 41 89 42 83 43 85 44 36 45 88 46
REMARK SMILES IDX 82 47 81 48 37 50 69 51 49 52 68 53 50 54 53 55 67 56 86 57
REMARK SMILES IDX 51 58 52 59 66 61 87 62 54 63 38 64 39 65 47 66 40 67 41 68
REMARK SMILES IDX 45 69 48 70 42 71 43 72 46 73 44 74 70 75 71 76 79 77 72 78
REMARK SMILES IDX 73 79 77 80 80 81 74 82 75 83 78 84 76 85 55 86 56 87 64 88
REMARK SMILES IDX 57 89 58 90 62 91 65 92 59 93 60 94 63 95 61 96
REMARK H PARENT 21 5 4 11 26 30 85 49 53 60
REMARK Flexibility Score: inf
ROOT
ATOM      1  C   UNL A   1      31.848  29.669  25.604  1.00  0.00     0.116 C 
ENDROOT
BRANCH   1   2
ATOM      2  N   UNL A   1      33.052  29.485  24.834  1.00  0.00    -0.354 N 
ATOM      3  C   UNL A   1      33.193  28.913  23.603  1.00  0.00     0.243 C 
ATOM      4  O   UNL A   1      34.254  29.103  23.002  1.00  0.00    -0.273 OA
ATOM      5  H   UNL A   1      33.881  29.815  25.251  1.00  0.00     0.163 HD
BRANCH   3   6
ATOM      6  C   UNL A   1      32.068  28.077  22.956  1.00  0.00     0.181 C 
BRANCH   6   7
ATOM      7  N   UNL A   1      31.282  28.902  22.038  1.00  0.00    -0.344 N 
ATOM      8  C   UNL A   1      29.069  28.616  23.115  1.00  0.00     0.114 C 
ATOM      9  C   UNL A   1      29.971  29.261  22.102  1.00  0.00     0.217 C 
ATOM     10  O   UNL A   1      29.561  30.114  21.317  1.00  0.00    -0.275 OA
ATOM     11  H   UNL A   1      31.774  29.250  21.259  1.00  0.00     0.164 HD
ENDBRANCH   6   7
BRANCH   6  12
ATOM     12  C   UNL A   1      32.480  26.660  22.470  1.00  0.00     0.105 C 
BRANCH  12  13
ATOM     13  S   UNL A   1      31.552  25.070  22.694  1.00  0.00    -0.154 SA
BRANCH  13  14
ATOM     14  C   UNL A   1      32.776  23.748  22.411  1.00  0.00     0.105 C 
BRANCH  14  15
ATOM     15  C   UNL A   1      33.098  22.878  23.600  1.00  0.00    -0.027 A 
ATOM     16  C   UNL A   1      32.048  22.450  24.423  1.00  0.00     0.025 A 
ATOM     17  C   UNL A   1      34.426  22.547  23.971  1.00  0.00     0.004 A 
ATOM     18  C   UNL A   1      32.349  21.728  25.560  1.00  0.00     0.112 A 
ATOM     19  C   UNL A   1      34.617  21.781  25.142  1.00  0.00     0.070 A 
ATOM     20  C   UNL A   1      35.567  22.955  23.250  1.00  0.00     0.010 A 
ATOM     21  N   UNL A   1      33.600  21.385  25.924  1.00  0.00    -0.256 NA
ATOM     22  C   UNL A   1      35.912  21.433  25.508  1.00  0.00     0.029 A 
ATOM     23  C   UNL A   1      36.854  22.586  23.625  1.00  0.00     0.001 A 
ATOM     24  C   UNL A   1      37.027  21.816  24.759  1.00  0.00     0.002 A 
ENDBRANCH  14  15
ENDBRANCH  13  14
ENDBRANCH  12  13
ENDBRANCH   6  12
ENDBRANCH   3   6
ENDBRANCH   1   2
BRANCH   1  25
ATOM     25  C   UNL A   1      32.045  30.418  26.911  1.00  0.00     0.023 C 
BRANCH  25  26
ATOM     26  C   UNL A   1      31.790  31.915  26.826  1.00  0.00     0.023 C 
BRANCH  26  27
ATOM     27  C   UNL A   1      32.873  32.788  27.446  1.00  0.00     0.116 C 
BRANCH  27  28
ATOM     28  N   UNL A   1      32.447  34.152  27.735  1.00  0.00    -0.352 N 
ATOM     29  C   UNL A   1      32.987  35.023  28.655  1.00  0.00     0.251 C 
ATOM     30  H   UNL A   1      31.684  34.490  27.212  1.00  0.00     0.163 HD
ATOM     31  O   UNL A   1      32.492  36.126  28.855  1.00  0.00    -0.269 OA
BRANCH  29  32
ATOM     32  C   UNL A   1      34.154  34.569  29.436  1.00  0.00     0.039 A 
ATOM     33  C   UNL A   1      33.943  33.968  30.677  1.00  0.00     0.014 A 
ATOM     34  C   UNL A   1      35.429  34.617  28.868  1.00  0.00     0.014 A 
ATOM     35  C   UNL A   1      35.007  33.330  31.314  1.00  0.00     0.010 A 
ATOM     36  C   UNL A   1      36.464  33.908  29.462  1.00  0.00     0.010 A 
ATOM     37  C   UNL A   1      36.263  33.251  30.687  1.00  0.00    -0.014 A 
BRANCH  37  38
ATOM     38  C   UNL A   1      37.379  32.482  31.287  1.00  0.00     0.031 A 
ATOM     39  C   UNL A   1      37.885  32.845  32.655  1.00  0.00     0.074 A 
ATOM     40  C   UNL A   1      37.992  31.520  30.571  1.00  0.00     0.049 A 
ATOM     41  N   UNL A   1      38.904  32.360  33.317  1.00  0.00    -0.248 NA
ATOM     42  C   UNL A   1      37.173  33.925  33.355  1.00  0.00     0.031 C 
ATOM     43  C   UNL A   1      37.638  31.122  29.208  1.00  0.00     0.029 A 
ATOM     44  N   UNL A   1      39.056  30.711  30.887  1.00  0.00    -0.354 N 
ATOM     45  C   UNL A   1      38.967  33.090  34.495  1.00  0.00     0.074 A 
ATOM     46  C   UNL A   1      37.923  34.087  34.434  1.00  0.00     0.031 C 
ATOM     47  C   UNL A   1      38.453  30.129  28.813  1.00  0.00     0.029 A 
ATOM     48  C   UNL A   1      39.407  29.843  29.881  1.00  0.00     0.049 A 
ATOM     49  H   UNL A   1      39.523  30.749  31.753  1.00  0.00     0.167 HD
ATOM     50  C   UNL A   1      39.805  32.924  35.546  1.00  0.00     0.037 A 
ATOM     51  C   UNL A   1      40.389  28.924  29.827  1.00  0.00     0.037 A 
ATOM     52  C   UNL A   1      40.814  31.903  35.621  1.00  0.00     0.049 A 
ATOM     53  C   UNL A   1      41.287  28.740  31.020  1.00  0.00     0.074 A 
ATOM     54  C   UNL A   1      41.660  31.601  36.673  1.00  0.00     0.029 A 
ATOM     55  N   UNL A   1      41.113  31.015  34.599  1.00  0.00    -0.354 N 
ATOM     56  N   UNL A   1      41.288  29.383  32.162  1.00  0.00    -0.248 NA
ATOM     57  C   UNL A   1      42.316  27.696  30.919  1.00  0.00     0.031 C 
ATOM     58  C   UNL A   1      42.496  30.554  36.275  1.00  0.00     0.029 A 
ATOM     59  C   UNL A   1      42.143  30.175  34.989  1.00  0.00     0.049 A 
ATOM     60  H   UNL A   1      40.661  30.986  33.724  1.00  0.00     0.167 HD
ATOM     61  C   UNL A   1      42.295  28.808  32.924  1.00  0.00     0.074 A 
ATOM     62  C   UNL A   1      42.876  27.753  32.121  1.00  0.00     0.031 C 
ATOM     63  C   UNL A   1      42.703  29.125  34.177  1.00  0.00     0.037 A 
BRANCH  50  64
ATOM     64  C   UNL A   1      39.653  33.867  36.703  1.00  0.00     0.064 A 
ATOM     65  C   UNL A   1      40.289  35.119  36.721  1.00  0.00     0.173 A 
ATOM     66  C   UNL A   1      38.846  33.526  37.799  1.00  0.00     0.173 A 
ATOM     67  F   UNL A   1      41.084  35.485  35.704  1.00  0.00    -0.203 F 
ATOM     68  C   UNL A   1      40.150  35.977  37.806  1.00  0.00     0.198 A 
ATOM     69  C   UNL A   1      38.684  34.401  38.869  1.00  0.00     0.198 A 
ATOM     70  F   UNL A   1      38.213  32.344  37.830  1.00  0.00    -0.203 F 
ATOM     71  F   UNL A   1      40.812  37.143  37.825  1.00  0.00    -0.200 F 
ATOM     72  C   UNL A   1      39.343  35.622  38.876  1.00  0.00     0.200 A 
ATOM     73  F   UNL A   1      37.896  34.060  39.897  1.00  0.00    -0.200 F 
ATOM     74  F   UNL A   1      39.206  36.452  39.920  1.00  0.00    -0.200 F 
ENDBRANCH  50  64
BRANCH  51  75
ATOM     75  C   UNL A   1      40.551  28.082  28.614  1.00  0.00     0.064 A 
ATOM     76  C   UNL A   1      41.335  28.520  27.537  1.00  0.00     0.173 A 
ATOM     77  C   UNL A   1      39.932  26.830  28.505  1.00  0.00     0.173 A 
ATOM     78  F   UNL A   1      41.930  29.721  27.587  1.00  0.00    -0.203 F 
ATOM     79  C   UNL A   1      41.478  27.744  26.389  1.00  0.00     0.198 A 
ATOM     80  C   UNL A   1      40.096  26.043  27.366  1.00  0.00     0.198 A 
ATOM     81  F   UNL A   1      39.177  26.363  29.509  1.00  0.00    -0.203 F 
ATOM     82  F   UNL A   1      42.198  28.205  25.358  1.00  0.00    -0.200 F 
ATOM     83  C   UNL A   1      40.863  26.504  26.306  1.00  0.00     0.200 A 
ATOM     84  F   UNL A   1      39.512  24.840  27.294  1.00  0.00    -0.200 F 
ATOM     85  F   UNL A   1      41.004  25.756  25.203  1.00  0.00    -0.200 F 
ENDBRANCH  51  75
BRANCH  63  86
ATOM     86  C   UNL A   1      43.809  28.303  34.769  1.00  0.00     0.064 A 
ATOM     87  C   UNL A   1      45.150  28.704  34.680  1.00  0.00     0.173 A 
ATOM     88  C   UNL A   1      43.519  27.124  35.472  1.00  0.00     0.173 A 
ATOM     89  F   UNL A   1      45.479  29.816  34.005  1.00  0.00    -0.203 F 
ATOM     90  C   UNL A   1      46.163  27.942  35.256  1.00  0.00     0.198 A 
ATOM     91  C   UNL A   1      44.531  26.380  36.070  1.00  0.00     0.198 A 
ATOM     92  F   UNL A   1      42.251  26.703  35.590  1.00  0.00    -0.203 F 
ATOM     93  F   UNL A   1      47.441  28.322  35.123  1.00  0.00    -0.200 F 
ATOM     94  C   UNL A   1      45.852  26.786  35.956  1.00  0.00     0.200 A 
ATOM     95  F   UNL A   1      44.229  25.270  36.756  1.00  0.00    -0.200 F 
ATOM     96  F   UNL A   1      46.829  26.058  36.517  1.00  0.00    -0.200 F 
ENDBRANCH  63  86
ENDBRANCH  37  38
ENDBRANCH  29  32
ENDBRANCH  27  28
ENDBRANCH  26  27
ENDBRANCH  25  26
ENDBRANCH   1  25
TORSDOF 16
ENDMDL
MODEL 3
REMARK VINA RESULT:     -12.6      0.580      7.250
REMARK SMILES CC(=O)N[C@@H](CSCc1ccnc2ccccc12)C(=O)NCCCCNC(=O)c1ccc(-c2c3nc(c(-c4c(F)c(F)c(F)c(F)c4F)c4ccc([nH]4)c(-c4c(F)c(F)c(F)c(F)c4F)c4nc(c(-c5c(F)c(F)c(F)c(F)c5F)c5ccc2[nH]5)C=C4)C=C3)cc1
REMARK SMILES IDX 22 1 21 2 19 3 20 4 5 6 4 7 1 8 2 9 3 10 6 12 7 13 8 14 9 15
REMARK SMILES IDX 10 16 18 17 11 18 13 19 17 20 12 21 14 22 16 23 15 24 23 25
REMARK SMILES IDX 24 26 25 27 26 28 27 29 28 31 29 32 30 33 91 34 31 35 90 36
REMARK SMILES IDX 32 37 33 38 34 39 84 40 35 41 89 42 83 43 85 44 36 45 88 46
REMARK SMILES IDX 82 47 81 48 37 50 69 51 49 52 68 53 50 54 53 55 67 56 86 57
REMARK SMILES IDX 51 58 52 59 66 61 87 62 54 63 38 64 39 65 47 66 40 67 41 68
REMARK SMILES IDX 45 69 48 70 42 71 43 72 46 73 44 74 70 75 71 76 79 77 72 78
REMARK SMILES IDX 73 79 77 80 80 81 74 82 75 83 78 84 76 85 55 86 56 87 64 88
REMARK SMILES IDX 57 89 58 90 62 91 65 92 59 93 60 94 63 95 61 96
REMARK H PARENT 21 5 4 11 26 30 85 49 53 60
REMARK Flexibility Score: inf
ROOT
ATOM      1  C   UNL A   1      32.099  29.784  25.371  1.00  0.00     0.116 C 
ENDROOT
BRANCH   1   2
ATOM      2  N   UNL A   1      33.186  29.427  24.495  1.00  0.00    -0.354 N 
ATOM      3  C   UNL A   1      33.125  28.890  23.241  1.00  0.00     0.243 C 
ATOM      4  O   UNL A   1      34.151  28.919  22.557  1.00  0.00    -0.273 OA
ATOM      5  H   UNL A   1      34.091  29.590  24.848  1.00  0.00     0.163 HD
BRANCH   3   6
ATOM      6  C   UNL A   1      31.821  28.289  22.672  1.00  0.00     0.181 C 
BRANCH   6   7
ATOM      7  N   UNL A   1      31.050  29.315  21.970  1.00  0.00    -0.344 N 
ATOM      8  C   UNL A   1      28.828  28.810  22.945  1.00  0.00     0.114 C 
ATOM      9  C   UNL A   1      29.742  29.664  22.113  1.00  0.00     0.217 C 
ATOM     10  O   UNL A   1      29.346  30.681  21.549  1.00  0.00    -0.275 OA
ATOM     11  H   UNL A   1      31.550  29.830  21.296  1.00  0.00     0.164 HD
ENDBRANCH   6   7
BRANCH   6  12
ATOM     12  C   UNL A   1      31.967  26.905  21.981  1.00  0.00     0.105 C 
BRANCH  12  13
ATOM     13  S   UNL A   1      31.622  25.233  22.705  1.00  0.00    -0.154 SA
BRANCH  13  14
ATOM     14  C   UNL A   1      33.211  24.341  22.652  1.00  0.00     0.105 C 
BRANCH  14  15
ATOM     15  C   UNL A   1      33.284  23.069  23.457  1.00  0.00    -0.027 A 
ATOM     16  C   UNL A   1      32.089  22.482  23.894  1.00  0.00     0.025 A 
ATOM     17  C   UNL A   1      34.512  22.487  23.865  1.00  0.00     0.004 A 
ATOM     18  C   UNL A   1      32.155  21.366  24.705  1.00  0.00     0.112 A 
ATOM     19  C   UNL A   1      34.462  21.331  24.674  1.00  0.00     0.070 A 
ATOM     20  C   UNL A   1      35.777  23.010  23.527  1.00  0.00     0.010 A 
ATOM     21  N   UNL A   1      33.308  20.785  25.091  1.00  0.00    -0.256 NA
ATOM     22  C   UNL A   1      35.657  20.739  25.067  1.00  0.00     0.029 A 
ATOM     23  C   UNL A   1      36.962  22.396  23.919  1.00  0.00     0.001 A 
ATOM     24  C   UNL A   1      36.901  21.251  24.689  1.00  0.00     0.002 A 
ENDBRANCH  14  15
ENDBRANCH  13  14
ENDBRANCH  12  13
ENDBRANCH   6  12
ENDBRANCH   3   6
ENDBRANCH   1   2
BRANCH   1  25
ATOM     25  C   UNL A   1      32.531  30.401  26.691  1.00  0.00     0.023 C 
BRANCH  25  26
ATOM     26  C   UNL A   1      32.037  31.822  26.916  1.00  0.00     0.023 C 
BRANCH  26  27
ATOM     27  C   UNL A   1      33.039  32.752  27.586  1.00  0.00     0.116 C 
BRANCH  27  28
ATOM     28  N   UNL A   1      32.554  34.113  27.778  1.00  0.00    -0.352 N 
ATOM     29  C   UNL A   1      33.049  35.067  28.639  1.00  0.00     0.251 C 
ATOM     30  H   UNL A   1      31.782  34.382  27.229  1.00  0.00     0.163 HD
ATOM     31  O   UNL A   1      32.506  36.159  28.761  1.00  0.00    -0.269 OA
BRANCH  29  32
ATOM     32  C   UNL A   1      34.227  34.718  29.456  1.00  0.00     0.039 A 
ATOM     33  C   UNL A   1      34.035  34.296  30.771  1.00  0.00     0.014 A 
ATOM     34  C   UNL A   1      35.492  34.679  28.866  1.00  0.00     0.014 A 
ATOM     35  C   UNL A   1      35.108  33.745  31.473  1.00  0.00     0.010 A 
ATOM     36  C   UNL A   1      36.535  34.052  29.534  1.00  0.00     0.010 A 
ATOM     37  C   UNL A   1      36.352  33.572  30.841  1.00  0.00    -0.014 A 
BRANCH  37  38
ATOM     38  C   UNL A   1      37.475  32.885  31.524  1.00  0.00     0.031 A 
ATOM     39  C   UNL A   1      38.153  31.720  30.859  1.00  0.00     0.074 A 
ATOM     40  C   UNL A   1      37.825  33.250  32.772  1.00  0.00     0.049 A 
ATOM     41  N   UNL A   1      39.087  30.931  31.321  1.00  0.00    -0.248 NA
ATOM     42  C   UNL A   1      37.689  31.374  29.506  1.00  0.00     0.031 C 
ATOM     43  C   UNL A   1      37.199  34.319  33.551  1.00  0.00     0.029 A 
ATOM     44  N   UNL A   1      38.788  32.748  33.614  1.00  0.00    -0.354 N 
ATOM     45  C   UNL A   1      39.304  29.985  30.329  1.00  0.00     0.074 A 
ATOM     46  C   UNL A   1      38.367  30.262  29.265  1.00  0.00     0.031 C 
ATOM     47  C   UNL A   1      37.807  34.409  34.745  1.00  0.00     0.029 A 
ATOM     48  C   UNL A   1      38.844  33.385  34.830  1.00  0.00     0.049 A 
ATOM     49  H   UNL A   1      39.382  32.002  33.368  1.00  0.00     0.167 HD
ATOM     50  C   UNL A   1      40.223  28.991  30.298  1.00  0.00     0.037 A 
ATOM     51  C   UNL A   1      39.640  33.163  35.893  1.00  0.00     0.037 A 
ATOM     52  C   UNL A   1      41.182  28.745  31.341  1.00  0.00     0.049 A 
ATOM     53  C   UNL A   1      40.672  32.072  35.821  1.00  0.00     0.074 A 
ATOM     54  C   UNL A   1      42.205  27.815  31.369  1.00  0.00     0.029 A 
ATOM     55  N   UNL A   1      41.236  29.438  32.541  1.00  0.00    -0.354 N 
ATOM     56  N   UNL A   1      40.923  31.232  34.845  1.00  0.00    -0.248 NA
ATOM     57  C   UNL A   1      41.539  31.901  36.995  1.00  0.00     0.031 C 
ATOM     58  C   UNL A   1      42.856  27.919  32.603  1.00  0.00     0.029 A 
ATOM     59  C   UNL A   1      42.265  28.944  33.325  1.00  0.00     0.049 A 
ATOM     60  H   UNL A   1      40.632  30.172  32.797  1.00  0.00     0.167 HD
ATOM     61  C   UNL A   1      41.988  30.454  35.275  1.00  0.00     0.074 A 
ATOM     62  C   UNL A   1      42.347  30.928  36.594  1.00  0.00     0.031 C 
ATOM     63  C   UNL A   1      42.612  29.436  34.634  1.00  0.00     0.037 A 
BRANCH  50  64
ATOM     64  C   UNL A   1      40.235  28.102  29.089  1.00  0.00     0.064 A 
ATOM     65  C   UNL A   1      40.962  28.439  27.936  1.00  0.00     0.173 A 
ATOM     66  C   UNL A   1      39.530  26.890  29.089  1.00  0.00     0.173 A 
ATOM     67  F   UNL A   1      41.641  29.595  27.881  1.00  0.00    -0.203 F 
ATOM     68  C   UNL A   1      40.954  27.612  26.818  1.00  0.00     0.198 A 
ATOM     69  C   UNL A   1      39.550  26.050  27.979  1.00  0.00     0.198 A 
ATOM     70  F   UNL A   1      38.822  26.519  30.167  1.00  0.00    -0.203 F 
ATOM     71  F   UNL A   1      41.611  27.982  25.709  1.00  0.00    -0.200 F 
ATOM     72  C   UNL A   1      40.254  26.416  26.841  1.00  0.00     0.200 A 
ATOM     73  F   UNL A   1      38.881  24.890  28.007  1.00  0.00    -0.200 F 
ATOM     74  F   UNL A   1      40.251  25.618  25.764  1.00  0.00    -0.200 F 
ENDBRANCH  50  64
BRANCH  51  75
ATOM     75  C   UNL A   1      39.517  34.017  37.102  1.00  0.00     0.064 A 
ATOM     76  C   UNL A   1      40.141  35.272  37.161  1.00  0.00     0.173 A 
ATOM     77  C   UNL A   1      38.777  33.602  38.218  1.00  0.00     0.173 A 
ATOM     78  F   UNL A   1      40.877  35.701  36.127  1.00  0.00    -0.203 F 
ATOM     79  C   UNL A   1      40.045  36.070  38.298  1.00  0.00     0.198 A 
ATOM     80  C   UNL A   1      38.660  34.413  39.345  1.00  0.00     0.198 A 
ATOM     81  F   UNL A   1      38.156  32.414  38.209  1.00  0.00    -0.203 F 
ATOM     82  F   UNL A   1      40.685  37.246  38.344  1.00  0.00    -0.200 F 
ATOM     83  C   UNL A   1      39.300  35.644  39.388  1.00  0.00     0.200 A 
ATOM     84  F   UNL A   1      37.929  34.004  40.391  1.00  0.00    -0.200 F 
ATOM     85  F   UNL A   1      39.203  36.414  40.479  1.00  0.00    -0.200 F 
ENDBRANCH  51  75
BRANCH  63  86
ATOM     86  C   UNL A   1      43.768  28.787  35.336  1.00  0.00     0.064 A 
ATOM     87  C   UNL A   1      43.585  27.693  36.194  1.00  0.00     0.173 A 
ATOM     88  C   UNL A   1      45.077  29.237  35.113  1.00  0.00     0.173 A 
ATOM     89  F   UNL A   1      42.350  27.235  36.452  1.00  0.00    -0.203 F 
ATOM     90  C   UNL A   1      44.671  27.087  36.820  1.00  0.00     0.198 A 
ATOM     91  C   UNL A   1      46.163  28.611  35.718  1.00  0.00     0.198 A 
ATOM     92  F   UNL A   1      45.304  30.276  34.295  1.00  0.00    -0.203 F 
ATOM     93  F   UNL A   1      44.470  26.069  37.669  1.00  0.00    -0.200 F 
ATOM     94  C   UNL A   1      45.958  27.541  36.576  1.00  0.00     0.200 A 
ATOM     95  F   UNL A   1      47.407  29.044  35.471  1.00  0.00    -0.200 F 
ATOM     96  F   UNL A   1      47.003  26.950  37.173  1.00  0.00    -0.200 F 
ENDBRANCH  63  86
ENDBRANCH  37  38
ENDBRANCH  29  32
ENDBRANCH  27  28
ENDBRANCH  26  27
ENDBRANCH  25  26
ENDBRANCH   1  25
TORSDOF 16
ENDMDL
