MODEL 1
REMARK VINA RESULT:     -13.1      0.000      0.000
REMARK SMILES CCCC(=O)Nc1cccc(C(=O)N[C@@H](C(=O)NCCCCNC(=O)c2ccc(-c3c4nc(c(-c5c(F)c(F)c(F)c(F)c5F)c5ccc([nH]5)c(-c5c(F)c(F)c(F)c(F)c5F)c5nc(c(-c6c(F)c(F)c(F)c(F)c6F)c6ccc3[nH]6)C=C5)C=C4)cc2)c2c(C)n[nH]c2C)c1
REMARK SMILES IDX 19 1 18 2 16 3 17 4 15 6 14 7 12 8 13 9 11 11 7 12 8 13
REMARK SMILES IDX 96 14 9 15 10 16 6 17 4 18 5 19 3 21 2 22 1 23 89 24 90 25
REMARK SMILES IDX 94 26 91 27 92 28 93 29 95 30 20 32 21 33 22 34 23 35 24 36
REMARK SMILES IDX 25 38 26 39 27 40 88 41 28 42 87 43 29 44 30 45 31 46 81 47
REMARK SMILES IDX 32 48 86 49 80 50 82 51 33 52 85 53 79 54 78 55 34 57 66 58
REMARK SMILES IDX 46 59 65 60 47 61 50 62 64 63 83 64 48 65 49 66 63 68 84 69
REMARK SMILES IDX 51 70 35 71 36 72 44 73 37 74 38 75 42 76 45 77 39 78 40 79
REMARK SMILES IDX 43 80 41 81 67 82 68 83 76 84 69 85 70 86 74 87 77 88 71 89
REMARK SMILES IDX 72 90 75 91 73 92 52 93 53 94 61 95 54 96 55 97 59 98 62 99
REMARK SMILES IDX 56 100 57 101 60 102 58 103
REMARK H PARENT 18 5 14 10 6 20 93 31 23 37 82 56 50 67
REMARK Flexibility Score: inf
ROOT
ATOM      1  C   UNL A   1      31.593  26.595  26.571  1.00  0.00     0.116 C 
ENDROOT
BRANCH   1   2
ATOM      2  N   UNL A   1      32.876  26.267  25.996  1.00  0.00    -0.354 N 
ATOM      3  C   UNL A   1      33.188  25.835  24.736  1.00  0.00     0.247 C 
ATOM      4  O   UNL A   1      34.386  25.894  24.441  1.00  0.00    -0.272 OA
ATOM      5  H   UNL A   1      33.643  26.370  26.604  1.00  0.00     0.163 HD
BRANCH   3   6
ATOM      6  C   UNL A   1      32.079  25.467  23.691  1.00  0.00     0.206 C 
BRANCH   6   7
ATOM      7  N   UNL A   1      32.594  24.642  22.584  1.00  0.00    -0.336 N 
ATOM      8  C   UNL A   1      33.374  23.531  22.401  1.00  0.00     0.252 C 
ATOM      9  O   UNL A   1      33.622  23.245  21.226  1.00  0.00    -0.269 OA
ATOM     10  H   UNL A   1      32.285  24.994  21.719  1.00  0.00     0.165 HD
BRANCH   8  11
ATOM     11  C   UNL A   1      33.956  22.649  23.462  1.00  0.00     0.041 A 
ATOM     12  C   UNL A   1      33.923  20.818  25.055  1.00  0.00     0.041 A 
ATOM     13  C   UNL A   1      35.266  20.996  25.358  1.00  0.00     0.026 A 
ATOM     14  C   UNL A   1      33.262  21.668  24.164  1.00  0.00     0.040 A 
ATOM     15  C   UNL A   1      35.967  22.009  24.712  1.00  0.00     0.003 A 
ATOM     16  C   UNL A   1      35.320  22.818  23.767  1.00  0.00     0.014 A 
BRANCH  12  17
ATOM     17  N   UNL A   1      33.208  19.754  25.614  1.00  0.00    -0.326 N 
ATOM     18  C   UNL A   1      32.954  18.589  24.929  1.00  0.00     0.224 C 
ATOM     19  O   UNL A   1      31.903  17.979  25.128  1.00  0.00    -0.275 OA
ATOM     20  H   UNL A   1      32.873  19.844  26.535  1.00  0.00     0.169 HD
BRANCH  18  21
ATOM     21  C   UNL A   1      34.021  18.076  23.970  1.00  0.00     0.100 C 
BRANCH  21  22
ATOM     22  C   UNL A   1      35.159  17.317  24.651  1.00  0.00     0.006 C 
ATOM     23  C   UNL A   1      34.752  15.992  25.286  1.00  0.00     0.004 C 
ENDBRANCH  21  22
ENDBRANCH  18  21
ENDBRANCH  12  17
ENDBRANCH   8  11
ENDBRANCH   6   7
BRANCH   6  24
ATOM     24  C   UNL A   1      31.458  26.732  23.129  1.00  0.00     0.027 A 
ATOM     25  C   UNL A   1      30.078  27.123  23.213  1.00  0.00     0.065 A 
ATOM     26  C   UNL A   1      32.067  27.842  22.556  1.00  0.00     0.038 A 
ATOM     27  C   UNL A   1      28.940  26.473  23.915  1.00  0.00     0.069 C 
ATOM     28  N   UNL A   1      29.848  28.282  22.589  1.00  0.00    -0.180 NA
ATOM     29  N   UNL A   1      31.058  28.699  22.214  1.00  0.00    -0.282 N 
ATOM     30  C   UNL A   1      33.484  28.219  22.345  1.00  0.00     0.066 C 
ATOM     31  H   UNL A   1      31.210  29.545  21.734  1.00  0.00     0.190 HD
ENDBRANCH   6  24
ENDBRANCH   3   6
ENDBRANCH   1   2
BRANCH   1  32
ATOM     32  C   UNL A   1      31.529  28.023  27.099  1.00  0.00     0.023 C 
BRANCH  32  33
ATOM     33  C   UNL A   1      31.640  29.085  26.007  1.00  0.00     0.023 C 
BRANCH  33  34
ATOM     34  C   UNL A   1      32.882  29.965  26.096  1.00  0.00     0.116 C 
BRANCH  34  35
ATOM     35  N   UNL A   1      32.614  31.324  26.543  1.00  0.00    -0.352 N 
ATOM     36  C   UNL A   1      33.396  32.101  27.370  1.00  0.00     0.251 C 
ATOM     37  H   UNL A   1      31.780  31.734  26.218  1.00  0.00     0.163 HD
ATOM     38  O   UNL A   1      33.030  33.203  27.748  1.00  0.00    -0.269 OA
BRANCH  36  39
ATOM     39  C   UNL A   1      34.682  31.538  27.832  1.00  0.00     0.039 A 
ATOM     40  C   UNL A   1      35.777  32.389  27.978  1.00  0.00     0.014 A 
ATOM     41  C   UNL A   1      34.756  30.200  28.225  1.00  0.00     0.014 A 
ATOM     42  C   UNL A   1      36.935  31.912  28.594  1.00  0.00     0.010 A 
ATOM     43  C   UNL A   1      35.879  29.750  28.907  1.00  0.00     0.010 A 
ATOM     44  C   UNL A   1      36.978  30.602  29.101  1.00  0.00    -0.014 A 
BRANCH  44  45
ATOM     45  C   UNL A   1      38.163  30.102  29.842  1.00  0.00     0.031 A 
ATOM     46  C   UNL A   1      38.413  30.562  31.250  1.00  0.00     0.074 A 
ATOM     47  C   UNL A   1      39.050  29.296  29.224  1.00  0.00     0.049 A 
ATOM     48  N   UNL A   1      39.421  30.295  32.042  1.00  0.00    -0.248 NA
ATOM     49  C   UNL A   1      37.413  31.469  31.835  1.00  0.00     0.031 C 
ATOM     50  C   UNL A   1      38.946  28.825  27.843  1.00  0.00     0.029 A 
ATOM     51  N   UNL A   1      40.219  28.739  29.678  1.00  0.00    -0.354 N 
ATOM     52  C   UNL A   1      39.186  31.018  33.205  1.00  0.00     0.074 A 
ATOM     53  C   UNL A   1      37.972  31.776  32.996  1.00  0.00     0.031 C 
ATOM     54  C   UNL A   1      39.990  28.024  27.572  1.00  0.00     0.029 A 
ATOM     55  C   UNL A   1      40.854  27.956  28.746  1.00  0.00     0.049 A 
ATOM     56  H   UNL A   1      40.568  28.887  30.586  1.00  0.00     0.167 HD
ATOM     57  C   UNL A   1      39.904  31.027  34.353  1.00  0.00     0.037 A 
ATOM     58  C   UNL A   1      42.005  27.261  28.832  1.00  0.00     0.037 A 
ATOM     59  C   UNL A   1      41.089  30.242  34.569  1.00  0.00     0.049 A 
ATOM     60  C   UNL A   1      42.783  27.288  30.121  1.00  0.00     0.074 A 
ATOM     61  C   UNL A   1      41.843  30.118  35.722  1.00  0.00     0.029 A 
ATOM     62  N   UNL A   1      41.696  29.449  33.606  1.00  0.00    -0.354 N 
ATOM     63  N   UNL A   1      42.507  27.906  31.242  1.00  0.00    -0.248 NA
ATOM     64  C   UNL A   1      44.032  26.514  30.154  1.00  0.00     0.031 C 
ATOM     65  C   UNL A   1      42.933  29.286  35.444  1.00  0.00     0.029 A 
ATOM     66  C   UNL A   1      42.831  28.852  34.132  1.00  0.00     0.049 A 
ATOM     67  H   UNL A   1      41.369  29.328  32.685  1.00  0.00     0.167 HD
ATOM     68  C   UNL A   1      43.527  27.572  32.123  1.00  0.00     0.074 A 
ATOM     69  C   UNL A   1      44.422  26.687  31.409  1.00  0.00     0.031 C 
ATOM     70  C   UNL A   1      43.705  27.963  33.409  1.00  0.00     0.037 A 
BRANCH  57  71
ATOM     71  C   UNL A   1      39.421  31.914  35.463  1.00  0.00     0.064 A 
ATOM     72  C   UNL A   1      38.534  31.450  36.446  1.00  0.00     0.173 A 
ATOM     73  C   UNL A   1      39.869  33.241  35.558  1.00  0.00     0.173 A 
ATOM     74  F   UNL A   1      38.065  30.194  36.394  1.00  0.00    -0.203 F 
ATOM     75  C   UNL A   1      38.086  32.290  37.461  1.00  0.00     0.198 A 
ATOM     76  C   UNL A   1      39.443  34.069  36.593  1.00  0.00     0.198 A 
ATOM     77  F   UNL A   1      40.721  33.734  34.646  1.00  0.00    -0.203 F 
ATOM     78  F   UNL A   1      37.195  31.841  38.355  1.00  0.00    -0.200 F 
ATOM     79  C   UNL A   1      38.546  33.596  37.538  1.00  0.00     0.200 A 
ATOM     80  F   UNL A   1      39.899  35.327  36.673  1.00  0.00    -0.200 F 
ATOM     81  F   UNL A   1      38.117  34.403  38.518  1.00  0.00    -0.200 F 
ENDBRANCH  57  71
BRANCH  58  82
ATOM     82  C   UNL A   1      42.474  26.448  27.679  1.00  0.00     0.064 A 
ATOM     83  C   UNL A   1      41.984  25.149  27.475  1.00  0.00     0.173 A 
ATOM     84  C   UNL A   1      43.418  26.940  26.768  1.00  0.00     0.173 A 
ATOM     85  F   UNL A   1      41.095  24.628  28.333  1.00  0.00    -0.203 F 
ATOM     86  C   UNL A   1      42.437  24.368  26.415  1.00  0.00     0.198 A 
ATOM     87  C   UNL A   1      43.850  26.166  25.692  1.00  0.00     0.198 A 
ATOM     88  F   UNL A   1      43.914  28.176  26.917  1.00  0.00    -0.203 F 
ATOM     89  F   UNL A   1      41.986  23.114  26.270  1.00  0.00    -0.200 F 
ATOM     90  C   UNL A   1      43.366  24.878  25.521  1.00  0.00     0.200 A 
ATOM     91  F   UNL A   1      44.739  26.668  24.823  1.00  0.00    -0.200 F 
ATOM     92  F   UNL A   1      43.799  24.127  24.500  1.00  0.00    -0.200 F 
ENDBRANCH  58  82
BRANCH  70  93
ATOM     93  C   UNL A   1      44.890  27.404  34.141  1.00  0.00     0.064 A 
ATOM     94  C   UNL A   1      44.828  26.180  34.820  1.00  0.00     0.173 A 
ATOM     95  C   UNL A   1      46.117  28.088  34.124  1.00  0.00     0.173 A 
ATOM     96  F   UNL A   1      43.675  25.498  34.877  1.00  0.00    -0.203 F 
ATOM     97  C   UNL A   1      45.945  25.670  35.477  1.00  0.00     0.198 A 
ATOM     98  C   UNL A   1      47.239  27.559  34.757  1.00  0.00     0.198 A 
ATOM     99  F   UNL A   1      46.230  29.260  33.483  1.00  0.00    -0.203 F 
ATOM    100  F   UNL A   1      45.850  24.521  36.159  1.00  0.00    -0.200 F 
ATOM    101  C   UNL A   1      47.150  26.356  35.438  1.00  0.00     0.200 A 
ATOM    102  F   UNL A   1      48.406  28.217  34.705  1.00  0.00    -0.200 F 
ATOM    103  F   UNL A   1      48.225  25.859  36.064  1.00  0.00    -0.200 F 
ENDBRANCH  70  93
ENDBRANCH  44  45
ENDBRANCH  36  39
ENDBRANCH  34  35
ENDBRANCH  33  34
ENDBRANCH  32  33
ENDBRANCH   1  32
TORSDOF 17
ENDMDL
MODEL 2
REMARK VINA RESULT:     -13.0      4.434     10.147
REMARK SMILES CCCC(=O)Nc1cccc(C(=O)N[C@@H](C(=O)NCCCCNC(=O)c2ccc(-c3c4nc(c(-c5c(F)c(F)c(F)c(F)c5F)c5ccc([nH]5)c(-c5c(F)c(F)c(F)c(F)c5F)c5nc(c(-c6c(F)c(F)c(F)c(F)c6F)c6ccc3[nH]6)C=C5)C=C4)cc2)c2c(C)n[nH]c2C)c1
REMARK SMILES IDX 19 1 18 2 16 3 17 4 15 6 14 7 12 8 13 9 11 11 7 12 8 13
REMARK SMILES IDX 96 14 9 15 10 16 6 17 4 18 5 19 3 21 2 22 1 23 89 24 90 25
REMARK SMILES IDX 94 26 91 27 92 28 93 29 95 30 20 32 21 33 22 34 23 35 24 36
REMARK SMILES IDX 25 38 26 39 27 40 88 41 28 42 87 43 29 44 30 45 31 46 81 47
REMARK SMILES IDX 32 48 86 49 80 50 82 51 33 52 85 53 79 54 78 55 34 57 66 58
REMARK SMILES IDX 46 59 65 60 47 61 50 62 64 63 83 64 48 65 49 66 63 68 84 69
REMARK SMILES IDX 51 70 35 71 36 72 44 73 37 74 38 75 42 76 45 77 39 78 40 79
REMARK SMILES IDX 43 80 41 81 67 82 68 83 76 84 69 85 70 86 74 87 77 88 71 89
REMARK SMILES IDX 72 90 75 91 73 92 52 93 53 94 61 95 54 96 55 97 59 98 62 99
REMARK SMILES IDX 56 100 57 101 60 102 58 103
REMARK H PARENT 18 5 14 10 6 20 93 31 23 37 82 56 50 67
REMARK Flexibility Score: inf
ROOT
ATOM      1  C   UNL A   1      35.932  20.486  25.002  1.00  0.00     0.116 C 
ENDROOT
BRANCH   1   2
ATOM      2  N   UNL A   1      34.728  19.693  25.079  1.00  0.00    -0.354 N 
ATOM      3  C   UNL A   1      33.419  20.088  25.144  1.00  0.00     0.247 C 
ATOM      4  O   UNL A   1      32.590  19.198  24.927  1.00  0.00    -0.272 OA
ATOM      5  H   UNL A   1      34.870  18.719  25.085  1.00  0.00     0.163 HD
BRANCH   3   6
ATOM      6  C   UNL A   1      33.019  21.595  25.302  1.00  0.00     0.206 C 
BRANCH   6   7
ATOM      7  N   UNL A   1      31.639  21.767  25.790  1.00  0.00    -0.336 N 
ATOM      8  C   UNL A   1      30.757  22.781  26.054  1.00  0.00     0.252 C 
ATOM      9  O   UNL A   1      29.687  22.433  26.563  1.00  0.00    -0.269 OA
ATOM     10  H   UNL A   1      31.230  20.894  25.982  1.00  0.00     0.165 HD
BRANCH   8  11
ATOM     11  C   UNL A   1      30.958  24.244  25.803  1.00  0.00     0.041 A 
ATOM     12  C   UNL A   1      30.615  26.335  24.619  1.00  0.00     0.041 A 
ATOM     13  C   UNL A   1      31.342  27.044  25.565  1.00  0.00     0.026 A 
ATOM     14  C   UNL A   1      30.473  24.947  24.704  1.00  0.00     0.040 A 
ATOM     15  C   UNL A   1      31.886  26.354  26.643  1.00  0.00     0.003 A 
ATOM     16  C   UNL A   1      31.685  24.971  26.765  1.00  0.00     0.014 A 
BRANCH  12  17
ATOM     17  N   UNL A   1      29.977  27.005  23.571  1.00  0.00    -0.326 N 
ATOM     18  C   UNL A   1      30.653  27.487  22.475  1.00  0.00     0.224 C 
ATOM     19  O   UNL A   1      30.273  28.522  21.927  1.00  0.00    -0.275 OA
ATOM     20  H   UNL A   1      29.003  27.139  23.622  1.00  0.00     0.169 HD
BRANCH  18  21
ATOM     21  C   UNL A   1      31.838  26.681  21.956  1.00  0.00     0.100 C 
BRANCH  21  22
ATOM     22  C   UNL A   1      33.196  27.330  22.217  1.00  0.00     0.006 C 
ATOM     23  C   UNL A   1      33.136  28.664  22.953  1.00  0.00     0.004 C 
ENDBRANCH  21  22
ENDBRANCH  18  21
ENDBRANCH  12  17
ENDBRANCH   8  11
ENDBRANCH   6   7
BRANCH   6  24
ATOM     24  C   UNL A   1      33.177  22.314  23.975  1.00  0.00     0.027 A 
ATOM     25  C   UNL A   1      34.075  23.397  23.686  1.00  0.00     0.065 A 
ATOM     26  C   UNL A   1      32.629  22.017  22.733  1.00  0.00     0.038 A 
ATOM     27  C   UNL A   1      35.115  24.033  24.539  1.00  0.00     0.069 C 
ATOM     28  N   UNL A   1      33.948  23.830  22.428  1.00  0.00    -0.180 NA
ATOM     29  N   UNL A   1      33.084  22.978  21.874  1.00  0.00    -0.282 N 
ATOM     30  C   UNL A   1      31.779  20.907  22.244  1.00  0.00     0.066 C 
ATOM     31  H   UNL A   1      32.801  23.037  20.933  1.00  0.00     0.190 HD
ENDBRANCH   6  24
ENDBRANCH   3   6
ENDBRANCH   1   2
BRANCH   1  32
ATOM     32  C   UNL A   1      37.199  19.639  25.002  1.00  0.00     0.023 C 
BRANCH  32  33
ATOM     33  C   UNL A   1      38.485  20.462  24.952  1.00  0.00     0.023 C 
BRANCH  33  34
ATOM     34  C   UNL A   1      39.398  20.294  26.162  1.00  0.00     0.116 C 
BRANCH  34  35
ATOM     35  N   UNL A   1      40.339  19.191  26.046  1.00  0.00    -0.352 N 
ATOM     36  C   UNL A   1      41.714  19.256  26.105  1.00  0.00     0.251 C 
ATOM     37  H   UNL A   1      39.950  18.297  25.909  1.00  0.00     0.163 HD
ATOM     38  O   UNL A   1      42.410  18.272  25.911  1.00  0.00    -0.269 OA
BRANCH  36  39
ATOM     39  C   UNL A   1      42.331  20.573  26.365  1.00  0.00     0.039 A 
ATOM     40  C   UNL A   1      42.646  21.395  25.283  1.00  0.00     0.014 A 
ATOM     41  C   UNL A   1      42.484  21.025  27.678  1.00  0.00     0.014 A 
ATOM     42  C   UNL A   1      43.047  22.711  25.519  1.00  0.00     0.010 A 
ATOM     43  C   UNL A   1      42.807  22.356  27.908  1.00  0.00     0.010 A 
ATOM     44  C   UNL A   1      43.088  23.213  26.832  1.00  0.00    -0.014 A 
BRANCH  44  45
ATOM     45  C   UNL A   1      43.420  24.634  27.103  1.00  0.00     0.031 A 
ATOM     46  C   UNL A   1      44.812  25.139  26.843  1.00  0.00     0.074 A 
ATOM     47  C   UNL A   1      42.495  25.447  27.650  1.00  0.00     0.049 A 
ATOM     48  N   UNL A   1      45.320  26.323  27.075  1.00  0.00    -0.248 NA
ATOM     49  C   UNL A   1      45.768  24.174  26.278  1.00  0.00     0.031 C 
ATOM     50  C   UNL A   1      41.128  25.060  27.998  1.00  0.00     0.029 A 
ATOM     51  N   UNL A   1      42.570  26.767  28.017  1.00  0.00    -0.354 N 
ATOM     52  C   UNL A   1      46.656  26.236  26.705  1.00  0.00     0.074 A 
ATOM     53  C   UNL A   1      46.894  24.873  26.288  1.00  0.00     0.031 C 
ATOM     54  C   UNL A   1      40.482  26.126  28.497  1.00  0.00     0.029 A 
ATOM     55  C   UNL A   1      41.400  27.261  28.540  1.00  0.00     0.049 A 
ATOM     56  H   UNL A   1      43.385  27.308  27.915  1.00  0.00     0.167 HD
ATOM     57  C   UNL A   1      47.593  27.214  26.692  1.00  0.00     0.037 A 
ATOM     58  C   UNL A   1      41.104  28.491  29.002  1.00  0.00     0.037 A 
ATOM     59  C   UNL A   1      47.341  28.578  27.072  1.00  0.00     0.049 A 
ATOM     60  C   UNL A   1      42.164  29.560  28.973  1.00  0.00     0.074 A 
ATOM     61  C   UNL A   1      48.200  29.662  27.016  1.00  0.00     0.029 A 
ATOM     62  N   UNL A   1      46.139  29.044  27.584  1.00  0.00    -0.354 N 
ATOM     63  N   UNL A   1      43.399  29.489  28.542  1.00  0.00    -0.248 NA
ATOM     64  C   UNL A   1      41.783  30.881  29.492  1.00  0.00     0.031 C 
ATOM     65  C   UNL A   1      47.532  30.774  27.538  1.00  0.00     0.029 A 
ATOM     66  C   UNL A   1      46.241  30.396  27.872  1.00  0.00     0.049 A 
ATOM     67  H   UNL A   1      45.333  28.497  27.722  1.00  0.00     0.167 HD
ATOM     68  C   UNL A   1      43.934  30.761  28.708  1.00  0.00     0.074 A 
ATOM     69  C   UNL A   1      42.884  31.585  29.267  1.00  0.00     0.031 C 
ATOM     70  C   UNL A   1      45.181  31.205  28.419  1.00  0.00     0.037 A 
BRANCH  57  71
ATOM     71  C   UNL A   1      48.976  26.839  26.246  1.00  0.00     0.064 A 
ATOM     72  C   UNL A   1      49.930  26.336  27.145  1.00  0.00     0.173 A 
ATOM     73  C   UNL A   1      49.347  26.964  24.899  1.00  0.00     0.173 A 
ATOM     74  F   UNL A   1      49.631  26.210  28.447  1.00  0.00    -0.203 F 
ATOM     75  C   UNL A   1      51.213  26.006  26.717  1.00  0.00     0.198 A 
ATOM     76  C   UNL A   1      50.621  26.602  24.469  1.00  0.00     0.198 A 
ATOM     77  F   UNL A   1      48.472  27.436  23.997  1.00  0.00    -0.203 F 
ATOM     78  F   UNL A   1      52.123  25.581  27.603  1.00  0.00    -0.200 F 
ATOM     79  C   UNL A   1      51.555  26.133  25.379  1.00  0.00     0.200 A 
ATOM     80  F   UNL A   1      50.946  26.713  23.174  1.00  0.00    -0.200 F 
ATOM     81  F   UNL A   1      52.789  25.810  24.969  1.00  0.00    -0.200 F 
ENDBRANCH  57  71
BRANCH  58  82
ATOM     82  C   UNL A   1      39.734  28.793  29.493  1.00  0.00     0.064 A 
ATOM     83  C   UNL A   1      39.381  28.541  30.827  1.00  0.00     0.173 A 
ATOM     84  C   UNL A   1      38.751  29.327  28.648  1.00  0.00     0.173 A 
ATOM     85  F   UNL A   1      40.281  28.011  31.668  1.00  0.00    -0.203 F 
ATOM     86  C   UNL A   1      38.092  28.793  31.291  1.00  0.00     0.198 A 
ATOM     87  C   UNL A   1      37.469  29.604  29.121  1.00  0.00     0.198 A 
ATOM     88  F   UNL A   1      39.039  29.590  27.365  1.00  0.00    -0.203 F 
ATOM     89  F   UNL A   1      37.770  28.500  32.558  1.00  0.00    -0.200 F 
ATOM     90  C   UNL A   1      37.139  29.329  30.439  1.00  0.00     0.200 A 
ATOM     91  F   UNL A   1      36.554  30.134  28.298  1.00  0.00    -0.200 F 
ATOM     92  F   UNL A   1      35.900  29.574  30.886  1.00  0.00    -0.200 F 
ENDBRANCH  58  82
BRANCH  70  93
ATOM     93  C   UNL A   1      45.470  32.657  28.667  1.00  0.00     0.064 A 
ATOM     94  C   UNL A   1      46.059  33.098  29.859  1.00  0.00     0.173 A 
ATOM     95  C   UNL A   1      45.189  33.612  27.677  1.00  0.00     0.173 A 
ATOM     96  F   UNL A   1      46.332  32.226  30.841  1.00  0.00    -0.203 F 
ATOM     97  C   UNL A   1      46.336  34.447  30.062  1.00  0.00     0.198 A 
ATOM     98  C   UNL A   1      45.494  34.956  27.873  1.00  0.00     0.198 A 
ATOM     99  F   UNL A   1      44.630  33.240  26.516  1.00  0.00    -0.203 F 
ATOM    100  F   UNL A   1      46.857  34.854  31.228  1.00  0.00    -0.200 F 
ATOM    101  C   UNL A   1      46.061  35.374  29.067  1.00  0.00     0.200 A 
ATOM    102  F   UNL A   1      45.241  35.846  26.903  1.00  0.00    -0.200 F 
ATOM    103  F   UNL A   1      46.336  36.670  29.261  1.00  0.00    -0.200 F 
ENDBRANCH  70  93
ENDBRANCH  44  45
ENDBRANCH  36  39
ENDBRANCH  34  35
ENDBRANCH  33  34
ENDBRANCH  32  33
ENDBRANCH   1  32
TORSDOF 17
ENDMDL
MODEL 3
REMARK VINA RESULT:     -13.0      4.543      8.641
REMARK SMILES CCCC(=O)Nc1cccc(C(=O)N[C@@H](C(=O)NCCCCNC(=O)c2ccc(-c3c4nc(c(-c5c(F)c(F)c(F)c(F)c5F)c5ccc([nH]5)c(-c5c(F)c(F)c(F)c(F)c5F)c5nc(c(-c6c(F)c(F)c(F)c(F)c6F)c6ccc3[nH]6)C=C5)C=C4)cc2)c2c(C)n[nH]c2C)c1
REMARK SMILES IDX 19 1 18 2 16 3 17 4 15 6 14 7 12 8 13 9 11 11 7 12 8 13
REMARK SMILES IDX 96 14 9 15 10 16 6 17 4 18 5 19 3 21 2 22 1 23 89 24 90 25
REMARK SMILES IDX 94 26 91 27 92 28 93 29 95 30 20 32 21 33 22 34 23 35 24 36
REMARK SMILES IDX 25 38 26 39 27 40 88 41 28 42 87 43 29 44 30 45 31 46 81 47
REMARK SMILES IDX 32 48 86 49 80 50 82 51 33 52 85 53 79 54 78 55 34 57 66 58
REMARK SMILES IDX 46 59 65 60 47 61 50 62 64 63 83 64 48 65 49 66 63 68 84 69
REMARK SMILES IDX 51 70 35 71 36 72 44 73 37 74 38 75 42 76 45 77 39 78 40 79
REMARK SMILES IDX 43 80 41 81 67 82 68 83 76 84 69 85 70 86 74 87 77 88 71 89
REMARK SMILES IDX 72 90 75 91 73 92 52 93 53 94 61 95 54 96 55 97 59 98 62 99
REMARK SMILES IDX 56 100 57 101 60 102 58 103
REMARK H PARENT 18 5 14 10 6 20 93 31 23 37 82 56 50 67
REMARK Flexibility Score: inf
ROOT
ATOM      1  C   UNL A   1      35.962  20.574  24.994  1.00  0.00     0.116 C 
ENDROOT
BRANCH   1   2
ATOM      2  N   UNL A   1      34.772  19.758  25.030  1.00  0.00    -0.354 N 
ATOM      3  C   UNL A   1      33.455  20.128  25.073  1.00  0.00     0.247 C 
ATOM      4  O   UNL A   1      32.647  19.227  24.822  1.00  0.00    -0.272 OA
ATOM      5  H   UNL A   1      34.932  18.786  25.022  1.00  0.00     0.163 HD
BRANCH   3   6
ATOM      6  C   UNL A   1      33.023  21.624  25.249  1.00  0.00     0.206 C 
BRANCH   6   7
ATOM      7  N   UNL A   1      31.639  21.762  25.736  1.00  0.00    -0.336 N 
ATOM      8  C   UNL A   1      30.738  22.754  26.019  1.00  0.00     0.252 C 
ATOM      9  O   UNL A   1      29.673  22.377  26.518  1.00  0.00    -0.269 OA
ATOM     10  H   UNL A   1      31.245  20.877  25.909  1.00  0.00     0.165 HD
BRANCH   8  11
ATOM     11  C   UNL A   1      30.914  24.225  25.801  1.00  0.00     0.041 A 
ATOM     12  C   UNL A   1      30.555  26.331  24.648  1.00  0.00     0.041 A 
ATOM     13  C   UNL A   1      31.245  27.036  25.624  1.00  0.00     0.026 A 
ATOM     14  C   UNL A   1      30.440  24.938  24.704  1.00  0.00     0.040 A 
ATOM     15  C   UNL A   1      31.778  26.337  26.701  1.00  0.00     0.003 A 
ATOM     16  C   UNL A   1      31.604  24.948  26.793  1.00  0.00     0.014 A 
BRANCH  12  17
ATOM     17  N   UNL A   1      29.926  27.008  23.599  1.00  0.00    -0.326 N 
ATOM     18  C   UNL A   1      30.616  27.522  22.526  1.00  0.00     0.224 C 
ATOM     19  O   UNL A   1      30.228  28.559  21.988  1.00  0.00    -0.275 OA
ATOM     20  H   UNL A   1      28.948  27.122  23.630  1.00  0.00     0.169 HD
BRANCH  18  21
ATOM     21  C   UNL A   1      31.828  26.748  22.019  1.00  0.00     0.100 C 
BRANCH  21  22
ATOM     22  C   UNL A   1      33.168  27.400  22.351  1.00  0.00     0.006 C 
ATOM     23  C   UNL A   1      33.066  28.731  23.088  1.00  0.00     0.004 C 
ENDBRANCH  21  22
ENDBRANCH  18  21
ENDBRANCH  12  17
ENDBRANCH   8  11
ENDBRANCH   6   7
BRANCH   6  24
ATOM     24  C   UNL A   1      33.169  22.363  23.932  1.00  0.00     0.027 A 
ATOM     25  C   UNL A   1      34.054  23.459  23.655  1.00  0.00     0.065 A 
ATOM     26  C   UNL A   1      32.619  22.077  22.688  1.00  0.00     0.038 A 
ATOM     27  C   UNL A   1      35.091  24.094  24.512  1.00  0.00     0.069 C 
ATOM     28  N   UNL A   1      33.919  23.907  22.403  1.00  0.00    -0.180 NA
ATOM     29  N   UNL A   1      33.061  23.055  21.840  1.00  0.00    -0.282 N 
ATOM     30  C   UNL A   1      31.778  20.965  22.187  1.00  0.00     0.066 C 
ATOM     31  H   UNL A   1      32.773  23.123  20.901  1.00  0.00     0.190 HD
ENDBRANCH   6  24
ENDBRANCH   3   6
ENDBRANCH   1   2
BRANCH   1  32
ATOM     32  C   UNL A   1      37.244  19.751  25.001  1.00  0.00     0.023 C 
BRANCH  32  33
ATOM     33  C   UNL A   1      38.515  20.597  24.975  1.00  0.00     0.023 C 
BRANCH  33  34
ATOM     34  C   UNL A   1      39.427  20.417  26.184  1.00  0.00     0.116 C 
BRANCH  34  35
ATOM     35  N   UNL A   1      40.286  19.246  26.110  1.00  0.00    -0.352 N 
ATOM     36  C   UNL A   1      41.662  19.211  26.191  1.00  0.00     0.251 C 
ATOM     37  H   UNL A   1      39.834  18.379  25.987  1.00  0.00     0.163 HD
ATOM     38  O   UNL A   1      42.286  18.174  26.032  1.00  0.00    -0.269 OA
BRANCH  36  39
ATOM     39  C   UNL A   1      42.370  20.486  26.430  1.00  0.00     0.039 A 
ATOM     40  C   UNL A   1      42.727  21.274  25.336  1.00  0.00     0.014 A 
ATOM     41  C   UNL A   1      42.568  20.939  27.737  1.00  0.00     0.014 A 
ATOM     42  C   UNL A   1      43.219  22.562  25.555  1.00  0.00     0.010 A 
ATOM     43  C   UNL A   1      42.984  22.247  27.949  1.00  0.00     0.010 A 
ATOM     44  C   UNL A   1      43.310  23.072  26.861  1.00  0.00    -0.014 A 
BRANCH  44  45
ATOM     45  C   UNL A   1      43.741  24.470  27.114  1.00  0.00     0.031 A 
ATOM     46  C   UNL A   1      42.751  25.476  27.629  1.00  0.00     0.074 A 
ATOM     47  C   UNL A   1      44.998  24.849  26.810  1.00  0.00     0.049 A 
ATOM     48  N   UNL A   1      42.911  26.757  27.850  1.00  0.00    -0.248 NA
ATOM     49  C   UNL A   1      41.392  24.984  27.900  1.00  0.00     0.031 C 
ATOM     50  C   UNL A   1      46.034  23.979  26.253  1.00  0.00     0.029 A 
ATOM     51  N   UNL A   1      45.614  26.070  26.919  1.00  0.00    -0.354 N 
ATOM     52  C   UNL A   1      41.670  27.223  28.264  1.00  0.00     0.074 A 
ATOM     53  C   UNL A   1      40.756  26.104  28.210  1.00  0.00     0.031 C 
ATOM     54  C   UNL A   1      47.167  24.684  26.100  1.00  0.00     0.029 A 
ATOM     55  C   UNL A   1      46.926  26.065  26.512  1.00  0.00     0.049 A 
ATOM     56  H   UNL A   1      45.159  26.874  27.258  1.00  0.00     0.167 HD
ATOM     57  C   UNL A   1      41.331  28.468  28.676  1.00  0.00     0.037 A 
ATOM     58  C   UNL A   1      47.831  27.062  26.475  1.00  0.00     0.037 A 
ATOM     59  C   UNL A   1      42.253  29.567  28.765  1.00  0.00     0.049 A 
ATOM     60  C   UNL A   1      47.427  28.435  26.941  1.00  0.00     0.074 A 
ATOM     61  C   UNL A   1      42.029  30.845  29.247  1.00  0.00     0.029 A 
ATOM     62  N   UNL A   1      43.578  29.520  28.356  1.00  0.00    -0.354 N 
ATOM     63  N   UNL A   1      46.275  28.845  27.411  1.00  0.00    -0.248 NA
ATOM     64  C   UNL A   1      48.456  29.483  26.876  1.00  0.00     0.031 C 
ATOM     65  C   UNL A   1      43.205  31.584  29.088  1.00  0.00     0.029 A 
ATOM     66  C   UNL A   1      44.177  30.754  28.552  1.00  0.00     0.049 A 
ATOM     67  H   UNL A   1      44.026  28.727  27.983  1.00  0.00     0.167 HD
ATOM     68  C   UNL A   1      46.447  30.186  27.726  1.00  0.00     0.074 A 
ATOM     69  C   UNL A   1      47.819  30.518  27.405  1.00  0.00     0.031 C 
ATOM     70  C   UNL A   1      45.549  31.064  28.237  1.00  0.00     0.037 A 
BRANCH  57  71
ATOM     71  C   UNL A   1      39.900  28.700  29.067  1.00  0.00     0.064 A 
ATOM     72  C   UNL A   1      38.936  29.105  28.131  1.00  0.00     0.173 A 
ATOM     73  C   UNL A   1      39.483  28.495  30.390  1.00  0.00     0.173 A 
ATOM     74  F   UNL A   1      39.285  29.328  26.854  1.00  0.00    -0.203 F 
ATOM     75  C   UNL A   1      37.616  29.329  28.512  1.00  0.00     0.198 A 
ATOM     76  C   UNL A   1      38.155  28.689  30.762  1.00  0.00     0.198 A 
ATOM     77  F   UNL A   1      40.363  28.104  31.325  1.00  0.00    -0.203 F 
ATOM     78  F   UNL A   1      36.727  29.769  27.613  1.00  0.00    -0.200 F 
ATOM     79  C   UNL A   1      37.225  29.115  29.826  1.00  0.00     0.200 A 
ATOM     80  F   UNL A   1      37.776  28.469  32.028  1.00  0.00    -0.200 F 
ATOM     81  F   UNL A   1      35.954  29.327  30.190  1.00  0.00    -0.200 F 
ENDBRANCH  57  71
BRANCH  58  82
ATOM     82  C   UNL A   1      49.219  26.792  26.018  1.00  0.00     0.064 A 
ATOM     83  C   UNL A   1      49.579  26.980  24.675  1.00  0.00     0.173 A 
ATOM     84  C   UNL A   1      50.208  26.337  26.901  1.00  0.00     0.173 A 
ATOM     85  F   UNL A   1      48.661  27.394  23.789  1.00  0.00    -0.203 F 
ATOM     86  C   UNL A   1      50.869  26.703  24.230  1.00  0.00     0.198 A 
ATOM     87  C   UNL A   1      51.507  26.086  26.458  1.00  0.00     0.198 A 
ATOM     88  F   UNL A   1      49.917  26.145  28.195  1.00  0.00    -0.203 F 
ATOM     89  F   UNL A   1      51.173  26.848  22.933  1.00  0.00    -0.200 F 
ATOM     90  C   UNL A   1      51.834  26.261  25.123  1.00  0.00     0.200 A 
ATOM     91  F   UNL A   1      52.439  25.671  27.327  1.00  0.00    -0.200 F 
ATOM     92  F   UNL A   1      53.075  25.997  24.694  1.00  0.00    -0.200 F 
ENDBRANCH  58  82
BRANCH  70  93
ATOM     93  C   UNL A   1      46.031  32.457  28.519  1.00  0.00     0.064 A 
ATOM     94  C   UNL A   1      46.619  32.800  29.744  1.00  0.00     0.173 A 
ATOM     95  C   UNL A   1      45.939  33.450  27.531  1.00  0.00     0.173 A 
ATOM     96  F   UNL A   1      46.716  31.890  30.725  1.00  0.00    -0.203 F 
ATOM     97  C   UNL A   1      47.078  34.093  29.979  1.00  0.00     0.198 A 
ATOM     98  C   UNL A   1      46.426  34.734  27.759  1.00  0.00     0.198 A 
ATOM     99  F   UNL A   1      45.390  33.170  26.340  1.00  0.00    -0.203 F 
ATOM    100  F   UNL A   1      47.595  34.411  31.174  1.00  0.00    -0.200 F 
ATOM    101  C   UNL A   1      46.988  35.057  28.985  1.00  0.00     0.200 A 
ATOM    102  F   UNL A   1      46.351  35.659  26.792  1.00  0.00    -0.200 F 
ATOM    103  F   UNL A   1      47.437  36.298  29.210  1.00  0.00    -0.200 F 
ENDBRANCH  70  93
ENDBRANCH  44  45
ENDBRANCH  36  39
ENDBRANCH  34  35
ENDBRANCH  33  34
ENDBRANCH  32  33
ENDBRANCH   1  32
TORSDOF 17
ENDMDL
