MODEL 1
REMARK VINA RESULT:     -12.6      0.000      0.000
REMARK SMILES COc1cccc(NC(=O)c2nccnc2C(=O)NCCCCNC(=O)c2ccc(-c3c4nc(c(-c5c(F)c(F)c(F)c(F)c5F)c5ccc([nH]5)c(-c5c(F)c(F)c(F)c(F)c5F)c5nc(c(-c6c(F)c(F)c(F)c(F)c6F)c6ccc3[nH]6)C=C5)C=C4)cc2)c1
REMARK SMILES IDX 21 1 20 2 19 3 17 4 18 5 16 7 11 8 12 9 13 10 15 11 14 12
REMARK SMILES IDX 9 13 8 14 10 16 7 17 3 18 4 19 90 20 5 21 6 22 2 23 1 24
REMARK SMILES IDX 22 25 23 26 24 27 25 28 26 30 27 31 28 32 89 33 29 34 88 35
REMARK SMILES IDX 30 36 31 37 32 38 82 39 33 40 87 41 81 42 83 43 34 44 86 45
REMARK SMILES IDX 80 46 79 47 35 49 67 50 47 51 66 52 48 53 51 54 65 55 84 56
REMARK SMILES IDX 49 57 50 58 64 60 85 61 52 62 36 63 37 64 45 65 38 66 39 67
REMARK SMILES IDX 43 68 46 69 40 70 41 71 44 72 42 73 68 74 69 75 77 76 70 77
REMARK SMILES IDX 71 78 75 79 78 80 72 81 73 82 76 83 74 84 53 85 54 86 62 87
REMARK SMILES IDX 55 88 56 89 60 90 63 91 57 92 58 93 61 94 59 95
REMARK H PARENT 19 6 8 15 24 29 83 48 51 59
REMARK Flexibility Score: inf
ROOT
ATOM      1  C   UNL A   1      31.699  30.464  26.669  1.00  0.00     0.023 C 
ENDROOT
BRANCH   1   2
ATOM      2  C   UNL A   1      31.647  29.800  25.297  1.00  0.00     0.116 C 
BRANCH   2   3
ATOM      3  N   UNL A   1      32.917  29.652  24.631  1.00  0.00    -0.351 N 
ATOM      4  C   UNL A   1      33.598  28.538  24.190  1.00  0.00     0.272 C 
ATOM      5  O   UNL A   1      34.639  28.766  23.565  1.00  0.00    -0.267 OA
ATOM      6  H   UNL A   1      33.383  30.501  24.458  1.00  0.00     0.163 HD
BRANCH   4   7
ATOM      7  C   UNL A   1      33.244  27.107  24.471  1.00  0.00     0.159 A 
ATOM      8  C   UNL A   1      32.955  26.100  23.562  1.00  0.00     0.159 A 
ATOM      9  N   UNL A   1      32.813  24.780  23.928  1.00  0.00    -0.247 NA
ATOM     10  C   UNL A   1      32.950  24.509  25.241  1.00  0.00     0.132 A 
ATOM     11  N   UNL A   1      33.336  26.799  25.809  1.00  0.00    -0.247 NA
ATOM     12  C   UNL A   1      33.190  25.503  26.165  1.00  0.00     0.132 A 
BRANCH   8  13
ATOM     13  C   UNL A   1      32.776  26.320  22.124  1.00  0.00     0.276 C 
ATOM     14  N   UNL A   1      31.650  26.955  21.618  1.00  0.00    -0.320 N 
ATOM     15  H   UNL A   1      31.595  26.917  20.636  1.00  0.00     0.170 HD
ATOM     16  O   UNL A   1      33.657  25.937  21.354  1.00  0.00    -0.267 OA
BRANCH  14  17
ATOM     17  C   UNL A   1      30.565  27.646  22.213  1.00  0.00     0.045 A 
ATOM     18  C   UNL A   1      29.429  29.799  22.462  1.00  0.00     0.120 A 
ATOM     19  C   UNL A   1      28.490  29.206  23.303  1.00  0.00     0.046 A 
ATOM     20  C   UNL A   1      30.453  29.017  21.912  1.00  0.00     0.072 A 
ATOM     21  C   UNL A   1      28.592  27.859  23.621  1.00  0.00     0.006 A 
ATOM     22  C   UNL A   1      29.635  27.093  23.093  1.00  0.00     0.026 A 
BRANCH  18  23
ATOM     23  O   UNL A   1      29.230  31.136  22.262  1.00  0.00    -0.497 OA
ATOM     24  C   UNL A   1      28.185  31.516  21.379  1.00  0.00     0.278 C 
ENDBRANCH  18  23
ENDBRANCH  14  17
ENDBRANCH   8  13
ENDBRANCH   4   7
ENDBRANCH   2   3
ENDBRANCH   1   2
BRANCH   1  25
ATOM     25  C   UNL A   1      31.575  31.989  26.705  1.00  0.00     0.023 C 
BRANCH  25  26
ATOM     26  C   UNL A   1      32.730  32.770  27.326  1.00  0.00     0.116 C 
BRANCH  26  27
ATOM     27  N   UNL A   1      32.393  34.136  27.702  1.00  0.00    -0.352 N 
ATOM     28  C   UNL A   1      32.969  34.994  28.610  1.00  0.00     0.251 C 
ATOM     29  H   UNL A   1      31.617  34.510  27.224  1.00  0.00     0.163 HD
ATOM     30  O   UNL A   1      32.454  36.090  28.819  1.00  0.00    -0.269 OA
BRANCH  28  31
ATOM     31  C   UNL A   1      34.171  34.595  29.378  1.00  0.00     0.039 A 
ATOM     32  C   UNL A   1      34.009  34.154  30.695  1.00  0.00     0.014 A 
ATOM     33  C   UNL A   1      35.447  34.642  28.816  1.00  0.00     0.014 A 
ATOM     34  C   UNL A   1      35.106  33.651  31.402  1.00  0.00     0.010 A 
ATOM     35  C   UNL A   1      36.521  34.060  29.486  1.00  0.00     0.010 A 
ATOM     36  C   UNL A   1      36.359  33.542  30.780  1.00  0.00    -0.014 A 
BRANCH  36  37
ATOM     37  C   UNL A   1      37.502  32.861  31.446  1.00  0.00     0.031 A 
ATOM     38  C   UNL A   1      38.184  31.695  30.787  1.00  0.00     0.074 A 
ATOM     39  C   UNL A   1      37.867  33.236  32.689  1.00  0.00     0.049 A 
ATOM     40  N   UNL A   1      39.119  30.906  31.258  1.00  0.00    -0.248 NA
ATOM     41  C   UNL A   1      37.733  31.347  29.431  1.00  0.00     0.031 C 
ATOM     42  C   UNL A   1      37.252  34.314  33.464  1.00  0.00     0.029 A 
ATOM     43  N   UNL A   1      38.836  32.738  33.527  1.00  0.00    -0.354 N 
ATOM     44  C   UNL A   1      39.346  29.958  30.269  1.00  0.00     0.074 A 
ATOM     45  C   UNL A   1      38.421  30.240  29.192  1.00  0.00     0.031 C 
ATOM     46  C   UNL A   1      37.872  34.415  34.650  1.00  0.00     0.029 A 
ATOM     47  C   UNL A   1      38.902  33.384  34.737  1.00  0.00     0.049 A 
ATOM     48  H   UNL A   1      39.428  31.990  33.282  1.00  0.00     0.167 HD
ATOM     49  C   UNL A   1      40.259  28.956  30.250  1.00  0.00     0.037 A 
ATOM     50  C   UNL A   1      39.697  33.165  35.802  1.00  0.00     0.037 A 
ATOM     51  C   UNL A   1      41.205  28.698  31.303  1.00  0.00     0.049 A 
ATOM     52  C   UNL A   1      40.712  32.057  35.749  1.00  0.00     0.074 A 
ATOM     53  C   UNL A   1      42.213  27.750  31.346  1.00  0.00     0.029 A 
ATOM     54  N   UNL A   1      41.262  29.396  32.501  1.00  0.00    -0.354 N 
ATOM     55  N   UNL A   1      40.960  31.208  34.783  1.00  0.00    -0.248 NA
ATOM     56  C   UNL A   1      41.561  31.879  36.936  1.00  0.00     0.031 C 
ATOM     57  C   UNL A   1      42.858  27.854  32.583  1.00  0.00     0.029 A 
ATOM     58  C   UNL A   1      42.279  28.891  33.295  1.00  0.00     0.049 A 
ATOM     59  H   UNL A   1      40.667  30.141  32.749  1.00  0.00     0.167 HD
ATOM     60  C   UNL A   1      42.008  30.416  35.231  1.00  0.00     0.074 A 
ATOM     61  C   UNL A   1      42.358  30.892  36.552  1.00  0.00     0.031 C 
ATOM     62  C   UNL A   1      42.624  29.384  34.602  1.00  0.00     0.037 A 
BRANCH  49  63
ATOM     63  C   UNL A   1      40.283  28.069  29.040  1.00  0.00     0.064 A 
ATOM     64  C   UNL A   1      41.032  28.401  27.902  1.00  0.00     0.173 A 
ATOM     65  C   UNL A   1      39.572  26.858  29.029  1.00  0.00     0.173 A 
ATOM     66  F   UNL A   1      41.720  29.552  27.859  1.00  0.00    -0.203 F 
ATOM     67  C   UNL A   1      41.043  27.571  26.783  1.00  0.00     0.198 A 
ATOM     68  C   UNL A   1      39.610  26.017  27.920  1.00  0.00     0.198 A 
ATOM     69  F   UNL A   1      38.847  26.490  30.095  1.00  0.00    -0.203 F 
ATOM     70  F   UNL A   1      41.725  27.935  25.689  1.00  0.00    -0.200 F 
ATOM     71  C   UNL A   1      40.336  26.378  26.796  1.00  0.00     0.200 A 
ATOM     72  F   UNL A   1      38.936  24.858  27.936  1.00  0.00    -0.200 F 
ATOM     73  F   UNL A   1      40.352  25.578  25.720  1.00  0.00    -0.200 F 
ENDBRANCH  49  63
BRANCH  50  74
ATOM     74  C   UNL A   1      39.590  34.037  37.000  1.00  0.00     0.064 A 
ATOM     75  C   UNL A   1      40.266  35.264  37.052  1.00  0.00     0.173 A 
ATOM     76  C   UNL A   1      38.820  33.667  38.112  1.00  0.00     0.173 A 
ATOM     77  F   UNL A   1      41.032  35.650  36.022  1.00  0.00    -0.203 F 
ATOM     78  C   UNL A   1      40.191  36.080  38.179  1.00  0.00     0.198 A 
ATOM     79  C   UNL A   1      38.726  34.495  39.229  1.00  0.00     0.198 A 
ATOM     80  F   UNL A   1      38.151  32.505  38.108  1.00  0.00    -0.203 F 
ATOM     81  F   UNL A   1      40.882  37.228  38.220  1.00  0.00    -0.200 F 
ATOM     82  C   UNL A   1      39.417  35.697  39.264  1.00  0.00     0.200 A 
ATOM     83  F   UNL A   1      37.967  34.128  40.270  1.00  0.00    -0.200 F 
ATOM     84  F   UNL A   1      39.343  36.482  40.347  1.00  0.00    -0.200 F 
ENDBRANCH  50  74
BRANCH  62  85
ATOM     85  C   UNL A   1      43.765  28.726  35.320  1.00  0.00     0.064 A 
ATOM     86  C   UNL A   1      45.087  29.159  35.146  1.00  0.00     0.173 A 
ATOM     87  C   UNL A   1      43.526  27.677  36.220  1.00  0.00     0.173 A 
ATOM     88  F   UNL A   1      45.368  30.147  34.284  1.00  0.00    -0.203 F 
ATOM     89  C   UNL A   1      46.133  28.550  35.835  1.00  0.00     0.198 A 
ATOM     90  C   UNL A   1      44.571  27.089  36.925  1.00  0.00     0.198 A 
ATOM     91  F   UNL A   1      42.277  27.232  36.422  1.00  0.00    -0.203 F 
ATOM     92  F   UNL A   1      47.395  28.950  35.625  1.00  0.00    -0.200 F 
ATOM     93  C   UNL A   1      45.874  27.521  36.728  1.00  0.00     0.200 A 
ATOM     94  F   UNL A   1      44.318  26.102  37.796  1.00  0.00    -0.200 F 
ATOM     95  F   UNL A   1      46.881  26.940  37.395  1.00  0.00    -0.200 F 
ENDBRANCH  62  85
ENDBRANCH  36  37
ENDBRANCH  28  31
ENDBRANCH  26  27
ENDBRANCH  25  26
ENDBRANCH   1  25
TORSDOF 14
ENDMDL
MODEL 2
REMARK VINA RESULT:     -12.5      1.280      7.770
REMARK SMILES COc1cccc(NC(=O)c2nccnc2C(=O)NCCCCNC(=O)c2ccc(-c3c4nc(c(-c5c(F)c(F)c(F)c(F)c5F)c5ccc([nH]5)c(-c5c(F)c(F)c(F)c(F)c5F)c5nc(c(-c6c(F)c(F)c(F)c(F)c6F)c6ccc3[nH]6)C=C5)C=C4)cc2)c1
REMARK SMILES IDX 21 1 20 2 19 3 17 4 18 5 16 7 11 8 12 9 13 10 15 11 14 12
REMARK SMILES IDX 9 13 8 14 10 16 7 17 3 18 4 19 90 20 5 21 6 22 2 23 1 24
REMARK SMILES IDX 22 25 23 26 24 27 25 28 26 30 27 31 28 32 89 33 29 34 88 35
REMARK SMILES IDX 30 36 31 37 32 38 82 39 33 40 87 41 81 42 83 43 34 44 86 45
REMARK SMILES IDX 80 46 79 47 35 49 67 50 47 51 66 52 48 53 51 54 65 55 84 56
REMARK SMILES IDX 49 57 50 58 64 60 85 61 52 62 36 63 37 64 45 65 38 66 39 67
REMARK SMILES IDX 43 68 46 69 40 70 41 71 44 72 42 73 68 74 69 75 77 76 70 77
REMARK SMILES IDX 71 78 75 79 78 80 72 81 73 82 76 83 74 84 53 85 54 86 62 87
REMARK SMILES IDX 55 88 56 89 60 90 63 91 57 92 58 93 61 94 59 95
REMARK H PARENT 19 6 8 15 24 29 83 48 51 59
REMARK Flexibility Score: inf
ROOT
ATOM      1  C   UNL A   1      31.559  30.768  26.017  1.00  0.00     0.023 C 
ENDROOT
BRANCH   1   2
ATOM      2  C   UNL A   1      32.752  29.988  26.559  1.00  0.00     0.116 C 
BRANCH   2   3
ATOM      3  N   UNL A   1      33.580  29.350  25.566  1.00  0.00    -0.351 N 
ATOM      4  C   UNL A   1      33.269  28.565  24.478  1.00  0.00     0.272 C 
ATOM      5  O   UNL A   1      34.226  28.248  23.762  1.00  0.00    -0.267 OA
ATOM      6  H   UNL A   1      34.545  29.505  25.686  1.00  0.00     0.163 HD
BRANCH   4   7
ATOM      7  C   UNL A   1      31.920  28.001  24.142  1.00  0.00     0.159 A 
ATOM      8  C   UNL A   1      31.175  27.074  24.857  1.00  0.00     0.159 A 
ATOM      9  N   UNL A   1      29.872  26.760  24.542  1.00  0.00    -0.247 NA
ATOM     10  C   UNL A   1      29.349  27.392  23.473  1.00  0.00     0.132 A 
ATOM     11  N   UNL A   1      31.367  28.597  23.032  1.00  0.00    -0.247 NA
ATOM     12  C   UNL A   1      30.089  28.281  22.723  1.00  0.00     0.132 A 
BRANCH   8  13
ATOM     13  C   UNL A   1      31.680  26.335  26.018  1.00  0.00     0.276 C 
ATOM     14  N   UNL A   1      32.158  25.037  25.904  1.00  0.00    -0.320 N 
ATOM     15  H   UNL A   1      32.339  24.616  26.775  1.00  0.00     0.170 HD
ATOM     16  O   UNL A   1      31.685  26.893  27.115  1.00  0.00    -0.267 OA
BRANCH  14  17
ATOM     17  C   UNL A   1      32.441  24.190  24.803  1.00  0.00     0.045 A 
ATOM     18  C   UNL A   1      34.153  23.409  23.239  1.00  0.00     0.120 A 
ATOM     19  C   UNL A   1      33.213  22.592  22.617  1.00  0.00     0.046 A 
ATOM     20  C   UNL A   1      33.769  24.194  24.333  1.00  0.00     0.072 A 
ATOM     21  C   UNL A   1      31.896  22.585  23.058  1.00  0.00     0.006 A 
ATOM     22  C   UNL A   1      31.513  23.394  24.131  1.00  0.00     0.026 A 
BRANCH  18  23
ATOM     23  O   UNL A   1      35.400  23.345  22.681  1.00  0.00    -0.497 OA
ATOM     24  C   UNL A   1      36.486  23.039  23.543  1.00  0.00     0.278 C 
ENDBRANCH  18  23
ENDBRANCH  14  17
ENDBRANCH   8  13
ENDBRANCH   4   7
ENDBRANCH   2   3
ENDBRANCH   1   2
BRANCH   1  25
ATOM     25  C   UNL A   1      31.374  32.196  26.534  1.00  0.00     0.023 C 
BRANCH  25  26
ATOM     26  C   UNL A   1      32.562  32.844  27.240  1.00  0.00     0.116 C 
BRANCH  26  27
ATOM     27  N   UNL A   1      32.333  34.221  27.654  1.00  0.00    -0.352 N 
ATOM     28  C   UNL A   1      32.971  35.006  28.586  1.00  0.00     0.251 C 
ATOM     29  H   UNL A   1      31.591  34.668  27.186  1.00  0.00     0.163 HD
ATOM     30  O   UNL A   1      32.545  36.133  28.826  1.00  0.00    -0.269 OA
BRANCH  28  31
ATOM     31  C   UNL A   1      34.135  34.491  29.344  1.00  0.00     0.039 A 
ATOM     32  C   UNL A   1      33.911  33.873  30.579  1.00  0.00     0.014 A 
ATOM     33  C   UNL A   1      35.437  34.602  28.853  1.00  0.00     0.014 A 
ATOM     34  C   UNL A   1      34.972  33.266  31.259  1.00  0.00     0.010 A 
ATOM     35  C   UNL A   1      36.476  33.922  29.483  1.00  0.00     0.010 A 
ATOM     36  C   UNL A   1      36.252  33.231  30.684  1.00  0.00    -0.014 A 
BRANCH  36  37
ATOM     37  C   UNL A   1      37.361  32.452  31.300  1.00  0.00     0.031 A 
ATOM     38  C   UNL A   1      37.871  32.804  32.669  1.00  0.00     0.074 A 
ATOM     39  C   UNL A   1      37.970  31.483  30.586  1.00  0.00     0.049 A 
ATOM     40  N   UNL A   1      38.897  32.317  33.322  1.00  0.00    -0.248 NA
ATOM     41  C   UNL A   1      37.154  33.868  33.386  1.00  0.00     0.031 C 
ATOM     42  C   UNL A   1      37.612  31.080  29.225  1.00  0.00     0.029 A 
ATOM     43  N   UNL A   1      39.034  30.673  30.901  1.00  0.00    -0.354 N 
ATOM     44  C   UNL A   1      38.962  33.032  34.510  1.00  0.00     0.074 A 
ATOM     45  C   UNL A   1      37.903  34.017  34.470  1.00  0.00     0.031 C 
ATOM     46  C   UNL A   1      38.420  30.083  28.833  1.00  0.00     0.029 A 
ATOM     47  C   UNL A   1      39.380  29.803  29.895  1.00  0.00     0.049 A 
ATOM     48  H   UNL A   1      39.502  30.710  31.766  1.00  0.00     0.167 HD
ATOM     49  C   UNL A   1      39.813  32.867  35.553  1.00  0.00     0.037 A 
ATOM     50  C   UNL A   1      40.367  28.888  29.833  1.00  0.00     0.037 A 
ATOM     51  C   UNL A   1      40.842  31.863  35.611  1.00  0.00     0.049 A 
ATOM     52  C   UNL A   1      41.288  28.715  31.009  1.00  0.00     0.074 A 
ATOM     53  C   UNL A   1      41.710  31.575  36.651  1.00  0.00     0.029 A 
ATOM     54  N   UNL A   1      41.141  30.979  34.585  1.00  0.00    -0.354 N 
ATOM     55  N   UNL A   1      41.298  29.355  32.152  1.00  0.00    -0.248 NA
ATOM     56  C   UNL A   1      42.334  27.690  30.886  1.00  0.00     0.031 C 
ATOM     57  C   UNL A   1      42.554  30.537  36.241  1.00  0.00     0.029 A 
ATOM     58  C   UNL A   1      42.187  30.153  34.961  1.00  0.00     0.049 A 
ATOM     59  H   UNL A   1      40.677  30.944  33.717  1.00  0.00     0.167 HD
ATOM     60  C   UNL A   1      42.328  28.793  32.894  1.00  0.00     0.074 A 
ATOM     61  C   UNL A   1      42.914  27.752  32.076  1.00  0.00     0.031 C 
ATOM     62  C   UNL A   1      42.751  29.113  34.141  1.00  0.00     0.037 A 
BRANCH  49  63
ATOM     63  C   UNL A   1      39.657  33.794  36.723  1.00  0.00     0.064 A 
ATOM     64  C   UNL A   1      40.264  35.058  36.743  1.00  0.00     0.173 A 
ATOM     65  C   UNL A   1      38.868  33.426  37.824  1.00  0.00     0.173 A 
ATOM     66  F   UNL A   1      41.036  35.452  35.719  1.00  0.00    -0.203 F 
ATOM     67  C   UNL A   1      40.116  35.908  37.836  1.00  0.00     0.198 A 
ATOM     68  C   UNL A   1      38.698  34.290  38.903  1.00  0.00     0.198 A 
ATOM     69  F   UNL A   1      38.259  32.232  37.852  1.00  0.00    -0.203 F 
ATOM     70  F   UNL A   1      40.747  37.089  37.855  1.00  0.00    -0.200 F 
ATOM     71  C   UNL A   1      39.329  35.525  38.913  1.00  0.00     0.200 A 
ATOM     72  F   UNL A   1      37.928  33.925  39.938  1.00  0.00    -0.200 F 
ATOM     73  F   UNL A   1      39.184  36.345  39.963  1.00  0.00    -0.200 F 
ENDBRANCH  49  63
BRANCH  50  74
ATOM     74  C   UNL A   1      40.515  28.038  28.624  1.00  0.00     0.064 A 
ATOM     75  C   UNL A   1      41.289  28.471  27.538  1.00  0.00     0.173 A 
ATOM     76  C   UNL A   1      39.892  26.786  28.525  1.00  0.00     0.173 A 
ATOM     77  F   UNL A   1      41.887  29.671  27.579  1.00  0.00    -0.203 F 
ATOM     78  C   UNL A   1      41.418  27.692  26.390  1.00  0.00     0.198 A 
ATOM     79  C   UNL A   1      40.042  25.997  27.386  1.00  0.00     0.198 A 
ATOM     80  F   UNL A   1      39.145  26.326  29.538  1.00  0.00    -0.203 F 
ATOM     81  F   UNL A   1      42.129  28.149  25.350  1.00  0.00    -0.200 F 
ATOM     82  C   UNL A   1      40.798  26.453  26.317  1.00  0.00     0.200 A 
ATOM     83  F   UNL A   1      39.452  24.795  27.324  1.00  0.00    -0.200 F 
ATOM     84  F   UNL A   1      40.924  25.703  25.214  1.00  0.00    -0.200 F 
ENDBRANCH  50  74
BRANCH  62  85
ATOM     85  C   UNL A   1      43.876  28.303  34.714  1.00  0.00     0.064 A 
ATOM     86  C   UNL A   1      43.638  27.126  35.439  1.00  0.00     0.173 A 
ATOM     87  C   UNL A   1      45.208  28.689  34.500  1.00  0.00     0.173 A 
ATOM     88  F   UNL A   1      42.383  26.726  35.684  1.00  0.00    -0.203 F 
ATOM     89  C   UNL A   1      44.696  26.376  35.947  1.00  0.00     0.198 A 
ATOM     90  C   UNL A   1      46.261  27.922  34.987  1.00  0.00     0.198 A 
ATOM     91  F   UNL A   1      45.485  29.805  33.808  1.00  0.00    -0.203 F 
ATOM     92  F   UNL A   1      44.447  25.277  36.672  1.00  0.00    -0.200 F 
ATOM     93  C   UNL A   1      46.005  26.769  35.715  1.00  0.00     0.200 A 
ATOM     94  F   UNL A   1      47.527  28.298  34.753  1.00  0.00    -0.200 F 
ATOM     95  F   UNL A   1      47.021  26.042  36.199  1.00  0.00    -0.200 F 
ENDBRANCH  62  85
ENDBRANCH  36  37
ENDBRANCH  28  31
ENDBRANCH  26  27
ENDBRANCH  25  26
ENDBRANCH   1  25
TORSDOF 14
ENDMDL
MODEL 3
REMARK VINA RESULT:     -12.4      3.103      5.212
REMARK SMILES COc1cccc(NC(=O)c2nccnc2C(=O)NCCCCNC(=O)c2ccc(-c3c4nc(c(-c5c(F)c(F)c(F)c(F)c5F)c5ccc([nH]5)c(-c5c(F)c(F)c(F)c(F)c5F)c5nc(c(-c6c(F)c(F)c(F)c(F)c6F)c6ccc3[nH]6)C=C5)C=C4)cc2)c1
REMARK SMILES IDX 21 1 20 2 19 3 17 4 18 5 16 7 11 8 12 9 13 10 15 11 14 12
REMARK SMILES IDX 9 13 8 14 10 16 7 17 3 18 4 19 90 20 5 21 6 22 2 23 1 24
REMARK SMILES IDX 22 25 23 26 24 27 25 28 26 30 27 31 28 32 89 33 29 34 88 35
REMARK SMILES IDX 30 36 31 37 32 38 82 39 33 40 87 41 81 42 83 43 34 44 86 45
REMARK SMILES IDX 80 46 79 47 35 49 67 50 47 51 66 52 48 53 51 54 65 55 84 56
REMARK SMILES IDX 49 57 50 58 64 60 85 61 52 62 36 63 37 64 45 65 38 66 39 67
REMARK SMILES IDX 43 68 46 69 40 70 41 71 44 72 42 73 68 74 69 75 77 76 70 77
REMARK SMILES IDX 71 78 75 79 78 80 72 81 73 82 76 83 74 84 53 85 54 86 62 87
REMARK SMILES IDX 55 88 56 89 60 90 63 91 57 92 58 93 61 94 59 95
REMARK H PARENT 19 6 8 15 24 29 83 48 51 59
REMARK Flexibility Score: inf
ROOT
ATOM      1  C   UNL A   1      32.594  26.705  26.090  1.00  0.00     0.023 C 
ENDROOT
BRANCH   1   2
ATOM      2  C   UNL A   1      33.846  26.185  25.392  1.00  0.00     0.116 C 
BRANCH   2   3
ATOM      3  N   UNL A   1      33.626  25.535  24.124  1.00  0.00    -0.351 N 
ATOM      4  C   UNL A   1      33.970  24.284  23.661  1.00  0.00     0.272 C 
ATOM      5  O   UNL A   1      33.543  23.999  22.537  1.00  0.00    -0.267 OA
ATOM      6  H   UNL A   1      33.141  26.086  23.468  1.00  0.00     0.163 HD
BRANCH   4   7
ATOM      7  C   UNL A   1      34.866  23.296  24.347  1.00  0.00     0.159 A 
ATOM      8  C   UNL A   1      34.522  22.326  25.278  1.00  0.00     0.159 A 
ATOM      9  N   UNL A   1      35.402  21.359  25.710  1.00  0.00    -0.247 NA
ATOM     10  C   UNL A   1      36.645  21.411  25.193  1.00  0.00     0.132 A 
ATOM     11  N   UNL A   1      36.156  23.343  23.871  1.00  0.00    -0.247 NA
ATOM     12  C   UNL A   1      37.019  22.395  24.302  1.00  0.00     0.132 A 
BRANCH   8  13
ATOM     13  C   UNL A   1      33.198  22.216  25.896  1.00  0.00     0.276 C 
ATOM     14  N   UNL A   1      32.355  21.147  25.628  1.00  0.00    -0.320 N 
ATOM     15  H   UNL A   1      31.452  21.265  26.001  1.00  0.00     0.170 HD
ATOM     16  O   UNL A   1      32.838  23.095  26.680  1.00  0.00    -0.267 OA
BRANCH  14  17
ATOM     17  C   UNL A   1      32.516  19.922  24.933  1.00  0.00     0.045 A 
ATOM     18  C   UNL A   1      33.109  17.555  25.114  1.00  0.00     0.120 A 
ATOM     19  C   UNL A   1      32.907  17.399  23.744  1.00  0.00     0.046 A 
ATOM     20  C   UNL A   1      32.902  18.808  25.703  1.00  0.00     0.072 A 
ATOM     21  C   UNL A   1      32.541  18.489  22.966  1.00  0.00     0.006 A 
ATOM     22  C   UNL A   1      32.367  19.744  23.557  1.00  0.00     0.026 A 
BRANCH  18  23
ATOM     23  O   UNL A   1      33.501  16.411  25.751  1.00  0.00    -0.497 OA
ATOM     24  C   UNL A   1      34.729  15.825  25.343  1.00  0.00     0.278 C 
ENDBRANCH  18  23
ENDBRANCH  14  17
ENDBRANCH   8  13
ENDBRANCH   4   7
ENDBRANCH   2   3
ENDBRANCH   1   2
BRANCH   1  25
ATOM     25  C   UNL A   1      32.019  28.029  25.583  1.00  0.00     0.023 C 
BRANCH  25  26
ATOM     26  C   UNL A   1      32.995  29.187  25.389  1.00  0.00     0.116 C 
BRANCH  26  27
ATOM     27  N   UNL A   1      32.573  30.434  26.012  1.00  0.00    -0.352 N 
ATOM     28  C   UNL A   1      33.177  31.221  26.964  1.00  0.00     0.251 C 
ATOM     29  H   UNL A   1      31.703  30.773  25.696  1.00  0.00     0.163 HD
ATOM     30  O   UNL A   1      32.585  32.205  27.403  1.00  0.00    -0.269 OA
BRANCH  28  31
ATOM     31  C   UNL A   1      34.509  30.870  27.509  1.00  0.00     0.039 A 
ATOM     32  C   UNL A   1      35.429  31.897  27.744  1.00  0.00     0.014 A 
ATOM     33  C   UNL A   1      34.857  29.550  27.796  1.00  0.00     0.014 A 
ATOM     34  C   UNL A   1      36.645  31.613  28.374  1.00  0.00     0.010 A 
ATOM     35  C   UNL A   1      36.027  29.280  28.503  1.00  0.00     0.010 A 
ATOM     36  C   UNL A   1      36.926  30.311  28.816  1.00  0.00    -0.014 A 
BRANCH  36  37
ATOM     37  C   UNL A   1      38.132  30.010  29.634  1.00  0.00     0.031 A 
ATOM     38  C   UNL A   1      39.183  29.064  29.124  1.00  0.00     0.074 A 
ATOM     39  C   UNL A   1      38.236  30.518  30.879  1.00  0.00     0.049 A 
ATOM     40  N   UNL A   1      40.242  28.593  29.735  1.00  0.00    -0.248 NA
ATOM     41  C   UNL A   1      39.003  28.553  27.757  1.00  0.00     0.031 C 
ATOM     42  C   UNL A   1      37.260  31.403  31.517  1.00  0.00     0.029 A 
ATOM     43  N   UNL A   1      39.204  30.349  31.838  1.00  0.00    -0.354 N 
ATOM     44  C   UNL A   1      40.835  27.715  28.838  1.00  0.00     0.074 A 
ATOM     45  C   UNL A   1      39.995  27.681  27.660  1.00  0.00     0.031 C 
ATOM     46  C   UNL A   1      37.690  31.720  32.748  1.00  0.00     0.029 A 
ATOM     47  C   UNL A   1      38.951  31.031  33.004  1.00  0.00     0.049 A 
ATOM     48  H   UNL A   1      40.006  29.794  31.703  1.00  0.00     0.167 HD
ATOM     49  C   UNL A   1      41.989  27.016  28.974  1.00  0.00     0.037 A 
ATOM     50  C   UNL A   1      39.651  31.088  34.153  1.00  0.00     0.037 A 
ATOM     51  C   UNL A   1      42.845  27.078  30.129  1.00  0.00     0.049 A 
ATOM     52  C   UNL A   1      40.936  30.314  34.273  1.00  0.00     0.074 A 
ATOM     53  C   UNL A   1      44.067  26.460  30.333  1.00  0.00     0.029 A 
ATOM     54  N   UNL A   1      42.570  27.806  31.278  1.00  0.00    -0.354 N 
ATOM     55  N   UNL A   1      41.518  29.537  33.394  1.00  0.00    -0.248 NA
ATOM     56  C   UNL A   1      41.662  30.430  35.546  1.00  0.00     0.031 C 
ATOM     57  C   UNL A   1      44.515  26.789  31.617  1.00  0.00     0.029 A 
ATOM     58  C   UNL A   1      43.592  27.642  32.198  1.00  0.00     0.049 A 
ATOM     59  H   UNL A   1      41.766  28.358  31.417  1.00  0.00     0.167 HD
ATOM     60  C   UNL A   1      42.689  29.095  33.993  1.00  0.00     0.074 A 
ATOM     61  C   UNL A   1      42.741  29.699  35.307  1.00  0.00     0.031 C 
ATOM     62  C   UNL A   1      43.636  28.260  33.498  1.00  0.00     0.037 A 
BRANCH  49  63
ATOM     63  C   UNL A   1      42.396  26.129  27.835  1.00  0.00     0.064 A 
ATOM     64  C   UNL A   1      43.251  26.585  26.820  1.00  0.00     0.173 A 
ATOM     65  C   UNL A   1      41.952  24.799  27.771  1.00  0.00     0.173 A 
ATOM     66  F   UNL A   1      43.696  27.851  26.831  1.00  0.00    -0.203 F 
ATOM     67  C   UNL A   1      43.619  25.754  25.765  1.00  0.00     0.198 A 
ATOM     68  C   UNL A   1      42.346  23.962  26.729  1.00  0.00     0.198 A 
ATOM     69  F   UNL A   1      41.140  24.311  28.720  1.00  0.00    -0.203 F 
ATOM     70  F   UNL A   1      44.394  26.228  24.781  1.00  0.00    -0.200 F 
ATOM     71  C   UNL A   1      43.170  24.442  25.724  1.00  0.00     0.200 A 
ATOM     72  F   UNL A   1      41.921  22.691  26.697  1.00  0.00    -0.200 F 
ATOM     73  F   UNL A   1      43.528  23.642  24.710  1.00  0.00    -0.200 F 
ENDBRANCH  49  63
BRANCH  50  74
ATOM     74  C   UNL A   1      39.170  31.935  35.274  1.00  0.00     0.064 A 
ATOM     75  C   UNL A   1      38.400  31.381  36.307  1.00  0.00     0.173 A 
ATOM     76  C   UNL A   1      39.463  33.304  35.339  1.00  0.00     0.173 A 
ATOM     77  F   UNL A   1      38.076  30.081  36.276  1.00  0.00    -0.203 F 
ATOM     78  C   UNL A   1      37.925  32.170  37.352  1.00  0.00     0.198 A 
ATOM     79  C   UNL A   1      39.008  34.087  36.398  1.00  0.00     0.198 A 
ATOM     80  F   UNL A   1      40.200  33.879  34.377  1.00  0.00    -0.203 F 
ATOM     81  F   UNL A   1      37.155  31.624  38.304  1.00  0.00    -0.200 F 
ATOM     82  C   UNL A   1      38.234  33.522  37.400  1.00  0.00     0.200 A 
ATOM     83  F   UNL A   1      39.319  35.390  36.447  1.00  0.00    -0.200 F 
ATOM     84  F   UNL A   1      37.779  34.280  38.406  1.00  0.00    -0.200 F 
ENDBRANCH  50  74
BRANCH  62  85
ATOM     85  C   UNL A   1      44.828  27.983  34.365  1.00  0.00     0.064 A 
ATOM     86  C   UNL A   1      44.859  26.888  35.240  1.00  0.00     0.173 A 
ATOM     87  C   UNL A   1      45.965  28.800  34.288  1.00  0.00     0.173 A 
ATOM     88  F   UNL A   1      43.790  26.088  35.360  1.00  0.00    -0.203 F 
ATOM     89  C   UNL A   1      45.982  26.633  36.024  1.00  0.00     0.198 A 
ATOM     90  C   UNL A   1      47.095  28.526  35.054  1.00  0.00     0.198 A 
ATOM     91  F   UNL A   1      45.984  29.856  33.462  1.00  0.00    -0.203 F 
ATOM     92  F   UNL A   1      45.977  25.606  36.884  1.00  0.00    -0.200 F 
ATOM     93  C   UNL A   1      47.100  27.447  35.925  1.00  0.00     0.200 A 
ATOM     94  F   UNL A   1      48.178  29.308  34.950  1.00  0.00    -0.200 F 
ATOM     95  F   UNL A   1      48.182  27.197  36.675  1.00  0.00    -0.200 F 
ENDBRANCH  62  85
ENDBRANCH  36  37
ENDBRANCH  28  31
ENDBRANCH  26  27
ENDBRANCH  25  26
ENDBRANCH   1  25
TORSDOF 14
ENDMDL
