MODEL 1
REMARK VINA RESULT:      -9.8      0.000      0.000
REMARK SMILES O=C(COc1ccccc1Br)Nc1ccc(C(=O)NCCCCNC(=O)c2ccc(-c3c4nc(c(-c5c(F)c(F)c(F)c(F)c5F)c5ccc([nH]5)c(-c5c(F)c(F)c(F)c(F)c5F)c5nc(c(-c6c(F)c(F)c(F)c(F)c6F)c6ccc3[nH]6)C=C5)C=C4)cc2)c(O)c1
REMARK SMILES IDX 20 1 19 2 17 3 18 4 16 6 13 7 14 8 92 9 15 10 90 11 12 12
REMARK SMILES IDX 1 13 2 14 3 16 4 17 5 18 6 19 10 20 7 21 9 22 11 23 8 24
REMARK SMILES IDX 91 25 21 27 22 28 23 29 24 30 25 31 26 33 27 34 28 35 89 36
REMARK SMILES IDX 29 37 88 38 30 39 31 40 32 41 82 42 33 43 87 44 81 45 83 46
REMARK SMILES IDX 34 47 86 48 80 49 79 50 35 52 67 53 47 54 66 55 48 56 51 57
REMARK SMILES IDX 65 58 84 59 49 60 50 61 64 63 85 64 52 65 36 66 37 67 45 68
REMARK SMILES IDX 38 69 39 70 43 71 46 72 40 73 41 74 44 75 42 76 68 77 69 78
REMARK SMILES IDX 77 79 70 80 71 81 75 82 78 83 72 84 73 85 76 86 74 87 53 88
REMARK SMILES IDX 54 89 62 90 55 91 56 92 60 93 63 94 57 95 58 96 61 97 59 98
REMARK H PARENT 19 5 12 15 91 26 24 32 83 51 51 62
REMARK Flexibility Score: inf
ROOT
ATOM      1  C   UNL A   1      37.487  34.186  31.524  1.00  0.00     0.116 C 
ENDROOT
BRANCH   1   2
ATOM      2  N   UNL A   1      36.504  34.008  32.582  1.00  0.00    -0.352 N 
ATOM      3  C   UNL A   1      36.482  33.149  33.656  1.00  0.00     0.255 C 
ATOM      4  O   UNL A   1      35.504  33.174  34.401  1.00  0.00    -0.269 OA
ATOM      5  H   UNL A   1      35.722  34.605  32.519  1.00  0.00     0.163 HD
BRANCH   3   6
ATOM      6  C   UNL A   1      37.568  32.173  33.920  1.00  0.00     0.081 A 
ATOM      7  C   UNL A   1      39.632  30.266  34.147  1.00  0.00     0.045 A 
ATOM      8  C   UNL A   1      38.511  29.993  33.366  1.00  0.00     0.027 A 
ATOM      9  C   UNL A   1      39.671  31.454  34.887  1.00  0.00     0.073 A 
ATOM     10  C   UNL A   1      37.492  30.946  33.244  1.00  0.00     0.020 A 
ATOM     11  C   UNL A   1      38.627  32.378  34.806  1.00  0.00     0.130 A 
BRANCH   7  12
ATOM     12  N   UNL A   1      40.792  29.475  34.152  1.00  0.00    -0.323 N 
ATOM     13  O   UNL A   1      40.034  27.330  33.629  1.00  0.00    -0.271 OA
ATOM     14  C   UNL A   1      40.928  28.165  33.718  1.00  0.00     0.262 C 
ATOM     15  H   UNL A   1      41.607  29.901  34.505  1.00  0.00     0.170 HD
BRANCH  14  16
ATOM     16  C   UNL A   1      42.375  27.837  33.328  1.00  0.00     0.329 C 
BRANCH  16  17
ATOM     17  O   UNL A   1      43.044  27.173  34.410  1.00  0.00    -0.483 OA
BRANCH  17  18
ATOM     18  C   UNL A   1      43.404  25.883  34.123  1.00  0.00     0.134 A 
ATOM     19  C   UNL A   1      44.174  25.704  32.971  1.00  0.00     0.047 A 
ATOM     20  C   UNL A   1      42.922  24.762  34.812  1.00  0.00     0.060 A 
ATOM     21  C   UNL A   1      44.476  24.418  32.517  1.00  0.00     0.004 A 
ATOM     22  C   UNL A   1      43.230  23.477  34.354  1.00  0.00     0.019 A 
ATOM     23  Br  UNL A   1      41.807  24.861  36.338  1.00  0.00    -0.047 Br
ATOM     24  C   UNL A   1      44.001  23.305  33.207  1.00  0.00     0.001 A 
ENDBRANCH  17  18
ENDBRANCH  16  17
ENDBRANCH  14  16
ENDBRANCH   7  12
BRANCH  11  25
ATOM     25  O   UNL A   1      38.712  33.442  35.661  1.00  0.00    -0.507 OA
ATOM     26  H   UNL A   1      39.116  33.336  36.500  1.00  0.00     0.293 HD
ENDBRANCH  11  25
ENDBRANCH   3   6
ENDBRANCH   1   2
BRANCH   1  27
ATOM     27  C   UNL A   1      37.147  33.458  30.222  1.00  0.00     0.023 C 
BRANCH  27  28
ATOM     28  C   UNL A   1      35.698  33.560  29.734  1.00  0.00     0.023 C 
BRANCH  28  29
ATOM     29  C   UNL A   1      35.456  33.289  28.252  1.00  0.00     0.116 C 
BRANCH  29  30
ATOM     30  N   UNL A   1      34.453  32.266  27.998  1.00  0.00    -0.352 N 
ATOM     31  C   UNL A   1      34.553  30.895  27.965  1.00  0.00     0.251 C 
ATOM     32  H   UNL A   1      33.548  32.614  27.822  1.00  0.00     0.163 HD
ATOM     33  O   UNL A   1      33.581  30.220  27.634  1.00  0.00    -0.269 OA
BRANCH  31  34
ATOM     34  C   UNL A   1      35.835  30.220  28.268  1.00  0.00     0.039 A 
ATOM     35  C   UNL A   1      36.795  30.122  27.255  1.00  0.00     0.014 A 
ATOM     36  C   UNL A   1      36.107  29.699  29.534  1.00  0.00     0.014 A 
ATOM     37  C   UNL A   1      38.065  29.616  27.546  1.00  0.00     0.010 A 
ATOM     38  C   UNL A   1      37.396  29.267  29.843  1.00  0.00     0.010 A 
ATOM     39  C   UNL A   1      38.397  29.250  28.859  1.00  0.00    -0.014 A 
BRANCH  39  40
ATOM     40  C   UNL A   1      39.795  28.919  29.241  1.00  0.00     0.031 A 
ATOM     41  C   UNL A   1      40.638  29.900  30.004  1.00  0.00     0.074 A 
ATOM     42  C   UNL A   1      40.338  27.762  28.808  1.00  0.00     0.049 A 
ATOM     43  N   UNL A   1      41.906  29.827  30.326  1.00  0.00    -0.248 NA
ATOM     44  C   UNL A   1      39.976  31.137  30.444  1.00  0.00     0.031 C 
ATOM     45  C   UNL A   1      39.642  26.746  28.016  1.00  0.00     0.029 A 
ATOM     46  N   UNL A   1      41.605  27.253  28.956  1.00  0.00    -0.354 N 
ATOM     47  C   UNL A   1      42.196  31.012  30.991  1.00  0.00     0.074 A 
ATOM     48  C   UNL A   1      40.985  31.804  30.986  1.00  0.00     0.031 C 
ATOM     49  C   UNL A   1      40.483  25.731  27.762  1.00  0.00     0.029 A 
ATOM     50  C   UNL A   1      41.790  26.043  28.331  1.00  0.00     0.049 A 
ATOM     51  H   UNL A   1      42.314  27.712  29.462  1.00  0.00     0.167 HD
ATOM     52  C   UNL A   1      43.361  31.393  31.566  1.00  0.00     0.037 A 
ATOM     53  C   UNL A   1      42.892  25.277  28.211  1.00  0.00     0.037 A 
ATOM     54  C   UNL A   1      44.559  30.593  31.586  1.00  0.00     0.049 A 
ATOM     55  C   UNL A   1      44.179  25.737  28.840  1.00  0.00     0.074 A 
ATOM     56  C   UNL A   1      45.765  30.863  32.210  1.00  0.00     0.029 A 
ATOM     57  N   UNL A   1      44.705  29.371  30.947  1.00  0.00    -0.354 N 
ATOM     58  N   UNL A   1      44.419  26.824  29.530  1.00  0.00    -0.248 NA
ATOM     59  C   UNL A   1      45.348  24.863  28.670  1.00  0.00     0.031 C 
ATOM     60  C   UNL A   1      46.657  29.829  31.906  1.00  0.00     0.029 A 
ATOM     61  C   UNL A   1      45.992  28.891  31.134  1.00  0.00     0.049 A 
ATOM     62  H   UNL A   1      44.000  28.913  30.436  1.00  0.00     0.167 HD
ATOM     63  C   UNL A   1      45.758  26.757  29.892  1.00  0.00     0.074 A 
ATOM     64  C   UNL A   1      46.273  25.512  29.363  1.00  0.00     0.031 C 
ATOM     65  C   UNL A   1      46.493  27.650  30.599  1.00  0.00     0.037 A 
BRANCH  52  66
ATOM     66  C   UNL A   1      43.400  32.739  32.230  1.00  0.00     0.064 A 
ATOM     67  C   UNL A   1      43.599  33.916  31.493  1.00  0.00     0.173 A 
ATOM     68  C   UNL A   1      43.188  32.858  33.612  1.00  0.00     0.173 A 
ATOM     69  F   UNL A   1      43.815  33.857  30.171  1.00  0.00    -0.203 F 
ATOM     70  C   UNL A   1      43.614  35.160  32.120  1.00  0.00     0.198 A 
ATOM     71  C   UNL A   1      43.173  34.106  34.230  1.00  0.00     0.198 A 
ATOM     72  F   UNL A   1      42.984  31.765  34.362  1.00  0.00    -0.203 F 
ATOM     73  F   UNL A   1      43.852  36.267  31.402  1.00  0.00    -0.200 F 
ATOM     74  C   UNL A   1      43.394  35.255  33.485  1.00  0.00     0.200 A 
ATOM     75  F   UNL A   1      42.947  34.197  35.547  1.00  0.00    -0.200 F 
ATOM     76  F   UNL A   1      43.400  36.453  34.084  1.00  0.00    -0.200 F 
ENDBRANCH  52  66
BRANCH  53  77
ATOM     77  C   UNL A   1      42.825  23.991  27.470  1.00  0.00     0.064 A 
ATOM     78  C   UNL A   1      43.190  23.922  26.119  1.00  0.00     0.173 A 
ATOM     79  C   UNL A   1      42.395  22.810  28.092  1.00  0.00     0.173 A 
ATOM     80  F   UNL A   1      43.587  25.030  25.475  1.00  0.00    -0.203 F 
ATOM     81  C   UNL A   1      43.112  22.723  25.412  1.00  0.00     0.198 A 
ATOM     82  C   UNL A   1      42.344  21.605  27.391  1.00  0.00     0.198 A 
ATOM     83  F   UNL A   1      42.038  22.822  29.384  1.00  0.00    -0.203 F 
ATOM     84  F   UNL A   1      43.425  22.696  24.109  1.00  0.00    -0.200 F 
ATOM     85  C   UNL A   1      42.694  21.565  26.049  1.00  0.00     0.200 A 
ATOM     86  F   UNL A   1      41.954  20.486  28.016  1.00  0.00    -0.200 F 
ATOM     87  F   UNL A   1      42.623  20.412  25.372  1.00  0.00    -0.200 F 
ENDBRANCH  53  77
BRANCH  65  88
ATOM     88  C   UNL A   1      47.932  27.306  30.855  1.00  0.00     0.064 A 
ATOM     89  C   UNL A   1      48.958  27.784  30.028  1.00  0.00     0.173 A 
ATOM     90  C   UNL A   1      48.291  26.525  31.965  1.00  0.00     0.173 A 
ATOM     91  F   UNL A   1      48.665  28.518  28.944  1.00  0.00    -0.203 F 
ATOM     92  C   UNL A   1      50.291  27.477  30.291  1.00  0.00     0.198 A 
ATOM     93  C   UNL A   1      49.625  26.245  32.242  1.00  0.00     0.198 A 
ATOM     94  F   UNL A   1      47.346  26.048  32.790  1.00  0.00    -0.203 F 
ATOM     95  F   UNL A   1      51.252  27.908  29.463  1.00  0.00    -0.200 F 
ATOM     96  C   UNL A   1      50.623  26.715  31.402  1.00  0.00     0.200 A 
ATOM     97  F   UNL A   1      49.946  25.519  33.322  1.00  0.00    -0.200 F 
ATOM     98  F   UNL A   1      51.907  26.429  31.659  1.00  0.00    -0.200 F 
ENDBRANCH  65  88
ENDBRANCH  39  40
ENDBRANCH  31  34
ENDBRANCH  29  30
ENDBRANCH  28  29
ENDBRANCH  27  28
ENDBRANCH   1  27
TORSDOF 16
ENDMDL
MODEL 2
REMARK VINA RESULT:      -9.7      4.084     10.245
REMARK SMILES O=C(COc1ccccc1Br)Nc1ccc(C(=O)NCCCCNC(=O)c2ccc(-c3c4nc(c(-c5c(F)c(F)c(F)c(F)c5F)c5ccc([nH]5)c(-c5c(F)c(F)c(F)c(F)c5F)c5nc(c(-c6c(F)c(F)c(F)c(F)c6F)c6ccc3[nH]6)C=C5)C=C4)cc2)c(O)c1
REMARK SMILES IDX 20 1 19 2 17 3 18 4 16 6 13 7 14 8 92 9 15 10 90 11 12 12
REMARK SMILES IDX 1 13 2 14 3 16 4 17 5 18 6 19 10 20 7 21 9 22 11 23 8 24
REMARK SMILES IDX 91 25 21 27 22 28 23 29 24 30 25 31 26 33 27 34 28 35 89 36
REMARK SMILES IDX 29 37 88 38 30 39 31 40 32 41 82 42 33 43 87 44 81 45 83 46
REMARK SMILES IDX 34 47 86 48 80 49 79 50 35 52 67 53 47 54 66 55 48 56 51 57
REMARK SMILES IDX 65 58 84 59 49 60 50 61 64 63 85 64 52 65 36 66 37 67 45 68
REMARK SMILES IDX 38 69 39 70 43 71 46 72 40 73 41 74 44 75 42 76 68 77 69 78
REMARK SMILES IDX 77 79 70 80 71 81 75 82 78 83 72 84 73 85 76 86 74 87 53 88
REMARK SMILES IDX 54 89 62 90 55 91 56 92 60 93 63 94 57 95 58 96 61 97 59 98
REMARK H PARENT 19 5 12 15 91 26 24 32 83 51 51 62
REMARK Flexibility Score: inf
ROOT
ATOM      1  C   UNL A   1      44.089  23.219  28.946  1.00  0.00     0.116 C 
ENDROOT
BRANCH   1   2
ATOM      2  N   UNL A   1      44.785  22.590  27.835  1.00  0.00    -0.352 N 
ATOM      3  C   UNL A   1      45.583  23.128  26.851  1.00  0.00     0.255 C 
ATOM      4  O   UNL A   1      46.035  22.374  25.992  1.00  0.00    -0.269 OA
ATOM      5  H   UNL A   1      44.666  21.614  27.777  1.00  0.00     0.163 HD
BRANCH   3   6
ATOM      6  C   UNL A   1      45.879  24.580  26.768  1.00  0.00     0.081 A 
ATOM      7  C   UNL A   1      46.191  27.381  26.727  1.00  0.00     0.045 A 
ATOM      8  C   UNL A   1      44.990  26.806  26.318  1.00  0.00     0.027 A 
ATOM      9  C   UNL A   1      47.264  26.547  27.065  1.00  0.00     0.073 A 
ATOM     10  C   UNL A   1      44.831  25.415  26.351  1.00  0.00     0.020 A 
ATOM     11  C   UNL A   1      47.119  25.158  27.043  1.00  0.00     0.130 A 
BRANCH   7  12
ATOM     12  N   UNL A   1      46.366  28.759  26.938  1.00  0.00    -0.323 N 
ATOM     13  O   UNL A   1      46.404  29.675  24.791  1.00  0.00    -0.271 OA
ATOM     14  C   UNL A   1      46.264  29.779  26.005  1.00  0.00     0.262 C 
ATOM     15  H   UNL A   1      46.585  29.033  27.859  1.00  0.00     0.170 HD
BRANCH  14  16
ATOM     16  C   UNL A   1      45.936  31.126  26.662  1.00  0.00     0.329 C 
BRANCH  16  17
ATOM     17  O   UNL A   1      44.520  31.355  26.649  1.00  0.00    -0.483 OA
BRANCH  17  18
ATOM     18  C   UNL A   1      44.150  32.544  27.221  1.00  0.00     0.134 A 
ATOM     19  C   UNL A   1      43.870  32.503  28.590  1.00  0.00     0.047 A 
ATOM     20  C   UNL A   1      43.894  33.717  26.499  1.00  0.00     0.060 A 
ATOM     21  C   UNL A   1      43.354  33.627  29.237  1.00  0.00     0.004 A 
ATOM     22  C   UNL A   1      43.378  34.840  27.153  1.00  0.00     0.019 A 
ATOM     23  Br  UNL A   1      44.153  33.882  24.632  1.00  0.00    -0.047 Br
ATOM     24  C   UNL A   1      43.104  34.794  28.518  1.00  0.00     0.001 A 
ENDBRANCH  17  18
ENDBRANCH  16  17
ENDBRANCH  14  16
ENDBRANCH   7  12
BRANCH  11  25
ATOM     25  O   UNL A   1      48.262  24.442  27.272  1.00  0.00    -0.507 OA
ATOM     26  H   UNL A   1      49.090  24.880  27.300  1.00  0.00     0.293 HD
ENDBRANCH  11  25
ENDBRANCH   3   6
ENDBRANCH   1   2
BRANCH   1  27
ATOM     27  C   UNL A   1      42.568  23.265  28.790  1.00  0.00     0.023 C 
BRANCH  27  28
ATOM     28  C   UNL A   1      41.918  22.102  28.033  1.00  0.00     0.023 C 
BRANCH  28  29
ATOM     29  C   UNL A   1      41.731  22.284  26.530  1.00  0.00     0.116 C 
BRANCH  29  30
ATOM     30  N   UNL A   1      40.352  22.148  26.088  1.00  0.00    -0.352 N 
ATOM     31  C   UNL A   1      39.282  23.005  26.198  1.00  0.00     0.251 C 
ATOM     32  H   UNL A   1      40.150  21.298  25.633  1.00  0.00     0.163 HD
ATOM     33  O   UNL A   1      38.167  22.640  25.831  1.00  0.00    -0.269 OA
BRANCH  31  34
ATOM     34  C   UNL A   1      39.442  24.345  26.806  1.00  0.00     0.039 A 
ATOM     35  C   UNL A   1      38.936  24.561  28.092  1.00  0.00     0.014 A 
ATOM     36  C   UNL A   1      40.094  25.380  26.133  1.00  0.00     0.014 A 
ATOM     37  C   UNL A   1      39.191  25.769  28.747  1.00  0.00     0.010 A 
ATOM     38  C   UNL A   1      40.415  26.553  26.815  1.00  0.00     0.010 A 
ATOM     39  C   UNL A   1      39.992  26.747  28.139  1.00  0.00    -0.014 A 
BRANCH  39  40
ATOM     40  C   UNL A   1      40.461  27.941  28.892  1.00  0.00     0.031 A 
ATOM     41  C   UNL A   1      41.844  27.988  29.478  1.00  0.00     0.074 A 
ATOM     42  C   UNL A   1      39.597  28.949  29.131  1.00  0.00     0.049 A 
ATOM     43  N   UNL A   1      42.383  28.895  30.254  1.00  0.00    -0.248 NA
ATOM     44  C   UNL A   1      42.729  26.855  29.173  1.00  0.00     0.031 C 
ATOM     45  C   UNL A   1      38.211  29.003  28.660  1.00  0.00     0.029 A 
ATOM     46  N   UNL A   1      39.748  30.113  29.844  1.00  0.00    -0.354 N 
ATOM     47  C   UNL A   1      43.662  28.436  30.541  1.00  0.00     0.074 A 
ATOM     48  C   UNL A   1      43.802  27.148  29.893  1.00  0.00     0.031 C 
ATOM     49  C   UNL A   1      37.646  30.144  29.082  1.00  0.00     0.029 A 
ATOM     50  C   UNL A   1      38.611  30.881  29.892  1.00  0.00     0.049 A 
ATOM     51  H   UNL A   1      40.592  30.371  30.281  1.00  0.00     0.167 HD
ATOM     52  C   UNL A   1      44.635  29.042  31.262  1.00  0.00     0.037 A 
ATOM     53  C   UNL A   1      38.362  32.041  30.531  1.00  0.00     0.037 A 
ATOM     54  C   UNL A   1      44.499  30.332  31.888  1.00  0.00     0.049 A 
ATOM     55  C   UNL A   1      39.453  32.680  31.346  1.00  0.00     0.074 A 
ATOM     56  C   UNL A   1      45.454  31.061  32.577  1.00  0.00     0.029 A 
ATOM     57  N   UNL A   1      43.333  31.082  31.910  1.00  0.00    -0.354 N 
ATOM     58  N   UNL A   1      40.682  32.272  31.547  1.00  0.00    -0.248 NA
ATOM     59  C   UNL A   1      39.121  33.940  32.025  1.00  0.00     0.031 C 
ATOM     60  C   UNL A   1      44.852  32.228  33.058  1.00  0.00     0.029 A 
ATOM     61  C   UNL A   1      43.536  32.251  32.628  1.00  0.00     0.049 A 
ATOM     62  H   UNL A   1      42.486  30.823  31.480  1.00  0.00     0.167 HD
ATOM     63  C   UNL A   1      41.274  33.230  32.357  1.00  0.00     0.074 A 
ATOM     64  C   UNL A   1      40.276  34.252  32.595  1.00  0.00     0.031 C 
ATOM     65  C   UNL A   1      42.532  33.259  32.860  1.00  0.00     0.037 A 
BRANCH  52  66
ATOM     66  C   UNL A   1      45.941  28.317  31.414  1.00  0.00     0.064 A 
ATOM     67  C   UNL A   1      46.104  27.285  32.349  1.00  0.00     0.173 A 
ATOM     68  C   UNL A   1      47.027  28.627  30.582  1.00  0.00     0.173 A 
ATOM     69  F   UNL A   1      45.099  26.956  33.174  1.00  0.00    -0.203 F 
ATOM     70  C   UNL A   1      47.316  26.608  32.466  1.00  0.00     0.198 A 
ATOM     71  C   UNL A   1      48.228  27.928  30.681  1.00  0.00     0.198 A 
ATOM     72  F   UNL A   1      46.922  29.600  29.664  1.00  0.00    -0.203 F 
ATOM     73  F   UNL A   1      47.463  25.656  33.398  1.00  0.00    -0.200 F 
ATOM     74  C   UNL A   1      48.374  26.925  31.627  1.00  0.00     0.200 A 
ATOM     75  F   UNL A   1      49.244  28.226  29.860  1.00  0.00    -0.200 F 
ATOM     76  F   UNL A   1      49.536  26.267  31.735  1.00  0.00    -0.200 F 
ENDBRANCH  52  66
BRANCH  53  77
ATOM     77  C   UNL A   1      37.024  32.678  30.421  1.00  0.00     0.064 A 
ATOM     78  C   UNL A   1      36.047  32.469  31.403  1.00  0.00     0.173 A 
ATOM     79  C   UNL A   1      36.693  33.502  29.336  1.00  0.00     0.173 A 
ATOM     80  F   UNL A   1      36.309  31.671  32.449  1.00  0.00    -0.203 F 
ATOM     81  C   UNL A   1      34.783  33.048  31.297  1.00  0.00     0.198 A 
ATOM     82  C   UNL A   1      35.438  34.103  29.245  1.00  0.00     0.198 A 
ATOM     83  F   UNL A   1      37.594  33.737  28.371  1.00  0.00    -0.203 F 
ATOM     84  F   UNL A   1      33.854  32.795  32.229  1.00  0.00    -0.200 F 
ATOM     85  C   UNL A   1      34.481  33.868  30.222  1.00  0.00     0.200 A 
ATOM     86  F   UNL A   1      35.157  34.908  28.211  1.00  0.00    -0.200 F 
ATOM     87  F   UNL A   1      33.269  34.427  30.121  1.00  0.00    -0.200 F 
ENDBRANCH  53  77
BRANCH  65  88
ATOM     88  C   UNL A   1      42.908  34.441  33.706  1.00  0.00     0.064 A 
ATOM     89  C   UNL A   1      43.302  35.658  33.130  1.00  0.00     0.173 A 
ATOM     90  C   UNL A   1      42.833  34.369  35.105  1.00  0.00     0.173 A 
ATOM     91  F   UNL A   1      43.407  35.771  31.797  1.00  0.00    -0.203 F 
ATOM     92  C   UNL A   1      43.626  36.754  33.926  1.00  0.00     0.198 A 
ATOM     93  C   UNL A   1      43.128  35.475  35.896  1.00  0.00     0.198 A 
ATOM     94  F   UNL A   1      42.457  33.229  35.705  1.00  0.00    -0.203 F 
ATOM     95  F   UNL A   1      44.041  37.893  33.356  1.00  0.00    -0.200 F 
ATOM     96  C   UNL A   1      43.530  36.664  35.307  1.00  0.00     0.200 A 
ATOM     97  F   UNL A   1      43.024  35.391  37.230  1.00  0.00    -0.200 F 
ATOM     98  F   UNL A   1      43.832  37.723  36.070  1.00  0.00    -0.200 F 
ENDBRANCH  65  88
ENDBRANCH  39  40
ENDBRANCH  31  34
ENDBRANCH  29  30
ENDBRANCH  28  29
ENDBRANCH  27  28
ENDBRANCH   1  27
TORSDOF 16
ENDMDL
MODEL 3
REMARK VINA RESULT:      -9.7      0.332      1.946
REMARK SMILES O=C(COc1ccccc1Br)Nc1ccc(C(=O)NCCCCNC(=O)c2ccc(-c3c4nc(c(-c5c(F)c(F)c(F)c(F)c5F)c5ccc([nH]5)c(-c5c(F)c(F)c(F)c(F)c5F)c5nc(c(-c6c(F)c(F)c(F)c(F)c6F)c6ccc3[nH]6)C=C5)C=C4)cc2)c(O)c1
REMARK SMILES IDX 20 1 19 2 17 3 18 4 16 6 13 7 14 8 92 9 15 10 90 11 12 12
REMARK SMILES IDX 1 13 2 14 3 16 4 17 5 18 6 19 10 20 7 21 9 22 11 23 8 24
REMARK SMILES IDX 91 25 21 27 22 28 23 29 24 30 25 31 26 33 27 34 28 35 89 36
REMARK SMILES IDX 29 37 88 38 30 39 31 40 32 41 82 42 33 43 87 44 81 45 83 46
REMARK SMILES IDX 34 47 86 48 80 49 79 50 35 52 67 53 47 54 66 55 48 56 51 57
REMARK SMILES IDX 65 58 84 59 49 60 50 61 64 63 85 64 52 65 36 66 37 67 45 68
REMARK SMILES IDX 38 69 39 70 43 71 46 72 40 73 41 74 44 75 42 76 68 77 69 78
REMARK SMILES IDX 77 79 70 80 71 81 75 82 78 83 72 84 73 85 76 86 74 87 53 88
REMARK SMILES IDX 54 89 62 90 55 91 56 92 60 93 63 94 57 95 58 96 61 97 59 98
REMARK H PARENT 19 5 12 15 91 26 24 32 83 51 51 62
REMARK Flexibility Score: inf
ROOT
ATOM      1  C   UNL A   1      37.606  34.166  31.566  1.00  0.00     0.116 C 
ENDROOT
BRANCH   1   2
ATOM      2  N   UNL A   1      36.643  33.840  32.606  1.00  0.00    -0.352 N 
ATOM      3  C   UNL A   1      36.690  32.906  33.616  1.00  0.00     0.255 C 
ATOM      4  O   UNL A   1      35.716  32.804  34.359  1.00  0.00    -0.269 OA
ATOM      5  H   UNL A   1      35.819  34.379  32.586  1.00  0.00     0.163 HD
BRANCH   3   6
ATOM      6  C   UNL A   1      37.847  31.998  33.811  1.00  0.00     0.081 A 
ATOM      7  C   UNL A   1      40.026  30.212  33.908  1.00  0.00     0.045 A 
ATOM      8  C   UNL A   1      38.862  29.857  33.230  1.00  0.00     0.027 A 
ATOM      9  C   UNL A   1      40.060  31.420  34.615  1.00  0.00     0.073 A 
ATOM     10  C   UNL A   1      37.785  30.750  33.171  1.00  0.00     0.020 A 
ATOM     11  C   UNL A   1      38.962  32.284  34.600  1.00  0.00     0.130 A 
BRANCH   7  12
ATOM     12  N   UNL A   1      41.226  29.485  33.834  1.00  0.00    -0.323 N 
ATOM     13  O   UNL A   1      40.596  27.281  34.274  1.00  0.00    -0.271 OA
ATOM     14  C   UNL A   1      41.384  28.108  33.827  1.00  0.00     0.262 C 
ATOM     15  H   UNL A   1      42.053  30.017  33.780  1.00  0.00     0.170 HD
BRANCH  14  16
ATOM     16  C   UNL A   1      42.702  27.685  33.165  1.00  0.00     0.329 C 
BRANCH  16  17
ATOM     17  O   UNL A   1      43.560  27.052  34.125  1.00  0.00    -0.483 OA
BRANCH  17  18
ATOM     18  C   UNL A   1      43.768  25.720  33.882  1.00  0.00     0.134 A 
ATOM     19  C   UNL A   1      44.398  25.409  32.674  1.00  0.00     0.047 A 
ATOM     20  C   UNL A   1      43.255  24.688  34.679  1.00  0.00     0.060 A 
ATOM     21  C   UNL A   1      44.530  24.078  32.271  1.00  0.00     0.004 A 
ATOM     22  C   UNL A   1      43.393  23.358  34.271  1.00  0.00     0.019 A 
ATOM     23  Br  UNL A   1      42.313  24.973  36.295  1.00  0.00    -0.047 Br
ATOM     24  C   UNL A   1      44.025  23.054  33.067  1.00  0.00     0.001 A 
ENDBRANCH  17  18
ENDBRANCH  16  17
ENDBRANCH  14  16
ENDBRANCH   7  12
BRANCH  11  25
ATOM     25  O   UNL A   1      39.057  33.374  35.421  1.00  0.00    -0.507 OA
ATOM     26  H   UNL A   1      38.694  34.195  35.152  1.00  0.00     0.293 HD
ENDBRANCH  11  25
ENDBRANCH   3   6
ENDBRANCH   1   2
BRANCH   1  27
ATOM     27  C   UNL A   1      37.303  33.531  30.208  1.00  0.00     0.023 C 
BRANCH  27  28
ATOM     28  C   UNL A   1      35.856  33.622  29.712  1.00  0.00     0.023 C 
BRANCH  28  29
ATOM     29  C   UNL A   1      35.621  33.335  28.232  1.00  0.00     0.116 C 
BRANCH  29  30
ATOM     30  N   UNL A   1      34.611  32.318  27.984  1.00  0.00    -0.352 N 
ATOM     31  C   UNL A   1      34.706  30.947  27.940  1.00  0.00     0.251 C 
ATOM     32  H   UNL A   1      33.706  32.670  27.821  1.00  0.00     0.163 HD
ATOM     33  O   UNL A   1      33.728  30.277  27.616  1.00  0.00    -0.269 OA
BRANCH  31  34
ATOM     34  C   UNL A   1      35.990  30.265  28.222  1.00  0.00     0.039 A 
ATOM     35  C   UNL A   1      36.942  30.183  27.201  1.00  0.00     0.014 A 
ATOM     36  C   UNL A   1      36.270  29.723  29.478  1.00  0.00     0.014 A 
ATOM     37  C   UNL A   1      38.213  29.671  27.474  1.00  0.00     0.010 A 
ATOM     38  C   UNL A   1      37.561  29.285  29.770  1.00  0.00     0.010 A 
ATOM     39  C   UNL A   1      38.555  29.282  28.779  1.00  0.00    -0.014 A 
BRANCH  39  40
ATOM     40  C   UNL A   1      39.956  28.943  29.144  1.00  0.00     0.031 A 
ATOM     41  C   UNL A   1      40.820  29.929  29.878  1.00  0.00     0.074 A 
ATOM     42  C   UNL A   1      40.480  27.774  28.724  1.00  0.00     0.049 A 
ATOM     43  N   UNL A   1      42.092  29.849  30.181  1.00  0.00    -0.248 NA
ATOM     44  C   UNL A   1      40.178  31.180  30.307  1.00  0.00     0.031 C 
ATOM     45  C   UNL A   1      39.761  26.751  27.960  1.00  0.00     0.029 A 
ATOM     46  N   UNL A   1      41.744  27.254  28.861  1.00  0.00    -0.354 N 
ATOM     47  C   UNL A   1      42.404  31.041  30.821  1.00  0.00     0.074 A 
ATOM     48  C   UNL A   1      41.201  31.846  30.822  1.00  0.00     0.031 C 
ATOM     49  C   UNL A   1      40.588  25.724  27.711  1.00  0.00     0.029 A 
ATOM     50  C   UNL A   1      41.907  26.032  28.254  1.00  0.00     0.049 A 
ATOM     51  H   UNL A   1      42.465  27.714  29.348  1.00  0.00     0.167 HD
ATOM     52  C   UNL A   1      43.582  31.420  31.372  1.00  0.00     0.037 A 
ATOM     53  C   UNL A   1      42.998  25.253  28.131  1.00  0.00     0.037 A 
ATOM     54  C   UNL A   1      44.772  30.608  31.387  1.00  0.00     0.049 A 
ATOM     55  C   UNL A   1      44.300  25.710  28.731  1.00  0.00     0.074 A 
ATOM     56  C   UNL A   1      45.990  30.876  31.988  1.00  0.00     0.029 A 
ATOM     57  N   UNL A   1      44.895  29.374  30.767  1.00  0.00    -0.354 N 
ATOM     58  N   UNL A   1      44.562  26.807  29.399  1.00  0.00    -0.248 NA
ATOM     59  C   UNL A   1      45.457  24.821  28.558  1.00  0.00     0.031 C 
ATOM     60  C   UNL A   1      46.867  29.828  31.688  1.00  0.00     0.029 A 
ATOM     61  C   UNL A   1      46.180  28.883  30.943  1.00  0.00     0.049 A 
ATOM     62  H   UNL A   1      44.178  28.915  30.275  1.00  0.00     0.167 HD
ATOM     63  C   UNL A   1      45.905  26.732  29.741  1.00  0.00     0.074 A 
ATOM     64  C   UNL A   1      46.399  25.472  29.226  1.00  0.00     0.031 C 
ATOM     65  C   UNL A   1      46.661  27.629  30.421  1.00  0.00     0.037 A 
BRANCH  52  66
ATOM     66  C   UNL A   1      43.645  32.777  32.012  1.00  0.00     0.064 A 
ATOM     67  C   UNL A   1      43.531  32.940  33.400  1.00  0.00     0.173 A 
ATOM     68  C   UNL A   1      43.870  33.922  31.232  1.00  0.00     0.173 A 
ATOM     69  F   UNL A   1      43.307  31.879  34.189  1.00  0.00    -0.203 F 
ATOM     70  C   UNL A   1      43.610  34.204  33.982  1.00  0.00     0.198 A 
ATOM     71  C   UNL A   1      43.979  35.179  31.821  1.00  0.00     0.198 A 
ATOM     72  F   UNL A   1      43.995  33.821  29.901  1.00  0.00    -0.203 F 
ATOM     73  F   UNL A   1      43.452  34.340  35.306  1.00  0.00    -0.200 F 
ATOM     74  C   UNL A   1      43.841  35.320  33.194  1.00  0.00     0.200 A 
ATOM     75  F   UNL A   1      44.216  36.255  31.059  1.00  0.00    -0.200 F 
ATOM     76  F   UNL A   1      43.927  36.533  33.756  1.00  0.00    -0.200 F 
ENDBRANCH  52  66
BRANCH  53  77
ATOM     77  C   UNL A   1      42.907  23.955  27.413  1.00  0.00     0.064 A 
ATOM     78  C   UNL A   1      42.497  22.793  28.081  1.00  0.00     0.173 A 
ATOM     79  C   UNL A   1      43.230  23.847  26.053  1.00  0.00     0.173 A 
ATOM     80  F   UNL A   1      42.199  22.842  29.388  1.00  0.00    -0.203 F 
ATOM     81  C   UNL A   1      42.428  21.569  27.419  1.00  0.00     0.198 A 
ATOM     82  C   UNL A   1      43.134  22.627  25.385  1.00  0.00     0.198 A 
ATOM     83  F   UNL A   1      43.625  24.930  25.367  1.00  0.00    -0.203 F 
ATOM     84  F   UNL A   1      42.075  20.465  28.093  1.00  0.00    -0.200 F 
ATOM     85  C   UNL A   1      42.741  21.487  26.071  1.00  0.00     0.200 A 
ATOM     86  F   UNL A   1      43.422  22.556  24.078  1.00  0.00    -0.200 F 
ATOM     87  F   UNL A   1      42.671  20.311  25.434  1.00  0.00    -0.200 F 
ENDBRANCH  53  77
BRANCH  65  88
ATOM     88  C   UNL A   1      48.099  27.274  30.662  1.00  0.00     0.064 A 
ATOM     89  C   UNL A   1      48.490  26.508  31.769  1.00  0.00     0.173 A 
ATOM     90  C   UNL A   1      49.092  27.668  29.751  1.00  0.00     0.173 A 
ATOM     91  F   UNL A   1      47.580  26.123  32.678  1.00  0.00    -0.203 F 
ATOM     92  C   UNL A   1      49.825  26.166  31.968  1.00  0.00     0.198 A 
ATOM     93  C   UNL A   1      50.421  27.300  29.937  1.00  0.00     0.198 A 
ATOM     94  F   UNL A   1      48.770  28.399  28.673  1.00  0.00    -0.203 F 
ATOM     95  F   UNL A   1      50.182  25.470  33.056  1.00  0.00    -0.200 F 
ATOM     96  C   UNL A   1      50.788  26.555  31.048  1.00  0.00     0.200 A 
ATOM     97  F   UNL A   1      51.348  27.666  29.041  1.00  0.00    -0.200 F 
ATOM     98  F   UNL A   1      52.070  26.216  31.235  1.00  0.00    -0.200 F 
ENDBRANCH  65  88
ENDBRANCH  39  40
ENDBRANCH  31  34
ENDBRANCH  29  30
ENDBRANCH  28  29
ENDBRANCH  27  28
ENDBRANCH   1  27
TORSDOF 16
ENDMDL
