MODEL 1
REMARK VINA RESULT:     -13.3      0.000      0.000
REMARK SMILES CC(C)Cc1cc2c(cc1Cl)C=C(C(=O)NCCCCNC(=O)c1ccc(-c3c4nc(c(-c5c(F)c(F)c(F)c(F)c5F)c5ccc([nH]5)c(-c5c(F)c(F)c(F)c(F)c5F)c5nc(c(-c6c(F)c(F)c(F)c(F)c6F)c6ccc3[nH]6)C=C5)C=C4)cc1)[C@H](C(F)(F)F)O2
REMARK SMILES IDX 18 1 17 2 16 3 14 4 15 5 13 7 5 8 6 9 10 10 7 11 9 12 11 13
REMARK SMILES IDX 8 14 92 15 12 16 87 17 4 18 2 19 1 20 3 21 88 22 89 23 90 24
REMARK SMILES IDX 91 25 19 26 20 27 21 28 22 29 23 31 24 32 25 33 86 34 26 35
REMARK SMILES IDX 85 36 27 37 28 38 29 39 79 40 30 41 84 42 78 43 80 44 31 45
REMARK SMILES IDX 83 46 77 47 76 48 32 50 64 51 44 52 63 53 45 54 48 55 62 56
REMARK SMILES IDX 81 57 46 58 47 59 61 61 82 62 49 63 33 64 34 65 42 66 35 67
REMARK SMILES IDX 36 68 40 69 43 70 37 71 38 72 41 73 39 74 65 75 66 76 74 77
REMARK SMILES IDX 67 78 68 79 72 80 75 81 69 82 70 83 73 84 71 85 50 86 51 87
REMARK SMILES IDX 59 88 52 89 53 90 57 91 60 92 54 93 55 94 58 95 56 96
REMARK H PARENT 16 6 21 30 80 49 48 60
REMARK Flexibility Score: inf
ROOT
ATOM      1  C   UNL A   1      33.669  28.662  24.644  1.00  0.00     0.023 C 
ENDROOT
BRANCH   1   2
ATOM      2  C   UNL A   1      33.818  28.586  23.124  1.00  0.00     0.116 C 
BRANCH   2   3
ATOM      3  N   UNL A   1      32.548  28.315  22.474  1.00  0.00    -0.352 N 
ATOM      4  C   UNL A   1      31.698  27.260  22.436  1.00  0.00     0.251 C 
ATOM      5  O   UNL A   1      30.615  27.456  21.876  1.00  0.00    -0.270 OA
ATOM      6  H   UNL A   1      32.231  29.075  21.933  1.00  0.00     0.163 HD
BRANCH   4   7
ATOM      7  C   UNL A   1      31.996  25.919  23.015  1.00  0.00     0.067 C 
ATOM      8  C   UNL A   1      34.269  21.662  24.536  1.00  0.00    -0.025 A 
ATOM      9  C   UNL A   1      32.962  22.166  24.566  1.00  0.00     0.052 A 
ATOM     10  C   UNL A   1      35.261  22.475  23.951  1.00  0.00     0.045 A 
ATOM     11  C   UNL A   1      32.647  23.398  24.001  1.00  0.00     0.128 A 
ATOM     12  C   UNL A   1      34.944  23.726  23.396  1.00  0.00     0.032 A 
ATOM     13  Cl  UNL A   1      36.916  21.976  23.880  1.00  0.00    -0.084 Cl
ATOM     14  C   UNL A   1      33.628  24.187  23.409  1.00  0.00     0.019 A 
ATOM     15  O   UNL A   1      31.326  23.746  24.020  1.00  0.00    -0.475 OA
ATOM     16  C   UNL A   1      33.240  25.452  22.795  1.00  0.00     0.025 C 
ATOM     17  C   UNL A   1      31.048  25.165  23.910  1.00  0.00     0.314 C 
BRANCH   8  18
ATOM     18  C   UNL A   1      34.612  20.292  25.101  1.00  0.00     0.040 C 
BRANCH  18  19
ATOM     19  C   UNL A   1      33.874  19.057  24.527  1.00  0.00    -0.013 C 
ATOM     20  C   UNL A   1      34.807  17.860  24.307  1.00  0.00     0.008 C 
ATOM     21  C   UNL A   1      32.747  18.628  25.474  1.00  0.00     0.008 C 
ENDBRANCH  18  19
ENDBRANCH   8  18
BRANCH  17  22
ATOM     22  C   UNL A   1      30.892  25.771  25.314  1.00  0.00     0.429 C 
ATOM     23  F   UNL A   1      30.185  24.984  26.153  1.00  0.00    -0.167 F 
ATOM     24  F   UNL A   1      32.080  26.023  25.907  1.00  0.00    -0.167 F 
ATOM     25  F   UNL A   1      30.238  26.960  25.232  1.00  0.00    -0.167 F 
ENDBRANCH  17  22
ENDBRANCH   4   7
ENDBRANCH   2   3
ENDBRANCH   1   2
BRANCH   1  26
ATOM     26  C   UNL A   1      32.474  29.484  25.129  1.00  0.00     0.023 C 
BRANCH  26  27
ATOM     27  C   UNL A   1      32.474  29.795  26.619  1.00  0.00     0.116 C 
BRANCH  27  28
ATOM     28  N   UNL A   1      32.263  31.200  26.938  1.00  0.00    -0.352 N 
ATOM     29  C   UNL A   1      33.176  32.093  27.463  1.00  0.00     0.251 C 
ATOM     30  H   UNL A   1      31.363  31.556  26.759  1.00  0.00     0.163 HD
ATOM     31  O   UNL A   1      32.858  33.235  27.744  1.00  0.00    -0.269 OA
BRANCH  29  32
ATOM     32  C   UNL A   1      34.542  31.598  27.740  1.00  0.00     0.039 A 
ATOM     33  C   UNL A   1      34.746  30.250  28.029  1.00  0.00     0.014 A 
ATOM     34  C   UNL A   1      35.582  32.522  27.861  1.00  0.00     0.014 A 
ATOM     35  C   UNL A   1      35.929  29.862  28.642  1.00  0.00     0.010 A 
ATOM     36  C   UNL A   1      36.805  32.108  28.392  1.00  0.00     0.010 A 
ATOM     37  C   UNL A   1      36.962  30.792  28.855  1.00  0.00    -0.014 A 
BRANCH  37  38
ATOM     38  C   UNL A   1      38.165  30.373  29.620  1.00  0.00     0.031 A 
ATOM     39  C   UNL A   1      38.349  30.802  31.053  1.00  0.00     0.074 A 
ATOM     40  C   UNL A   1      39.046  29.528  29.051  1.00  0.00     0.049 A 
ATOM     41  N   UNL A   1      39.327  30.521  31.880  1.00  0.00    -0.248 NA
ATOM     42  C   UNL A   1      37.304  31.657  31.639  1.00  0.00     0.031 C 
ATOM     43  C   UNL A   1      38.955  29.017  27.682  1.00  0.00     0.029 A 
ATOM     44  N   UNL A   1      40.163  28.917  29.561  1.00  0.00    -0.354 N 
ATOM     45  C   UNL A   1      39.028  31.181  33.064  1.00  0.00     0.074 A 
ATOM     46  C   UNL A   1      37.790  31.895  32.850  1.00  0.00     0.031 C 
ATOM     47  C   UNL A   1      39.932  28.120  27.483  1.00  0.00     0.029 A 
ATOM     48  C   UNL A   1      40.759  28.045  28.684  1.00  0.00     0.049 A 
ATOM     49  H   UNL A   1      40.504  29.089  30.468  1.00  0.00     0.167 HD
ATOM     50  C   UNL A   1      39.718  31.178  34.230  1.00  0.00     0.037 A 
ATOM     51  C   UNL A   1      41.856  27.280  28.825  1.00  0.00     0.037 A 
ATOM     52  C   UNL A   1      40.925  30.430  34.457  1.00  0.00     0.049 A 
ATOM     53  C   UNL A   1      42.627  27.336  30.113  1.00  0.00     0.074 A 
ATOM     54  C   UNL A   1      41.683  30.345  35.613  1.00  0.00     0.029 A 
ATOM     55  N   UNL A   1      41.546  29.626  33.512  1.00  0.00    -0.354 N 
ATOM     56  N   UNL A   1      42.345  27.984  31.216  1.00  0.00    -0.248 NA
ATOM     57  C   UNL A   1      43.882  26.573  30.166  1.00  0.00     0.031 C 
ATOM     58  C   UNL A   1      42.779  29.515  35.358  1.00  0.00     0.029 A 
ATOM     59  C   UNL A   1      42.686  29.058  34.054  1.00  0.00     0.049 A 
ATOM     60  H   UNL A   1      41.222  29.481  32.594  1.00  0.00     0.167 HD
ATOM     61  C   UNL A   1      43.386  27.714  32.091  1.00  0.00     0.074 A 
ATOM     62  C   UNL A   1      44.292  26.817  31.402  1.00  0.00     0.031 C 
ATOM     63  C   UNL A   1      43.581  28.177  33.349  1.00  0.00     0.037 A 
BRANCH  50  64
ATOM     64  C   UNL A   1      39.194  32.010  35.362  1.00  0.00     0.064 A 
ATOM     65  C   UNL A   1      38.424  31.447  36.391  1.00  0.00     0.173 A 
ATOM     66  C   UNL A   1      39.541  33.366  35.467  1.00  0.00     0.173 A 
ATOM     67  F   UNL A   1      38.058  30.158  36.330  1.00  0.00    -0.203 F 
ATOM     68  C   UNL A   1      38.016  32.214  37.479  1.00  0.00     0.198 A 
ATOM     69  C   UNL A   1      39.148  34.123  36.567  1.00  0.00     0.198 A 
ATOM     70  F   UNL A   1      40.282  33.949  34.512  1.00  0.00    -0.203 F 
ATOM     71  F   UNL A   1      37.264  31.660  38.441  1.00  0.00    -0.200 F 
ATOM     72  C   UNL A   1      38.386  33.546  37.571  1.00  0.00     0.200 A 
ATOM     73  F   UNL A   1      39.517  35.409  36.660  1.00  0.00    -0.200 F 
ATOM     74  F   UNL A   1      38.008  34.277  38.629  1.00  0.00    -0.200 F 
ENDBRANCH  50  64
BRANCH  51  75
ATOM     75  C   UNL A   1      42.293  26.406  27.707  1.00  0.00     0.064 A 
ATOM     76  C   UNL A   1      43.273  26.834  26.803  1.00  0.00     0.173 A 
ATOM     77  C   UNL A   1      41.754  25.122  27.533  1.00  0.00     0.173 A 
ATOM     78  F   UNL A   1      43.801  28.061  26.918  1.00  0.00    -0.203 F 
ATOM     79  C   UNL A   1      43.698  26.010  25.763  1.00  0.00     0.198 A 
ATOM     80  C   UNL A   1      42.199  24.290  26.510  1.00  0.00     0.198 A 
ATOM     81  F   UNL A   1      40.813  24.669  28.373  1.00  0.00    -0.203 F 
ATOM     82  F   UNL A   1      44.617  26.452  24.894  1.00  0.00    -0.200 F 
ATOM     83  C   UNL A   1      43.166  24.736  25.623  1.00  0.00     0.200 A 
ATOM     84  F   UNL A   1      41.694  23.056  26.387  1.00  0.00    -0.200 F 
ATOM     85  F   UNL A   1      43.586  23.940  24.630  1.00  0.00    -0.200 F 
ENDBRANCH  51  75
BRANCH  63  86
ATOM     86  C   UNL A   1      44.823  27.738  34.059  1.00  0.00     0.064 A 
ATOM     87  C   UNL A   1      44.851  26.546  34.794  1.00  0.00     0.173 A 
ATOM     88  C   UNL A   1      46.010  28.477  33.950  1.00  0.00     0.173 A 
ATOM     89  F   UNL A   1      43.735  25.815  34.937  1.00  0.00    -0.203 F 
ATOM     90  C   UNL A   1      46.024  26.112  35.406  1.00  0.00     0.198 A 
ATOM     91  C   UNL A   1      47.186  28.030  34.544  1.00  0.00     0.198 A 
ATOM     92  F   UNL A   1      46.031  29.622  33.251  1.00  0.00    -0.203 F 
ATOM     93  F   UNL A   1      46.022  24.983  36.129  1.00  0.00    -0.200 F 
ATOM     94  C   UNL A   1      47.192  26.850  35.272  1.00  0.00     0.200 A 
ATOM     95  F   UNL A   1      48.316  28.737  34.406  1.00  0.00    -0.200 F 
ATOM     96  F   UNL A   1      48.322  26.424  35.851  1.00  0.00    -0.200 F 
ENDBRANCH  63  86
ENDBRANCH  37  38
ENDBRANCH  29  32
ENDBRANCH  27  28
ENDBRANCH  26  27
ENDBRANCH   1  26
TORSDOF 14
ENDMDL
MODEL 2
REMARK VINA RESULT:     -13.3      0.378      7.289
REMARK SMILES CC(C)Cc1cc2c(cc1Cl)C=C(C(=O)NCCCCNC(=O)c1ccc(-c3c4nc(c(-c5c(F)c(F)c(F)c(F)c5F)c5ccc([nH]5)c(-c5c(F)c(F)c(F)c(F)c5F)c5nc(c(-c6c(F)c(F)c(F)c(F)c6F)c6ccc3[nH]6)C=C5)C=C4)cc1)[C@H](C(F)(F)F)O2
REMARK SMILES IDX 18 1 17 2 16 3 14 4 15 5 13 7 5 8 6 9 10 10 7 11 9 12 11 13
REMARK SMILES IDX 8 14 92 15 12 16 87 17 4 18 2 19 1 20 3 21 88 22 89 23 90 24
REMARK SMILES IDX 91 25 19 26 20 27 21 28 22 29 23 31 24 32 25 33 86 34 26 35
REMARK SMILES IDX 85 36 27 37 28 38 29 39 79 40 30 41 84 42 78 43 80 44 31 45
REMARK SMILES IDX 83 46 77 47 76 48 32 50 64 51 44 52 63 53 45 54 48 55 62 56
REMARK SMILES IDX 81 57 46 58 47 59 61 61 82 62 49 63 33 64 34 65 42 66 35 67
REMARK SMILES IDX 36 68 40 69 43 70 37 71 38 72 41 73 39 74 65 75 66 76 74 77
REMARK SMILES IDX 67 78 68 79 72 80 75 81 69 82 70 83 73 84 71 85 50 86 51 87
REMARK SMILES IDX 59 88 52 89 53 90 57 91 60 92 54 93 55 94 58 95 56 96
REMARK H PARENT 16 6 21 30 80 49 48 60
REMARK Flexibility Score: inf
ROOT
ATOM      1  C   UNL A   1      33.661  28.659  24.657  1.00  0.00     0.023 C 
ENDROOT
BRANCH   1   2
ATOM      2  C   UNL A   1      33.873  28.477  23.153  1.00  0.00     0.116 C 
BRANCH   2   3
ATOM      3  N   UNL A   1      32.623  28.205  22.465  1.00  0.00    -0.352 N 
ATOM      4  C   UNL A   1      31.782  27.144  22.391  1.00  0.00     0.251 C 
ATOM      5  O   UNL A   1      30.714  27.339  21.803  1.00  0.00    -0.270 OA
ATOM      6  H   UNL A   1      32.317  28.969  21.924  1.00  0.00     0.163 HD
BRANCH   4   7
ATOM      7  C   UNL A   1      32.073  25.799  22.964  1.00  0.00     0.067 C 
ATOM      8  C   UNL A   1      34.339  21.556  24.533  1.00  0.00    -0.025 A 
ATOM      9  C   UNL A   1      33.023  22.037  24.503  1.00  0.00     0.052 A 
ATOM     10  C   UNL A   1      35.345  22.395  24.012  1.00  0.00     0.045 A 
ATOM     11  C   UNL A   1      32.717  23.273  23.942  1.00  0.00     0.128 A 
ATOM     12  C   UNL A   1      35.036  23.650  23.461  1.00  0.00     0.032 A 
ATOM     13  Cl  UNL A   1      37.011  21.924  24.019  1.00  0.00    -0.084 Cl
ATOM     14  C   UNL A   1      33.712  24.088  23.414  1.00  0.00     0.019 A 
ATOM     15  O   UNL A   1      31.390  23.599  23.899  1.00  0.00    -0.475 OA
ATOM     16  C   UNL A   1      33.335  25.357  22.801  1.00  0.00     0.025 C 
ATOM     17  C   UNL A   1      31.094  25.015  23.797  1.00  0.00     0.314 C 
BRANCH   8  18
ATOM     18  C   UNL A   1      34.676  20.182  25.093  1.00  0.00     0.040 C 
BRANCH  18  19
ATOM     19  C   UNL A   1      33.864  18.965  24.587  1.00  0.00    -0.013 C 
ATOM     20  C   UNL A   1      34.750  17.759  24.254  1.00  0.00     0.008 C 
ATOM     21  C   UNL A   1      32.838  18.539  25.644  1.00  0.00     0.008 C 
ENDBRANCH  18  19
ENDBRANCH   8  18
BRANCH  17  22
ATOM     22  C   UNL A   1      30.855  25.596  25.200  1.00  0.00     0.429 C 
ATOM     23  F   UNL A   1      31.990  25.711  25.924  1.00  0.00    -0.167 F 
ATOM     24  F   UNL A   1      30.278  26.818  25.166  1.00  0.00    -0.167 F 
ATOM     25  F   UNL A   1      30.014  24.787  25.897  1.00  0.00    -0.167 F 
ENDBRANCH  17  22
ENDBRANCH   4   7
ENDBRANCH   2   3
ENDBRANCH   1   2
BRANCH   1  26
ATOM     26  C   UNL A   1      32.471  29.543  25.032  1.00  0.00     0.023 C 
BRANCH  26  27
ATOM     27  C   UNL A   1      32.353  29.861  26.516  1.00  0.00     0.116 C 
BRANCH  27  28
ATOM     28  N   UNL A   1      32.208  31.279  26.816  1.00  0.00    -0.352 N 
ATOM     29  C   UNL A   1      33.142  32.121  27.385  1.00  0.00     0.251 C 
ATOM     30  H   UNL A   1      31.341  31.685  26.586  1.00  0.00     0.163 HD
ATOM     31  O   UNL A   1      32.878  33.282  27.642  1.00  0.00    -0.269 OA
BRANCH  29  32
ATOM     32  C   UNL A   1      34.460  31.550  27.737  1.00  0.00     0.039 A 
ATOM     33  C   UNL A   1      34.579  30.184  27.988  1.00  0.00     0.014 A 
ATOM     34  C   UNL A   1      35.531  32.415  27.966  1.00  0.00     0.014 A 
ATOM     35  C   UNL A   1      35.695  29.717  28.667  1.00  0.00     0.010 A 
ATOM     36  C   UNL A   1      36.692  31.923  28.565  1.00  0.00     0.010 A 
ATOM     37  C   UNL A   1      36.753  30.586  28.987  1.00  0.00    -0.014 A 
BRANCH  37  38
ATOM     38  C   UNL A   1      37.878  30.081  29.817  1.00  0.00     0.031 A 
ATOM     39  C   UNL A   1      38.928  29.182  29.218  1.00  0.00     0.074 A 
ATOM     40  C   UNL A   1      38.004  30.511  31.087  1.00  0.00     0.049 A 
ATOM     41  N   UNL A   1      39.987  28.657  29.785  1.00  0.00    -0.248 NA
ATOM     42  C   UNL A   1      38.774  28.819  27.800  1.00  0.00     0.031 C 
ATOM     43  C   UNL A   1      37.069  31.410  31.766  1.00  0.00     0.029 A 
ATOM     44  N   UNL A   1      38.985  30.286  32.018  1.00  0.00    -0.354 N 
ATOM     45  C   UNL A   1      40.604  27.890  28.806  1.00  0.00     0.074 A 
ATOM     46  C   UNL A   1      39.796  27.995  27.613  1.00  0.00     0.031 C 
ATOM     47  C   UNL A   1      37.555  31.715  32.978  1.00  0.00     0.029 A 
ATOM     48  C   UNL A   1      38.797  30.978  33.189  1.00  0.00     0.049 A 
ATOM     49  H   UNL A   1      39.749  29.685  31.862  1.00  0.00     0.167 HD
ATOM     50  C   UNL A   1      41.751  27.173  28.894  1.00  0.00     0.037 A 
ATOM     51  C   UNL A   1      39.536  31.006  34.314  1.00  0.00     0.037 A 
ATOM     52  C   UNL A   1      42.579  27.105  30.067  1.00  0.00     0.049 A 
ATOM     53  C   UNL A   1      40.776  30.163  34.396  1.00  0.00     0.074 A 
ATOM     54  C   UNL A   1      43.772  26.425  30.244  1.00  0.00     0.029 A 
ATOM     55  N   UNL A   1      42.307  27.752  31.264  1.00  0.00    -0.354 N 
ATOM     56  N   UNL A   1      41.334  29.423  33.471  1.00  0.00    -0.248 NA
ATOM     57  C   UNL A   1      41.474  30.140  35.689  1.00  0.00     0.031 C 
ATOM     58  C   UNL A   1      44.206  26.635  31.556  1.00  0.00     0.029 A 
ATOM     59  C   UNL A   1      43.300  27.470  32.187  1.00  0.00     0.049 A 
ATOM     60  H   UNL A   1      41.525  28.326  31.431  1.00  0.00     0.167 HD
ATOM     61  C   UNL A   1      42.443  28.843  34.067  1.00  0.00     0.074 A 
ATOM     62  C   UNL A   1      42.498  29.340  35.426  1.00  0.00     0.031 C 
ATOM     63  C   UNL A   1      43.331  27.966  33.538  1.00  0.00     0.037 A 
BRANCH  50  64
ATOM     64  C   UNL A   1      42.190  26.396  27.689  1.00  0.00     0.064 A 
ATOM     65  C   UNL A   1      43.200  26.869  26.839  1.00  0.00     0.173 A 
ATOM     66  C   UNL A   1      41.659  25.122  27.433  1.00  0.00     0.173 A 
ATOM     67  F   UNL A   1      43.732  28.085  27.036  1.00  0.00    -0.203 F 
ATOM     68  C   UNL A   1      43.657  26.098  25.773  1.00  0.00     0.198 A 
ATOM     69  C   UNL A   1      42.132  24.346  26.379  1.00  0.00     0.198 A 
ATOM     70  F   UNL A   1      40.695  24.621  28.222  1.00  0.00    -0.203 F 
ATOM     71  F   UNL A   1      44.609  26.579  24.961  1.00  0.00    -0.200 F 
ATOM     72  C   UNL A   1      43.131  24.835  25.550  1.00  0.00     0.200 A 
ATOM     73  F   UNL A   1      41.631  23.120  26.173  1.00  0.00    -0.200 F 
ATOM     74  F   UNL A   1      43.585  24.087  24.535  1.00  0.00    -0.200 F 
ENDBRANCH  50  64
BRANCH  51  75
ATOM     75  C   UNL A   1      39.108  31.856  35.453  1.00  0.00     0.064 A 
ATOM     76  C   UNL A   1      38.286  31.341  36.463  1.00  0.00     0.173 A 
ATOM     77  C   UNL A   1      39.529  33.190  35.565  1.00  0.00     0.173 A 
ATOM     78  F   UNL A   1      37.842  30.078  36.388  1.00  0.00    -0.203 F 
ATOM     79  C   UNL A   1      37.897  32.131  37.544  1.00  0.00     0.198 A 
ATOM     80  C   UNL A   1      39.163  33.969  36.659  1.00  0.00     0.198 A 
ATOM     81  F   UNL A   1      40.318  33.727  34.623  1.00  0.00    -0.203 F 
ATOM     82  F   UNL A   1      37.087  31.625  38.483  1.00  0.00    -0.200 F 
ATOM     83  C   UNL A   1      38.343  33.441  37.644  1.00  0.00     0.200 A 
ATOM     84  F   UNL A   1      39.607  35.229  36.759  1.00  0.00    -0.200 F 
ATOM     85  F   UNL A   1      37.978  34.195  38.690  1.00  0.00    -0.200 F 
ENDBRANCH  51  75
BRANCH  63  86
ATOM     86  C   UNL A   1      44.427  27.476  34.432  1.00  0.00     0.064 A 
ATOM     87  C   UNL A   1      44.285  26.289  35.164  1.00  0.00     0.173 A 
ATOM     88  C   UNL A   1      45.650  28.158  34.507  1.00  0.00     0.173 A 
ATOM     89  F   UNL A   1      43.127  25.612  35.134  1.00  0.00    -0.203 F 
ATOM     90  C   UNL A   1      45.328  25.806  35.950  1.00  0.00     0.198 A 
ATOM     91  C   UNL A   1      46.698  27.661  35.276  1.00  0.00     0.198 A 
ATOM     92  F   UNL A   1      45.832  29.295  33.819  1.00  0.00    -0.203 F 
ATOM     93  F   UNL A   1      45.162  24.685  36.664  1.00  0.00    -0.200 F 
ATOM     94  C   UNL A   1      46.536  26.488  35.997  1.00  0.00     0.200 A 
ATOM     95  F   UNL A   1      47.867  28.315  35.313  1.00  0.00    -0.200 F 
ATOM     96  F   UNL A   1      47.542  26.015  36.744  1.00  0.00    -0.200 F 
ENDBRANCH  63  86
ENDBRANCH  37  38
ENDBRANCH  29  32
ENDBRANCH  27  28
ENDBRANCH  26  27
ENDBRANCH   1  26
TORSDOF 14
ENDMDL
MODEL 3
REMARK VINA RESULT:     -13.3      4.258      9.555
REMARK SMILES CC(C)Cc1cc2c(cc1Cl)C=C(C(=O)NCCCCNC(=O)c1ccc(-c3c4nc(c(-c5c(F)c(F)c(F)c(F)c5F)c5ccc([nH]5)c(-c5c(F)c(F)c(F)c(F)c5F)c5nc(c(-c6c(F)c(F)c(F)c(F)c6F)c6ccc3[nH]6)C=C5)C=C4)cc1)[C@H](C(F)(F)F)O2
REMARK SMILES IDX 18 1 17 2 16 3 14 4 15 5 13 7 5 8 6 9 10 10 7 11 9 12 11 13
REMARK SMILES IDX 8 14 92 15 12 16 87 17 4 18 2 19 1 20 3 21 88 22 89 23 90 24
REMARK SMILES IDX 91 25 19 26 20 27 21 28 22 29 23 31 24 32 25 33 86 34 26 35
REMARK SMILES IDX 85 36 27 37 28 38 29 39 79 40 30 41 84 42 78 43 80 44 31 45
REMARK SMILES IDX 83 46 77 47 76 48 32 50 64 51 44 52 63 53 45 54 48 55 62 56
REMARK SMILES IDX 81 57 46 58 47 59 61 61 82 62 49 63 33 64 34 65 42 66 35 67
REMARK SMILES IDX 36 68 40 69 43 70 37 71 38 72 41 73 39 74 65 75 66 76 74 77
REMARK SMILES IDX 67 78 68 79 72 80 75 81 69 82 70 83 73 84 71 85 50 86 51 87
REMARK SMILES IDX 59 88 52 89 53 90 57 91 60 92 54 93 55 94 58 95 56 96
REMARK H PARENT 16 6 21 30 80 49 48 60
REMARK Flexibility Score: inf
ROOT
ATOM      1  C   UNL A   1      35.374  20.178  24.979  1.00  0.00     0.023 C 
ENDROOT
BRANCH   1   2
ATOM      2  C   UNL A   1      33.902  19.857  25.244  1.00  0.00     0.116 C 
BRANCH   2   3
ATOM      3  N   UNL A   1      33.067  20.194  24.105  1.00  0.00    -0.352 N 
ATOM      4  C   UNL A   1      32.628  21.350  23.548  1.00  0.00     0.251 C 
ATOM      5  O   UNL A   1      32.036  21.241  22.470  1.00  0.00    -0.270 OA
ATOM      6  H   UNL A   1      32.741  19.397  23.626  1.00  0.00     0.163 HD
BRANCH   4   7
ATOM      7  C   UNL A   1      32.818  22.699  24.152  1.00  0.00     0.067 C 
ATOM      8  C   UNL A   1      33.716  27.622  24.902  1.00  0.00    -0.025 A 
ATOM      9  C   UNL A   1      33.415  26.522  25.718  1.00  0.00     0.052 A 
ATOM     10  C   UNL A   1      33.820  27.388  23.516  1.00  0.00     0.045 A 
ATOM     11  C   UNL A   1      33.267  25.245  25.186  1.00  0.00     0.128 A 
ATOM     12  C   UNL A   1      33.654  26.100  22.979  1.00  0.00     0.032 A 
ATOM     13  Cl  UNL A   1      34.160  28.670  22.404  1.00  0.00    -0.084 Cl
ATOM     14  C   UNL A   1      33.388  25.019  23.819  1.00  0.00     0.019 A 
ATOM     15  O   UNL A   1      33.053  24.241  26.088  1.00  0.00    -0.475 OA
ATOM     16  C   UNL A   1      33.264  23.656  23.315  1.00  0.00     0.025 C 
ATOM     17  C   UNL A   1      32.419  23.048  25.562  1.00  0.00     0.314 C 
BRANCH   8  18
ATOM     18  C   UNL A   1      33.936  29.011  25.482  1.00  0.00     0.040 C 
BRANCH  18  19
ATOM     19  C   UNL A   1      33.795  29.198  27.012  1.00  0.00    -0.013 C 
ATOM     20  C   UNL A   1      35.149  29.339  27.718  1.00  0.00     0.008 C 
ATOM     21  C   UNL A   1      32.955  30.443  27.317  1.00  0.00     0.008 C 
ENDBRANCH  18  19
ENDBRANCH   8  18
BRANCH  17  22
ATOM     22  C   UNL A   1      30.901  23.128  25.784  1.00  0.00     0.429 C 
ATOM     23  F   UNL A   1      30.562  23.899  26.840  1.00  0.00    -0.167 F 
ATOM     24  F   UNL A   1      30.243  23.614  24.707  1.00  0.00    -0.167 F 
ATOM     25  F   UNL A   1      30.403  21.885  26.017  1.00  0.00    -0.167 F 
ENDBRANCH  17  22
ENDBRANCH   4   7
ENDBRANCH   2   3
ENDBRANCH   1   2
BRANCH   1  26
ATOM     26  C   UNL A   1      35.872  21.470  25.629  1.00  0.00     0.023 C 
BRANCH  26  27
ATOM     27  C   UNL A   1      37.269  21.901  25.205  1.00  0.00     0.116 C 
BRANCH  27  28
ATOM     28  N   UNL A   1      38.287  20.871  25.359  1.00  0.00    -0.352 N 
ATOM     29  C   UNL A   1      39.475  20.955  26.057  1.00  0.00     0.251 C 
ATOM     30  H   UNL A   1      38.107  20.012  24.910  1.00  0.00     0.163 HD
ATOM     31  O   UNL A   1      40.276  20.036  26.061  1.00  0.00    -0.269 OA
BRANCH  29  32
ATOM     32  C   UNL A   1      39.777  22.225  26.750  1.00  0.00     0.039 A 
ATOM     33  C   UNL A   1      39.195  23.412  26.309  1.00  0.00     0.014 A 
ATOM     34  C   UNL A   1      40.765  22.237  27.738  1.00  0.00     0.014 A 
ATOM     35  C   UNL A   1      39.749  24.622  26.700  1.00  0.00     0.010 A 
ATOM     36  C   UNL A   1      41.256  23.459  28.199  1.00  0.00     0.010 A 
ATOM     37  C   UNL A   1      40.804  24.659  27.629  1.00  0.00    -0.014 A 
BRANCH  37  38
ATOM     38  C   UNL A   1      41.452  25.961  27.935  1.00  0.00     0.031 A 
ATOM     39  C   UNL A   1      42.832  26.269  27.415  1.00  0.00     0.074 A 
ATOM     40  C   UNL A   1      40.758  26.902  28.602  1.00  0.00     0.049 A 
ATOM     41  N   UNL A   1      43.549  27.356  27.569  1.00  0.00    -0.248 NA
ATOM     42  C   UNL A   1      43.501  25.227  26.619  1.00  0.00     0.031 C 
ATOM     43  C   UNL A   1      39.401  26.731  29.126  1.00  0.00     0.029 A 
ATOM     44  N   UNL A   1      41.076  28.197  28.919  1.00  0.00    -0.354 N 
ATOM     45  C   UNL A   1      44.751  27.118  26.916  1.00  0.00     0.074 A 
ATOM     46  C   UNL A   1      44.683  25.777  26.379  1.00  0.00     0.031 C 
ATOM     47  C   UNL A   1      38.978  27.897  29.636  1.00  0.00     0.029 A 
ATOM     48  C   UNL A   1      40.057  28.876  29.541  1.00  0.00     0.049 A 
ATOM     49  H   UNL A   1      41.952  28.601  28.721  1.00  0.00     0.167 HD
ATOM     50  C   UNL A   1      45.810  27.949  26.766  1.00  0.00     0.037 A 
ATOM     51  C   UNL A   1      40.001  30.140  29.996  1.00  0.00     0.037 A 
ATOM     52  C   UNL A   1      45.859  29.299  27.260  1.00  0.00     0.049 A 
ATOM     53  C   UNL A   1      41.209  31.022  29.858  1.00  0.00     0.074 A 
ATOM     54  C   UNL A   1      46.879  30.227  27.136  1.00  0.00     0.029 A 
ATOM     55  N   UNL A   1      44.837  29.920  27.963  1.00  0.00    -0.354 N 
ATOM     56  N   UNL A   1      42.348  30.774  29.260  1.00  0.00    -0.248 NA
ATOM     57  C   UNL A   1      41.132  32.351  30.481  1.00  0.00     0.031 C 
ATOM     58  C   UNL A   1      46.488  31.398  27.791  1.00  0.00     0.029 A 
ATOM     59  C   UNL A   1      45.212  31.211  28.295  1.00  0.00     0.049 A 
ATOM     60  H   UNL A   1      43.975  29.504  28.191  1.00  0.00     0.167 HD
ATOM     61  C   UNL A   1      43.124  31.909  29.438  1.00  0.00     0.074 A 
ATOM     62  C   UNL A   1      42.316  32.860  30.173  1.00  0.00     0.031 C 
ATOM     63  C   UNL A   1      44.398  32.138  29.037  1.00  0.00     0.037 A 
BRANCH  50  64
ATOM     64  C   UNL A   1      47.015  27.433  26.039  1.00  0.00     0.064 A 
ATOM     65  C   UNL A   1      47.163  27.600  24.654  1.00  0.00     0.173 A 
ATOM     66  C   UNL A   1      48.075  26.845  26.747  1.00  0.00     0.173 A 
ATOM     67  F   UNL A   1      46.173  28.146  23.931  1.00  0.00    -0.203 F 
ATOM     68  C   UNL A   1      48.326  27.190  24.005  1.00  0.00     0.198 A 
ATOM     69  C   UNL A   1      49.243  26.457  26.098  1.00  0.00     0.198 A 
ATOM     70  F   UNL A   1      47.985  26.670  28.075  1.00  0.00    -0.203 F 
ATOM     71  F   UNL A   1      48.437  27.341  22.677  1.00  0.00    -0.200 F 
ATOM     72  C   UNL A   1      49.367  26.630  24.727  1.00  0.00     0.200 A 
ATOM     73  F   UNL A   1      50.254  25.926  26.800  1.00  0.00    -0.200 F 
ATOM     74  F   UNL A   1      50.492  26.254  24.103  1.00  0.00    -0.200 F 
ENDBRANCH  50  64
BRANCH  51  75
ATOM     75  C   UNL A   1      38.758  30.637  30.636  1.00  0.00     0.064 A 
ATOM     76  C   UNL A   1      37.706  31.144  29.862  1.00  0.00     0.173 A 
ATOM     77  C   UNL A   1      38.588  30.598  32.028  1.00  0.00     0.173 A 
ATOM     78  F   UNL A   1      37.831  31.221  28.529  1.00  0.00    -0.203 F 
ATOM     79  C   UNL A   1      36.530  31.596  30.458  1.00  0.00     0.198 A 
ATOM     80  C   UNL A   1      37.403  31.024  32.620  1.00  0.00     0.198 A 
ATOM     81  F   UNL A   1      39.567  30.121  32.811  1.00  0.00    -0.203 F 
ATOM     82  F   UNL A   1      35.549  32.102  29.699  1.00  0.00    -0.200 F 
ATOM     83  C   UNL A   1      36.377  31.528  31.835  1.00  0.00     0.200 A 
ATOM     84  F   UNL A   1      37.253  30.943  33.949  1.00  0.00    -0.200 F 
ATOM     85  F   UNL A   1      35.240  31.950  32.405  1.00  0.00    -0.200 F 
ENDBRANCH  51  75
BRANCH  63  86
ATOM     86  C   UNL A   1      45.004  33.459  29.396  1.00  0.00     0.064 A 
ATOM     87  C   UNL A   1      45.757  33.613  30.568  1.00  0.00     0.173 A 
ATOM     88  C   UNL A   1      44.888  34.559  28.535  1.00  0.00     0.173 A 
ATOM     89  F   UNL A   1      45.883  32.591  31.429  1.00  0.00    -0.203 F 
ATOM     90  C   UNL A   1      46.367  34.827  30.871  1.00  0.00     0.198 A 
ATOM     91  C   UNL A   1      45.516  35.765  28.829  1.00  0.00     0.198 A 
ATOM     92  F   UNL A   1      44.181  34.456  27.400  1.00  0.00    -0.203 F 
ATOM     93  F   UNL A   1      47.060  34.962  32.010  1.00  0.00    -0.200 F 
ATOM     94  C   UNL A   1      46.253  35.899  29.996  1.00  0.00     0.200 A 
ATOM     95  F   UNL A   1      45.415  36.797  27.979  1.00  0.00    -0.200 F 
ATOM     96  F   UNL A   1      46.851  37.063  30.283  1.00  0.00    -0.200 F 
ENDBRANCH  63  86
ENDBRANCH  37  38
ENDBRANCH  29  32
ENDBRANCH  27  28
ENDBRANCH  26  27
ENDBRANCH   1  26
TORSDOF 14
ENDMDL
