MODEL 1
REMARK VINA RESULT:     -12.1      0.000      0.000
REMARK SMILES C[C@@H]1[C@@H](C(=O)NCCCCNC(=O)c2ccc(-c3c4nc(c(-c5c(F)c(F)c(F)c(F)c5F)c5ccc([nH]5)c(-c5c(F)c(F)c(F)c(F)c5F)c5nc(c(-c6c(F)c(F)c(F)c(F)c6F)c6ccc3[nH]6)C=C5)C=C4)cc2)CCN1C(=O)[C@]1([NH3+])CCOC1
REMARK SMILES IDX 8 1 7 2 6 3 4 4 5 5 3 7 1 8 2 9 79 10 77 11 78 12 80 13
REMARK SMILES IDX 81 14 82 15 84 16 87 17 85 18 86 19 83 20 9 24 10 25 11 26
REMARK SMILES IDX 12 27 13 29 14 30 15 31 76 32 16 33 75 34 17 35 18 36 19 37
REMARK SMILES IDX 69 38 20 39 74 40 68 41 70 42 21 43 73 44 67 45 66 46 22 48
REMARK SMILES IDX 54 49 34 50 53 51 35 52 38 53 52 54 71 55 36 56 37 57 51 59
REMARK SMILES IDX 72 60 39 61 23 62 24 63 32 64 25 65 26 66 30 67 33 68 27 69
REMARK SMILES IDX 28 70 31 71 29 72 55 73 56 74 64 75 57 76 58 77 62 78 65 79
REMARK SMILES IDX 59 80 60 81 63 82 61 83 40 84 41 85 49 86 42 87 43 88 47 89
REMARK SMILES IDX 50 90 44 91 45 92 48 93 46 94
REMARK H PARENT 6 6 83 21 83 22 83 23 11 28 70 47 38 58
REMARK Flexibility Score: inf
ROOT
ATOM      1  C   UNL A   1      31.658  30.604  26.828  1.00  0.00     0.023 C 
ENDROOT
BRANCH   1   2
ATOM      2  C   UNL A   1      33.066  30.025  26.863  1.00  0.00     0.116 C 
BRANCH   2   3
ATOM      3  N   UNL A   1      33.650  29.816  25.551  1.00  0.00    -0.356 N 
ATOM      4  C   UNL A   1      33.645  28.677  24.790  1.00  0.00     0.225 C 
ATOM      5  O   UNL A   1      34.120  28.730  23.658  1.00  0.00    -0.275 OA
ATOM      6  H   UNL A   1      34.108  30.593  25.156  1.00  0.00     0.163 HD
BRANCH   4   7
ATOM      7  C   UNL A   1      33.109  27.390  25.406  1.00  0.00     0.102 C 
ATOM      8  C   UNL A   1      33.741  25.031  25.926  1.00  0.00     0.032 C 
ATOM      9  C   UNL A   1      33.772  26.112  24.835  1.00  0.00     0.094 C 
ATOM     10  N   UNL A   1      32.925  25.748  23.686  1.00  0.00    -0.334 N 
ATOM     11  C   UNL A   1      31.629  27.150  25.094  1.00  0.00     0.037 C 
ATOM     12  C   UNL A   1      31.656  26.458  23.749  1.00  0.00     0.121 C 
BRANCH  10  13
ATOM     13  C   UNL A   1      33.183  25.048  22.526  1.00  0.00     0.286 C 
ATOM     14  O   UNL A   1      33.498  25.697  21.511  1.00  0.00    -0.267 OA
BRANCH  13  15
ATOM     15  C   UNL A   1      33.135  23.485  22.389  1.00  0.00     0.199 C 
ATOM     16  C   UNL A   1      31.949  22.806  23.043  1.00  0.00     0.110 C 
ATOM     17  C   UNL A   1      34.358  22.786  22.975  1.00  0.00     0.239 C 
ATOM     18  C   UNL A   1      32.521  22.030  24.207  1.00  0.00     0.167 C 
ATOM     19  O   UNL A   1      33.929  21.910  24.031  1.00  0.00    -0.374 OA
BRANCH  15  20
ATOM     20  N   UNL A   1      33.044  23.195  20.914  1.00  0.00    -0.343 N 
ATOM     21  H   UNL A   1      32.515  23.935  20.454  1.00  0.00     0.345 HD
ATOM     22  H   UNL A   1      32.574  22.301  20.772  1.00  0.00     0.345 HD
ATOM     23  H   UNL A   1      33.983  23.153  20.518  1.00  0.00     0.345 HD
ENDBRANCH  15  20
ENDBRANCH  13  15
ENDBRANCH  10  13
ENDBRANCH   4   7
ENDBRANCH   2   3
ENDBRANCH   1   2
BRANCH   1  24
ATOM     24  C   UNL A   1      31.575  32.123  26.690  1.00  0.00     0.023 C 
BRANCH  24  25
ATOM     25  C   UNL A   1      32.779  32.897  27.213  1.00  0.00     0.116 C 
BRANCH  25  26
ATOM     26  N   UNL A   1      32.453  34.254  27.627  1.00  0.00    -0.352 N 
ATOM     27  C   UNL A   1      32.989  35.021  28.637  1.00  0.00     0.251 C 
ATOM     28  H   UNL A   1      31.741  34.690  27.107  1.00  0.00     0.163 HD
ATOM     29  O   UNL A   1      32.486  36.098  28.925  1.00  0.00    -0.269 OA
BRANCH  27  30
ATOM     30  C   UNL A   1      34.156  34.523  29.399  1.00  0.00     0.039 A 
ATOM     31  C   UNL A   1      33.944  33.894  30.628  1.00  0.00     0.014 A 
ATOM     32  C   UNL A   1      35.451  34.661  28.895  1.00  0.00     0.014 A 
ATOM     33  C   UNL A   1      35.025  33.334  31.314  1.00  0.00     0.010 A 
ATOM     34  C   UNL A   1      36.510  34.019  29.529  1.00  0.00     0.010 A 
ATOM     35  C   UNL A   1      36.310  33.355  30.749  1.00  0.00    -0.014 A 
BRANCH  35  36
ATOM     36  C   UNL A   1      37.465  32.704  31.422  1.00  0.00     0.031 A 
ATOM     37  C   UNL A   1      38.182  31.565  30.749  1.00  0.00     0.074 A 
ATOM     38  C   UNL A   1      37.826  33.090  32.661  1.00  0.00     0.049 A 
ATOM     39  N   UNL A   1      39.157  30.816  31.200  1.00  0.00    -0.248 NA
ATOM     40  C   UNL A   1      37.720  31.197  29.402  1.00  0.00     0.031 C 
ATOM     41  C   UNL A   1      37.182  34.148  33.440  1.00  0.00     0.029 A 
ATOM     42  N   UNL A   1      38.818  32.626  33.490  1.00  0.00    -0.354 N 
ATOM     43  C   UNL A   1      39.410  29.884  30.202  1.00  0.00     0.074 A 
ATOM     44  C   UNL A   1      38.444  30.119  29.151  1.00  0.00     0.031 C 
ATOM     45  C   UNL A   1      37.812  34.272  34.620  1.00  0.00     0.029 A 
ATOM     46  C   UNL A   1      38.875  33.276  34.699  1.00  0.00     0.049 A 
ATOM     47  H   UNL A   1      39.431  31.897  33.241  1.00  0.00     0.167 HD
ATOM     48  C   UNL A   1      40.377  28.938  30.151  1.00  0.00     0.037 A 
ATOM     49  C   UNL A   1      39.688  33.083  35.756  1.00  0.00     0.037 A 
ATOM     50  C   UNL A   1      41.350  28.721  31.190  1.00  0.00     0.049 A 
ATOM     51  C   UNL A   1      40.745  32.013  35.681  1.00  0.00     0.074 A 
ATOM     52  C   UNL A   1      42.401  27.823  31.214  1.00  0.00     0.029 A 
ATOM     53  N   UNL A   1      41.385  29.411  32.393  1.00  0.00    -0.354 N 
ATOM     54  N   UNL A   1      41.019  31.183  34.704  1.00  0.00    -0.248 NA
ATOM     55  C   UNL A   1      41.616  31.862  36.856  1.00  0.00     0.031 C 
ATOM     56  C   UNL A   1      43.040  27.930  32.453  1.00  0.00     0.029 A 
ATOM     57  C   UNL A   1      42.428  28.943  33.176  1.00  0.00     0.049 A 
ATOM     58  H   UNL A   1      40.761  30.127  32.653  1.00  0.00     0.167 HD
ATOM     59  C   UNL A   1      42.113  30.439  35.129  1.00  0.00     0.074 A 
ATOM     60  C   UNL A   1      42.458  30.924  36.449  1.00  0.00     0.031 C 
ATOM     61  C   UNL A   1      42.771  29.446  34.483  1.00  0.00     0.037 A 
BRANCH  48  62
ATOM     62  C   UNL A   1      40.428  28.064  28.929  1.00  0.00     0.064 A 
ATOM     63  C   UNL A   1      41.197  28.409  27.806  1.00  0.00     0.173 A 
ATOM     64  C   UNL A   1      39.715  26.855  28.887  1.00  0.00     0.173 A 
ATOM     65  F   UNL A   1      41.889  29.558  27.789  1.00  0.00    -0.203 F 
ATOM     66  C   UNL A   1      41.221  27.597  26.675  1.00  0.00     0.198 A 
ATOM     67  C   UNL A   1      39.771  26.028  27.768  1.00  0.00     0.198 A 
ATOM     68  F   UNL A   1      38.968  26.473  29.933  1.00  0.00    -0.203 F 
ATOM     69  F   UNL A   1      41.913  27.980  25.594  1.00  0.00    -0.200 F 
ATOM     70  C   UNL A   1      40.514  26.405  26.659  1.00  0.00     0.200 A 
ATOM     71  F   UNL A   1      39.099  24.869  27.760  1.00  0.00    -0.200 F 
ATOM     72  F   UNL A   1      40.542  25.622  25.572  1.00  0.00    -0.200 F 
ENDBRANCH  48  62
BRANCH  49  73
ATOM     73  C   UNL A   1      39.556  33.940  36.964  1.00  0.00     0.064 A 
ATOM     74  C   UNL A   1      38.791  33.521  38.062  1.00  0.00     0.173 A 
ATOM     75  C   UNL A   1      40.180  35.193  37.045  1.00  0.00     0.173 A 
ATOM     76  F   UNL A   1      38.159  32.339  38.025  1.00  0.00    -0.203 F 
ATOM     77  C   UNL A   1      38.636  34.332  39.184  1.00  0.00     0.198 A 
ATOM     78  C   UNL A   1      40.050  35.990  38.181  1.00  0.00     0.198 A 
ATOM     79  F   UNL A   1      40.929  35.639  36.025  1.00  0.00    -0.203 F 
ATOM     80  F   UNL A   1      37.858  33.929  40.197  1.00  0.00    -0.200 F 
ATOM     81  C   UNL A   1      39.270  35.564  39.245  1.00  0.00     0.200 A 
ATOM     82  F   UNL A   1      40.678  37.172  38.242  1.00  0.00    -0.200 F 
ATOM     83  F   UNL A   1      39.124  36.342  40.326  1.00  0.00    -0.200 F 
ENDBRANCH  49  73
BRANCH  61  84
ATOM     84  C   UNL A   1      43.971  28.853  35.166  1.00  0.00     0.064 A 
ATOM     85  C   UNL A   1      45.262  29.372  34.984  1.00  0.00     0.173 A 
ATOM     86  C   UNL A   1      43.817  27.770  36.046  1.00  0.00     0.173 A 
ATOM     87  F   UNL A   1      45.465  30.397  34.144  1.00  0.00    -0.203 F 
ATOM     88  C   UNL A   1      46.357  28.809  35.635  1.00  0.00     0.198 A 
ATOM     89  C   UNL A   1      44.909  27.234  36.722  1.00  0.00     0.198 A 
ATOM     90  F   UNL A   1      42.604  27.240  36.262  1.00  0.00    -0.203 F 
ATOM     91  F   UNL A   1      47.587  29.287  35.404  1.00  0.00    -0.200 F 
ATOM     92  C   UNL A   1      46.179  27.747  36.509  1.00  0.00     0.200 A 
ATOM     93  F   UNL A   1      44.733  26.218  37.579  1.00  0.00    -0.200 F 
ATOM     94  F   UNL A   1      47.233  27.213  37.140  1.00  0.00    -0.200 F 
ENDBRANCH  61  84
ENDBRANCH  35  36
ENDBRANCH  27  30
ENDBRANCH  25  26
ENDBRANCH  24  25
ENDBRANCH   1  24
TORSDOF 14
ENDMDL
MODEL 2
REMARK VINA RESULT:     -11.9      0.613      7.420
REMARK SMILES C[C@@H]1[C@@H](C(=O)NCCCCNC(=O)c2ccc(-c3c4nc(c(-c5c(F)c(F)c(F)c(F)c5F)c5ccc([nH]5)c(-c5c(F)c(F)c(F)c(F)c5F)c5nc(c(-c6c(F)c(F)c(F)c(F)c6F)c6ccc3[nH]6)C=C5)C=C4)cc2)CCN1C(=O)[C@]1([NH3+])CCOC1
REMARK SMILES IDX 8 1 7 2 6 3 4 4 5 5 3 7 1 8 2 9 79 10 77 11 78 12 80 13
REMARK SMILES IDX 81 14 82 15 84 16 87 17 85 18 86 19 83 20 9 24 10 25 11 26
REMARK SMILES IDX 12 27 13 29 14 30 15 31 76 32 16 33 75 34 17 35 18 36 19 37
REMARK SMILES IDX 69 38 20 39 74 40 68 41 70 42 21 43 73 44 67 45 66 46 22 48
REMARK SMILES IDX 54 49 34 50 53 51 35 52 38 53 52 54 71 55 36 56 37 57 51 59
REMARK SMILES IDX 72 60 39 61 23 62 24 63 32 64 25 65 26 66 30 67 33 68 27 69
REMARK SMILES IDX 28 70 31 71 29 72 55 73 56 74 64 75 57 76 58 77 62 78 65 79
REMARK SMILES IDX 59 80 60 81 63 82 61 83 40 84 41 85 49 86 42 87 43 88 47 89
REMARK SMILES IDX 50 90 44 91 45 92 48 93 46 94
REMARK H PARENT 6 6 83 21 83 22 83 23 11 28 70 47 38 58
REMARK Flexibility Score: inf
ROOT
ATOM      1  C   UNL A   1      31.461  30.846  26.257  1.00  0.00     0.023 C 
ENDROOT
BRANCH   1   2
ATOM      2  C   UNL A   1      32.792  30.174  26.566  1.00  0.00     0.116 C 
BRANCH   2   3
ATOM      3  N   UNL A   1      33.565  29.827  25.388  1.00  0.00    -0.356 N 
ATOM      4  C   UNL A   1      33.598  28.635  24.713  1.00  0.00     0.225 C 
ATOM      5  O   UNL A   1      34.254  28.570  23.677  1.00  0.00    -0.275 OA
ATOM      6  H   UNL A   1      34.140  30.539  25.027  1.00  0.00     0.163 HD
BRANCH   4   7
ATOM      7  C   UNL A   1      32.871  27.437  25.312  1.00  0.00     0.102 C 
ATOM      8  C   UNL A   1      33.219  25.080  26.058  1.00  0.00     0.032 C 
ATOM      9  C   UNL A   1      33.503  26.077  24.924  1.00  0.00     0.094 C 
ATOM     10  N   UNL A   1      32.808  25.697  23.682  1.00  0.00    -0.334 N 
ATOM     11  C   UNL A   1      31.438  27.285  24.792  1.00  0.00     0.037 C 
ATOM     12  C   UNL A   1      31.608  26.501  23.509  1.00  0.00     0.121 C 
BRANCH  10  13
ATOM     13  C   UNL A   1      33.176  24.901  22.618  1.00  0.00     0.286 C 
ATOM     14  O   UNL A   1      33.692  25.453  21.628  1.00  0.00    -0.267 OA
BRANCH  13  15
ATOM     15  C   UNL A   1      33.018  23.340  22.565  1.00  0.00     0.199 C 
ATOM     16  C   UNL A   1      31.750  22.789  23.182  1.00  0.00     0.110 C 
ATOM     17  C   UNL A   1      34.150  22.592  23.264  1.00  0.00     0.239 C 
ATOM     18  C   UNL A   1      32.194  22.044  24.420  1.00  0.00     0.167 C 
ATOM     19  O   UNL A   1      33.597  21.813  24.338  1.00  0.00    -0.374 OA
BRANCH  15  20
ATOM     20  N   UNL A   1      32.991  22.969  21.106  1.00  0.00    -0.343 N 
ATOM     21  H   UNL A   1      32.311  22.225  20.957  1.00  0.00     0.345 HD
ATOM     22  H   UNL A   1      33.916  22.648  20.820  1.00  0.00     0.345 HD
ATOM     23  H   UNL A   1      32.729  23.785  20.553  1.00  0.00     0.345 HD
ENDBRANCH  15  20
ENDBRANCH  13  15
ENDBRANCH  10  13
ENDBRANCH   4   7
ENDBRANCH   2   3
ENDBRANCH   1   2
BRANCH   1  24
ATOM     24  C   UNL A   1      31.390  32.339  26.571  1.00  0.00     0.023 C 
BRANCH  24  25
ATOM     25  C   UNL A   1      32.623  32.928  27.245  1.00  0.00     0.116 C 
BRANCH  25  26
ATOM     26  N   UNL A   1      32.433  34.302  27.688  1.00  0.00    -0.352 N 
ATOM     27  C   UNL A   1      33.077  35.004  28.681  1.00  0.00     0.251 C 
ATOM     28  H   UNL A   1      31.739  34.804  27.204  1.00  0.00     0.163 HD
ATOM     29  O   UNL A   1      32.682  36.116  29.003  1.00  0.00    -0.269 OA
BRANCH  27  30
ATOM     30  C   UNL A   1      34.229  34.398  29.384  1.00  0.00     0.039 A 
ATOM     31  C   UNL A   1      33.990  33.560  30.477  1.00  0.00     0.014 A 
ATOM     32  C   UNL A   1      35.536  34.639  28.958  1.00  0.00     0.014 A 
ATOM     33  C   UNL A   1      35.059  32.903  31.091  1.00  0.00     0.010 A 
ATOM     34  C   UNL A   1      36.587  33.911  29.506  1.00  0.00     0.010 A 
ATOM     35  C   UNL A   1      36.362  33.041  30.583  1.00  0.00    -0.014 A 
BRANCH  35  36
ATOM     36  C   UNL A   1      37.507  32.298  31.173  1.00  0.00     0.031 A 
ATOM     37  C   UNL A   1      38.006  32.654  32.547  1.00  0.00     0.074 A 
ATOM     38  C   UNL A   1      38.139  31.353  30.450  1.00  0.00     0.049 A 
ATOM     39  N   UNL A   1      39.035  32.183  33.204  1.00  0.00    -0.248 NA
ATOM     40  C   UNL A   1      37.267  33.704  33.265  1.00  0.00     0.031 C 
ATOM     41  C   UNL A   1      37.784  30.948  29.090  1.00  0.00     0.029 A 
ATOM     42  N   UNL A   1      39.223  30.568  30.756  1.00  0.00    -0.354 N 
ATOM     43  C   UNL A   1      39.075  32.889  34.400  1.00  0.00     0.074 A 
ATOM     44  C   UNL A   1      38.009  33.865  34.349  1.00  0.00     0.031 C 
ATOM     45  C   UNL A   1      38.615  29.972  28.689  1.00  0.00     0.029 A 
ATOM     46  C   UNL A   1      39.587  29.712  29.745  1.00  0.00     0.049 A 
ATOM     47  H   UNL A   1      39.695  30.614  31.619  1.00  0.00     0.167 HD
ATOM     48  C   UNL A   1      39.906  32.720  35.456  1.00  0.00     0.037 A 
ATOM     49  C   UNL A   1      40.598  28.823  29.676  1.00  0.00     0.037 A 
ATOM     50  C   UNL A   1      40.952  31.733  35.510  1.00  0.00     0.049 A 
ATOM     51  C   UNL A   1      41.518  28.665  30.858  1.00  0.00     0.074 A 
ATOM     52  C   UNL A   1      41.816  31.447  36.553  1.00  0.00     0.029 A 
ATOM     53  N   UNL A   1      41.280  30.873  34.472  1.00  0.00    -0.354 N 
ATOM     54  N   UNL A   1      41.504  29.291  32.010  1.00  0.00    -0.248 NA
ATOM     55  C   UNL A   1      42.589  27.667  30.732  1.00  0.00     0.031 C 
ATOM     56  C   UNL A   1      42.701  30.452  36.127  1.00  0.00     0.029 A 
ATOM     57  C   UNL A   1      42.346  30.070  34.842  1.00  0.00     0.049 A 
ATOM     58  H   UNL A   1      40.821  30.838  33.601  1.00  0.00     0.167 HD
ATOM     59  C   UNL A   1      42.536  28.739  32.758  1.00  0.00     0.074 A 
ATOM     60  C   UNL A   1      43.149  27.719  31.932  1.00  0.00     0.031 C 
ATOM     61  C   UNL A   1      42.937  29.047  34.016  1.00  0.00     0.037 A 
BRANCH  48  62
ATOM     62  C   UNL A   1      39.713  33.626  36.639  1.00  0.00     0.064 A 
ATOM     63  C   UNL A   1      40.374  34.861  36.738  1.00  0.00     0.173 A 
ATOM     64  C   UNL A   1      38.840  33.268  37.678  1.00  0.00     0.173 A 
ATOM     65  F   UNL A   1      41.228  35.249  35.779  1.00  0.00    -0.203 F 
ATOM     66  C   UNL A   1      40.198  35.683  37.849  1.00  0.00     0.198 A 
ATOM     67  C   UNL A   1      38.638  34.109  38.769  1.00  0.00     0.198 A 
ATOM     68  F   UNL A   1      38.177  32.102  37.633  1.00  0.00    -0.203 F 
ATOM     69  F   UNL A   1      40.888  36.827  37.948  1.00  0.00    -0.200 F 
ATOM     70  C   UNL A   1      39.326  35.310  38.859  1.00  0.00     0.200 A 
ATOM     71  F   UNL A   1      37.783  33.753  39.738  1.00  0.00    -0.200 F 
ATOM     72  F   UNL A   1      39.153  36.104  39.924  1.00  0.00    -0.200 F 
ENDBRANCH  48  62
BRANCH  49  73
ATOM     73  C   UNL A   1      40.776  27.991  28.457  1.00  0.00     0.064 A 
ATOM     74  C   UNL A   1      40.156  26.739  28.344  1.00  0.00     0.173 A 
ATOM     75  C   UNL A   1      41.571  28.422  27.385  1.00  0.00     0.173 A 
ATOM     76  F   UNL A   1      39.400  26.273  29.349  1.00  0.00    -0.203 F 
ATOM     77  C   UNL A   1      40.344  25.939  27.219  1.00  0.00     0.198 A 
ATOM     78  C   UNL A   1      41.734  27.635  26.247  1.00  0.00     0.198 A 
ATOM     79  F   UNL A   1      42.183  29.615  27.439  1.00  0.00    -0.203 F 
ATOM     80  F   UNL A   1      39.781  24.725  27.160  1.00  0.00    -0.200 F 
ATOM     81  C   UNL A   1      41.128  26.391  26.168  1.00  0.00     0.200 A 
ATOM     82  F   UNL A   1      42.479  28.082  25.227  1.00  0.00    -0.200 F 
ATOM     83  F   UNL A   1      41.306  25.623  25.084  1.00  0.00    -0.200 F 
ENDBRANCH  49  73
BRANCH  61  84
ATOM     84  C   UNL A   1      44.057  28.235  34.603  1.00  0.00     0.064 A 
ATOM     85  C   UNL A   1      43.826  27.017  35.259  1.00  0.00     0.173 A 
ATOM     86  C   UNL A   1      45.386  28.669  34.472  1.00  0.00     0.173 A 
ATOM     87  F   UNL A   1      42.574  26.564  35.423  1.00  0.00    -0.203 F 
ATOM     88  C   UNL A   1      44.882  26.278  35.788  1.00  0.00     0.198 A 
ATOM     89  C   UNL A   1      46.440  27.910  34.971  1.00  0.00     0.198 A 
ATOM     90  F   UNL A   1      45.663  29.823  33.847  1.00  0.00    -0.203 F 
ATOM     91  F   UNL A   1      44.633  25.145  36.458  1.00  0.00    -0.200 F 
ATOM     92  C   UNL A   1      46.188  26.721  35.637  1.00  0.00     0.200 A 
ATOM     93  F   UNL A   1      47.702  28.331  34.809  1.00  0.00    -0.200 F 
ATOM     94  F   UNL A   1      47.202  26.005  36.139  1.00  0.00    -0.200 F 
ENDBRANCH  61  84
ENDBRANCH  35  36
ENDBRANCH  27  30
ENDBRANCH  25  26
ENDBRANCH  24  25
ENDBRANCH   1  24
TORSDOF 14
ENDMDL
MODEL 3
REMARK VINA RESULT:     -11.9      5.682     11.330
REMARK SMILES C[C@@H]1[C@@H](C(=O)NCCCCNC(=O)c2ccc(-c3c4nc(c(-c5c(F)c(F)c(F)c(F)c5F)c5ccc([nH]5)c(-c5c(F)c(F)c(F)c(F)c5F)c5nc(c(-c6c(F)c(F)c(F)c(F)c6F)c6ccc3[nH]6)C=C5)C=C4)cc2)CCN1C(=O)[C@]1([NH3+])CCOC1
REMARK SMILES IDX 8 1 7 2 6 3 4 4 5 5 3 7 1 8 2 9 79 10 77 11 78 12 80 13
REMARK SMILES IDX 81 14 82 15 84 16 87 17 85 18 86 19 83 20 9 24 10 25 11 26
REMARK SMILES IDX 12 27 13 29 14 30 15 31 76 32 16 33 75 34 17 35 18 36 19 37
REMARK SMILES IDX 69 38 20 39 74 40 68 41 70 42 21 43 73 44 67 45 66 46 22 48
REMARK SMILES IDX 54 49 34 50 53 51 35 52 38 53 52 54 71 55 36 56 37 57 51 59
REMARK SMILES IDX 72 60 39 61 23 62 24 63 32 64 25 65 26 66 30 67 33 68 27 69
REMARK SMILES IDX 28 70 31 71 29 72 55 73 56 74 64 75 57 76 58 77 62 78 65 79
REMARK SMILES IDX 59 80 60 81 63 82 61 83 40 84 41 85 49 86 42 87 43 88 47 89
REMARK SMILES IDX 50 90 44 91 45 92 48 93 46 94
REMARK H PARENT 6 6 83 21 83 22 83 23 11 28 70 47 38 58
REMARK Flexibility Score: inf
ROOT
ATOM      1  C   UNL A   1      37.366  21.077  24.583  1.00  0.00     0.023 C 
ENDROOT
BRANCH   1   2
ATOM      2  C   UNL A   1      36.409  21.609  25.641  1.00  0.00     0.116 C 
BRANCH   2   3
ATOM      3  N   UNL A   1      35.204  20.817  25.798  1.00  0.00    -0.356 N 
ATOM      4  C   UNL A   1      34.010  20.945  25.138  1.00  0.00     0.225 C 
ATOM      5  O   UNL A   1      33.133  20.111  25.351  1.00  0.00    -0.275 OA
ATOM      6  H   UNL A   1      35.250  20.093  26.463  1.00  0.00     0.163 HD
BRANCH   4   7
ATOM      7  C   UNL A   1      33.807  22.147  24.223  1.00  0.00     0.102 C 
ATOM      8  C   UNL A   1      34.114  24.622  24.109  1.00  0.00     0.032 C 
ATOM      9  C   UNL A   1      33.597  23.476  24.991  1.00  0.00     0.094 C 
ATOM     10  N   UNL A   1      32.138  23.556  25.182  1.00  0.00    -0.334 N 
ATOM     11  C   UNL A   1      32.527  22.054  23.387  1.00  0.00     0.037 C 
ATOM     12  C   UNL A   1      31.462  22.612  24.305  1.00  0.00     0.121 C 
BRANCH  10  13
ATOM     13  C   UNL A   1      31.358  24.185  26.129  1.00  0.00     0.286 C 
ATOM     14  O   UNL A   1      31.345  23.713  27.281  1.00  0.00    -0.267 OA
BRANCH  13  15
ATOM     15  C   UNL A   1      30.500  25.474  25.875  1.00  0.00     0.199 C 
ATOM     16  C   UNL A   1      30.230  25.806  24.422  1.00  0.00     0.110 C 
ATOM     17  C   UNL A   1      31.121  26.742  26.457  1.00  0.00     0.239 C 
ATOM     18  C   UNL A   1      31.013  27.069  24.145  1.00  0.00     0.167 C 
ATOM     19  O   UNL A   1      31.376  27.666  25.386  1.00  0.00    -0.374 OA
BRANCH  15  20
ATOM     20  N   UNL A   1      29.163  25.223  26.520  1.00  0.00    -0.343 N 
ATOM     21  H   UNL A   1      29.215  24.383  27.096  1.00  0.00     0.345 HD
ATOM     22  H   UNL A   1      28.455  25.097  25.797  1.00  0.00     0.345 HD
ATOM     23  H   UNL A   1      28.913  26.021  27.105  1.00  0.00     0.345 HD
ENDBRANCH  15  20
ENDBRANCH  13  15
ENDBRANCH  10  13
ENDBRANCH   4   7
ENDBRANCH   2   3
ENDBRANCH   1   2
BRANCH   1  24
ATOM     24  C   UNL A   1      38.178  19.849  24.989  1.00  0.00     0.023 C 
BRANCH  24  25
ATOM     25  C   UNL A   1      39.316  20.108  25.969  1.00  0.00     0.116 C 
BRANCH  25  26
ATOM     26  N   UNL A   1      40.334  19.068  25.955  1.00  0.00    -0.352 N 
ATOM     27  C   UNL A   1      41.701  19.171  26.076  1.00  0.00     0.251 C 
ATOM     28  H   UNL A   1      39.993  18.152  25.839  1.00  0.00     0.163 HD
ATOM     29  O   UNL A   1      42.410  18.190  25.900  1.00  0.00    -0.269 OA
BRANCH  27  30
ATOM     30  C   UNL A   1      42.316  20.480  26.388  1.00  0.00     0.039 A 
ATOM     31  C   UNL A   1      42.858  21.238  25.348  1.00  0.00     0.014 A 
ATOM     32  C   UNL A   1      42.342  20.965  27.697  1.00  0.00     0.014 A 
ATOM     33  C   UNL A   1      43.355  22.517  25.610  1.00  0.00     0.010 A 
ATOM     34  C   UNL A   1      42.747  22.273  27.941  1.00  0.00     0.010 A 
ATOM     35  C   UNL A   1      43.264  23.062  26.902  1.00  0.00    -0.014 A 
BRANCH  35  36
ATOM     36  C   UNL A   1      43.720  24.446  27.194  1.00  0.00     0.031 A 
ATOM     37  C   UNL A   1      42.746  25.459  27.734  1.00  0.00     0.074 A 
ATOM     38  C   UNL A   1      44.986  24.811  26.914  1.00  0.00     0.049 A 
ATOM     39  N   UNL A   1      42.924  26.732  27.979  1.00  0.00    -0.248 NA
ATOM     40  C   UNL A   1      41.380  24.983  28.002  1.00  0.00     0.031 C 
ATOM     41  C   UNL A   1      46.013  23.938  26.346  1.00  0.00     0.029 A 
ATOM     42  N   UNL A   1      45.623  26.019  27.060  1.00  0.00    -0.354 N 
ATOM     43  C   UNL A   1      41.694  27.209  28.413  1.00  0.00     0.074 A 
ATOM     44  C   UNL A   1      40.762  26.105  28.334  1.00  0.00     0.031 C 
ATOM     45  C   UNL A   1      47.157  24.629  26.216  1.00  0.00     0.029 A 
ATOM     46  C   UNL A   1      46.934  26.004  26.652  1.00  0.00     0.049 A 
ATOM     47  H   UNL A   1      45.181  26.821  27.422  1.00  0.00     0.167 HD
ATOM     48  C   UNL A   1      41.375  28.445  28.864  1.00  0.00     0.037 A 
ATOM     49  C   UNL A   1      47.851  26.991  26.625  1.00  0.00     0.037 A 
ATOM     50  C   UNL A   1      42.310  29.535  28.960  1.00  0.00     0.049 A 
ATOM     51  C   UNL A   1      47.468  28.361  27.116  1.00  0.00     0.074 A 
ATOM     52  C   UNL A   1      42.101  30.812  29.450  1.00  0.00     0.029 A 
ATOM     53  N   UNL A   1      43.635  29.476  28.552  1.00  0.00    -0.354 N 
ATOM     54  N   UNL A   1      46.319  28.783  27.588  1.00  0.00    -0.248 NA
ATOM     55  C   UNL A   1      48.514  29.393  27.082  1.00  0.00     0.031 C 
ATOM     56  C   UNL A   1      43.282  31.542  29.289  1.00  0.00     0.029 A 
ATOM     57  C   UNL A   1      44.249  30.701  28.760  1.00  0.00     0.049 A 
ATOM     58  H   UNL A   1      44.074  28.681  28.172  1.00  0.00     0.167 HD
ATOM     59  C   UNL A   1      46.515  30.113  27.940  1.00  0.00     0.074 A 
ATOM     60  C   UNL A   1      47.896  30.424  27.637  1.00  0.00     0.031 C 
ATOM     61  C   UNL A   1      45.630  30.994  28.469  1.00  0.00     0.037 A 
BRANCH  48  62
ATOM     62  C   UNL A   1      39.952  28.683  29.286  1.00  0.00     0.064 A 
ATOM     63  C   UNL A   1      39.527  28.460  30.605  1.00  0.00     0.173 A 
ATOM     64  C   UNL A   1      39.006  29.160  28.366  1.00  0.00     0.173 A 
ATOM     65  F   UNL A   1      40.387  27.994  31.522  1.00  0.00    -0.203 F 
ATOM     66  C   UNL A   1      38.201  28.669  30.977  1.00  0.00     0.198 A 
ATOM     67  C   UNL A   1      37.690  29.403  28.751  1.00  0.00     0.198 A 
ATOM     68  F   UNL A   1      39.358  29.396  27.093  1.00  0.00    -0.203 F 
ATOM     69  F   UNL A   1      37.807  28.389  32.226  1.00  0.00    -0.200 F 
ATOM     70  C   UNL A   1      37.286  29.147  30.052  1.00  0.00     0.200 A 
ATOM     71  F   UNL A   1      36.810  29.879  27.859  1.00  0.00    -0.200 F 
ATOM     72  F   UNL A   1      36.012  29.352  30.413  1.00  0.00    -0.200 F 
ENDBRANCH  48  62
BRANCH  49  73
ATOM     73  C   UNL A   1      49.230  26.714  26.143  1.00  0.00     0.064 A 
ATOM     74  C   UNL A   1      49.589  26.961  24.809  1.00  0.00     0.173 A 
ATOM     75  C   UNL A   1      50.214  26.192  26.995  1.00  0.00     0.173 A 
ATOM     76  F   UNL A   1      48.679  27.442  23.950  1.00  0.00    -0.203 F 
ATOM     77  C   UNL A   1      50.869  26.673  24.342  1.00  0.00     0.198 A 
ATOM     78  C   UNL A   1      51.503  25.934  26.534  1.00  0.00     0.198 A 
ATOM     79  F   UNL A   1      49.925  25.942  28.282  1.00  0.00    -0.203 F 
ATOM     80  F   UNL A   1      51.170  26.871  23.052  1.00  0.00    -0.200 F 
ATOM     81  C   UNL A   1      51.828  26.165  25.206  1.00  0.00     0.200 A 
ATOM     82  F   UNL A   1      52.431  25.458  27.377  1.00  0.00    -0.200 F 
ATOM     83  F   UNL A   1      53.060  25.892  24.757  1.00  0.00    -0.200 F 
ENDBRANCH  49  73
BRANCH  61  84
ATOM     84  C   UNL A   1      46.140  32.365  28.810  1.00  0.00     0.064 A 
ATOM     85  C   UNL A   1      46.713  32.656  30.057  1.00  0.00     0.173 A 
ATOM     86  C   UNL A   1      46.087  33.394  27.856  1.00  0.00     0.173 A 
ATOM     87  F   UNL A   1      46.774  31.713  31.008  1.00  0.00    -0.203 F 
ATOM     88  C   UNL A   1      47.185  33.934  30.347  1.00  0.00     0.198 A 
ATOM     89  C   UNL A   1      46.594  34.659  28.136  1.00  0.00     0.198 A 
ATOM     90  F   UNL A   1      45.557  33.168  26.644  1.00  0.00    -0.203 F 
ATOM     91  F   UNL A   1      47.678  34.203  31.563  1.00  0.00    -0.200 F 
ATOM     92  C   UNL A   1      47.133  34.932  29.384  1.00  0.00     0.200 A 
ATOM     93  F   UNL A   1      46.558  35.617  27.199  1.00  0.00    -0.200 F 
ATOM     94  F   UNL A   1      47.596  36.157  29.662  1.00  0.00    -0.200 F 
ENDBRANCH  61  84
ENDBRANCH  35  36
ENDBRANCH  27  30
ENDBRANCH  25  26
ENDBRANCH  24  25
ENDBRANCH   1  24
TORSDOF 14
ENDMDL
