MODEL 1
REMARK VINA RESULT:     -13.8      0.000      0.000
REMARK SMILES Cc1ccc(CN(CC(=O)NCCCCNC(=O)c2ccc(-c3c4nc(c(-c5c(F)c(F)c(F)c(F)c5F)c5ccc([nH]5)c(-c5c(F)c(F)c(F)c(F)c5F)c5nc(c(-c6c(F)c(F)c(F)c(F)c6F)c6ccc3[nH]6)C=C5)C=C4)cc2)C(=O)c2cc3c(s2)CCOC3)cc1
REMARK SMILES IDX 13 1 12 2 11 3 9 4 10 5 8 7 7 8 6 9 5 10 1 11 2 12 3 13
REMARK SMILES IDX 94 14 4 15 93 16 82 17 83 18 84 19 85 20 88 21 86 22 87 23
REMARK SMILES IDX 92 24 89 25 91 26 90 27 14 28 15 29 16 30 17 31 18 33 19 34
REMARK SMILES IDX 20 35 81 36 21 37 80 38 22 39 23 40 24 41 74 42 25 43 79 44
REMARK SMILES IDX 73 45 75 46 26 47 78 48 72 49 71 50 27 52 59 53 39 54 58 55
REMARK SMILES IDX 40 56 43 57 57 58 76 59 41 60 42 61 56 63 77 64 44 65 28 66
REMARK SMILES IDX 29 67 37 68 30 69 31 70 35 71 38 72 32 73 33 74 36 75 34 76
REMARK SMILES IDX 60 77 61 78 69 79 62 80 63 81 67 82 70 83 64 84 65 85 68 86
REMARK SMILES IDX 66 87 45 88 46 89 54 90 47 91 48 92 52 93 55 94 49 95 50 96
REMARK SMILES IDX 53 97 51 98
REMARK H PARENT 11 6 16 32 75 51 43 62
REMARK Flexibility Score: inf
ROOT
ATOM      1  C   UNL A   1      36.035  21.020  24.933  1.00  0.00     0.023 C 
ENDROOT
BRANCH   1   2
ATOM      2  C   UNL A   1      35.333  22.376  24.775  1.00  0.00     0.116 C 
BRANCH   2   3
ATOM      3  N   UNL A   1      34.530  22.534  23.577  1.00  0.00    -0.355 N 
ATOM      4  C   UNL A   1      33.925  23.632  23.040  1.00  0.00     0.239 C 
ATOM      5  O   UNL A   1      33.663  23.574  21.832  1.00  0.00    -0.273 OA
ATOM      6  H   UNL A   1      34.400  21.705  23.062  1.00  0.00     0.163 HD
BRANCH   4   7
ATOM      7  C   UNL A   1      33.662  24.934  23.819  1.00  0.00     0.220 C 
BRANCH   7   8
ATOM      8  N   UNL A   1      32.335  25.073  24.418  1.00  0.00    -0.324 N 
BRANCH   8   9
ATOM      9  C   UNL A   1      32.268  25.337  25.854  1.00  0.00     0.156 C 
BRANCH   9  10
ATOM     10  C   UNL A   1      32.583  26.758  26.243  1.00  0.00    -0.029 A 
ATOM     11  C   UNL A   1      33.374  30.829  27.427  1.00  0.00     0.044 C 
ATOM     12  C   UNL A   1      33.099  29.410  27.030  1.00  0.00    -0.051 A 
ATOM     13  C   UNL A   1      34.110  28.627  26.457  1.00  0.00     0.004 A 
ATOM     14  C   UNL A   1      31.828  28.859  27.206  1.00  0.00     0.004 A 
ATOM     15  C   UNL A   1      33.856  27.309  26.067  1.00  0.00     0.006 A 
ATOM     16  C   UNL A   1      31.574  27.546  26.817  1.00  0.00     0.006 A 
ENDBRANCH   9  10
ENDBRANCH   8   9
BRANCH   8  17
ATOM     17  C   UNL A   1      31.130  25.051  23.687  1.00  0.00     0.264 C 
ATOM     18  O   UNL A   1      30.675  23.986  23.268  1.00  0.00    -0.268 OA
BRANCH  17  19
ATOM     19  C   UNL A   1      30.432  26.310  23.472  1.00  0.00     0.093 A 
ATOM     20  C   UNL A   1      29.159  26.717  23.834  1.00  0.00     0.032 A 
ATOM     21  S   UNL A   1      31.274  27.572  22.661  1.00  0.00    -0.135 S 
ATOM     22  C   UNL A   1      28.801  27.962  23.238  1.00  0.00    -0.008 A 
ATOM     23  C   UNL A   1      29.886  28.539  22.616  1.00  0.00     0.013 A 
ATOM     24  C   UNL A   1      27.448  28.608  23.198  1.00  0.00     0.196 C 
ATOM     25  C   UNL A   1      29.812  29.877  21.958  1.00  0.00     0.075 C 
ATOM     26  O   UNL A   1      27.484  29.967  22.706  1.00  0.00    -0.376 OA
ATOM     27  C   UNL A   1      28.345  30.118  21.563  1.00  0.00     0.166 C 
ENDBRANCH  17  19
ENDBRANCH   8  17
ENDBRANCH   7   8
ENDBRANCH   4   7
ENDBRANCH   2   3
ENDBRANCH   1   2
BRANCH   1  28
ATOM     28  C   UNL A   1      37.559  21.028  24.985  1.00  0.00     0.023 C 
BRANCH  28  29
ATOM     29  C   UNL A   1      38.156  22.207  25.728  1.00  0.00     0.116 C 
BRANCH  29  30
ATOM     30  N   UNL A   1      39.568  22.081  26.070  1.00  0.00    -0.352 N 
ATOM     31  C   UNL A   1      40.458  23.072  26.458  1.00  0.00     0.251 C 
ATOM     32  H   UNL A   1      39.939  21.170  26.019  1.00  0.00     0.163 HD
ATOM     33  O   UNL A   1      41.639  22.815  26.635  1.00  0.00    -0.269 OA
BRANCH  31  34
ATOM     34  C   UNL A   1      39.933  24.419  26.792  1.00  0.00     0.039 A 
ATOM     35  C   UNL A   1      40.531  25.527  26.182  1.00  0.00     0.014 A 
ATOM     36  C   UNL A   1      39.054  24.595  27.858  1.00  0.00     0.014 A 
ATOM     37  C   UNL A   1      40.468  26.766  26.812  1.00  0.00     0.010 A 
ATOM     38  C   UNL A   1      39.086  25.790  28.547  1.00  0.00     0.010 A 
ATOM     39  C   UNL A   1      39.858  26.850  28.063  1.00  0.00    -0.014 A 
BRANCH  39  40
ATOM     40  C   UNL A   1      40.077  27.957  28.987  1.00  0.00     0.031 A 
ATOM     41  C   UNL A   1      39.149  29.105  29.009  1.00  0.00     0.074 A 
ATOM     42  C   UNL A   1      41.089  27.881  29.881  1.00  0.00     0.049 A 
ATOM     43  N   UNL A   1      39.427  30.252  29.531  1.00  0.00    -0.248 NA
ATOM     44  C   UNL A   1      37.845  29.078  28.356  1.00  0.00     0.031 C 
ATOM     45  C   UNL A   1      41.300  28.720  31.058  1.00  0.00     0.029 A 
ATOM     46  N   UNL A   1      42.273  27.128  29.775  1.00  0.00    -0.354 N 
ATOM     47  C   UNL A   1      38.275  31.003  29.542  1.00  0.00     0.074 A 
ATOM     48  C   UNL A   1      37.370  30.284  28.681  1.00  0.00     0.031 C 
ATOM     49  C   UNL A   1      42.600  28.685  31.388  1.00  0.00     0.029 A 
ATOM     50  C   UNL A   1      43.282  27.937  30.347  1.00  0.00     0.049 A 
ATOM     51  H   UNL A   1      42.377  26.230  29.387  1.00  0.00     0.167 HD
ATOM     52  C   UNL A   1      38.201  32.067  30.393  1.00  0.00     0.037 A 
ATOM     53  C   UNL A   1      44.325  28.411  29.606  1.00  0.00     0.037 A 
ATOM     54  C   UNL A   1      39.532  32.394  30.919  1.00  0.00     0.049 A 
ATOM     55  C   UNL A   1      44.429  29.917  29.577  1.00  0.00     0.074 A 
ATOM     56  C   UNL A   1      40.149  32.193  32.141  1.00  0.00     0.029 A 
ATOM     57  N   UNL A   1      40.534  32.783  30.031  1.00  0.00    -0.354 N 
ATOM     58  N   UNL A   1      43.451  30.717  29.899  1.00  0.00    -0.248 NA
ATOM     59  C   UNL A   1      45.624  30.638  29.146  1.00  0.00     0.031 C 
ATOM     60  C   UNL A   1      41.545  32.384  31.962  1.00  0.00     0.029 A 
ATOM     61  C   UNL A   1      41.772  32.735  30.643  1.00  0.00     0.049 A 
ATOM     62  H   UNL A   1      40.381  33.055  29.098  1.00  0.00     0.167 HD
ATOM     63  C   UNL A   1      43.840  32.016  29.700  1.00  0.00     0.074 A 
ATOM     64  C   UNL A   1      45.217  31.915  29.252  1.00  0.00     0.031 C 
ATOM     65  C   UNL A   1      42.984  33.061  29.904  1.00  0.00     0.037 A 
BRANCH  52  66
ATOM     66  C   UNL A   1      36.918  32.677  30.953  1.00  0.00     0.064 A 
ATOM     67  C   UNL A   1      36.129  33.531  30.144  1.00  0.00     0.173 A 
ATOM     68  C   UNL A   1      36.465  32.581  32.287  1.00  0.00     0.173 A 
ATOM     69  F   UNL A   1      36.392  33.700  28.842  1.00  0.00    -0.203 F 
ATOM     70  C   UNL A   1      35.041  34.263  30.643  1.00  0.00     0.198 A 
ATOM     71  C   UNL A   1      35.368  33.297  32.779  1.00  0.00     0.198 A 
ATOM     72  F   UNL A   1      37.058  31.809  33.196  1.00  0.00    -0.203 F 
ATOM     73  F   UNL A   1      34.370  35.094  29.833  1.00  0.00    -0.200 F 
ATOM     74  C   UNL A   1      34.667  34.152  31.964  1.00  0.00     0.200 A 
ATOM     75  F   UNL A   1      35.017  33.158  34.066  1.00  0.00    -0.200 F 
ATOM     76  F   UNL A   1      33.640  34.861  32.449  1.00  0.00    -0.200 F 
ENDBRANCH  52  66
BRANCH  53  77
ATOM     77  C   UNL A   1      44.710  27.505  28.492  1.00  0.00     0.064 A 
ATOM     78  C   UNL A   1      45.366  26.300  28.812  1.00  0.00     0.173 A 
ATOM     79  C   UNL A   1      44.124  27.606  27.225  1.00  0.00     0.173 A 
ATOM     80  F   UNL A   1      45.939  26.149  30.017  1.00  0.00    -0.203 F 
ATOM     81  C   UNL A   1      45.328  25.203  27.953  1.00  0.00     0.198 A 
ATOM     82  C   UNL A   1      44.102  26.509  26.361  1.00  0.00     0.198 A 
ATOM     83  F   UNL A   1      43.465  28.718  26.870  1.00  0.00    -0.203 F 
ATOM     84  F   UNL A   1      45.854  24.034  28.342  1.00  0.00    -0.200 F 
ATOM     85  C   UNL A   1      44.671  25.302  26.739  1.00  0.00     0.200 A 
ATOM     86  F   UNL A   1      43.437  26.591  25.199  1.00  0.00    -0.200 F 
ATOM     87  F   UNL A   1      44.544  24.222  25.956  1.00  0.00    -0.200 F 
ENDBRANCH  53  77
BRANCH  65  88
ATOM     88  C   UNL A   1      43.238  34.495  29.504  1.00  0.00     0.064 A 
ATOM     89  C   UNL A   1      43.141  34.971  28.184  1.00  0.00     0.173 A 
ATOM     90  C   UNL A   1      43.451  35.484  30.493  1.00  0.00     0.173 A 
ATOM     91  F   UNL A   1      42.820  34.155  27.171  1.00  0.00    -0.203 F 
ATOM     92  C   UNL A   1      43.312  36.323  27.871  1.00  0.00     0.198 A 
ATOM     93  C   UNL A   1      43.564  36.839  30.183  1.00  0.00     0.198 A 
ATOM     94  F   UNL A   1      43.532  35.166  31.794  1.00  0.00    -0.203 F 
ATOM     95  F   UNL A   1      43.252  36.720  26.592  1.00  0.00    -0.200 F 
ATOM     96  C   UNL A   1      43.512  37.257  28.870  1.00  0.00     0.200 A 
ATOM     97  F   UNL A   1      43.704  37.738  31.168  1.00  0.00    -0.200 F 
ATOM     98  F   UNL A   1      43.631  38.557  28.569  1.00  0.00    -0.200 F 
ENDBRANCH  65  88
ENDBRANCH  39  40
ENDBRANCH  31  34
ENDBRANCH  29  30
ENDBRANCH  28  29
ENDBRANCH   1  28
TORSDOF 16
ENDMDL
MODEL 2
REMARK VINA RESULT:     -13.8      3.417      9.779
REMARK SMILES Cc1ccc(CN(CC(=O)NCCCCNC(=O)c2ccc(-c3c4nc(c(-c5c(F)c(F)c(F)c(F)c5F)c5ccc([nH]5)c(-c5c(F)c(F)c(F)c(F)c5F)c5nc(c(-c6c(F)c(F)c(F)c(F)c6F)c6ccc3[nH]6)C=C5)C=C4)cc2)C(=O)c2cc3c(s2)CCOC3)cc1
REMARK SMILES IDX 13 1 12 2 11 3 9 4 10 5 8 7 7 8 6 9 5 10 1 11 2 12 3 13
REMARK SMILES IDX 94 14 4 15 93 16 82 17 83 18 84 19 85 20 88 21 86 22 87 23
REMARK SMILES IDX 92 24 89 25 91 26 90 27 14 28 15 29 16 30 17 31 18 33 19 34
REMARK SMILES IDX 20 35 81 36 21 37 80 38 22 39 23 40 24 41 74 42 25 43 79 44
REMARK SMILES IDX 73 45 75 46 26 47 78 48 72 49 71 50 27 52 59 53 39 54 58 55
REMARK SMILES IDX 40 56 43 57 57 58 76 59 41 60 42 61 56 63 77 64 44 65 28 66
REMARK SMILES IDX 29 67 37 68 30 69 31 70 35 71 38 72 32 73 33 74 36 75 34 76
REMARK SMILES IDX 60 77 61 78 69 79 62 80 63 81 67 82 70 83 64 84 65 85 68 86
REMARK SMILES IDX 66 87 45 88 46 89 54 90 47 91 48 92 52 93 55 94 49 95 50 96
REMARK SMILES IDX 53 97 51 98
REMARK H PARENT 11 6 16 32 75 51 43 62
REMARK Flexibility Score: inf
ROOT
ATOM      1  C   UNL A   1      31.883  29.504  25.932  1.00  0.00     0.023 C 
ENDROOT
BRANCH   1   2
ATOM      2  C   UNL A   1      32.040  28.139  25.247  1.00  0.00     0.116 C 
BRANCH   2   3
ATOM      3  N   UNL A   1      30.988  27.176  25.513  1.00  0.00    -0.355 N 
ATOM      4  C   UNL A   1      31.044  25.867  25.892  1.00  0.00     0.239 C 
ATOM      5  O   UNL A   1      30.030  25.413  26.437  1.00  0.00    -0.273 OA
ATOM      6  H   UNL A   1      30.076  27.528  25.401  1.00  0.00     0.163 HD
BRANCH   4   7
ATOM      7  C   UNL A   1      32.305  24.992  25.773  1.00  0.00     0.220 C 
BRANCH   7   8
ATOM      8  N   UNL A   1      32.547  24.378  24.468  1.00  0.00    -0.324 N 
BRANCH   8   9
ATOM      9  C   UNL A   1      33.793  24.716  23.784  1.00  0.00     0.156 C 
BRANCH   9  10
ATOM     10  C   UNL A   1      35.007  23.989  24.303  1.00  0.00    -0.029 A 
ATOM     11  C   UNL A   1      38.502  21.863  25.669  1.00  0.00     0.044 C 
ATOM     12  C   UNL A   1      37.296  22.609  25.184  1.00  0.00    -0.051 A 
ATOM     13  C   UNL A   1      36.720  23.612  25.976  1.00  0.00     0.004 A 
ATOM     14  C   UNL A   1      36.720  22.301  23.950  1.00  0.00     0.004 A 
ATOM     15  C   UNL A   1      35.584  24.300  25.538  1.00  0.00     0.006 A 
ATOM     16  C   UNL A   1      35.588  22.984  23.515  1.00  0.00     0.006 A 
ENDBRANCH   9  10
ENDBRANCH   8   9
BRANCH   8  17
ATOM     17  C   UNL A   1      31.697  23.424  23.873  1.00  0.00     0.264 C 
ATOM     18  O   UNL A   1      30.669  23.780  23.293  1.00  0.00    -0.268 OA
BRANCH  17  19
ATOM     19  C   UNL A   1      32.083  22.022  23.937  1.00  0.00     0.093 A 
ATOM     20  C   UNL A   1      32.246  21.077  22.938  1.00  0.00     0.032 A 
ATOM     21  S   UNL A   1      32.445  21.354  25.480  1.00  0.00    -0.135 S 
ATOM     22  C   UNL A   1      32.429  19.764  23.462  1.00  0.00    -0.008 A 
ATOM     23  C   UNL A   1      32.598  19.799  24.829  1.00  0.00     0.013 A 
ATOM     24  C   UNL A   1      32.406  18.463  22.716  1.00  0.00     0.196 C 
ATOM     25  C   UNL A   1      32.866  18.571  25.633  1.00  0.00     0.075 C 
ATOM     26  O   UNL A   1      32.844  17.343  23.517  1.00  0.00    -0.376 OA
ATOM     27  C   UNL A   1      32.304  17.373  24.851  1.00  0.00     0.166 C 
ENDBRANCH  17  19
ENDBRANCH   8  17
ENDBRANCH   7   8
ENDBRANCH   4   7
ENDBRANCH   2   3
ENDBRANCH   1   2
BRANCH   1  28
ATOM     28  C   UNL A   1      33.162  30.243  26.310  1.00  0.00     0.023 C 
BRANCH  28  29
ATOM     29  C   UNL A   1      33.617  30.021  27.739  1.00  0.00     0.116 C 
BRANCH  29  30
ATOM     30  N   UNL A   1      34.331  31.137  28.349  1.00  0.00    -0.352 N 
ATOM     31  C   UNL A   1      35.574  31.139  28.965  1.00  0.00     0.251 C 
ATOM     32  H   UNL A   1      33.869  32.007  28.317  1.00  0.00     0.163 HD
ATOM     33  O   UNL A   1      36.004  32.149  29.501  1.00  0.00    -0.269 OA
BRANCH  31  34
ATOM     34  C   UNL A   1      36.438  29.938  28.843  1.00  0.00     0.039 A 
ATOM     35  C   UNL A   1      36.777  29.251  30.015  1.00  0.00     0.014 A 
ATOM     36  C   UNL A   1      37.092  29.650  27.648  1.00  0.00     0.014 A 
ATOM     37  C   UNL A   1      37.944  28.494  30.045  1.00  0.00     0.010 A 
ATOM     38  C   UNL A   1      38.309  29.001  27.704  1.00  0.00     0.010 A 
ATOM     39  C   UNL A   1      38.769  28.492  28.922  1.00  0.00    -0.014 A 
BRANCH  39  40
ATOM     40  C   UNL A   1      40.172  28.093  28.959  1.00  0.00     0.031 A 
ATOM     41  C   UNL A   1      40.573  26.738  28.536  1.00  0.00     0.074 A 
ATOM     42  C   UNL A   1      41.109  29.006  29.304  1.00  0.00     0.049 A 
ATOM     43  N   UNL A   1      41.701  26.188  28.837  1.00  0.00    -0.248 NA
ATOM     44  C   UNL A   1      39.684  25.844  27.802  1.00  0.00     0.031 C 
ATOM     45  C   UNL A   1      42.556  28.904  29.128  1.00  0.00     0.029 A 
ATOM     46  N   UNL A   1      40.936  30.158  30.094  1.00  0.00    -0.354 N 
ATOM     47  C   UNL A   1      41.808  25.020  28.120  1.00  0.00     0.074 A 
ATOM     48  C   UNL A   1      40.481  24.789  27.610  1.00  0.00     0.031 C 
ATOM     49  C   UNL A   1      43.157  29.723  30.005  1.00  0.00     0.029 A 
ATOM     50  C   UNL A   1      42.118  30.264  30.863  1.00  0.00     0.049 A 
ATOM     51  H   UNL A   1      40.158  30.760  30.109  1.00  0.00     0.167 HD
ATOM     52  C   UNL A   1      43.048  24.476  27.945  1.00  0.00     0.037 A 
ATOM     53  C   UNL A   1      42.100  30.159  32.223  1.00  0.00     0.037 A 
ATOM     54  C   UNL A   1      44.014  25.104  28.855  1.00  0.00     0.049 A 
ATOM     55  C   UNL A   1      42.953  29.038  32.768  1.00  0.00     0.074 A 
ATOM     56  C   UNL A   1      45.026  26.031  28.677  1.00  0.00     0.029 A 
ATOM     57  N   UNL A   1      43.823  24.989  30.231  1.00  0.00    -0.354 N 
ATOM     58  N   UNL A   1      43.378  28.037  32.050  1.00  0.00    -0.248 NA
ATOM     59  C   UNL A   1      43.357  28.936  34.167  1.00  0.00     0.031 C 
ATOM     60  C   UNL A   1      45.385  26.536  29.956  1.00  0.00     0.029 A 
ATOM     61  C   UNL A   1      44.619  25.890  30.911  1.00  0.00     0.049 A 
ATOM     62  H   UNL A   1      43.206  24.353  30.659  1.00  0.00     0.167 HD
ATOM     63  C   UNL A   1      44.062  27.159  32.850  1.00  0.00     0.074 A 
ATOM     64  C   UNL A   1      44.042  27.779  34.162  1.00  0.00     0.031 C 
ATOM     65  C   UNL A   1      44.567  25.987  32.363  1.00  0.00     0.037 A 
BRANCH  52  66
ATOM     66  C   UNL A   1      43.467  23.553  26.803  1.00  0.00     0.064 A 
ATOM     67  C   UNL A   1      43.070  22.193  26.811  1.00  0.00     0.173 A 
ATOM     68  C   UNL A   1      44.346  23.882  25.749  1.00  0.00     0.173 A 
ATOM     69  F   UNL A   1      42.203  21.723  27.717  1.00  0.00    -0.203 F 
ATOM     70  C   UNL A   1      43.560  21.251  25.895  1.00  0.00     0.198 A 
ATOM     71  C   UNL A   1      44.819  22.945  24.823  1.00  0.00     0.198 A 
ATOM     72  F   UNL A   1      44.812  25.114  25.556  1.00  0.00    -0.203 F 
ATOM     73  F   UNL A   1      43.183  19.968  25.993  1.00  0.00    -0.200 F 
ATOM     74  C   UNL A   1      44.443  21.626  24.906  1.00  0.00     0.200 A 
ATOM     75  F   UNL A   1      45.667  23.341  23.862  1.00  0.00    -0.200 F 
ATOM     76  F   UNL A   1      44.928  20.727  24.040  1.00  0.00    -0.200 F 
ENDBRANCH  52  66
BRANCH  53  77
ATOM     77  C   UNL A   1      40.832  30.642  32.830  1.00  0.00     0.064 A 
ATOM     78  C   UNL A   1      40.567  32.025  32.801  1.00  0.00     0.173 A 
ATOM     79  C   UNL A   1      39.755  29.782  33.067  1.00  0.00     0.173 A 
ATOM     80  F   UNL A   1      41.565  32.894  32.571  1.00  0.00    -0.203 F 
ATOM     81  C   UNL A   1      39.265  32.516  32.879  1.00  0.00     0.198 A 
ATOM     82  C   UNL A   1      38.453  30.279  33.161  1.00  0.00     0.198 A 
ATOM     83  F   UNL A   1      39.938  28.454  33.082  1.00  0.00    -0.203 F 
ATOM     84  F   UNL A   1      39.037  33.828  32.723  1.00  0.00    -0.200 F 
ATOM     85  C   UNL A   1      38.206  31.638  33.031  1.00  0.00     0.200 A 
ATOM     86  F   UNL A   1      37.422  29.429  33.274  1.00  0.00    -0.200 F 
ATOM     87  F   UNL A   1      36.947  32.096  33.006  1.00  0.00    -0.200 F 
ENDBRANCH  53  77
BRANCH  65  88
ATOM     88  C   UNL A   1      45.132  24.861  33.195  1.00  0.00     0.064 A 
ATOM     89  C   UNL A   1      44.444  23.667  33.471  1.00  0.00     0.173 A 
ATOM     90  C   UNL A   1      46.479  24.900  33.629  1.00  0.00     0.173 A 
ATOM     91  F   UNL A   1      43.204  23.454  33.009  1.00  0.00    -0.203 F 
ATOM     92  C   UNL A   1      45.034  22.620  34.185  1.00  0.00     0.198 A 
ATOM     93  C   UNL A   1      47.083  23.832  34.291  1.00  0.00     0.198 A 
ATOM     94  F   UNL A   1      47.255  25.971  33.401  1.00  0.00    -0.203 F 
ATOM     95  F   UNL A   1      44.321  21.519  34.459  1.00  0.00    -0.200 F 
ATOM     96  C   UNL A   1      46.355  22.697  34.584  1.00  0.00     0.200 A 
ATOM     97  F   UNL A   1      48.380  23.902  34.623  1.00  0.00    -0.200 F 
ATOM     98  F   UNL A   1      46.931  21.674  35.229  1.00  0.00    -0.200 F 
ENDBRANCH  65  88
ENDBRANCH  39  40
ENDBRANCH  31  34
ENDBRANCH  29  30
ENDBRANCH  28  29
ENDBRANCH   1  28
TORSDOF 16
ENDMDL
MODEL 3
REMARK VINA RESULT:     -13.4      2.938      9.195
REMARK SMILES Cc1ccc(CN(CC(=O)NCCCCNC(=O)c2ccc(-c3c4nc(c(-c5c(F)c(F)c(F)c(F)c5F)c5ccc([nH]5)c(-c5c(F)c(F)c(F)c(F)c5F)c5nc(c(-c6c(F)c(F)c(F)c(F)c6F)c6ccc3[nH]6)C=C5)C=C4)cc2)C(=O)c2cc3c(s2)CCOC3)cc1
REMARK SMILES IDX 13 1 12 2 11 3 9 4 10 5 8 7 7 8 6 9 5 10 1 11 2 12 3 13
REMARK SMILES IDX 94 14 4 15 93 16 82 17 83 18 84 19 85 20 88 21 86 22 87 23
REMARK SMILES IDX 92 24 89 25 91 26 90 27 14 28 15 29 16 30 17 31 18 33 19 34
REMARK SMILES IDX 20 35 81 36 21 37 80 38 22 39 23 40 24 41 74 42 25 43 79 44
REMARK SMILES IDX 73 45 75 46 26 47 78 48 72 49 71 50 27 52 59 53 39 54 58 55
REMARK SMILES IDX 40 56 43 57 57 58 76 59 41 60 42 61 56 63 77 64 44 65 28 66
REMARK SMILES IDX 29 67 37 68 30 69 31 70 35 71 38 72 32 73 33 74 36 75 34 76
REMARK SMILES IDX 60 77 61 78 69 79 62 80 63 81 67 82 70 83 64 84 65 85 68 86
REMARK SMILES IDX 66 87 45 88 46 89 54 90 47 91 48 92 52 93 55 94 49 95 50 96
REMARK SMILES IDX 53 97 51 98
REMARK H PARENT 11 6 16 32 75 51 43 62
REMARK Flexibility Score: inf
ROOT
ATOM      1  C   UNL A   1      31.789  29.349  27.270  1.00  0.00     0.023 C 
ENDROOT
BRANCH   1   2
ATOM      2  C   UNL A   1      31.508  28.386  26.108  1.00  0.00     0.116 C 
BRANCH   2   3
ATOM      3  N   UNL A   1      31.176  27.025  26.484  1.00  0.00    -0.355 N 
ATOM      4  C   UNL A   1      31.786  25.840  26.195  1.00  0.00     0.239 C 
ATOM      5  O   UNL A   1      31.543  24.900  26.962  1.00  0.00    -0.273 OA
ATOM      6  H   UNL A   1      30.372  26.943  27.045  1.00  0.00     0.163 HD
BRANCH   4   7
ATOM      7  C   UNL A   1      32.810  25.656  25.060  1.00  0.00     0.220 C 
BRANCH   7   8
ATOM      8  N   UNL A   1      32.286  25.155  23.789  1.00  0.00    -0.324 N 
BRANCH   8   9
ATOM      9  C   UNL A   1      33.242  24.580  22.845  1.00  0.00     0.156 C 
BRANCH   9  10
ATOM     10  C   UNL A   1      34.139  23.522  23.433  1.00  0.00    -0.029 A 
ATOM     11  C   UNL A   1      36.608  20.408  25.109  1.00  0.00     0.044 C 
ATOM     12  C   UNL A   1      35.748  21.481  24.514  1.00  0.00    -0.051 A 
ATOM     13  C   UNL A   1      36.326  22.658  24.020  1.00  0.00     0.004 A 
ATOM     14  C   UNL A   1      34.360  21.332  24.466  1.00  0.00     0.004 A 
ATOM     15  C   UNL A   1      35.529  23.672  23.480  1.00  0.00     0.006 A 
ATOM     16  C   UNL A   1      33.565  22.342  23.930  1.00  0.00     0.006 A 
ENDBRANCH   9  10
ENDBRANCH   8   9
BRANCH   8  17
ATOM     17  C   UNL A   1      30.917  25.120  23.457  1.00  0.00     0.264 C 
ATOM     18  O   UNL A   1      30.337  24.042  23.316  1.00  0.00    -0.268 OA
BRANCH  17  19
ATOM     19  C   UNL A   1      30.209  26.384  23.318  1.00  0.00     0.093 A 
ATOM     20  C   UNL A   1      28.955  26.777  23.754  1.00  0.00     0.032 A 
ATOM     21  S   UNL A   1      31.011  27.675  22.510  1.00  0.00    -0.135 S 
ATOM     22  C   UNL A   1      28.569  28.041  23.218  1.00  0.00    -0.008 A 
ATOM     23  C   UNL A   1      29.622  28.640  22.565  1.00  0.00     0.013 A 
ATOM     24  C   UNL A   1      27.215  28.686  23.266  1.00  0.00     0.196 C 
ATOM     25  C   UNL A   1      29.517  29.999  21.956  1.00  0.00     0.075 C 
ATOM     26  O   UNL A   1      27.228  30.060  22.818  1.00  0.00    -0.376 OA
ATOM     27  C   UNL A   1      28.032  30.251  21.641  1.00  0.00     0.166 C 
ENDBRANCH  17  19
ENDBRANCH   8  17
ENDBRANCH   7   8
ENDBRANCH   4   7
ENDBRANCH   2   3
ENDBRANCH   1   2
BRANCH   1  28
ATOM     28  C   UNL A   1      33.246  29.537  27.680  1.00  0.00     0.023 C 
BRANCH  28  29
ATOM     29  C   UNL A   1      33.860  30.849  27.231  1.00  0.00     0.116 C 
BRANCH  29  30
ATOM     30  N   UNL A   1      34.390  31.689  28.299  1.00  0.00    -0.352 N 
ATOM     31  C   UNL A   1      35.438  31.427  29.170  1.00  0.00     0.251 C 
ATOM     32  H   UNL A   1      33.944  32.560  28.417  1.00  0.00     0.163 HD
ATOM     33  O   UNL A   1      35.711  32.207  30.070  1.00  0.00    -0.269 OA
BRANCH  31  34
ATOM     34  C   UNL A   1      36.313  30.258  28.909  1.00  0.00     0.039 A 
ATOM     35  C   UNL A   1      36.587  29.392  29.974  1.00  0.00     0.014 A 
ATOM     36  C   UNL A   1      37.038  30.162  27.724  1.00  0.00     0.014 A 
ATOM     37  C   UNL A   1      37.755  28.636  29.952  1.00  0.00     0.010 A 
ATOM     38  C   UNL A   1      38.252  29.507  27.746  1.00  0.00     0.010 A 
ATOM     39  C   UNL A   1      38.644  28.809  28.892  1.00  0.00    -0.014 A 
BRANCH  39  40
ATOM     40  C   UNL A   1      40.044  28.404  28.948  1.00  0.00     0.031 A 
ATOM     41  C   UNL A   1      40.438  27.031  28.576  1.00  0.00     0.074 A 
ATOM     42  C   UNL A   1      40.986  29.324  29.260  1.00  0.00     0.049 A 
ATOM     43  N   UNL A   1      41.563  26.487  28.900  1.00  0.00    -0.248 NA
ATOM     44  C   UNL A   1      39.545  26.116  27.875  1.00  0.00     0.031 C 
ATOM     45  C   UNL A   1      42.432  29.206  29.091  1.00  0.00     0.029 A 
ATOM     46  N   UNL A   1      40.818  30.505  30.006  1.00  0.00    -0.354 N 
ATOM     47  C   UNL A   1      41.664  25.292  28.228  1.00  0.00     0.074 A 
ATOM     48  C   UNL A   1      40.337  25.050  27.725  1.00  0.00     0.031 C 
ATOM     49  C   UNL A   1      43.037  30.055  29.937  1.00  0.00     0.029 A 
ATOM     50  C   UNL A   1      42.000  30.633  30.772  1.00  0.00     0.049 A 
ATOM     51  H   UNL A   1      40.044  31.112  29.996  1.00  0.00     0.167 HD
ATOM     52  C   UNL A   1      42.901  24.735  28.076  1.00  0.00     0.037 A 
ATOM     53  C   UNL A   1      41.978  30.580  32.136  1.00  0.00     0.037 A 
ATOM     54  C   UNL A   1      43.869  25.390  28.964  1.00  0.00     0.049 A 
ATOM     55  C   UNL A   1      42.824  29.475  32.724  1.00  0.00     0.074 A 
ATOM     56  C   UNL A   1      44.887  26.305  28.753  1.00  0.00     0.029 A 
ATOM     57  N   UNL A   1      43.675  25.328  30.343  1.00  0.00    -0.354 N 
ATOM     58  N   UNL A   1      43.244  28.445  32.044  1.00  0.00    -0.248 NA
ATOM     59  C   UNL A   1      43.225  29.423  34.127  1.00  0.00     0.031 C 
ATOM     60  C   UNL A   1      45.247  26.855  30.012  1.00  0.00     0.029 A 
ATOM     61  C   UNL A   1      44.475  26.250  30.990  1.00  0.00     0.049 A 
ATOM     62  H   UNL A   1      43.054  24.712  30.793  1.00  0.00     0.167 HD
ATOM     63  C   UNL A   1      43.922  27.594  32.878  1.00  0.00     0.074 A 
ATOM     64  C   UNL A   1      43.904  28.263  34.166  1.00  0.00     0.031 C 
ATOM     65  C   UNL A   1      44.421  26.402  32.437  1.00  0.00     0.037 A 
BRANCH  52  66
ATOM     66  C   UNL A   1      43.316  23.767  26.971  1.00  0.00     0.064 A 
ATOM     67  C   UNL A   1      42.919  22.409  27.033  1.00  0.00     0.173 A 
ATOM     68  C   UNL A   1      44.193  24.053  25.902  1.00  0.00     0.173 A 
ATOM     69  F   UNL A   1      42.053  21.976  27.959  1.00  0.00    -0.203 F 
ATOM     70  C   UNL A   1      43.406  21.431  26.154  1.00  0.00     0.198 A 
ATOM     71  C   UNL A   1      44.664  23.080  25.013  1.00  0.00     0.198 A 
ATOM     72  F   UNL A   1      44.659  25.276  25.659  1.00  0.00    -0.203 F 
ATOM     73  F   UNL A   1      43.029  20.153  26.304  1.00  0.00    -0.200 F 
ATOM     74  C   UNL A   1      44.287  21.765  25.149  1.00  0.00     0.200 A 
ATOM     75  F   UNL A   1      45.509  23.437  24.035  1.00  0.00    -0.200 F 
ATOM     76  F   UNL A   1      44.769  20.832  24.317  1.00  0.00    -0.200 F 
ENDBRANCH  52  66
BRANCH  53  77
ATOM     77  C   UNL A   1      40.713  31.093  32.721  1.00  0.00     0.064 A 
ATOM     78  C   UNL A   1      40.518  32.487  32.764  1.00  0.00     0.173 A 
ATOM     79  C   UNL A   1      39.585  30.277  32.865  1.00  0.00     0.173 A 
ATOM     80  F   UNL A   1      41.567  33.315  32.624  1.00  0.00    -0.203 F 
ATOM     81  C   UNL A   1      39.240  33.040  32.822  1.00  0.00     0.198 A 
ATOM     82  C   UNL A   1      38.307  30.836  32.940  1.00  0.00     0.198 A 
ATOM     83  F   UNL A   1      39.701  28.943  32.809  1.00  0.00    -0.203 F 
ATOM     84  F   UNL A   1      39.084  34.368  32.735  1.00  0.00    -0.200 F 
ATOM     85  C   UNL A   1      38.134  32.211  32.881  1.00  0.00     0.200 A 
ATOM     86  F   UNL A   1      37.231  30.035  32.963  1.00  0.00    -0.200 F 
ATOM     87  F   UNL A   1      36.900  32.734  32.835  1.00  0.00    -0.200 F 
ENDBRANCH  53  77
BRANCH  65  88
ATOM     88  C   UNL A   1      44.978  25.304  33.312  1.00  0.00     0.064 A 
ATOM     89  C   UNL A   1      44.184  24.378  34.010  1.00  0.00     0.173 A 
ATOM     90  C   UNL A   1      46.372  25.065  33.356  1.00  0.00     0.173 A 
ATOM     91  F   UNL A   1      42.846  24.420  33.948  1.00  0.00    -0.203 F 
ATOM     92  C   UNL A   1      44.744  23.332  34.750  1.00  0.00     0.198 A 
ATOM     93  C   UNL A   1      46.925  23.988  34.048  1.00  0.00     0.198 A 
ATOM     94  F   UNL A   1      47.238  25.859  32.706  1.00  0.00    -0.203 F 
ATOM     95  F   UNL A   1      43.946  22.500  35.432  1.00  0.00    -0.200 F 
ATOM     96  C   UNL A   1      46.112  23.131  34.760  1.00  0.00     0.200 A 
ATOM     97  F   UNL A   1      48.248  23.776  34.003  1.00  0.00    -0.200 F 
ATOM     98  F   UNL A   1      46.642  22.101  35.433  1.00  0.00    -0.200 F 
ENDBRANCH  65  88
ENDBRANCH  39  40
ENDBRANCH  31  34
ENDBRANCH  29  30
ENDBRANCH  28  29
ENDBRANCH   1  28
TORSDOF 16
ENDMDL
