MODEL 1
REMARK VINA RESULT:     -11.6      0.000      0.000
REMARK SMILES CC(C)(C)N(CC(=O)NCCCCNC(=O)c1ccc(-c2c3nc(c(-c4c(F)c(F)c(F)c(F)c4F)c4ccc([nH]4)c(-c4c(F)c(F)c(F)c(F)c4F)c4nc(c(-c5c(F)c(F)c(F)c(F)c5F)c5ccc2[nH]5)C=C4)C=C3)cc1)C(=O)N1CC[C@H](C[NH3+])C1
REMARK SMILES IDX 10 1 9 2 7 3 8 4 6 6 5 7 2 8 1 9 3 10 4 11 80 12 81 13 82 14
REMARK SMILES IDX 83 15 88 16 84 17 85 18 86 19 87 20 11 24 12 25 13 26 14 27
REMARK SMILES IDX 15 28 16 30 17 31 18 32 79 33 19 34 78 35 20 36 21 37 22 38
REMARK SMILES IDX 72 39 23 40 77 41 71 42 73 43 24 44 76 45 70 46 69 47 25 49
REMARK SMILES IDX 57 50 37 51 56 52 38 53 41 54 55 55 74 56 39 57 40 58 54 60
REMARK SMILES IDX 75 61 42 62 26 63 27 64 35 65 28 66 29 67 33 68 36 69 30 70
REMARK SMILES IDX 31 71 34 72 32 73 58 74 59 75 67 76 60 77 61 78 65 79 68 80
REMARK SMILES IDX 62 81 63 82 66 83 64 84 43 85 44 86 52 87 45 88 46 89 50 90
REMARK SMILES IDX 53 91 47 92 48 93 51 94 49 95
REMARK H PARENT 9 5 87 21 87 22 87 23 14 29 73 48 41 59
REMARK Flexibility Score: inf
ROOT
ATOM      1  C   UNL A   1      31.935  29.748  25.345  1.00  0.00     0.116 C 
ENDROOT
BRANCH   1   2
ATOM      2  N   UNL A   1      33.053  29.623  24.447  1.00  0.00    -0.355 N 
ATOM      3  C   UNL A   1      33.671  28.500  23.986  1.00  0.00     0.239 C 
ATOM      4  O   UNL A   1      34.375  28.641  22.976  1.00  0.00    -0.273 OA
ATOM      5  H   UNL A   1      33.427  30.473  24.118  1.00  0.00     0.163 HD
BRANCH   3   6
ATOM      6  C   UNL A   1      33.443  27.087  24.568  1.00  0.00     0.221 C 
BRANCH   6   7
ATOM      7  N   UNL A   1      32.732  26.049  23.793  1.00  0.00    -0.311 N 
BRANCH   7   8
ATOM      8  C   UNL A   1      31.233  26.195  23.541  1.00  0.00     0.037 C 
ATOM      9  C   UNL A   1      30.855  27.198  22.413  1.00  0.00     0.034 C 
ATOM     10  C   UNL A   1      30.468  26.664  24.803  1.00  0.00     0.034 C 
ATOM     11  C   UNL A   1      30.642  24.839  23.076  1.00  0.00     0.034 C 
ENDBRANCH   7   8
BRANCH   7  12
ATOM     12  C   UNL A   1      33.444  25.176  22.942  1.00  0.00     0.320 C 
ATOM     13  O   UNL A   1      33.814  25.503  21.815  1.00  0.00    -0.248 OA
BRANCH  12  14
ATOM     14  N   UNL A   1      33.918  24.000  23.485  1.00  0.00    -0.324 N 
ATOM     15  C   UNL A   1      33.485  22.662  23.137  1.00  0.00     0.122 C 
ATOM     16  C   UNL A   1      35.319  23.925  23.882  1.00  0.00     0.130 C 
ATOM     17  C   UNL A   1      34.169  21.820  24.198  1.00  0.00     0.033 C 
ATOM     18  C   UNL A   1      35.565  22.455  24.268  1.00  0.00     0.065 C 
BRANCH  18  19
ATOM     19  C   UNL A   1      36.258  22.328  25.624  1.00  0.00     0.264 C 
BRANCH  19  20
ATOM     20  N   UNL A   1      35.584  21.369  26.494  1.00  0.00    -0.357 N 
ATOM     21  H   UNL A   1      36.219  20.599  26.706  1.00  0.00     0.344 HD
ATOM     22  H   UNL A   1      34.755  21.006  26.022  1.00  0.00     0.344 HD
ATOM     23  H   UNL A   1      35.308  21.831  27.359  1.00  0.00     0.344 HD
ENDBRANCH  19  20
ENDBRANCH  18  19
ENDBRANCH  12  14
ENDBRANCH   7  12
ENDBRANCH   6   7
ENDBRANCH   3   6
ENDBRANCH   1   2
BRANCH   1  24
ATOM     24  C   UNL A   1      32.286  30.348  26.703  1.00  0.00     0.023 C 
BRANCH  24  25
ATOM     25  C   UNL A   1      31.857  31.797  26.912  1.00  0.00     0.023 C 
BRANCH  25  26
ATOM     26  C   UNL A   1      32.949  32.749  27.386  1.00  0.00     0.116 C 
BRANCH  26  27
ATOM     27  N   UNL A   1      32.485  34.093  27.702  1.00  0.00    -0.352 N 
ATOM     28  C   UNL A   1      33.008  35.000  28.602  1.00  0.00     0.251 C 
ATOM     29  H   UNL A   1      31.690  34.396  27.208  1.00  0.00     0.163 HD
ATOM     30  O   UNL A   1      32.479  36.081  28.776  1.00  0.00    -0.269 OA
BRANCH  28  31
ATOM     31  C   UNL A   1      34.195  34.614  29.397  1.00  0.00     0.039 A 
ATOM     32  C   UNL A   1      34.004  34.154  30.702  1.00  0.00     0.014 A 
ATOM     33  C   UNL A   1      35.473  34.637  28.833  1.00  0.00     0.014 A 
ATOM     34  C   UNL A   1      35.085  33.626  31.410  1.00  0.00     0.010 A 
ATOM     35  C   UNL A   1      36.530  34.037  29.507  1.00  0.00     0.010 A 
ATOM     36  C   UNL A   1      36.344  33.515  30.798  1.00  0.00    -0.014 A 
BRANCH  36  37
ATOM     37  C   UNL A   1      37.479  32.843  31.477  1.00  0.00     0.031 A 
ATOM     38  C   UNL A   1      38.160  31.676  30.824  1.00  0.00     0.074 A 
ATOM     39  C   UNL A   1      37.831  33.222  32.721  1.00  0.00     0.049 A 
ATOM     40  N   UNL A   1      39.096  30.890  31.296  1.00  0.00    -0.248 NA
ATOM     41  C   UNL A   1      37.702  31.318  29.472  1.00  0.00     0.031 C 
ATOM     42  C   UNL A   1      37.203  34.301  33.487  1.00  0.00     0.029 A 
ATOM     43  N   UNL A   1      38.795  32.733  33.566  1.00  0.00    -0.354 N 
ATOM     44  C   UNL A   1      39.318  29.937  30.313  1.00  0.00     0.074 A 
ATOM     45  C   UNL A   1      38.386  30.207  29.240  1.00  0.00     0.031 C 
ATOM     46  C   UNL A   1      37.811  34.403  34.680  1.00  0.00     0.029 A 
ATOM     47  C   UNL A   1      38.846  33.380  34.777  1.00  0.00     0.049 A 
ATOM     48  H   UNL A   1      39.393  31.988  33.327  1.00  0.00     0.167 HD
ATOM     49  C   UNL A   1      40.233  28.939  30.296  1.00  0.00     0.037 A 
ATOM     50  C   UNL A   1      39.637  33.167  35.846  1.00  0.00     0.037 A 
ATOM     51  C   UNL A   1      41.185  28.698  31.347  1.00  0.00     0.049 A 
ATOM     52  C   UNL A   1      40.666  32.072  35.791  1.00  0.00     0.074 A 
ATOM     53  C   UNL A   1      42.205  27.763  31.391  1.00  0.00     0.029 A 
ATOM     54  N   UNL A   1      41.235  29.401  32.542  1.00  0.00    -0.354 N 
ATOM     55  N   UNL A   1      40.917  31.221  34.826  1.00  0.00    -0.248 NA
ATOM     56  C   UNL A   1      41.526  31.911  36.972  1.00  0.00     0.031 C 
ATOM     57  C   UNL A   1      42.849  27.878  32.628  1.00  0.00     0.029 A 
ATOM     58  C   UNL A   1      42.258  28.911  33.337  1.00  0.00     0.049 A 
ATOM     59  H   UNL A   1      40.633  30.140  32.788  1.00  0.00     0.167 HD
ATOM     60  C   UNL A   1      41.977  30.441  35.271  1.00  0.00     0.074 A 
ATOM     61  C   UNL A   1      42.330  30.929  36.587  1.00  0.00     0.031 C 
ATOM     62  C   UNL A   1      42.599  29.414  34.643  1.00  0.00     0.037 A 
BRANCH  49  63
ATOM     63  C   UNL A   1      40.248  28.037  29.097  1.00  0.00     0.064 A 
ATOM     64  C   UNL A   1      39.526  26.834  29.072  1.00  0.00     0.173 A 
ATOM     65  C   UNL A   1      40.979  28.387  27.953  1.00  0.00     0.173 A 
ATOM     66  F   UNL A   1      38.821  26.447  30.146  1.00  0.00    -0.203 F 
ATOM     67  C   UNL A   1      39.564  25.998  27.960  1.00  0.00     0.198 A 
ATOM     68  C   UNL A   1      40.991  27.563  26.830  1.00  0.00     0.198 A 
ATOM     69  F   UNL A   1      41.684  29.529  27.922  1.00  0.00    -0.203 F 
ATOM     70  F   UNL A   1      38.913  24.827  27.981  1.00  0.00    -0.200 F 
ATOM     71  C   UNL A   1      40.292  26.365  26.838  1.00  0.00     0.200 A 
ATOM     72  F   UNL A   1      41.686  27.924  25.742  1.00  0.00    -0.200 F 
ATOM     73  F   UNL A   1      40.327  25.560  25.767  1.00  0.00    -0.200 F 
ENDBRANCH  49  63
BRANCH  50  74
ATOM     74  C   UNL A   1      39.509  34.034  37.044  1.00  0.00     0.064 A 
ATOM     75  C   UNL A   1      38.757  33.618  38.151  1.00  0.00     0.173 A 
ATOM     76  C   UNL A   1      40.139  35.284  37.115  1.00  0.00     0.173 A 
ATOM     77  F   UNL A   1      38.118  32.438  38.121  1.00  0.00    -0.203 F 
ATOM     78  C   UNL A   1      38.626  34.426  39.279  1.00  0.00     0.198 A 
ATOM     79  C   UNL A   1      40.029  36.081  38.253  1.00  0.00     0.198 A 
ATOM     80  F   UNL A   1      40.874  35.724  36.084  1.00  0.00    -0.203 F 
ATOM     81  F   UNL A   1      37.871  34.021  40.308  1.00  0.00    -0.200 F 
ATOM     82  C   UNL A   1      39.268  35.654  39.331  1.00  0.00     0.200 A 
ATOM     83  F   UNL A   1      40.660  37.262  38.305  1.00  0.00    -0.200 F 
ATOM     84  F   UNL A   1      39.148  36.429  40.418  1.00  0.00    -0.200 F 
ENDBRANCH  50  74
BRANCH  62  85
ATOM     85  C   UNL A   1      43.747  28.766  35.360  1.00  0.00     0.064 A 
ATOM     86  C   UNL A   1      45.067  29.198  35.171  1.00  0.00     0.173 A 
ATOM     87  C   UNL A   1      43.516  27.732  36.280  1.00  0.00     0.173 A 
ATOM     88  F   UNL A   1      45.339  30.173  34.291  1.00  0.00    -0.203 F 
ATOM     89  C   UNL A   1      46.118  28.604  35.864  1.00  0.00     0.198 A 
ATOM     90  C   UNL A   1      44.566  27.158  36.989  1.00  0.00     0.198 A 
ATOM     91  F   UNL A   1      42.269  27.287  36.498  1.00  0.00    -0.203 F 
ATOM     92  F   UNL A   1      47.377  29.004  35.638  1.00  0.00    -0.200 F 
ATOM     93  C   UNL A   1      45.866  27.590  36.776  1.00  0.00     0.200 A 
ATOM     94  F   UNL A   1      44.320  26.186  37.878  1.00  0.00    -0.200 F 
ATOM     95  F   UNL A   1      46.879  27.024  37.448  1.00  0.00    -0.200 F 
ENDBRANCH  62  85
ENDBRANCH  36  37
ENDBRANCH  28  31
ENDBRANCH  26  27
ENDBRANCH  25  26
ENDBRANCH  24  25
ENDBRANCH   1  24
TORSDOF 17
ENDMDL
MODEL 2
REMARK VINA RESULT:     -11.4      5.477     10.087
REMARK SMILES CC(C)(C)N(CC(=O)NCCCCNC(=O)c1ccc(-c2c3nc(c(-c4c(F)c(F)c(F)c(F)c4F)c4ccc([nH]4)c(-c4c(F)c(F)c(F)c(F)c4F)c4nc(c(-c5c(F)c(F)c(F)c(F)c5F)c5ccc2[nH]5)C=C4)C=C3)cc1)C(=O)N1CC[C@H](C[NH3+])C1
REMARK SMILES IDX 10 1 9 2 7 3 8 4 6 6 5 7 2 8 1 9 3 10 4 11 80 12 81 13 82 14
REMARK SMILES IDX 83 15 88 16 84 17 85 18 86 19 87 20 11 24 12 25 13 26 14 27
REMARK SMILES IDX 15 28 16 30 17 31 18 32 79 33 19 34 78 35 20 36 21 37 22 38
REMARK SMILES IDX 72 39 23 40 77 41 71 42 73 43 24 44 76 45 70 46 69 47 25 49
REMARK SMILES IDX 57 50 37 51 56 52 38 53 41 54 55 55 74 56 39 57 40 58 54 60
REMARK SMILES IDX 75 61 42 62 26 63 27 64 35 65 28 66 29 67 33 68 36 69 30 70
REMARK SMILES IDX 31 71 34 72 32 73 58 74 59 75 67 76 60 77 61 78 65 79 68 80
REMARK SMILES IDX 62 81 63 82 66 83 64 84 43 85 44 86 52 87 45 88 46 89 50 90
REMARK SMILES IDX 53 91 47 92 48 93 51 94 49 95
REMARK H PARENT 9 5 87 21 87 22 87 23 14 29 73 48 41 59
REMARK Flexibility Score: inf
ROOT
ATOM      1  C   UNL A   1      35.659  20.884  25.301  1.00  0.00     0.116 C 
ENDROOT
BRANCH   1   2
ATOM      2  N   UNL A   1      35.234  21.380  26.584  1.00  0.00    -0.355 N 
ATOM      3  C   UNL A   1      34.562  22.525  26.890  1.00  0.00     0.239 C 
ATOM      4  O   UNL A   1      34.023  22.559  28.004  1.00  0.00    -0.273 OA
ATOM      5  H   UNL A   1      35.462  20.808  27.353  1.00  0.00     0.163 HD
BRANCH   3   6
ATOM      6  C   UNL A   1      34.346  23.691  25.900  1.00  0.00     0.221 C 
BRANCH   6   7
ATOM      7  N   UNL A   1      32.991  24.052  25.433  1.00  0.00    -0.311 N 
BRANCH   7   8
ATOM      8  C   UNL A   1      32.261  23.131  24.459  1.00  0.00     0.037 C 
ATOM      9  C   UNL A   1      31.721  21.813  25.087  1.00  0.00     0.034 C 
ATOM     10  C   UNL A   1      33.157  22.702  23.271  1.00  0.00     0.034 C 
ATOM     11  C   UNL A   1      31.002  23.844  23.901  1.00  0.00     0.034 C 
ENDBRANCH   7   8
BRANCH   7  12
ATOM     12  C   UNL A   1      32.203  24.970  26.162  1.00  0.00     0.320 C 
ATOM     13  O   UNL A   1      31.492  24.629  27.108  1.00  0.00    -0.248 OA
BRANCH  12  14
ATOM     14  N   UNL A   1      32.410  26.313  25.933  1.00  0.00    -0.324 N 
ATOM     15  C   UNL A   1      33.007  26.897  24.749  1.00  0.00     0.122 C 
ATOM     16  C   UNL A   1      31.449  27.273  26.465  1.00  0.00     0.130 C 
ATOM     17  C   UNL A   1      33.181  28.346  25.162  1.00  0.00     0.033 C 
ATOM     18  C   UNL A   1      31.861  28.640  25.888  1.00  0.00     0.065 C 
BRANCH  18  19
ATOM     19  C   UNL A   1      31.952  29.714  26.972  1.00  0.00     0.264 C 
BRANCH  19  20
ATOM     20  N   UNL A   1      33.189  29.611  27.740  1.00  0.00    -0.357 N 
ATOM     21  H   UNL A   1      33.401  30.515  28.163  1.00  0.00     0.344 HD
ATOM     22  H   UNL A   1      33.952  29.339  27.120  1.00  0.00     0.344 HD
ATOM     23  H   UNL A   1      33.077  28.910  28.471  1.00  0.00     0.344 HD
ENDBRANCH  19  20
ENDBRANCH  18  19
ENDBRANCH  12  14
ENDBRANCH   7  12
ENDBRANCH   6   7
ENDBRANCH   3   6
ENDBRANCH   1   2
BRANCH   1  24
ATOM     24  C   UNL A   1      37.099  21.233  24.940  1.00  0.00     0.023 C 
BRANCH  24  25
ATOM     25  C   UNL A   1      38.093  20.078  25.010  1.00  0.00     0.023 C 
BRANCH  25  26
ATOM     26  C   UNL A   1      39.335  20.322  25.861  1.00  0.00     0.116 C 
BRANCH  26  27
ATOM     27  N   UNL A   1      40.300  19.232  25.851  1.00  0.00    -0.352 N 
ATOM     28  C   UNL A   1      41.651  19.269  26.130  1.00  0.00     0.251 C 
ATOM     29  H   UNL A   1      39.940  18.348  25.611  1.00  0.00     0.163 HD
ATOM     30  O   UNL A   1      42.333  18.265  26.044  1.00  0.00    -0.269 OA
BRANCH  28  31
ATOM     31  C   UNL A   1      42.272  20.564  26.482  1.00  0.00     0.039 A 
ATOM     32  C   UNL A   1      42.759  21.374  25.454  1.00  0.00     0.014 A 
ATOM     33  C   UNL A   1      42.305  21.006  27.807  1.00  0.00     0.014 A 
ATOM     34  C   UNL A   1      43.192  22.669  25.744  1.00  0.00     0.010 A 
ATOM     35  C   UNL A   1      42.660  22.321  28.083  1.00  0.00     0.010 A 
ATOM     36  C   UNL A   1      43.096  23.169  27.052  1.00  0.00    -0.014 A 
BRANCH  36  37
ATOM     37  C   UNL A   1      43.428  24.580  27.368  1.00  0.00     0.031 A 
ATOM     38  C   UNL A   1      44.860  25.031  27.379  1.00  0.00     0.074 A 
ATOM     39  C   UNL A   1      42.450  25.429  27.738  1.00  0.00     0.049 A 
ATOM     40  N   UNL A   1      45.364  26.187  27.730  1.00  0.00    -0.248 NA
ATOM     41  C   UNL A   1      45.867  24.035  26.976  1.00  0.00     0.031 C 
ATOM     42  C   UNL A   1      41.027  25.093  27.830  1.00  0.00     0.029 A 
ATOM     43  N   UNL A   1      42.505  26.745  28.123  1.00  0.00    -0.354 N 
ATOM     44  C   UNL A   1      46.740  26.049  27.614  1.00  0.00     0.074 A 
ATOM     45  C   UNL A   1      46.998  24.684  27.212  1.00  0.00     0.031 C 
ATOM     46  C   UNL A   1      40.344  26.180  28.223  1.00  0.00     0.029 A 
ATOM     47  C   UNL A   1      41.281  27.277  28.445  1.00  0.00     0.049 A 
ATOM     48  H   UNL A   1      43.344  27.259  28.164  1.00  0.00     0.167 HD
ATOM     49  C   UNL A   1      47.701  26.983  27.805  1.00  0.00     0.037 A 
ATOM     50  C   UNL A   1      40.952  28.511  28.875  1.00  0.00     0.037 A 
ATOM     51  C   UNL A   1      47.439  28.351  28.167  1.00  0.00     0.049 A 
ATOM     52  C   UNL A   1      42.034  29.540  29.050  1.00  0.00     0.074 A 
ATOM     53  C   UNL A   1      48.336  29.395  28.306  1.00  0.00     0.029 A 
ATOM     54  N   UNL A   1      46.180  28.865  28.443  1.00  0.00    -0.354 N 
ATOM     55  N   UNL A   1      43.327  29.419  28.868  1.00  0.00    -0.248 NA
ATOM     56  C   UNL A   1      41.611  30.878  29.484  1.00  0.00     0.031 C 
ATOM     57  C   UNL A   1      47.625  30.532  28.702  1.00  0.00     0.029 A 
ATOM     58  C   UNL A   1      46.279  30.208  28.769  1.00  0.00     0.049 A 
ATOM     59  H   UNL A   1      45.341  28.352  28.412  1.00  0.00     0.167 HD
ATOM     60  C   UNL A   1      43.869  30.668  29.140  1.00  0.00     0.074 A 
ATOM     61  C   UNL A   1      42.763  31.535  29.487  1.00  0.00     0.031 C 
ATOM     62  C   UNL A   1      45.166  31.058  29.106  1.00  0.00     0.037 A 
BRANCH  49  63
ATOM     63  C   UNL A   1      49.127  26.554  27.619  1.00  0.00     0.064 A 
ATOM     64  C   UNL A   1      49.956  26.263  28.714  1.00  0.00     0.173 A 
ATOM     65  C   UNL A   1      49.666  26.414  26.332  1.00  0.00     0.173 A 
ATOM     66  F   UNL A   1      49.492  26.394  29.966  1.00  0.00    -0.203 F 
ATOM     67  C   UNL A   1      51.282  25.885  28.527  1.00  0.00     0.198 A 
ATOM     68  C   UNL A   1      50.985  26.006  26.148  1.00  0.00     0.198 A 
ATOM     69  F   UNL A   1      48.915  26.675  25.251  1.00  0.00    -0.203 F 
ATOM     70  F   UNL A   1      52.071  25.668  29.589  1.00  0.00    -0.200 F 
ATOM     71  C   UNL A   1      51.794  25.751  27.245  1.00  0.00     0.200 A 
ATOM     72  F   UNL A   1      51.475  25.866  24.909  1.00  0.00    -0.200 F 
ATOM     73  F   UNL A   1      53.071  25.384  27.067  1.00  0.00    -0.200 F 
ENDBRANCH  49  63
BRANCH  50  74
ATOM     74  C   UNL A   1      39.529  28.847  29.135  1.00  0.00     0.064 A 
ATOM     75  C   UNL A   1      38.979  28.691  30.414  1.00  0.00     0.173 A 
ATOM     76  C   UNL A   1      38.697  29.341  28.121  1.00  0.00     0.173 A 
ATOM     77  F   UNL A   1      39.732  28.202  31.411  1.00  0.00    -0.203 F 
ATOM     78  C   UNL A   1      37.644  29.000  30.667  1.00  0.00     0.198 A 
ATOM     79  C   UNL A   1      37.369  29.674  28.380  1.00  0.00     0.198 A 
ATOM     80  F   UNL A   1      39.178  29.514  26.881  1.00  0.00    -0.203 F 
ATOM     81  F   UNL A   1      37.133  28.805  31.890  1.00  0.00    -0.200 F 
ATOM     82  C   UNL A   1      36.842  29.497  29.651  1.00  0.00     0.200 A 
ATOM     83  F   UNL A   1      36.599  30.165  27.399  1.00  0.00    -0.200 F 
ATOM     84  F   UNL A   1      35.559  29.801  29.896  1.00  0.00    -0.200 F 
ENDBRANCH  50  74
BRANCH  62  85
ATOM     85  C   UNL A   1      45.459  32.494  29.424  1.00  0.00     0.064 A 
ATOM     86  C   UNL A   1      45.782  32.906  30.725  1.00  0.00     0.173 A 
ATOM     87  C   UNL A   1      45.459  33.460  28.407  1.00  0.00     0.173 A 
ATOM     88  F   UNL A   1      45.780  32.022  31.734  1.00  0.00    -0.203 F 
ATOM     89  C   UNL A   1      46.077  34.239  31.000  1.00  0.00     0.198 A 
ATOM     90  C   UNL A   1      45.779  34.787  28.680  1.00  0.00     0.198 A 
ATOM     91  F   UNL A   1      45.161  33.115  27.146  1.00  0.00    -0.203 F 
ATOM     92  F   UNL A   1      46.343  34.619  32.257  1.00  0.00    -0.200 F 
ATOM     93  C   UNL A   1      46.082  35.176  29.976  1.00  0.00     0.200 A 
ATOM     94  F   UNL A   1      45.795  35.688  27.690  1.00  0.00    -0.200 F 
ATOM     95  F   UNL A   1      46.373  36.457  30.242  1.00  0.00    -0.200 F 
ENDBRANCH  62  85
ENDBRANCH  36  37
ENDBRANCH  28  31
ENDBRANCH  26  27
ENDBRANCH  25  26
ENDBRANCH  24  25
ENDBRANCH   1  24
TORSDOF 17
ENDMDL
MODEL 3
REMARK VINA RESULT:     -11.4      5.518     10.100
REMARK SMILES CC(C)(C)N(CC(=O)NCCCCNC(=O)c1ccc(-c2c3nc(c(-c4c(F)c(F)c(F)c(F)c4F)c4ccc([nH]4)c(-c4c(F)c(F)c(F)c(F)c4F)c4nc(c(-c5c(F)c(F)c(F)c(F)c5F)c5ccc2[nH]5)C=C4)C=C3)cc1)C(=O)N1CC[C@H](C[NH3+])C1
REMARK SMILES IDX 10 1 9 2 7 3 8 4 6 6 5 7 2 8 1 9 3 10 4 11 80 12 81 13 82 14
REMARK SMILES IDX 83 15 88 16 84 17 85 18 86 19 87 20 11 24 12 25 13 26 14 27
REMARK SMILES IDX 15 28 16 30 17 31 18 32 79 33 19 34 78 35 20 36 21 37 22 38
REMARK SMILES IDX 72 39 23 40 77 41 71 42 73 43 24 44 76 45 70 46 69 47 25 49
REMARK SMILES IDX 57 50 37 51 56 52 38 53 41 54 55 55 74 56 39 57 40 58 54 60
REMARK SMILES IDX 75 61 42 62 26 63 27 64 35 65 28 66 29 67 33 68 36 69 30 70
REMARK SMILES IDX 31 71 34 72 32 73 58 74 59 75 67 76 60 77 61 78 65 79 68 80
REMARK SMILES IDX 62 81 63 82 66 83 64 84 43 85 44 86 52 87 45 88 46 89 50 90
REMARK SMILES IDX 53 91 47 92 48 93 51 94 49 95
REMARK H PARENT 9 5 87 21 87 22 87 23 14 29 73 48 41 59
REMARK Flexibility Score: inf
ROOT
ATOM      1  C   UNL A   1      35.797  21.047  25.251  1.00  0.00     0.116 C 
ENDROOT
BRANCH   1   2
ATOM      2  N   UNL A   1      35.361  21.486  26.552  1.00  0.00    -0.355 N 
ATOM      3  C   UNL A   1      34.604  22.566  26.891  1.00  0.00     0.239 C 
ATOM      4  O   UNL A   1      34.089  22.539  28.017  1.00  0.00    -0.273 OA
ATOM      5  H   UNL A   1      35.654  20.924  27.306  1.00  0.00     0.163 HD
BRANCH   3   6
ATOM      6  C   UNL A   1      34.268  23.724  25.926  1.00  0.00     0.221 C 
BRANCH   6   7
ATOM      7  N   UNL A   1      32.892  23.924  25.424  1.00  0.00    -0.311 N 
BRANCH   7   8
ATOM      8  C   UNL A   1      32.319  22.953  24.395  1.00  0.00     0.037 C 
ATOM      9  C   UNL A   1      31.936  21.554  24.960  1.00  0.00     0.034 C 
ATOM     10  C   UNL A   1      33.300  22.688  23.227  1.00  0.00     0.034 C 
ATOM     11  C   UNL A   1      30.996  23.518  23.816  1.00  0.00     0.034 C 
ENDBRANCH   7   8
BRANCH   7  12
ATOM     12  C   UNL A   1      31.969  24.703  26.156  1.00  0.00     0.320 C 
ATOM     13  O   UNL A   1      31.422  24.295  27.181  1.00  0.00    -0.248 OA
BRANCH  12  14
ATOM     14  N   UNL A   1      31.849  26.035  25.820  1.00  0.00    -0.324 N 
ATOM     15  C   UNL A   1      30.655  26.686  25.320  1.00  0.00     0.122 C 
ATOM     16  C   UNL A   1      32.609  27.021  26.579  1.00  0.00     0.130 C 
ATOM     17  C   UNL A   1      31.182  28.051  24.919  1.00  0.00     0.033 C 
ATOM     18  C   UNL A   1      32.119  28.395  26.085  1.00  0.00     0.065 C 
BRANCH  18  19
ATOM     19  C   UNL A   1      33.281  29.320  25.721  1.00  0.00     0.264 C 
BRANCH  19  20
ATOM     20  N   UNL A   1      33.754  29.092  24.360  1.00  0.00    -0.357 N 
ATOM     21  H   UNL A   1      33.339  29.784  23.736  1.00  0.00     0.344 HD
ATOM     22  H   UNL A   1      33.482  28.156  24.058  1.00  0.00     0.344 HD
ATOM     23  H   UNL A   1      34.769  29.176  24.335  1.00  0.00     0.344 HD
ENDBRANCH  19  20
ENDBRANCH  18  19
ENDBRANCH  12  14
ENDBRANCH   7  12
ENDBRANCH   6   7
ENDBRANCH   3   6
ENDBRANCH   1   2
BRANCH   1  24
ATOM     24  C   UNL A   1      37.266  21.327  24.955  1.00  0.00     0.023 C 
BRANCH  24  25
ATOM     25  C   UNL A   1      38.197  20.121  25.043  1.00  0.00     0.023 C 
BRANCH  25  26
ATOM     26  C   UNL A   1      39.381  20.266  25.991  1.00  0.00     0.116 C 
BRANCH  26  27
ATOM     27  N   UNL A   1      40.364  19.195  25.899  1.00  0.00    -0.352 N 
ATOM     28  C   UNL A   1      41.728  19.251  26.106  1.00  0.00     0.251 C 
ATOM     29  H   UNL A   1      40.008  18.311  25.657  1.00  0.00     0.163 HD
ATOM     30  O   UNL A   1      42.423  18.264  25.956  1.00  0.00    -0.269 OA
BRANCH  28  31
ATOM     31  C   UNL A   1      42.343  20.550  26.458  1.00  0.00     0.039 A 
ATOM     32  C   UNL A   1      42.823  21.363  25.429  1.00  0.00     0.014 A 
ATOM     33  C   UNL A   1      42.379  20.989  27.783  1.00  0.00     0.014 A 
ATOM     34  C   UNL A   1      43.251  22.660  25.719  1.00  0.00     0.010 A 
ATOM     35  C   UNL A   1      42.728  22.306  28.060  1.00  0.00     0.010 A 
ATOM     36  C   UNL A   1      43.157  23.157  27.029  1.00  0.00    -0.014 A 
BRANCH  36  37
ATOM     37  C   UNL A   1      43.483  24.570  27.345  1.00  0.00     0.031 A 
ATOM     38  C   UNL A   1      44.914  25.025  27.362  1.00  0.00     0.074 A 
ATOM     39  C   UNL A   1      42.501  25.415  27.711  1.00  0.00     0.049 A 
ATOM     40  N   UNL A   1      45.412  26.183  27.715  1.00  0.00    -0.248 NA
ATOM     41  C   UNL A   1      45.925  24.032  26.964  1.00  0.00     0.031 C 
ATOM     42  C   UNL A   1      41.078  25.076  27.796  1.00  0.00     0.029 A 
ATOM     43  N   UNL A   1      42.550  26.732  28.095  1.00  0.00    -0.354 N 
ATOM     44  C   UNL A   1      46.789  26.049  27.606  1.00  0.00     0.074 A 
ATOM     45  C   UNL A   1      47.053  24.684  27.205  1.00  0.00     0.031 C 
ATOM     46  C   UNL A   1      40.391  26.160  28.186  1.00  0.00     0.029 A 
ATOM     47  C   UNL A   1      41.322  27.260  28.412  1.00  0.00     0.049 A 
ATOM     48  H   UNL A   1      43.387  27.249  28.139  1.00  0.00     0.167 HD
ATOM     49  C   UNL A   1      47.747  26.986  27.800  1.00  0.00     0.037 A 
ATOM     50  C   UNL A   1      40.988  28.493  28.840  1.00  0.00     0.037 A 
ATOM     51  C   UNL A   1      47.478  28.353  28.160  1.00  0.00     0.049 A 
ATOM     52  C   UNL A   1      42.066  29.525  29.019  1.00  0.00     0.074 A 
ATOM     53  C   UNL A   1      48.372  29.400  28.303  1.00  0.00     0.029 A 
ATOM     54  N   UNL A   1      46.217  28.863  28.431  1.00  0.00    -0.354 N 
ATOM     55  N   UNL A   1      43.360  29.408  28.843  1.00  0.00    -0.248 NA
ATOM     56  C   UNL A   1      41.637  30.863  29.451  1.00  0.00     0.031 C 
ATOM     57  C   UNL A   1      47.655  30.535  28.696  1.00  0.00     0.029 A 
ATOM     58  C   UNL A   1      46.310  30.207  28.757  1.00  0.00     0.049 A 
ATOM     59  H   UNL A   1      45.379  28.348  28.397  1.00  0.00     0.167 HD
ATOM     60  C   UNL A   1      43.897  30.659  29.117  1.00  0.00     0.074 A 
ATOM     61  C   UNL A   1      42.787  31.523  29.459  1.00  0.00     0.031 C 
ATOM     62  C   UNL A   1      45.193  31.054  29.089  1.00  0.00     0.037 A 
BRANCH  49  63
ATOM     63  C   UNL A   1      49.175  26.561  27.620  1.00  0.00     0.064 A 
ATOM     64  C   UNL A   1      49.749  26.435  26.346  1.00  0.00     0.173 A 
ATOM     65  C   UNL A   1      49.983  26.294  28.734  1.00  0.00     0.173 A 
ATOM     66  F   UNL A   1      49.013  26.667  25.248  1.00  0.00    -0.203 F 
ATOM     67  C   UNL A   1      51.069  26.022  26.193  1.00  0.00     0.198 A 
ATOM     68  C   UNL A   1      51.313  25.909  28.578  1.00  0.00     0.198 A 
ATOM     69  F   UNL A   1      49.485  26.403  29.975  1.00  0.00    -0.203 F 
ATOM     70  F   UNL A   1      51.579  25.853  24.965  1.00  0.00    -0.200 F 
ATOM     71  C   UNL A   1      51.852  25.764  27.308  1.00  0.00     0.200 A 
ATOM     72  F   UNL A   1      52.072  25.671  29.657  1.00  0.00    -0.200 F 
ATOM     73  F   UNL A   1      53.123  25.368  27.159  1.00  0.00    -0.200 F 
ENDBRANCH  49  63
BRANCH  50  74
ATOM     74  C   UNL A   1      39.563  28.825  29.093  1.00  0.00     0.064 A 
ATOM     75  C   UNL A   1      39.008  28.667  30.370  1.00  0.00     0.173 A 
ATOM     76  C   UNL A   1      38.734  29.316  28.075  1.00  0.00     0.173 A 
ATOM     77  F   UNL A   1      39.758  28.181  31.371  1.00  0.00    -0.203 F 
ATOM     78  C   UNL A   1      37.671  28.972  30.617  1.00  0.00     0.198 A 
ATOM     79  C   UNL A   1      37.403  29.644  28.329  1.00  0.00     0.198 A 
ATOM     80  F   UNL A   1      39.219  29.490  26.838  1.00  0.00    -0.203 F 
ATOM     81  F   UNL A   1      37.155  28.777  31.838  1.00  0.00    -0.200 F 
ATOM     82  C   UNL A   1      36.871  29.467  29.598  1.00  0.00     0.200 A 
ATOM     83  F   UNL A   1      36.636  30.133  27.345  1.00  0.00    -0.200 F 
ATOM     84  F   UNL A   1      35.587  29.767  29.837  1.00  0.00    -0.200 F 
ENDBRANCH  50  74
BRANCH  62  85
ATOM     85  C   UNL A   1      45.480  32.491  29.407  1.00  0.00     0.064 A 
ATOM     86  C   UNL A   1      45.450  33.482  28.416  1.00  0.00     0.173 A 
ATOM     87  C   UNL A   1      45.744  32.886  30.727  1.00  0.00     0.173 A 
ATOM     88  F   UNL A   1      45.217  33.151  27.137  1.00  0.00    -0.203 F 
ATOM     89  C   UNL A   1      45.693  34.816  28.732  1.00  0.00     0.198 A 
ATOM     90  C   UNL A   1      45.961  34.223  31.044  1.00  0.00     0.198 A 
ATOM     91  F   UNL A   1      45.779  31.975  31.711  1.00  0.00    -0.203 F 
ATOM     92  F   UNL A   1      45.700  35.742  27.764  1.00  0.00    -0.200 F 
ATOM     93  C   UNL A   1      45.941  35.185  30.046  1.00  0.00     0.200 A 
ATOM     94  F   UNL A   1      46.189  34.581  32.315  1.00  0.00    -0.200 F 
ATOM     95  F   UNL A   1      46.167  36.471  30.350  1.00  0.00    -0.200 F 
ENDBRANCH  62  85
ENDBRANCH  36  37
ENDBRANCH  28  31
ENDBRANCH  26  27
ENDBRANCH  25  26
ENDBRANCH  24  25
ENDBRANCH   1  24
TORSDOF 17
ENDMDL
