MODEL 1
REMARK VINA RESULT:     -11.9      0.000      0.000
REMARK SMILES C#CCN(CC(=O)NCCCCNC(=O)c1ccc(-c2c3nc(c(-c4c(F)c(F)c(F)c(F)c4F)c4ccc([nH]4)c(-c4c(F)c(F)c(F)c(F)c4F)c4nc(c(-c5c(F)c(F)c(F)c(F)c5F)c5ccc2[nH]5)C=C4)C=C3)cc1)C(=O)Nc1cc(Br)ccc1C
REMARK SMILES IDX 10 1 9 2 8 3 6 4 7 5 5 7 4 8 3 9 2 10 1 11 79 12 80 13 81 14
REMARK SMILES IDX 82 16 83 17 88 18 84 19 87 20 89 21 85 22 86 23 11 24 12 25
REMARK SMILES IDX 13 26 14 27 15 29 16 30 17 31 78 32 18 33 77 34 19 35 20 36
REMARK SMILES IDX 21 37 71 38 22 39 76 40 70 41 72 42 23 43 75 44 69 45 68 46
REMARK SMILES IDX 24 48 56 49 36 50 55 51 37 52 40 53 54 54 73 55 38 56 39 57
REMARK SMILES IDX 53 59 74 60 41 61 25 62 26 63 34 64 27 65 28 66 32 67 35 68
REMARK SMILES IDX 29 69 30 70 33 71 31 72 57 73 58 74 66 75 59 76 60 77 64 78
REMARK SMILES IDX 67 79 61 80 62 81 65 82 63 83 42 84 43 85 51 86 44 87 45 88
REMARK SMILES IDX 49 89 52 90 46 91 47 92 50 93 48 94
REMARK H PARENT 8 6 81 15 13 28 72 47 40 58
REMARK Flexibility Score: inf
ROOT
ATOM      1  C   UNL A   1      31.772  30.487  26.674  1.00  0.00     0.023 C 
ENDROOT
BRANCH   1   2
ATOM      2  C   UNL A   1      31.478  29.811  25.335  1.00  0.00     0.116 C 
BRANCH   2   3
ATOM      3  N   UNL A   1      32.645  29.481  24.546  1.00  0.00    -0.355 N 
ATOM      4  C   UNL A   1      32.806  28.813  23.370  1.00  0.00     0.239 C 
ATOM      5  O   UNL A   1      33.853  29.074  22.760  1.00  0.00    -0.273 OA
ATOM      6  H   UNL A   1      33.491  29.804  24.936  1.00  0.00     0.163 HD
BRANCH   4   7
ATOM      7  C   UNL A   1      31.735  27.924  22.698  1.00  0.00     0.222 C 
BRANCH   7   8
ATOM      8  N   UNL A   1      31.950  26.477  22.625  1.00  0.00    -0.304 N 
BRANCH   8   9
ATOM      9  C   UNL A   1      30.835  25.664  23.075  1.00  0.00     0.211 C 
BRANCH   9  10
ATOM     10  C   UNL A   1      30.497  25.861  24.544  1.00  0.00    -0.085 C 
ATOM     11  C   UNL A   1      30.207  26.031  25.804  1.00  0.00     0.006 C 
ENDBRANCH   9  10
ENDBRANCH   8   9
BRANCH   8  12
ATOM     12  C   UNL A   1      33.018  25.790  22.080  1.00  0.00     0.323 C 
ATOM     13  O   UNL A   1      33.336  25.930  20.894  1.00  0.00    -0.248 OA
ATOM     14  N   UNL A   1      33.889  25.091  22.853  1.00  0.00    -0.307 N 
ATOM     15  H   UNL A   1      34.823  25.164  22.550  1.00  0.00     0.171 HD
BRANCH  14  16
ATOM     16  C   UNL A   1      33.738  24.291  23.989  1.00  0.00     0.046 A 
ATOM     17  C   UNL A   1      33.295  22.980  23.779  1.00  0.00     0.042 A 
ATOM     18  C   UNL A   1      33.931  24.763  25.296  1.00  0.00    -0.027 A 
ATOM     19  C   UNL A   1      33.204  22.096  24.851  1.00  0.00     0.020 A 
ATOM     20  C   UNL A   1      33.863  23.848  26.360  1.00  0.00     0.007 A 
ATOM     21  C   UNL A   1      34.016  26.228  25.616  1.00  0.00     0.046 C 
ATOM     22  Br  UNL A   1      32.648  20.314  24.555  1.00  0.00    -0.051 Br
ATOM     23  C   UNL A   1      33.527  22.513  26.136  1.00  0.00     0.016 A 
ENDBRANCH  14  16
ENDBRANCH   8  12
ENDBRANCH   7   8
ENDBRANCH   4   7
ENDBRANCH   2   3
ENDBRANCH   1   2
BRANCH   1  24
ATOM     24  C   UNL A   1      31.563  31.998  26.729  1.00  0.00     0.023 C 
BRANCH  24  25
ATOM     25  C   UNL A   1      32.732  32.811  27.260  1.00  0.00     0.116 C 
BRANCH  25  26
ATOM     26  N   UNL A   1      32.375  34.161  27.660  1.00  0.00    -0.352 N 
ATOM     27  C   UNL A   1      32.975  34.974  28.590  1.00  0.00     0.251 C 
ATOM     28  H   UNL A   1      31.595  34.547  27.201  1.00  0.00     0.163 HD
ATOM     29  O   UNL A   1      32.503  36.081  28.833  1.00  0.00    -0.269 OA
BRANCH  27  30
ATOM     30  C   UNL A   1      34.154  34.492  29.339  1.00  0.00     0.039 A 
ATOM     31  C   UNL A   1      33.947  33.878  30.577  1.00  0.00     0.014 A 
ATOM     32  C   UNL A   1      35.446  34.614  28.822  1.00  0.00     0.014 A 
ATOM     33  C   UNL A   1      35.026  33.323  31.263  1.00  0.00     0.010 A 
ATOM     34  C   UNL A   1      36.511  33.993  29.469  1.00  0.00     0.010 A 
ATOM     35  C   UNL A   1      36.311  33.341  30.695  1.00  0.00    -0.014 A 
BRANCH  35  36
ATOM     36  C   UNL A   1      37.455  32.681  31.370  1.00  0.00     0.031 A 
ATOM     37  C   UNL A   1      38.171  31.543  30.699  1.00  0.00     0.074 A 
ATOM     38  C   UNL A   1      37.807  33.066  32.610  1.00  0.00     0.049 A 
ATOM     39  N   UNL A   1      39.149  30.799  31.150  1.00  0.00    -0.248 NA
ATOM     40  C   UNL A   1      37.707  31.172  29.352  1.00  0.00     0.031 C 
ATOM     41  C   UNL A   1      37.155  34.126  33.384  1.00  0.00     0.029 A 
ATOM     42  N   UNL A   1      38.794  32.607  33.445  1.00  0.00    -0.354 N 
ATOM     43  C   UNL A   1      39.406  29.868  30.153  1.00  0.00     0.074 A 
ATOM     44  C   UNL A   1      38.448  30.106  29.095  1.00  0.00     0.031 C 
ATOM     45  C   UNL A   1      37.773  34.248  34.569  1.00  0.00     0.029 A 
ATOM     46  C   UNL A   1      38.840  33.256  34.655  1.00  0.00     0.049 A 
ATOM     47  H   UNL A   1      39.412  31.881  33.200  1.00  0.00     0.167 HD
ATOM     48  C   UNL A   1      40.370  28.918  30.114  1.00  0.00     0.037 A 
ATOM     49  C   UNL A   1      39.648  33.067  35.715  1.00  0.00     0.037 A 
ATOM     50  C   UNL A   1      41.339  28.705  31.157  1.00  0.00     0.049 A 
ATOM     51  C   UNL A   1      40.714  32.007  35.643  1.00  0.00     0.074 A 
ATOM     52  C   UNL A   1      42.393  27.811  31.186  1.00  0.00     0.029 A 
ATOM     53  N   UNL A   1      41.368  29.399  32.359  1.00  0.00    -0.354 N 
ATOM     54  N   UNL A   1      40.993  31.178  34.665  1.00  0.00    -0.248 NA
ATOM     55  C   UNL A   1      41.581  31.859  36.820  1.00  0.00     0.031 C 
ATOM     56  C   UNL A   1      43.035  27.932  32.423  1.00  0.00     0.029 A 
ATOM     57  C   UNL A   1      42.412  28.937  33.145  1.00  0.00     0.049 A 
ATOM     58  H   UNL A   1      40.741  30.112  32.614  1.00  0.00     0.167 HD
ATOM     59  C   UNL A   1      42.082  30.434  35.096  1.00  0.00     0.074 A 
ATOM     60  C   UNL A   1      42.424  30.918  36.417  1.00  0.00     0.031 C 
ATOM     61  C   UNL A   1      42.741  29.438  34.454  1.00  0.00     0.037 A 
BRANCH  48  62
ATOM     62  C   UNL A   1      40.429  28.039  28.899  1.00  0.00     0.064 A 
ATOM     63  C   UNL A   1      39.725  26.826  28.834  1.00  0.00     0.173 A 
ATOM     64  C   UNL A   1      41.166  28.430  27.771  1.00  0.00     0.173 A 
ATOM     65  F   UNL A   1      39.015  26.401  29.889  1.00  0.00    -0.203 F 
ATOM     66  C   UNL A   1      39.779  26.026  27.696  1.00  0.00     0.198 A 
ATOM     67  C   UNL A   1      41.194  27.641  26.625  1.00  0.00     0.198 A 
ATOM     68  F   UNL A   1      41.854  29.582  27.780  1.00  0.00    -0.203 F 
ATOM     69  F   UNL A   1      39.138  24.849  27.676  1.00  0.00    -0.200 F 
ATOM     70  C   UNL A   1      40.508  26.436  26.591  1.00  0.00     0.200 A 
ATOM     71  F   UNL A   1      41.889  28.046  25.552  1.00  0.00    -0.200 F 
ATOM     72  F   UNL A   1      40.554  25.668  25.494  1.00  0.00    -0.200 F 
ENDBRANCH  48  62
BRANCH  49  73
ATOM     73  C   UNL A   1      39.501  33.917  36.924  1.00  0.00     0.064 A 
ATOM     74  C   UNL A   1      38.770  33.469  38.034  1.00  0.00     0.173 A 
ATOM     75  C   UNL A   1      40.079  35.193  36.995  1.00  0.00     0.173 A 
ATOM     76  F   UNL A   1      38.182  32.265  38.005  1.00  0.00    -0.203 F 
ATOM     77  C   UNL A   1      38.604  34.274  39.159  1.00  0.00     0.198 A 
ATOM     78  C   UNL A   1      39.935  35.985  38.132  1.00  0.00     0.198 A 
ATOM     79  F   UNL A   1      40.792  35.666  35.962  1.00  0.00    -0.203 F 
ATOM     80  F   UNL A   1      37.860  33.839  40.186  1.00  0.00    -0.200 F 
ATOM     81  C   UNL A   1      39.191  35.529  39.210  1.00  0.00     0.200 A 
ATOM     82  F   UNL A   1      40.516  37.193  38.182  1.00  0.00    -0.200 F 
ATOM     83  F   UNL A   1      39.033  36.302  40.293  1.00  0.00    -0.200 F 
ENDBRANCH  49  73
BRANCH  61  84
ATOM     84  C   UNL A   1      43.919  28.829  35.157  1.00  0.00     0.064 A 
ATOM     85  C   UNL A   1      43.776  27.728  36.014  1.00  0.00     0.173 A 
ATOM     86  C   UNL A   1      45.211  29.330  34.939  1.00  0.00     0.173 A 
ATOM     87  F   UNL A   1      42.559  27.222  36.267  1.00  0.00    -0.203 F 
ATOM     88  C   UNL A   1      44.882  27.165  36.645  1.00  0.00     0.198 A 
ATOM     89  C   UNL A   1      46.318  28.746  35.549  1.00  0.00     0.198 A 
ATOM     90  F   UNL A   1      45.402  30.377  34.123  1.00  0.00    -0.203 F 
ATOM     91  F   UNL A   1      44.717  26.143  37.497  1.00  0.00    -0.200 F 
ATOM     92  C   UNL A   1      46.151  27.670  36.407  1.00  0.00     0.200 A 
ATOM     93  F   UNL A   1      47.545  29.226  35.306  1.00  0.00    -0.200 F 
ATOM     94  F   UNL A   1      47.215  27.122  37.010  1.00  0.00    -0.200 F 
ENDBRANCH  61  84
ENDBRANCH  35  36
ENDBRANCH  27  30
ENDBRANCH  25  26
ENDBRANCH  24  25
ENDBRANCH   1  24
TORSDOF 16
ENDMDL
MODEL 2
REMARK VINA RESULT:     -11.9      0.517      7.329
REMARK SMILES C#CCN(CC(=O)NCCCCNC(=O)c1ccc(-c2c3nc(c(-c4c(F)c(F)c(F)c(F)c4F)c4ccc([nH]4)c(-c4c(F)c(F)c(F)c(F)c4F)c4nc(c(-c5c(F)c(F)c(F)c(F)c5F)c5ccc2[nH]5)C=C4)C=C3)cc1)C(=O)Nc1cc(Br)ccc1C
REMARK SMILES IDX 10 1 9 2 8 3 6 4 7 5 5 7 4 8 3 9 2 10 1 11 79 12 80 13 81 14
REMARK SMILES IDX 82 16 83 17 88 18 84 19 87 20 89 21 85 22 86 23 11 24 12 25
REMARK SMILES IDX 13 26 14 27 15 29 16 30 17 31 78 32 18 33 77 34 19 35 20 36
REMARK SMILES IDX 21 37 71 38 22 39 76 40 70 41 72 42 23 43 75 44 69 45 68 46
REMARK SMILES IDX 24 48 56 49 36 50 55 51 37 52 40 53 54 54 73 55 38 56 39 57
REMARK SMILES IDX 53 59 74 60 41 61 25 62 26 63 34 64 27 65 28 66 32 67 35 68
REMARK SMILES IDX 29 69 30 70 33 71 31 72 57 73 58 74 66 75 59 76 60 77 64 78
REMARK SMILES IDX 67 79 61 80 62 81 65 82 63 83 42 84 43 85 51 86 44 87 45 88
REMARK SMILES IDX 49 89 52 90 46 91 47 92 50 93 48 94
REMARK H PARENT 8 6 81 15 13 28 72 47 40 58
REMARK Flexibility Score: inf
ROOT
ATOM      1  C   UNL A   1      31.683  30.536  26.627  1.00  0.00     0.023 C 
ENDROOT
BRANCH   1   2
ATOM      2  C   UNL A   1      31.425  29.924  25.250  1.00  0.00     0.116 C 
BRANCH   2   3
ATOM      3  N   UNL A   1      32.612  29.546  24.515  1.00  0.00    -0.355 N 
ATOM      4  C   UNL A   1      32.801  28.834  23.370  1.00  0.00     0.239 C 
ATOM      5  O   UNL A   1      33.873  29.055  22.788  1.00  0.00    -0.273 OA
ATOM      6  H   UNL A   1      33.449  29.869  24.923  1.00  0.00     0.163 HD
BRANCH   4   7
ATOM      7  C   UNL A   1      31.738  27.940  22.693  1.00  0.00     0.222 C 
BRANCH   7   8
ATOM      8  N   UNL A   1      31.957  26.492  22.629  1.00  0.00    -0.304 N 
BRANCH   8   9
ATOM      9  C   UNL A   1      30.850  25.680  23.101  1.00  0.00     0.211 C 
BRANCH   9  10
ATOM     10  C   UNL A   1      30.516  25.906  24.567  1.00  0.00    -0.085 C 
ATOM     11  C   UNL A   1      30.231  26.101  25.824  1.00  0.00     0.006 C 
ENDBRANCH   9  10
ENDBRANCH   8   9
BRANCH   8  12
ATOM     12  C   UNL A   1      33.019  25.804  22.075  1.00  0.00     0.323 C 
ATOM     13  O   UNL A   1      33.331  25.948  20.888  1.00  0.00    -0.248 OA
ATOM     14  N   UNL A   1      33.891  25.098  22.840  1.00  0.00    -0.307 N 
ATOM     15  H   UNL A   1      34.823  25.168  22.533  1.00  0.00     0.171 HD
BRANCH  14  16
ATOM     16  C   UNL A   1      33.741  24.293  23.973  1.00  0.00     0.046 A 
ATOM     17  C   UNL A   1      33.290  22.985  23.760  1.00  0.00     0.042 A 
ATOM     18  C   UNL A   1      33.946  24.756  25.282  1.00  0.00    -0.027 A 
ATOM     19  C   UNL A   1      33.201  22.096  24.828  1.00  0.00     0.020 A 
ATOM     20  C   UNL A   1      33.879  23.837  26.341  1.00  0.00     0.007 A 
ATOM     21  C   UNL A   1      34.040  26.220  25.608  1.00  0.00     0.046 C 
ATOM     22  Br  UNL A   1      32.633  20.318  24.526  1.00  0.00    -0.051 Br
ATOM     23  C   UNL A   1      33.534  22.505  26.113  1.00  0.00     0.016 A 
ENDBRANCH  14  16
ENDBRANCH   8  12
ENDBRANCH   7   8
ENDBRANCH   4   7
ENDBRANCH   2   3
ENDBRANCH   1   2
BRANCH   1  24
ATOM     24  C   UNL A   1      31.468  32.042  26.749  1.00  0.00     0.023 C 
BRANCH  24  25
ATOM     25  C   UNL A   1      32.690  32.858  27.135  1.00  0.00     0.116 C 
BRANCH  25  26
ATOM     26  N   UNL A   1      32.376  34.188  27.627  1.00  0.00    -0.352 N 
ATOM     27  C   UNL A   1      33.005  34.920  28.605  1.00  0.00     0.251 C 
ATOM     28  H   UNL A   1      31.604  34.627  27.201  1.00  0.00     0.163 HD
ATOM     29  O   UNL A   1      32.569  36.022  28.924  1.00  0.00    -0.269 OA
BRANCH  27  30
ATOM     30  C   UNL A   1      34.175  34.355  29.310  1.00  0.00     0.039 A 
ATOM     31  C   UNL A   1      33.946  33.519  30.406  1.00  0.00     0.014 A 
ATOM     32  C   UNL A   1      35.479  34.616  28.885  1.00  0.00     0.014 A 
ATOM     33  C   UNL A   1      35.021  32.889  31.032  1.00  0.00     0.010 A 
ATOM     34  C   UNL A   1      36.544  33.929  29.460  1.00  0.00     0.010 A 
ATOM     35  C   UNL A   1      36.325  33.058  30.538  1.00  0.00    -0.014 A 
BRANCH  35  36
ATOM     36  C   UNL A   1      37.470  32.329  31.137  1.00  0.00     0.031 A 
ATOM     37  C   UNL A   1      37.970  32.704  32.503  1.00  0.00     0.074 A 
ATOM     38  C   UNL A   1      38.095  31.374  30.423  1.00  0.00     0.049 A 
ATOM     39  N   UNL A   1      38.993  32.230  33.168  1.00  0.00    -0.248 NA
ATOM     40  C   UNL A   1      37.241  33.773  33.204  1.00  0.00     0.031 C 
ATOM     41  C   UNL A   1      37.733  30.957  29.067  1.00  0.00     0.029 A 
ATOM     42  N   UNL A   1      39.174  30.586  30.734  1.00  0.00    -0.354 N 
ATOM     43  C   UNL A   1      39.038  32.951  34.354  1.00  0.00     0.074 A 
ATOM     44  C   UNL A   1      37.974  33.929  34.296  1.00  0.00     0.031 C 
ATOM     45  C   UNL A   1      38.560  29.977  28.672  1.00  0.00     0.029 A 
ATOM     46  C   UNL A   1      39.531  29.719  29.730  1.00  0.00     0.049 A 
ATOM     47  H   UNL A   1      39.647  30.636  31.596  1.00  0.00     0.167 HD
ATOM     48  C   UNL A   1      39.877  32.793  35.405  1.00  0.00     0.037 A 
ATOM     49  C   UNL A   1      40.534  28.822  29.670  1.00  0.00     0.037 A 
ATOM     50  C   UNL A   1      40.915  31.799  35.470  1.00  0.00     0.049 A 
ATOM     51  C   UNL A   1      41.449  28.665  30.855  1.00  0.00     0.074 A 
ATOM     52  C   UNL A   1      41.777  31.518  36.515  1.00  0.00     0.029 A 
ATOM     53  N   UNL A   1      41.233  30.923  34.442  1.00  0.00    -0.354 N 
ATOM     54  N   UNL A   1      41.438  29.304  31.999  1.00  0.00    -0.248 NA
ATOM     55  C   UNL A   1      42.511  27.656  30.741  1.00  0.00     0.031 C 
ATOM     56  C   UNL A   1      42.644  30.500  36.104  1.00  0.00     0.029 A 
ATOM     57  C   UNL A   1      42.291  30.113  34.822  1.00  0.00     0.049 A 
ATOM     58  H   UNL A   1      40.774  30.882  33.573  1.00  0.00     0.167 HD
ATOM     59  C   UNL A   1      42.468  28.758  32.751  1.00  0.00     0.074 A 
ATOM     60  C   UNL A   1      43.075  27.724  31.939  1.00  0.00     0.031 C 
ATOM     61  C   UNL A   1      42.876  29.083  34.003  1.00  0.00     0.037 A 
BRANCH  48  62
ATOM     62  C   UNL A   1      39.700  33.715  36.577  1.00  0.00     0.064 A 
ATOM     63  C   UNL A   1      38.884  33.370  37.667  1.00  0.00     0.173 A 
ATOM     64  C   UNL A   1      40.383  34.938  36.631  1.00  0.00     0.173 A 
ATOM     65  F   UNL A   1      38.200  32.217  37.659  1.00  0.00    -0.203 F 
ATOM     66  C   UNL A   1      38.738  34.230  38.752  1.00  0.00     0.198 A 
ATOM     67  C   UNL A   1      40.258  35.781  37.732  1.00  0.00     0.198 A 
ATOM     68  F   UNL A   1      41.179  35.314  35.618  1.00  0.00    -0.203 F 
ATOM     69  F   UNL A   1      37.916  33.902  39.758  1.00  0.00    -0.200 F 
ATOM     70  C   UNL A   1      39.430  35.431  38.787  1.00  0.00     0.200 A 
ATOM     71  F   UNL A   1      40.937  36.937  37.769  1.00  0.00    -0.200 F 
ATOM     72  F   UNL A   1      39.294  36.254  39.836  1.00  0.00    -0.200 F 
ENDBRANCH  48  62
BRANCH  49  73
ATOM     73  C   UNL A   1      40.711  27.984  28.456  1.00  0.00     0.064 A 
ATOM     74  C   UNL A   1      40.106  26.724  28.357  1.00  0.00     0.173 A 
ATOM     75  C   UNL A   1      41.490  28.420  27.374  1.00  0.00     0.173 A 
ATOM     76  F   UNL A   1      39.367  26.255  29.374  1.00  0.00    -0.203 F 
ATOM     77  C   UNL A   1      40.292  25.921  27.234  1.00  0.00     0.198 A 
ATOM     78  C   UNL A   1      41.653  27.628  26.240  1.00  0.00     0.198 A 
ATOM     79  F   UNL A   1      42.087  29.621  27.416  1.00  0.00    -0.203 F 
ATOM     80  F   UNL A   1      39.741  24.701  27.187  1.00  0.00    -0.200 F 
ATOM     81  C   UNL A   1      41.061  26.376  26.173  1.00  0.00     0.200 A 
ATOM     82  F   UNL A   1      42.386  28.078  25.211  1.00  0.00    -0.200 F 
ATOM     83  F   UNL A   1      41.238  25.605  25.092  1.00  0.00    -0.200 F 
ENDBRANCH  49  73
BRANCH  61  84
ATOM     84  C   UNL A   1      44.010  28.290  34.584  1.00  0.00     0.064 A 
ATOM     85  C   UNL A   1      45.340  28.720  34.474  1.00  0.00     0.173 A 
ATOM     86  C   UNL A   1      43.756  27.106  35.293  1.00  0.00     0.173 A 
ATOM     87  F   UNL A   1      45.635  29.837  33.793  1.00  0.00    -0.203 F 
ATOM     88  C   UNL A   1      46.379  27.980  35.034  1.00  0.00     0.198 A 
ATOM     89  C   UNL A   1      44.795  26.385  35.876  1.00  0.00     0.198 A 
ATOM     90  F   UNL A   1      42.501  26.657  35.432  1.00  0.00    -0.203 F 
ATOM     91  F   UNL A   1      47.647  28.384  34.877  1.00  0.00    -0.200 F 
ATOM     92  C   UNL A   1      46.104  26.818  35.739  1.00  0.00     0.200 A 
ATOM     93  F   UNL A   1      44.526  25.270  36.569  1.00  0.00    -0.200 F 
ATOM     94  F   UNL A   1      47.104  26.111  36.283  1.00  0.00    -0.200 F 
ENDBRANCH  61  84
ENDBRANCH  35  36
ENDBRANCH  27  30
ENDBRANCH  25  26
ENDBRANCH  24  25
ENDBRANCH   1  24
TORSDOF 16
ENDMDL
MODEL 3
REMARK VINA RESULT:     -11.8      0.896      2.005
REMARK SMILES C#CCN(CC(=O)NCCCCNC(=O)c1ccc(-c2c3nc(c(-c4c(F)c(F)c(F)c(F)c4F)c4ccc([nH]4)c(-c4c(F)c(F)c(F)c(F)c4F)c4nc(c(-c5c(F)c(F)c(F)c(F)c5F)c5ccc2[nH]5)C=C4)C=C3)cc1)C(=O)Nc1cc(Br)ccc1C
REMARK SMILES IDX 10 1 9 2 8 3 6 4 7 5 5 7 4 8 3 9 2 10 1 11 79 12 80 13 81 14
REMARK SMILES IDX 82 16 83 17 88 18 84 19 87 20 89 21 85 22 86 23 11 24 12 25
REMARK SMILES IDX 13 26 14 27 15 29 16 30 17 31 78 32 18 33 77 34 19 35 20 36
REMARK SMILES IDX 21 37 71 38 22 39 76 40 70 41 72 42 23 43 75 44 69 45 68 46
REMARK SMILES IDX 24 48 56 49 36 50 55 51 37 52 40 53 54 54 73 55 38 56 39 57
REMARK SMILES IDX 53 59 74 60 41 61 25 62 26 63 34 64 27 65 28 66 32 67 35 68
REMARK SMILES IDX 29 69 30 70 33 71 31 72 57 73 58 74 66 75 59 76 60 77 64 78
REMARK SMILES IDX 67 79 61 80 62 81 65 82 63 83 42 84 43 85 51 86 44 87 45 88
REMARK SMILES IDX 49 89 52 90 46 91 47 92 50 93 48 94
REMARK H PARENT 8 6 81 15 13 28 72 47 40 58
REMARK Flexibility Score: inf
ROOT
ATOM      1  C   UNL A   1      31.801  30.441  26.645  1.00  0.00     0.023 C 
ENDROOT
BRANCH   1   2
ATOM      2  C   UNL A   1      31.544  29.780  25.292  1.00  0.00     0.116 C 
BRANCH   2   3
ATOM      3  N   UNL A   1      32.700  29.685  24.428  1.00  0.00    -0.355 N 
ATOM      4  C   UNL A   1      33.470  28.635  24.028  1.00  0.00     0.239 C 
ATOM      5  O   UNL A   1      34.095  28.817  22.973  1.00  0.00    -0.273 OA
ATOM      6  H   UNL A   1      32.986  30.550  24.053  1.00  0.00     0.163 HD
BRANCH   4   7
ATOM      7  C   UNL A   1      33.477  27.236  24.685  1.00  0.00     0.222 C 
BRANCH   7   8
ATOM      8  N   UNL A   1      32.660  26.168  24.103  1.00  0.00    -0.304 N 
BRANCH   8   9
ATOM      9  C   UNL A   1      31.507  25.775  24.892  1.00  0.00     0.211 C 
BRANCH   9  10
ATOM     10  C   UNL A   1      31.825  24.728  25.947  1.00  0.00    -0.085 C 
ATOM     11  C   UNL A   1      32.098  23.830  26.852  1.00  0.00     0.006 C 
ENDBRANCH   9  10
ENDBRANCH   8   9
BRANCH   8  12
ATOM     12  C   UNL A   1      32.774  25.575  22.860  1.00  0.00     0.323 C 
ATOM     13  O   UNL A   1      32.214  26.050  21.866  1.00  0.00    -0.248 OA
ATOM     14  N   UNL A   1      33.657  24.570  22.625  1.00  0.00    -0.307 N 
ATOM     15  H   UNL A   1      34.086  24.629  21.742  1.00  0.00     0.171 HD
BRANCH  14  16
ATOM     16  C   UNL A   1      34.085  23.471  23.376  1.00  0.00     0.046 A 
ATOM     17  C   UNL A   1      35.394  23.519  23.869  1.00  0.00     0.042 A 
ATOM     18  C   UNL A   1      33.302  22.325  23.580  1.00  0.00    -0.027 A 
ATOM     19  C   UNL A   1      35.863  22.503  24.698  1.00  0.00     0.020 A 
ATOM     20  C   UNL A   1      33.782  21.326  24.443  1.00  0.00     0.007 A 
ATOM     21  C   UNL A   1      32.071  22.039  22.768  1.00  0.00     0.046 C 
ATOM     22  Br  UNL A   1      37.617  22.595  25.396  1.00  0.00    -0.051 Br
ATOM     23  C   UNL A   1      35.047  21.427  25.022  1.00  0.00     0.016 A 
ENDBRANCH  14  16
ENDBRANCH   8  12
ENDBRANCH   7   8
ENDBRANCH   4   7
ENDBRANCH   2   3
ENDBRANCH   1   2
BRANCH   1  24
ATOM     24  C   UNL A   1      31.586  31.951  26.713  1.00  0.00     0.023 C 
BRANCH  24  25
ATOM     25  C   UNL A   1      32.758  32.766  27.233  1.00  0.00     0.116 C 
BRANCH  25  26
ATOM     26  N   UNL A   1      32.404  34.119  27.627  1.00  0.00    -0.352 N 
ATOM     27  C   UNL A   1      32.997  34.930  28.563  1.00  0.00     0.251 C 
ATOM     28  H   UNL A   1      31.631  34.508  27.157  1.00  0.00     0.163 HD
ATOM     29  O   UNL A   1      32.529  36.040  28.798  1.00  0.00    -0.269 OA
BRANCH  27  30
ATOM     30  C   UNL A   1      34.164  34.443  29.327  1.00  0.00     0.039 A 
ATOM     31  C   UNL A   1      33.936  33.807  30.550  1.00  0.00     0.014 A 
ATOM     32  C   UNL A   1      35.465  34.581  28.838  1.00  0.00     0.014 A 
ATOM     33  C   UNL A   1      35.005  33.247  31.248  1.00  0.00     0.010 A 
ATOM     34  C   UNL A   1      36.521  33.956  29.496  1.00  0.00     0.010 A 
ATOM     35  C   UNL A   1      36.300  33.282  30.706  1.00  0.00    -0.014 A 
BRANCH  35  36
ATOM     36  C   UNL A   1      37.435  32.617  31.392  1.00  0.00     0.031 A 
ATOM     37  C   UNL A   1      38.136  31.460  30.741  1.00  0.00     0.074 A 
ATOM     38  C   UNL A   1      37.792  33.018  32.627  1.00  0.00     0.049 A 
ATOM     39  N   UNL A   1      39.104  30.710  31.205  1.00  0.00    -0.248 NA
ATOM     40  C   UNL A   1      37.669  31.074  29.399  1.00  0.00     0.031 C 
ATOM     41  C   UNL A   1      37.153  34.098  33.383  1.00  0.00     0.029 A 
ATOM     42  N   UNL A   1      38.772  32.559  33.470  1.00  0.00    -0.354 N 
ATOM     43  C   UNL A   1      39.350  29.760  30.222  1.00  0.00     0.074 A 
ATOM     44  C   UNL A   1      38.396  29.993  29.160  1.00  0.00     0.031 C 
ATOM     45  C   UNL A   1      37.772  34.232  34.567  1.00  0.00     0.029 A 
ATOM     46  C   UNL A   1      38.825  33.227  34.669  1.00  0.00     0.049 A 
ATOM     47  H   UNL A   1      39.380  31.821  33.237  1.00  0.00     0.167 HD
ATOM     48  C   UNL A   1      40.301  28.797  30.200  1.00  0.00     0.037 A 
ATOM     49  C   UNL A   1      39.630  33.044  35.733  1.00  0.00     0.037 A 
ATOM     50  C   UNL A   1      41.266  28.588  31.247  1.00  0.00     0.049 A 
ATOM     51  C   UNL A   1      40.682  31.968  35.679  1.00  0.00     0.074 A 
ATOM     52  C   UNL A   1      42.309  27.680  31.291  1.00  0.00     0.029 A 
ATOM     53  N   UNL A   1      41.303  29.300  32.438  1.00  0.00    -0.354 N 
ATOM     54  N   UNL A   1      40.951  31.121  34.715  1.00  0.00    -0.248 NA
ATOM     55  C   UNL A   1      41.547  31.828  36.859  1.00  0.00     0.031 C 
ATOM     56  C   UNL A   1      42.951  27.813  32.527  1.00  0.00     0.029 A 
ATOM     57  C   UNL A   1      42.341  28.837  33.232  1.00  0.00     0.049 A 
ATOM     58  H   UNL A   1      40.686  30.026  32.681  1.00  0.00     0.167 HD
ATOM     59  C   UNL A   1      42.030  30.369  35.158  1.00  0.00     0.074 A 
ATOM     60  C   UNL A   1      42.376  30.870  36.472  1.00  0.00     0.031 C 
ATOM     61  C   UNL A   1      42.676  29.354  34.533  1.00  0.00     0.037 A 
BRANCH  48  62
ATOM     62  C   UNL A   1      40.349  27.897  28.999  1.00  0.00     0.064 A 
ATOM     63  C   UNL A   1      41.126  28.215  27.873  1.00  0.00     0.173 A 
ATOM     64  C   UNL A   1      39.642  26.686  28.987  1.00  0.00     0.173 A 
ATOM     65  F   UNL A   1      41.811  29.367  27.830  1.00  0.00    -0.203 F 
ATOM     66  C   UNL A   1      41.170  27.366  26.770  1.00  0.00     0.198 A 
ATOM     67  C   UNL A   1      39.712  25.826  27.894  1.00  0.00     0.198 A 
ATOM     68  F   UNL A   1      38.887  26.333  30.039  1.00  0.00    -0.203 F 
ATOM     69  F   UNL A   1      41.879  27.714  25.688  1.00  0.00    -0.200 F 
ATOM     70  C   UNL A   1      40.468  26.170  26.784  1.00  0.00     0.200 A 
ATOM     71  F   UNL A   1      39.043  24.664  27.914  1.00  0.00    -0.200 F 
ATOM     72  F   UNL A   1      40.517  25.351  25.725  1.00  0.00    -0.200 F 
ENDBRANCH  48  62
BRANCH  49  73
ATOM     73  C   UNL A   1      39.493  33.915  36.928  1.00  0.00     0.064 A 
ATOM     74  C   UNL A   1      38.746  33.500  38.039  1.00  0.00     0.173 A 
ATOM     75  C   UNL A   1      40.098  35.179  36.985  1.00  0.00     0.173 A 
ATOM     76  F   UNL A   1      38.132  32.307  38.025  1.00  0.00    -0.203 F 
ATOM     77  C   UNL A   1      38.590  34.324  39.152  1.00  0.00     0.198 A 
ATOM     78  C   UNL A   1      39.964  35.991  38.108  1.00  0.00     0.198 A 
ATOM     79  F   UNL A   1      40.828  35.621  35.949  1.00  0.00    -0.203 F 
ATOM     80  F   UNL A   1      37.831  33.922  40.179  1.00  0.00    -0.200 F 
ATOM     81  C   UNL A   1      39.204  35.568  39.188  1.00  0.00     0.200 A 
ATOM     82  F   UNL A   1      40.570  37.187  38.144  1.00  0.00    -0.200 F 
ATOM     83  F   UNL A   1      39.055  36.360  40.258  1.00  0.00    -0.200 F 
ENDBRANCH  49  73
BRANCH  61  84
ATOM     84  C   UNL A   1      43.845  28.741  35.247  1.00  0.00     0.064 A 
ATOM     85  C   UNL A   1      45.157  29.184  35.025  1.00  0.00     0.173 A 
ATOM     86  C   UNL A   1      43.644  27.725  36.193  1.00  0.00     0.173 A 
ATOM     87  F   UNL A   1      45.402  30.143  34.119  1.00  0.00    -0.203 F 
ATOM     88  C   UNL A   1      46.229  28.615  35.708  1.00  0.00     0.198 A 
ATOM     89  C   UNL A   1      44.716  27.178  36.895  1.00  0.00     0.198 A 
ATOM     90  F   UNL A   1      42.408  27.271  36.446  1.00  0.00    -0.203 F 
ATOM     91  F   UNL A   1      47.479  29.021  35.446  1.00  0.00    -0.200 F 
ATOM     92  C   UNL A   1      46.006  27.619  36.646  1.00  0.00     0.200 A 
ATOM     93  F   UNL A   1      44.497  26.226  37.811  1.00  0.00    -0.200 F 
ATOM     94  F   UNL A   1      47.038  27.077  37.307  1.00  0.00    -0.200 F 
ENDBRANCH  61  84
ENDBRANCH  35  36
ENDBRANCH  27  30
ENDBRANCH  25  26
ENDBRANCH  24  25
ENDBRANCH   1  24
TORSDOF 16
ENDMDL
