MODEL 1
REMARK VINA RESULT:     -12.6      0.000      0.000
REMARK SMILES C[C@@H](C(=O)NCCCCNC(=O)c1ccc(-c2c3nc(c(-c4c(F)c(F)c(F)c(F)c4F)c4ccc([nH]4)c(-c4c(F)c(F)c(F)c(F)c4F)c4nc(c(-c5c(F)c(F)c(F)c(F)c5F)c5ccc2[nH]5)C=C4)C=C3)cc1)c1ccc(C[C@H]2CCCC2=O)cc1F
REMARK SMILES IDX 7 1 6 2 5 3 3 4 4 5 2 7 1 8 76 9 77 10 88 11 78 12 87 13
REMARK SMILES IDX 89 14 79 15 80 16 81 17 82 18 85 19 83 20 84 21 86 22 8 23
REMARK SMILES IDX 9 24 10 25 11 26 12 28 13 29 14 30 75 31 15 32 74 33 16 34
REMARK SMILES IDX 17 35 18 36 68 37 19 38 73 39 67 40 69 41 20 42 72 43 66 44
REMARK SMILES IDX 65 45 21 47 53 48 33 49 52 50 34 51 37 52 51 53 70 54 35 55
REMARK SMILES IDX 36 56 50 58 71 59 38 60 22 61 23 62 31 63 24 64 25 65 29 66
REMARK SMILES IDX 32 67 26 68 27 69 30 70 28 71 54 72 55 73 63 74 56 75 57 76
REMARK SMILES IDX 61 77 64 78 58 79 59 80 62 81 60 82 39 83 40 84 48 85 41 86
REMARK SMILES IDX 42 87 46 88 49 89 43 90 44 91 47 92 45 93
REMARK H PARENT 5 6 10 27 69 46 37 57
REMARK Flexibility Score: inf
ROOT
ATOM      1  C   UNL A   1      31.418  30.636  25.946  1.00  0.00     0.023 C 
ENDROOT
BRANCH   1   2
ATOM      2  C   UNL A   1      32.657  29.806  26.287  1.00  0.00     0.116 C 
BRANCH   2   3
ATOM      3  N   UNL A   1      32.294  28.505  26.805  1.00  0.00    -0.356 N 
ATOM      4  C   UNL A   1      32.089  27.322  26.158  1.00  0.00     0.227 C 
ATOM      5  O   UNL A   1      31.780  26.369  26.877  1.00  0.00    -0.274 OA
ATOM      6  H   UNL A   1      32.175  28.467  27.782  1.00  0.00     0.163 HD
BRANCH   4   7
ATOM      7  C   UNL A   1      32.299  27.218  24.634  1.00  0.00     0.108 C 
ATOM      8  C   UNL A   1      33.658  27.742  24.166  1.00  0.00     0.023 C 
BRANCH   7   9
ATOM      9  C   UNL A   1      31.232  27.932  23.817  1.00  0.00    -0.000 A 
ATOM     10  C   UNL A   1      31.552  28.950  22.907  1.00  0.00     0.008 A 
ATOM     11  C   UNL A   1      29.901  27.512  23.889  1.00  0.00     0.127 A 
ATOM     12  C   UNL A   1      30.560  29.561  22.140  1.00  0.00     0.004 A 
ATOM     13  C   UNL A   1      28.903  28.116  23.126  1.00  0.00     0.043 A 
ATOM     14  F   UNL A   1      29.563  26.496  24.695  1.00  0.00    -0.207 F 
ATOM     15  C   UNL A   1      29.222  29.168  22.260  1.00  0.00    -0.044 A 
BRANCH  15  16
ATOM     16  C   UNL A   1      28.146  29.888  21.485  1.00  0.00     0.047 C 
BRANCH  16  17
ATOM     17  C   UNL A   1      27.511  31.093  22.192  1.00  0.00     0.060 C 
ATOM     18  C   UNL A   1      27.758  31.203  23.699  1.00  0.00     0.012 C 
ATOM     19  C   UNL A   1      28.045  32.414  21.688  1.00  0.00     0.136 C 
ATOM     20  C   UNL A   1      28.914  32.181  23.878  1.00  0.00     0.009 C 
ATOM     21  C   UNL A   1      28.779  33.191  22.748  1.00  0.00     0.076 C 
ATOM     22  O   UNL A   1      27.884  32.818  20.540  1.00  0.00    -0.299 OA
ENDBRANCH  16  17
ENDBRANCH  15  16
ENDBRANCH   7   9
ENDBRANCH   4   7
ENDBRANCH   2   3
ENDBRANCH   1   2
BRANCH   1  23
ATOM     23  C   UNL A   1      31.346  31.998  26.638  1.00  0.00     0.023 C 
BRANCH  23  24
ATOM     24  C   UNL A   1      32.661  32.500  27.212  1.00  0.00     0.116 C 
BRANCH  24  25
ATOM     25  N   UNL A   1      32.601  33.893  27.626  1.00  0.00    -0.352 N 
ATOM     26  C   UNL A   1      33.365  34.549  28.556  1.00  0.00     0.251 C 
ATOM     27  H   UNL A   1      31.916  34.439  27.177  1.00  0.00     0.163 HD
ATOM     28  O   UNL A   1      33.081  35.698  28.887  1.00  0.00    -0.269 OA
BRANCH  26  29
ATOM     29  C   UNL A   1      34.517  33.865  29.180  1.00  0.00     0.039 A 
ATOM     30  C   UNL A   1      34.277  32.876  30.135  1.00  0.00     0.014 A 
ATOM     31  C   UNL A   1      35.828  34.203  28.831  1.00  0.00     0.014 A 
ATOM     32  C   UNL A   1      35.351  32.199  30.714  1.00  0.00     0.010 A 
ATOM     33  C   UNL A   1      36.892  33.468  29.341  1.00  0.00     0.010 A 
ATOM     34  C   UNL A   1      36.667  32.478  30.309  1.00  0.00    -0.014 A 
BRANCH  34  35
ATOM     35  C   UNL A   1      37.822  31.781  30.926  1.00  0.00     0.031 A 
ATOM     36  C   UNL A   1      38.243  32.127  32.329  1.00  0.00     0.074 A 
ATOM     37  C   UNL A   1      38.518  30.874  30.216  1.00  0.00     0.049 A 
ATOM     38  N   UNL A   1      39.236  31.654  33.039  1.00  0.00    -0.248 NA
ATOM     39  C   UNL A   1      37.460  33.166  33.015  1.00  0.00     0.031 C 
ATOM     40  C   UNL A   1      38.239  30.487  28.833  1.00  0.00     0.029 A 
ATOM     41  N   UNL A   1      39.606  30.112  30.562  1.00  0.00    -0.354 N 
ATOM     42  C   UNL A   1      39.207  32.353  34.240  1.00  0.00     0.074 A 
ATOM     43  C   UNL A   1      38.141  33.324  34.138  1.00  0.00     0.031 C 
ATOM     44  C   UNL A   1      39.107  29.533  28.460  1.00  0.00     0.029 A 
ATOM     45  C   UNL A   1      40.025  29.267  29.564  1.00  0.00     0.049 A 
ATOM     46  H   UNL A   1      40.044  30.166  31.441  1.00  0.00     0.167 HD
ATOM     47  C   UNL A   1      39.981  32.182  35.338  1.00  0.00     0.037 A 
ATOM     48  C   UNL A   1      41.034  28.375  29.547  1.00  0.00     0.037 A 
ATOM     49  C   UNL A   1      41.022  31.193  35.442  1.00  0.00     0.049 A 
ATOM     50  C   UNL A   1      41.880  28.202  30.781  1.00  0.00     0.074 A 
ATOM     51  C   UNL A   1      41.821  30.891  36.530  1.00  0.00     0.029 A 
ATOM     52  N   UNL A   1      41.410  30.345  34.413  1.00  0.00    -0.354 N 
ATOM     53  N   UNL A   1      41.795  28.812  31.938  1.00  0.00    -0.248 NA
ATOM     54  C   UNL A   1      42.954  27.202  30.706  1.00  0.00     0.031 C 
ATOM     55  C   UNL A   1      42.731  29.902  36.143  1.00  0.00     0.029 A 
ATOM     56  C   UNL A   1      42.454  29.537  34.835  1.00  0.00     0.049 A 
ATOM     57  H   UNL A   1      41.004  30.322  33.517  1.00  0.00     0.167 HD
ATOM     58  C   UNL A   1      42.773  28.241  32.743  1.00  0.00     0.074 A 
ATOM     59  C   UNL A   1      43.433  27.231  31.942  1.00  0.00     0.031 C 
ATOM     60  C   UNL A   1      43.090  28.524  34.031  1.00  0.00     0.037 A 
BRANCH  47  61
ATOM     61  C   UNL A   1      39.735  33.094  36.507  1.00  0.00     0.064 A 
ATOM     62  C   UNL A   1      38.786  32.791  37.497  1.00  0.00     0.173 A 
ATOM     63  C   UNL A   1      40.463  34.285  36.645  1.00  0.00     0.173 A 
ATOM     64  F   UNL A   1      38.052  31.671  37.410  1.00  0.00    -0.203 F 
ATOM     65  C   UNL A   1      38.544  33.667  38.552  1.00  0.00     0.198 A 
ATOM     66  C   UNL A   1      40.245  35.140  37.722  1.00  0.00     0.198 A 
ATOM     67  F   UNL A   1      41.388  34.622  35.734  1.00  0.00    -0.203 F 
ATOM     68  F   UNL A   1      37.583  33.389  39.445  1.00  0.00    -0.200 F 
ATOM     69  C   UNL A   1      39.277  34.837  38.667  1.00  0.00     0.200 A 
ATOM     70  F   UNL A   1      40.968  36.263  37.840  1.00  0.00    -0.200 F 
ATOM     71  F   UNL A   1      39.045  35.680  39.683  1.00  0.00    -0.200 F 
ENDBRANCH  47  61
BRANCH  48  72
ATOM     72  C   UNL A   1      41.265  27.538  28.341  1.00  0.00     0.064 A 
ATOM     73  C   UNL A   1      40.591  26.321  28.174  1.00  0.00     0.173 A 
ATOM     74  C   UNL A   1      42.161  27.931  27.335  1.00  0.00     0.173 A 
ATOM     75  F   UNL A   1      39.739  25.892  29.117  1.00  0.00    -0.203 F 
ATOM     76  C   UNL A   1      40.819  25.516  27.059  1.00  0.00     0.198 A 
ATOM     77  C   UNL A   1      42.367  27.139  26.206  1.00  0.00     0.198 A 
ATOM     78  F   UNL A   1      42.826  29.089  27.443  1.00  0.00    -0.203 F 
ATOM     79  F   UNL A   1      40.197  24.335  26.950  1.00  0.00    -0.200 F 
ATOM     80  C   UNL A   1      41.703  25.929  26.074  1.00  0.00     0.200 A 
ATOM     81  F   UNL A   1      43.209  27.548  25.248  1.00  0.00    -0.200 F 
ATOM     82  F   UNL A   1      41.919  25.157  25.000  1.00  0.00    -0.200 F 
ENDBRANCH  48  72
BRANCH  60  83
ATOM     83  C   UNL A   1      44.155  27.685  34.679  1.00  0.00     0.064 A 
ATOM     84  C   UNL A   1      45.510  28.048  34.651  1.00  0.00     0.173 A 
ATOM     85  C   UNL A   1      43.807  26.509  35.361  1.00  0.00     0.173 A 
ATOM     86  F   UNL A   1      45.899  29.156  34.002  1.00  0.00    -0.203 F 
ATOM     87  C   UNL A   1      46.479  27.247  35.250  1.00  0.00     0.198 A 
ATOM     88  C   UNL A   1      44.773  25.730  35.991  1.00  0.00     0.198 A 
ATOM     89  F   UNL A   1      42.524  26.119  35.427  1.00  0.00    -0.203 F 
ATOM     90  F   UNL A   1      47.773  27.582  35.159  1.00  0.00    -0.200 F 
ATOM     91  C   UNL A   1      46.108  26.093  35.926  1.00  0.00     0.200 A 
ATOM     92  F   UNL A   1      44.411  24.625  36.658  1.00  0.00    -0.200 F 
ATOM     93  F   UNL A   1      47.042  25.326  36.506  1.00  0.00    -0.200 F 
ENDBRANCH  60  83
ENDBRANCH  34  35
ENDBRANCH  26  29
ENDBRANCH  24  25
ENDBRANCH  23  24
ENDBRANCH   1  23
TORSDOF 14
ENDMDL
MODEL 2
REMARK VINA RESULT:     -12.4      4.350      8.643
REMARK SMILES C[C@@H](C(=O)NCCCCNC(=O)c1ccc(-c2c3nc(c(-c4c(F)c(F)c(F)c(F)c4F)c4ccc([nH]4)c(-c4c(F)c(F)c(F)c(F)c4F)c4nc(c(-c5c(F)c(F)c(F)c(F)c5F)c5ccc2[nH]5)C=C4)C=C3)cc1)c1ccc(C[C@H]2CCCC2=O)cc1F
REMARK SMILES IDX 7 1 6 2 5 3 3 4 4 5 2 7 1 8 76 9 77 10 88 11 78 12 87 13
REMARK SMILES IDX 89 14 79 15 80 16 81 17 82 18 85 19 83 20 84 21 86 22 8 23
REMARK SMILES IDX 9 24 10 25 11 26 12 28 13 29 14 30 75 31 15 32 74 33 16 34
REMARK SMILES IDX 17 35 18 36 68 37 19 38 73 39 67 40 69 41 20 42 72 43 66 44
REMARK SMILES IDX 65 45 21 47 53 48 33 49 52 50 34 51 37 52 51 53 70 54 35 55
REMARK SMILES IDX 36 56 50 58 71 59 38 60 22 61 23 62 31 63 24 64 25 65 29 66
REMARK SMILES IDX 32 67 26 68 27 69 30 70 28 71 54 72 55 73 63 74 56 75 57 76
REMARK SMILES IDX 61 77 64 78 58 79 59 80 62 81 60 82 39 83 40 84 48 85 41 86
REMARK SMILES IDX 42 87 46 88 49 89 43 90 44 91 47 92 45 93
REMARK H PARENT 5 6 10 27 69 46 37 57
REMARK Flexibility Score: inf
ROOT
ATOM      1  C   UNL A   1      37.025  33.533  29.083  1.00  0.00     0.023 C 
ENDROOT
BRANCH   1   2
ATOM      2  C   UNL A   1      37.232  32.973  30.491  1.00  0.00     0.116 C 
BRANCH   2   3
ATOM      3  N   UNL A   1      37.649  34.006  31.414  1.00  0.00    -0.356 N 
ATOM      4  C   UNL A   1      37.622  34.038  32.776  1.00  0.00     0.227 C 
ATOM      5  O   UNL A   1      38.046  35.074  33.294  1.00  0.00    -0.274 OA
ATOM      6  H   UNL A   1      38.008  34.819  30.989  1.00  0.00     0.163 HD
BRANCH   4   7
ATOM      7  C   UNL A   1      37.139  32.812  33.577  1.00  0.00     0.108 C 
ATOM      8  C   UNL A   1      36.907  33.102  35.061  1.00  0.00     0.023 C 
BRANCH   7   9
ATOM      9  C   UNL A   1      38.075  31.614  33.491  1.00  0.00    -0.000 A 
ATOM     10  C   UNL A   1      39.398  31.671  33.953  1.00  0.00     0.008 A 
ATOM     11  C   UNL A   1      37.595  30.385  33.029  1.00  0.00     0.127 A 
ATOM     12  C   UNL A   1      40.223  30.548  33.900  1.00  0.00     0.004 A 
ATOM     13  C   UNL A   1      38.412  29.258  32.973  1.00  0.00     0.043 A 
ATOM     14  F   UNL A   1      36.317  30.269  32.641  1.00  0.00    -0.207 F 
ATOM     15  C   UNL A   1      39.747  29.336  33.386  1.00  0.00    -0.044 A 
BRANCH  15  16
ATOM     16  C   UNL A   1      40.669  28.149  33.258  1.00  0.00     0.047 C 
BRANCH  16  17
ATOM     17  C   UNL A   1      41.954  28.211  34.095  1.00  0.00     0.060 C 
ATOM     18  C   UNL A   1      41.811  27.872  35.582  1.00  0.00     0.012 C 
ATOM     19  C   UNL A   1      42.995  27.215  33.643  1.00  0.00     0.136 C 
ATOM     20  C   UNL A   1      42.227  26.412  35.733  1.00  0.00     0.009 C 
ATOM     21  C   UNL A   1      43.310  26.182  34.691  1.00  0.00     0.076 C 
ATOM     22  O   UNL A   1      43.538  27.252  32.542  1.00  0.00    -0.299 OA
ENDBRANCH  16  17
ENDBRANCH  15  16
ENDBRANCH   7   9
ENDBRANCH   4   7
ENDBRANCH   2   3
ENDBRANCH   1   2
BRANCH   1  23
ATOM     23  C   UNL A   1      35.612  33.359  28.523  1.00  0.00     0.023 C 
BRANCH  23  24
ATOM     24  C   UNL A   1      34.708  32.440  29.328  1.00  0.00     0.116 C 
BRANCH  24  25
ATOM     25  N   UNL A   1      34.086  31.407  28.516  1.00  0.00    -0.352 N 
ATOM     26  C   UNL A   1      34.660  30.309  27.931  1.00  0.00     0.251 C 
ATOM     27  H   UNL A   1      33.119  31.512  28.364  1.00  0.00     0.163 HD
ATOM     28  O   UNL A   1      34.010  29.614  27.154  1.00  0.00    -0.269 OA
BRANCH  26  29
ATOM     29  C   UNL A   1      36.071  29.974  28.216  1.00  0.00     0.039 A 
ATOM     30  C   UNL A   1      36.391  29.390  29.442  1.00  0.00     0.014 A 
ATOM     31  C   UNL A   1      37.076  30.244  27.282  1.00  0.00     0.014 A 
ATOM     32  C   UNL A   1      37.713  29.041  29.719  1.00  0.00     0.010 A 
ATOM     33  C   UNL A   1      38.377  29.815  27.521  1.00  0.00     0.010 A 
ATOM     34  C   UNL A   1      38.715  29.235  28.752  1.00  0.00    -0.014 A 
BRANCH  34  35
ATOM     35  C   UNL A   1      40.129  28.886  29.034  1.00  0.00     0.031 A 
ATOM     36  C   UNL A   1      40.989  29.831  29.830  1.00  0.00     0.074 A 
ATOM     37  C   UNL A   1      40.653  27.748  28.541  1.00  0.00     0.049 A 
ATOM     38  N   UNL A   1      42.250  29.726  30.164  1.00  0.00    -0.248 NA
ATOM     39  C   UNL A   1      40.352  31.076  30.287  1.00  0.00     0.031 C 
ATOM     40  C   UNL A   1      39.936  26.775  27.717  1.00  0.00     0.029 A 
ATOM     41  N   UNL A   1      41.913  27.219  28.662  1.00  0.00    -0.354 N 
ATOM     42  C   UNL A   1      42.559  30.896  30.846  1.00  0.00     0.074 A 
ATOM     43  C   UNL A   1      41.373  31.724  30.824  1.00  0.00     0.031 C 
ATOM     44  C   UNL A   1      40.755  25.748  27.438  1.00  0.00     0.029 A 
ATOM     45  C   UNL A   1      42.064  26.008  28.033  1.00  0.00     0.049 A 
ATOM     46  H   UNL A   1      42.640  27.665  29.153  1.00  0.00     0.167 HD
ATOM     47  C   UNL A   1      43.716  31.239  31.459  1.00  0.00     0.037 A 
ATOM     48  C   UNL A   1      43.136  25.198  27.953  1.00  0.00     0.037 A 
ATOM     49  C   UNL A   1      44.883  30.398  31.503  1.00  0.00     0.049 A 
ATOM     50  C   UNL A   1      44.412  25.599  28.645  1.00  0.00     0.074 A 
ATOM     51  C   UNL A   1      46.085  30.619  32.151  1.00  0.00     0.029 A 
ATOM     52  N   UNL A   1      44.994  29.170  30.863  1.00  0.00    -0.354 N 
ATOM     53  N   UNL A   1      44.669  26.671  29.353  1.00  0.00    -0.248 NA
ATOM     54  C   UNL A   1      45.541  24.667  28.534  1.00  0.00     0.031 C 
ATOM     55  C   UNL A   1      46.943  29.554  31.858  1.00  0.00     0.029 A 
ATOM     56  C   UNL A   1      46.254  28.634  31.084  1.00  0.00     0.049 A 
ATOM     57  H   UNL A   1      44.283  28.744  30.333  1.00  0.00     0.167 HD
ATOM     58  C   UNL A   1      45.973  26.523  29.810  1.00  0.00     0.074 A 
ATOM     59  C   UNL A   1      46.449  25.253  29.302  1.00  0.00     0.031 C 
ATOM     60  C   UNL A   1      46.706  27.360  30.585  1.00  0.00     0.037 A 
BRANCH  47  61
ATOM     61  C   UNL A   1      43.776  32.587  32.123  1.00  0.00     0.064 A 
ATOM     62  C   UNL A   1      44.096  33.752  31.408  1.00  0.00     0.173 A 
ATOM     63  C   UNL A   1      43.503  32.716  33.493  1.00  0.00     0.173 A 
ATOM     64  F   UNL A   1      44.379  33.686  30.098  1.00  0.00    -0.203 F 
ATOM     65  C   UNL A   1      44.185  34.986  32.047  1.00  0.00     0.198 A 
ATOM     66  C   UNL A   1      43.555  33.958  34.121  1.00  0.00     0.198 A 
ATOM     67  F   UNL A   1      43.184  31.639  34.225  1.00  0.00    -0.203 F 
ATOM     68  F   UNL A   1      44.561  36.071  31.357  1.00  0.00    -0.200 F 
ATOM     69  C   UNL A   1      43.909  35.089  33.402  1.00  0.00     0.200 A 
ATOM     70  F   UNL A   1      43.272  34.058  35.428  1.00  0.00    -0.200 F 
ATOM     71  F   UNL A   1      43.992  36.277  34.017  1.00  0.00    -0.200 F 
ENDBRANCH  47  61
BRANCH  48  72
ATOM     72  C   UNL A   1      43.034  23.900  27.235  1.00  0.00     0.064 A 
ATOM     73  C   UNL A   1      42.552  22.757  27.888  1.00  0.00     0.173 A 
ATOM     74  C   UNL A   1      43.415  23.772  25.891  1.00  0.00     0.173 A 
ATOM     75  F   UNL A   1      42.193  22.824  29.178  1.00  0.00    -0.203 F 
ATOM     76  C   UNL A   1      42.477  21.530  27.232  1.00  0.00     0.198 A 
ATOM     77  C   UNL A   1      43.312  22.550  25.228  1.00  0.00     0.198 A 
ATOM     78  F   UNL A   1      43.877  24.836  25.220  1.00  0.00    -0.203 F 
ATOM     79  F   UNL A   1      42.058  20.443  27.895  1.00  0.00    -0.200 F 
ATOM     80  C   UNL A   1      42.852  21.429  25.901  1.00  0.00     0.200 A 
ATOM     81  F   UNL A   1      43.660  22.460  23.937  1.00  0.00    -0.200 F 
ATOM     82  F   UNL A   1      42.775  20.249  25.269  1.00  0.00    -0.200 F 
ENDBRANCH  48  72
BRANCH  60  83
ATOM     83  C   UNL A   1      48.079  26.900  30.990  1.00  0.00     0.064 A 
ATOM     84  C   UNL A   1      48.290  26.076  32.106  1.00  0.00     0.173 A 
ATOM     85  C   UNL A   1      49.198  27.269  30.228  1.00  0.00     0.173 A 
ATOM     86  F   UNL A   1      47.256  25.703  32.875  1.00  0.00    -0.203 F 
ATOM     87  C   UNL A   1      49.573  25.671  32.464  1.00  0.00     0.198 A 
ATOM     88  C   UNL A   1      50.475  26.833  30.567  1.00  0.00     0.198 A 
ATOM     89  F   UNL A   1      49.052  28.048  29.145  1.00  0.00    -0.203 F 
ATOM     90  F   UNL A   1      49.758  24.936  33.569  1.00  0.00    -0.200 F 
ATOM     91  C   UNL A   1      50.664  26.044  31.691  1.00  0.00     0.200 A 
ATOM     92  F   UNL A   1      51.524  27.179  29.809  1.00  0.00    -0.200 F 
ATOM     93  F   UNL A   1      51.897  25.649  32.036  1.00  0.00    -0.200 F 
ENDBRANCH  60  83
ENDBRANCH  34  35
ENDBRANCH  26  29
ENDBRANCH  24  25
ENDBRANCH  23  24
ENDBRANCH   1  23
TORSDOF 14
ENDMDL
MODEL 3
REMARK VINA RESULT:     -12.4      4.376      8.622
REMARK SMILES C[C@@H](C(=O)NCCCCNC(=O)c1ccc(-c2c3nc(c(-c4c(F)c(F)c(F)c(F)c4F)c4ccc([nH]4)c(-c4c(F)c(F)c(F)c(F)c4F)c4nc(c(-c5c(F)c(F)c(F)c(F)c5F)c5ccc2[nH]5)C=C4)C=C3)cc1)c1ccc(C[C@H]2CCCC2=O)cc1F
REMARK SMILES IDX 7 1 6 2 5 3 3 4 4 5 2 7 1 8 76 9 77 10 88 11 78 12 87 13
REMARK SMILES IDX 89 14 79 15 80 16 81 17 82 18 85 19 83 20 84 21 86 22 8 23
REMARK SMILES IDX 9 24 10 25 11 26 12 28 13 29 14 30 75 31 15 32 74 33 16 34
REMARK SMILES IDX 17 35 18 36 68 37 19 38 73 39 67 40 69 41 20 42 72 43 66 44
REMARK SMILES IDX 65 45 21 47 53 48 33 49 52 50 34 51 37 52 51 53 70 54 35 55
REMARK SMILES IDX 36 56 50 58 71 59 38 60 22 61 23 62 31 63 24 64 25 65 29 66
REMARK SMILES IDX 32 67 26 68 27 69 30 70 28 71 54 72 55 73 63 74 56 75 57 76
REMARK SMILES IDX 61 77 64 78 58 79 59 80 62 81 60 82 39 83 40 84 48 85 41 86
REMARK SMILES IDX 42 87 46 88 49 89 43 90 44 91 47 92 45 93
REMARK H PARENT 5 6 10 27 69 46 37 57
REMARK Flexibility Score: inf
ROOT
ATOM      1  C   UNL A   1      36.976  33.480  28.595  1.00  0.00     0.023 C 
ENDROOT
BRANCH   1   2
ATOM      2  C   UNL A   1      37.337  33.022  30.010  1.00  0.00     0.116 C 
BRANCH   2   3
ATOM      3  N   UNL A   1      37.331  34.129  30.940  1.00  0.00    -0.356 N 
ATOM      4  C   UNL A   1      37.071  34.158  32.278  1.00  0.00     0.227 C 
ATOM      5  O   UNL A   1      37.138  35.269  32.810  1.00  0.00    -0.274 OA
ATOM      6  H   UNL A   1      37.548  35.004  30.543  1.00  0.00     0.163 HD
BRANCH   4   7
ATOM      7  C   UNL A   1      36.774  32.853  33.045  1.00  0.00     0.108 C 
ATOM      8  C   UNL A   1      36.051  33.076  34.374  1.00  0.00     0.023 C 
BRANCH   7   9
ATOM      9  C   UNL A   1      38.012  32.017  33.336  1.00  0.00    -0.000 A 
ATOM     10  C   UNL A   1      39.185  32.582  33.858  1.00  0.00     0.008 A 
ATOM     11  C   UNL A   1      37.969  30.629  33.177  1.00  0.00     0.127 A 
ATOM     12  C   UNL A   1      40.291  31.788  34.154  1.00  0.00     0.004 A 
ATOM     13  C   UNL A   1      39.070  29.826  33.471  1.00  0.00     0.043 A 
ATOM     14  F   UNL A   1      36.844  30.039  32.746  1.00  0.00    -0.207 F 
ATOM     15  C   UNL A   1      40.255  30.405  33.940  1.00  0.00    -0.044 A 
BRANCH  15  16
ATOM     16  C   UNL A   1      41.483  29.564  34.188  1.00  0.00     0.047 C 
BRANCH  16  17
ATOM     17  C   UNL A   1      41.408  28.113  33.694  1.00  0.00     0.060 C 
ATOM     18  C   UNL A   1      42.352  27.738  32.548  1.00  0.00     0.012 C 
ATOM     19  C   UNL A   1      41.789  27.112  34.759  1.00  0.00     0.136 C 
ATOM     20  C   UNL A   1      43.561  27.063  33.189  1.00  0.00     0.009 C 
ATOM     21  C   UNL A   1      43.025  26.327  34.408  1.00  0.00     0.076 C 
ATOM     22  O   UNL A   1      41.151  26.945  35.794  1.00  0.00    -0.299 OA
ENDBRANCH  16  17
ENDBRANCH  15  16
ENDBRANCH   7   9
ENDBRANCH   4   7
ENDBRANCH   2   3
ENDBRANCH   1   2
BRANCH   1  23
ATOM     23  C   UNL A   1      35.499  33.329  28.227  1.00  0.00     0.023 C 
BRANCH  23  24
ATOM     24  C   UNL A   1      34.689  32.443  29.161  1.00  0.00     0.116 C 
BRANCH  24  25
ATOM     25  N   UNL A   1      34.029  31.348  28.468  1.00  0.00    -0.352 N 
ATOM     26  C   UNL A   1      34.573  30.196  27.964  1.00  0.00     0.251 C 
ATOM     27  H   UNL A   1      33.058  31.449  28.344  1.00  0.00     0.163 HD
ATOM     28  O   UNL A   1      33.889  29.441  27.277  1.00  0.00    -0.269 OA
BRANCH  26  29
ATOM     29  C   UNL A   1      35.991  29.874  28.225  1.00  0.00     0.039 A 
ATOM     30  C   UNL A   1      36.345  29.346  29.467  1.00  0.00     0.014 A 
ATOM     31  C   UNL A   1      36.970  30.098  27.252  1.00  0.00     0.014 A 
ATOM     32  C   UNL A   1      37.675  29.009  29.723  1.00  0.00     0.010 A 
ATOM     33  C   UNL A   1      38.277  29.680  27.474  1.00  0.00     0.010 A 
ATOM     34  C   UNL A   1      38.649  29.157  28.721  1.00  0.00    -0.014 A 
BRANCH  34  35
ATOM     35  C   UNL A   1      40.071  28.820  28.979  1.00  0.00     0.031 A 
ATOM     36  C   UNL A   1      40.948  29.794  29.719  1.00  0.00     0.074 A 
ATOM     37  C   UNL A   1      40.584  27.666  28.514  1.00  0.00     0.049 A 
ATOM     38  N   UNL A   1      42.218  29.703  30.024  1.00  0.00    -0.248 NA
ATOM     39  C   UNL A   1      40.320  31.054  30.146  1.00  0.00     0.031 C 
ATOM     40  C   UNL A   1      39.849  26.663  27.744  1.00  0.00     0.029 A 
ATOM     41  N   UNL A   1      41.848  27.143  28.622  1.00  0.00    -0.354 N 
ATOM     42  C   UNL A   1      42.541  30.897  30.655  1.00  0.00     0.074 A 
ATOM     43  C   UNL A   1      41.354  31.722  30.633  1.00  0.00     0.031 C 
ATOM     44  C   UNL A   1      40.663  25.628  27.481  1.00  0.00     0.029 A 
ATOM     45  C   UNL A   1      41.985  25.910  28.034  1.00  0.00     0.049 A 
ATOM     46  H   UNL A   1      42.586  27.607  29.079  1.00  0.00     0.167 HD
ATOM     47  C   UNL A   1      43.713  31.263  31.227  1.00  0.00     0.037 A 
ATOM     48  C   UNL A   1      43.057  25.099  27.955  1.00  0.00     0.037 A 
ATOM     49  C   UNL A   1      44.883  30.425  31.271  1.00  0.00     0.049 A 
ATOM     50  C   UNL A   1      44.349  25.526  28.600  1.00  0.00     0.074 A 
ATOM     51  C   UNL A   1      46.100  30.671  31.881  1.00  0.00     0.029 A 
ATOM     52  N   UNL A   1      44.980  29.175  30.673  1.00  0.00    -0.354 N 
ATOM     53  N   UNL A   1      44.622  26.624  29.263  1.00  0.00    -0.248 NA
ATOM     54  C   UNL A   1      45.477  24.592  28.494  1.00  0.00     0.031 C 
ATOM     55  C   UNL A   1      46.952  29.596  31.604  1.00  0.00     0.029 A 
ATOM     56  C   UNL A   1      46.246  28.649  30.881  1.00  0.00     0.049 A 
ATOM     57  H   UNL A   1      44.257  28.729  30.176  1.00  0.00     0.167 HD
ATOM     58  C   UNL A   1      45.937  26.493  29.691  1.00  0.00     0.074 A 
ATOM     59  C   UNL A   1      46.402  25.206  29.218  1.00  0.00     0.031 C 
ATOM     60  C   UNL A   1      46.688  27.359  30.417  1.00  0.00     0.037 A 
BRANCH  47  61
ATOM     61  C   UNL A   1      43.787  32.633  31.840  1.00  0.00     0.064 A 
ATOM     62  C   UNL A   1      43.723  32.830  33.229  1.00  0.00     0.173 A 
ATOM     63  C   UNL A   1      43.930  33.768  31.027  1.00  0.00     0.173 A 
ATOM     64  F   UNL A   1      43.574  31.782  34.054  1.00  0.00    -0.203 F 
ATOM     65  C   UNL A   1      43.753  34.110  33.776  1.00  0.00     0.198 A 
ATOM     66  C   UNL A   1      43.998  35.044  31.580  1.00  0.00     0.198 A 
ATOM     67  F   UNL A   1      44.004  33.641  29.694  1.00  0.00    -0.203 F 
ATOM     68  F   UNL A   1      43.620  34.275  35.099  1.00  0.00    -0.200 F 
ATOM     69  C   UNL A   1      43.897  35.215  32.952  1.00  0.00     0.200 A 
ATOM     70  F   UNL A   1      44.153  36.111  30.783  1.00  0.00    -0.200 F 
ATOM     71  F   UNL A   1      43.928  36.447  33.479  1.00  0.00    -0.200 F 
ENDBRANCH  47  61
BRANCH  48  72
ATOM     72  C   UNL A   1      42.940  23.776  27.287  1.00  0.00     0.064 A 
ATOM     73  C   UNL A   1      43.380  23.598  25.968  1.00  0.00     0.173 A 
ATOM     74  C   UNL A   1      42.389  22.667  27.946  1.00  0.00     0.173 A 
ATOM     75  F   UNL A   1      43.896  24.634  25.289  1.00  0.00    -0.203 F 
ATOM     76  C   UNL A   1      43.252  22.370  25.324  1.00  0.00     0.198 A 
ATOM     77  C   UNL A   1      42.289  21.430  27.311  1.00  0.00     0.198 A 
ATOM     78  F   UNL A   1      41.960  22.782  29.210  1.00  0.00    -0.203 F 
ATOM     79  F   UNL A   1      43.636  22.242  24.047  1.00  0.00    -0.200 F 
ATOM     80  C   UNL A   1      42.712  21.285  25.998  1.00  0.00     0.200 A 
ATOM     81  F   UNL A   1      41.781  20.380  27.970  1.00  0.00    -0.200 F 
ATOM     82  F   UNL A   1      42.593  20.102  25.380  1.00  0.00    -0.200 F 
ENDBRANCH  48  72
BRANCH  60  83
ATOM     83  C   UNL A   1      48.071  26.914  30.803  1.00  0.00     0.064 A 
ATOM     84  C   UNL A   1      49.200  27.237  30.034  1.00  0.00     0.173 A 
ATOM     85  C   UNL A   1      48.271  26.175  31.979  1.00  0.00     0.173 A 
ATOM     86  F   UNL A   1      49.063  27.931  28.894  1.00  0.00    -0.203 F 
ATOM     87  C   UNL A   1      50.469  26.804  30.408  1.00  0.00     0.198 A 
ATOM     88  C   UNL A   1      49.545  25.776  32.371  1.00  0.00     0.198 A 
ATOM     89  F   UNL A   1      47.228  25.848  32.758  1.00  0.00    -0.203 F 
ATOM     90  F   UNL A   1      51.524  27.071  29.626  1.00  0.00    -0.200 F 
ATOM     91  C   UNL A   1      50.642  26.080  31.580  1.00  0.00     0.200 A 
ATOM     92  F   UNL A   1      49.712  25.093  33.512  1.00  0.00    -0.200 F 
ATOM     93  F   UNL A   1      51.865  25.669  31.941  1.00  0.00    -0.200 F 
ENDBRANCH  60  83
ENDBRANCH  34  35
ENDBRANCH  26  29
ENDBRANCH  24  25
ENDBRANCH  23  24
ENDBRANCH   1  23
TORSDOF 14
ENDMDL
