MODEL 1
REMARK VINA RESULT:     -12.6      0.000      0.000
REMARK SMILES O=C(NCCCCNC(=O)c1[nH]nc2ncc(F)cc12)c1ccc(-c2c3nc(c(-c4c(F)c(F)c(F)c(F)c4F)c4ccc([nH]4)c(-c4c(F)c(F)c(F)c(F)c4F)c4nc(c(-c5c(F)c(F)c(F)c(F)c5F)c5ccc2[nH]5)C=C4)C=C3)cc1
REMARK SMILES IDX 4 1 3 2 1 3 2 4 21 6 22 7 83 8 23 9 82 10 24 11 25 12 26 13
REMARK SMILES IDX 76 14 27 15 81 16 75 17 77 18 28 19 80 20 74 21 73 22 29 24
REMARK SMILES IDX 61 25 41 26 60 27 42 28 45 29 59 30 78 31 43 32 44 33 58 35
REMARK SMILES IDX 79 36 46 37 30 38 31 39 39 40 32 41 33 42 37 43 40 44 34 45
REMARK SMILES IDX 35 46 38 47 36 48 62 49 63 50 71 51 64 52 65 53 69 54 72 55
REMARK SMILES IDX 66 56 67 57 70 58 68 59 47 60 48 61 56 62 49 63 50 64 54 65
REMARK SMILES IDX 57 66 51 67 52 68 55 69 53 70 5 71 6 72 7 73 8 74 9 75 10 77
REMARK SMILES IDX 11 78 12 79 20 80 13 81 14 83 19 84 15 85 17 86 16 87 18 88
REMARK H PARENT 3 5 77 23 45 34 8 76 12 82
REMARK Flexibility Score: inf
ROOT
ATOM      1  C   UNL A   1      42.009  20.785  26.976  1.00  0.00     0.116 C 
ENDROOT
BRANCH   1   2
ATOM      2  N   UNL A   1      40.630  20.985  26.577  1.00  0.00    -0.352 N 
ATOM      3  O   UNL A   1      38.664  21.821  26.044  1.00  0.00    -0.269 OA
ATOM      4  C   UNL A   1      39.762  22.042  26.565  1.00  0.00     0.251 C 
ATOM      5  H   UNL A   1      40.219  20.160  26.232  1.00  0.00     0.163 HD
BRANCH   4   6
ATOM      6  C   UNL A   1      40.020  23.401  27.128  1.00  0.00     0.039 A 
ATOM      7  C   UNL A   1      41.152  23.785  27.841  1.00  0.00     0.014 A 
ATOM      8  C   UNL A   1      39.016  24.370  26.909  1.00  0.00     0.014 A 
ATOM      9  C   UNL A   1      41.272  25.087  28.335  1.00  0.00     0.010 A 
ATOM     10  C   UNL A   1      39.135  25.676  27.395  1.00  0.00     0.010 A 
ATOM     11  C   UNL A   1      40.266  26.037  28.118  1.00  0.00    -0.014 A 
BRANCH  11  12
ATOM     12  C   UNL A   1      40.516  27.400  28.594  1.00  0.00     0.031 A 
ATOM     13  C   UNL A   1      41.748  28.070  28.087  1.00  0.00     0.074 A 
ATOM     14  C   UNL A   1      39.698  28.134  29.373  1.00  0.00     0.049 A 
ATOM     15  N   UNL A   1      42.781  28.467  28.761  1.00  0.00    -0.248 NA
ATOM     16  C   UNL A   1      41.840  28.325  26.644  1.00  0.00     0.031 C 
ATOM     17  C   UNL A   1      38.307  27.878  29.737  1.00  0.00     0.029 A 
ATOM     18  N   UNL A   1      39.966  29.341  29.964  1.00  0.00    -0.354 N 
ATOM     19  C   UNL A   1      43.597  29.150  27.861  1.00  0.00     0.074 A 
ATOM     20  C   UNL A   1      43.006  28.970  26.559  1.00  0.00     0.031 C 
ATOM     21  C   UNL A   1      37.797  28.977  30.340  1.00  0.00     0.029 A 
ATOM     22  C   UNL A   1      38.863  29.951  30.533  1.00  0.00     0.049 A 
ATOM     23  H   UNL A   1      40.866  29.739  29.982  1.00  0.00     0.167 HD
ATOM     24  C   UNL A   1      44.621  29.949  28.274  1.00  0.00     0.037 A 
ATOM     25  C   UNL A   1      38.821  31.179  31.098  1.00  0.00     0.037 A 
ATOM     26  C   UNL A   1      45.007  29.670  29.631  1.00  0.00     0.049 A 
ATOM     27  C   UNL A   1      40.195  31.552  31.513  1.00  0.00     0.074 A 
ATOM     28  C   UNL A   1      45.518  28.582  30.308  1.00  0.00     0.029 A 
ATOM     29  N   UNL A   1      44.644  30.570  30.597  1.00  0.00    -0.354 N 
ATOM     30  N   UNL A   1      40.854  30.992  32.489  1.00  0.00    -0.248 NA
ATOM     31  C   UNL A   1      40.976  32.441  30.664  1.00  0.00     0.031 C 
ATOM     32  C   UNL A   1      45.039  28.703  31.645  1.00  0.00     0.029 A 
ATOM     33  C   UNL A   1      44.252  29.854  31.697  1.00  0.00     0.049 A 
ATOM     34  H   UNL A   1      44.660  31.552  30.516  1.00  0.00     0.167 HD
ATOM     35  C   UNL A   1      42.185  31.141  32.145  1.00  0.00     0.074 A 
ATOM     36  C   UNL A   1      42.200  32.176  31.124  1.00  0.00     0.031 C 
ATOM     37  C   UNL A   1      43.110  30.208  32.507  1.00  0.00     0.037 A 
BRANCH  24  38
ATOM     38  C   UNL A   1      45.098  31.196  27.564  1.00  0.00     0.064 A 
ATOM     39  C   UNL A   1      46.438  31.272  27.120  1.00  0.00     0.173 A 
ATOM     40  C   UNL A   1      44.394  32.417  27.575  1.00  0.00     0.173 A 
ATOM     41  F   UNL A   1      47.213  30.177  27.090  1.00  0.00    -0.203 F 
ATOM     42  C   UNL A   1      47.042  32.488  26.790  1.00  0.00     0.198 A 
ATOM     43  C   UNL A   1      44.986  33.622  27.191  1.00  0.00     0.198 A 
ATOM     44  F   UNL A   1      43.149  32.508  28.059  1.00  0.00    -0.203 F 
ATOM     45  F   UNL A   1      48.350  32.524  26.500  1.00  0.00    -0.200 F 
ATOM     46  C   UNL A   1      46.318  33.664  26.830  1.00  0.00     0.200 A 
ATOM     47  F   UNL A   1      44.273  34.755  27.252  1.00  0.00    -0.200 F 
ATOM     48  F   UNL A   1      46.908  34.838  26.571  1.00  0.00    -0.200 F 
ENDBRANCH  24  38
BRANCH  25  49
ATOM     49  C   UNL A   1      37.698  32.142  31.165  1.00  0.00     0.064 A 
ATOM     50  C   UNL A   1      37.345  32.923  30.052  1.00  0.00     0.173 A 
ATOM     51  C   UNL A   1      36.776  32.115  32.228  1.00  0.00     0.173 A 
ATOM     52  F   UNL A   1      38.146  32.974  28.976  1.00  0.00    -0.203 F 
ATOM     53  C   UNL A   1      36.127  33.608  29.992  1.00  0.00     0.198 A 
ATOM     54  C   UNL A   1      35.567  32.810  32.173  1.00  0.00     0.198 A 
ATOM     55  F   UNL A   1      36.987  31.339  33.302  1.00  0.00    -0.203 F 
ATOM     56  F   UNL A   1      35.795  34.283  28.883  1.00  0.00    -0.200 F 
ATOM     57  C   UNL A   1      35.235  33.542  31.048  1.00  0.00     0.200 A 
ATOM     58  F   UNL A   1      34.699  32.711  33.190  1.00  0.00    -0.200 F 
ATOM     59  F   UNL A   1      34.042  34.145  30.966  1.00  0.00    -0.200 F 
ENDBRANCH  25  49
BRANCH  37  60
ATOM     60  C   UNL A   1      42.762  29.279  33.631  1.00  0.00     0.064 A 
ATOM     61  C   UNL A   1      41.958  28.139  33.478  1.00  0.00     0.173 A 
ATOM     62  C   UNL A   1      43.381  29.479  34.874  1.00  0.00     0.173 A 
ATOM     63  F   UNL A   1      41.421  27.829  32.291  1.00  0.00    -0.203 F 
ATOM     64  C   UNL A   1      41.746  27.263  34.540  1.00  0.00     0.198 A 
ATOM     65  C   UNL A   1      43.196  28.582  35.922  1.00  0.00     0.198 A 
ATOM     66  F   UNL A   1      44.207  30.521  35.055  1.00  0.00    -0.203 F 
ATOM     67  F   UNL A   1      40.966  26.185  34.376  1.00  0.00    -0.200 F 
ATOM     68  C   UNL A   1      42.371  27.482  35.758  1.00  0.00     0.200 A 
ATOM     69  F   UNL A   1      43.842  28.768  37.081  1.00  0.00    -0.200 F 
ATOM     70  F   UNL A   1      42.202  26.613  36.766  1.00  0.00    -0.200 F 
ENDBRANCH  37  60
ENDBRANCH  11  12
ENDBRANCH   4   6
ENDBRANCH   1   2
BRANCH   1  71
ATOM     71  C   UNL A   1      42.278  19.428  27.630  1.00  0.00     0.023 C 
BRANCH  71  72
ATOM     72  C   UNL A   1      42.757  18.319  26.684  1.00  0.00     0.023 C 
BRANCH  72  73
ATOM     73  C   UNL A   1      43.456  18.782  25.406  1.00  0.00     0.116 C 
BRANCH  73  74
ATOM     74  N   UNL A   1      44.900  18.852  25.557  1.00  0.00    -0.351 N 
ATOM     75  C   UNL A   1      45.802  19.793  25.125  1.00  0.00     0.270 C 
ATOM     76  H   UNL A   1      45.298  18.099  26.051  1.00  0.00     0.163 HD
ATOM     77  O   UNL A   1      46.992  19.498  25.169  1.00  0.00    -0.268 OA
BRANCH  75  78
ATOM     78  C   UNL A   1      45.332  21.062  24.647  1.00  0.00     0.132 A 
ATOM     79  N   UNL A   1      44.901  21.312  23.366  1.00  0.00    -0.270 N 
ATOM     80  C   UNL A   1      45.081  22.243  25.310  1.00  0.00     0.055 A 
ATOM     81  N   UNL A   1      44.518  22.579  23.126  1.00  0.00    -0.154 NA
ATOM     82  H   UNL A   1      44.875  20.613  22.672  1.00  0.00     0.190 HD
ATOM     83  C   UNL A   1      44.603  23.163  24.320  1.00  0.00     0.181 A 
ATOM     84  C   UNL A   1      45.282  22.490  26.665  1.00  0.00     0.055 A 
ATOM     85  N   UNL A   1      44.292  24.448  24.628  1.00  0.00    -0.232 NA
ATOM     86  C   UNL A   1      44.947  23.814  26.955  1.00  0.00     0.142 A 
ATOM     87  C   UNL A   1      44.485  24.708  25.961  1.00  0.00     0.152 A 
ATOM     88  F   UNL A   1      45.069  24.254  28.215  1.00  0.00    -0.205 F 
ENDBRANCH  75  78
ENDBRANCH  73  74
ENDBRANCH  72  73
ENDBRANCH  71  72
ENDBRANCH   1  71
TORSDOF 11
ENDMDL
MODEL 2
REMARK VINA RESULT:     -12.5      4.019     11.556
REMARK SMILES O=C(NCCCCNC(=O)c1[nH]nc2ncc(F)cc12)c1ccc(-c2c3nc(c(-c4c(F)c(F)c(F)c(F)c4F)c4ccc([nH]4)c(-c4c(F)c(F)c(F)c(F)c4F)c4nc(c(-c5c(F)c(F)c(F)c(F)c5F)c5ccc2[nH]5)C=C4)C=C3)cc1
REMARK SMILES IDX 4 1 3 2 1 3 2 4 21 6 22 7 83 8 23 9 82 10 24 11 25 12 26 13
REMARK SMILES IDX 76 14 27 15 81 16 75 17 77 18 28 19 80 20 74 21 73 22 29 24
REMARK SMILES IDX 61 25 41 26 60 27 42 28 45 29 59 30 78 31 43 32 44 33 58 35
REMARK SMILES IDX 79 36 46 37 30 38 31 39 39 40 32 41 33 42 37 43 40 44 34 45
REMARK SMILES IDX 35 46 38 47 36 48 62 49 63 50 71 51 64 52 65 53 69 54 72 55
REMARK SMILES IDX 66 56 67 57 70 58 68 59 47 60 48 61 56 62 49 63 50 64 54 65
REMARK SMILES IDX 57 66 51 67 52 68 55 69 53 70 5 71 6 72 7 73 8 74 9 75 10 77
REMARK SMILES IDX 11 78 12 79 20 80 13 81 14 83 19 84 15 85 17 86 16 87 18 88
REMARK H PARENT 3 5 77 23 45 34 8 76 12 82
REMARK Flexibility Score: inf
ROOT
ATOM      1  C   UNL A   1      34.750  34.390  29.074  1.00  0.00     0.116 C 
ENDROOT
BRANCH   1   2
ATOM      2  N   UNL A   1      34.124  33.207  28.517  1.00  0.00    -0.352 N 
ATOM      3  O   UNL A   1      33.621  31.161  27.877  1.00  0.00    -0.269 OA
ATOM      4  C   UNL A   1      34.505  31.910  28.304  1.00  0.00     0.251 C 
ATOM      5  H   UNL A   1      33.201  33.379  28.220  1.00  0.00     0.163 HD
BRANCH   4   6
ATOM      6  C   UNL A   1      35.869  31.345  28.525  1.00  0.00     0.039 A 
ATOM      7  C   UNL A   1      36.953  32.024  29.075  1.00  0.00     0.014 A 
ATOM      8  C   UNL A   1      36.061  30.002  28.135  1.00  0.00     0.014 A 
ATOM      9  C   UNL A   1      38.190  31.391  29.216  1.00  0.00     0.010 A 
ATOM     10  C   UNL A   1      37.296  29.361  28.280  1.00  0.00     0.010 A 
ATOM     11  C   UNL A   1      38.370  30.061  28.818  1.00  0.00    -0.014 A 
BRANCH  11  12
ATOM     12  C   UNL A   1      39.675  29.451  29.085  1.00  0.00     0.031 A 
ATOM     13  C   UNL A   1      39.985  29.129  30.508  1.00  0.00     0.074 A 
ATOM     14  C   UNL A   1      40.581  29.073  28.163  1.00  0.00     0.049 A 
ATOM     15  N   UNL A   1      40.921  29.622  31.256  1.00  0.00    -0.248 NA
ATOM     16  C   UNL A   1      39.140  28.135  31.181  1.00  0.00     0.031 C 
ATOM     17  C   UNL A   1      40.420  28.953  26.716  1.00  0.00     0.029 A 
ATOM     18  N   UNL A   1      41.867  28.649  28.376  1.00  0.00    -0.354 N 
ATOM     19  C   UNL A   1      40.883  28.906  32.452  1.00  0.00     0.074 A 
ATOM     20  C   UNL A   1      39.723  28.054  32.379  1.00  0.00     0.031 C 
ATOM     21  C   UNL A   1      41.502  28.324  26.200  1.00  0.00     0.029 A 
ATOM     22  C   UNL A   1      42.488  28.132  27.254  1.00  0.00     0.049 A 
ATOM     23  H   UNL A   1      42.310  28.707  29.254  1.00  0.00     0.167 HD
ATOM     24  C   UNL A   1      41.901  28.954  33.357  1.00  0.00     0.037 A 
ATOM     25  C   UNL A   1      43.713  27.562  27.200  1.00  0.00     0.037 A 
ATOM     26  C   UNL A   1      42.754  30.092  33.148  1.00  0.00     0.049 A 
ATOM     27  C   UNL A   1      44.508  28.048  28.354  1.00  0.00     0.074 A 
ATOM     28  C   UNL A   1      42.596  31.462  33.180  1.00  0.00     0.029 A 
ATOM     29  N   UNL A   1      43.988  29.874  32.595  1.00  0.00    -0.354 N 
ATOM     30  N   UNL A   1      44.948  29.268  28.492  1.00  0.00    -0.248 NA
ATOM     31  C   UNL A   1      44.640  27.201  29.531  1.00  0.00     0.031 C 
ATOM     32  C   UNL A   1      43.550  31.979  32.255  1.00  0.00     0.029 A 
ATOM     33  C   UNL A   1      44.223  30.888  31.704  1.00  0.00     0.049 A 
ATOM     34  H   UNL A   1      44.595  29.126  32.799  1.00  0.00     0.167 HD
ATOM     35  C   UNL A   1      45.041  29.454  29.859  1.00  0.00     0.074 A 
ATOM     36  C   UNL A   1      45.010  28.117  30.428  1.00  0.00     0.031 C 
ATOM     37  C   UNL A   1      44.837  30.683  30.413  1.00  0.00     0.037 A 
BRANCH  24  38
ATOM     38  C   UNL A   1      42.319  27.817  34.263  1.00  0.00     0.064 A 
ATOM     39  C   UNL A   1      42.952  26.683  33.707  1.00  0.00     0.173 A 
ATOM     40  C   UNL A   1      41.853  27.663  35.584  1.00  0.00     0.173 A 
ATOM     41  F   UNL A   1      43.414  26.704  32.447  1.00  0.00    -0.203 F 
ATOM     42  C   UNL A   1      43.041  25.469  34.395  1.00  0.00     0.198 A 
ATOM     43  C   UNL A   1      41.993  26.465  36.289  1.00  0.00     0.198 A 
ATOM     44  F   UNL A   1      41.153  28.623  36.201  1.00  0.00    -0.203 F 
ATOM     45  F   UNL A   1      43.533  24.388  33.777  1.00  0.00    -0.200 F 
ATOM     46  C   UNL A   1      42.556  25.360  35.684  1.00  0.00     0.200 A 
ATOM     47  F   UNL A   1      41.503  26.372  37.533  1.00  0.00    -0.200 F 
ATOM     48  F   UNL A   1      42.586  24.184  36.326  1.00  0.00    -0.200 F 
ENDBRANCH  24  38
BRANCH  25  49
ATOM     49  C   UNL A   1      44.210  26.490  26.307  1.00  0.00     0.064 A 
ATOM     50  C   UNL A   1      45.421  26.631  25.608  1.00  0.00     0.173 A 
ATOM     51  C   UNL A   1      43.652  25.199  26.337  1.00  0.00     0.173 A 
ATOM     52  F   UNL A   1      46.044  27.818  25.562  1.00  0.00    -0.203 F 
ATOM     53  C   UNL A   1      46.052  25.539  25.005  1.00  0.00     0.198 A 
ATOM     54  C   UNL A   1      44.275  24.112  25.724  1.00  0.00     0.198 A 
ATOM     55  F   UNL A   1      42.539  24.947  27.043  1.00  0.00    -0.203 F 
ATOM     56  F   UNL A   1      47.241  25.701  24.410  1.00  0.00    -0.200 F 
ATOM     57  C   UNL A   1      45.484  24.278  25.073  1.00  0.00     0.200 A 
ATOM     58  F   UNL A   1      43.731  22.891  25.825  1.00  0.00    -0.200 F 
ATOM     59  F   UNL A   1      46.118  23.221  24.551  1.00  0.00    -0.200 F 
ENDBRANCH  25  49
BRANCH  37  60
ATOM     60  C   UNL A   1      44.953  31.880  29.520  1.00  0.00     0.064 A 
ATOM     61  C   UNL A   1      43.860  32.478  28.873  1.00  0.00     0.173 A 
ATOM     62  C   UNL A   1      46.196  32.523  29.429  1.00  0.00     0.173 A 
ATOM     63  F   UNL A   1      42.624  31.976  29.003  1.00  0.00    -0.203 F 
ATOM     64  C   UNL A   1      44.017  33.645  28.129  1.00  0.00     0.198 A 
ATOM     65  C   UNL A   1      46.342  33.709  28.715  1.00  0.00     0.198 A 
ATOM     66  F   UNL A   1      47.260  32.026  30.078  1.00  0.00    -0.203 F 
ATOM     67  F   UNL A   1      42.962  34.195  27.511  1.00  0.00    -0.200 F 
ATOM     68  C   UNL A   1      45.255  34.263  28.057  1.00  0.00     0.200 A 
ATOM     69  F   UNL A   1      47.529  34.331  28.690  1.00  0.00    -0.200 F 
ATOM     70  F   UNL A   1      45.396  35.411  27.378  1.00  0.00    -0.200 F 
ENDBRANCH  37  60
ENDBRANCH  11  12
ENDBRANCH   4   6
ENDBRANCH   1   2
BRANCH   1  71
ATOM     71  C   UNL A   1      34.555  35.653  28.234  1.00  0.00     0.023 C 
BRANCH  71  72
ATOM     72  C   UNL A   1      33.581  36.690  28.811  1.00  0.00     0.023 C 
BRANCH  72  73
ATOM     73  C   UNL A   1      32.908  36.317  30.132  1.00  0.00     0.116 C 
BRANCH  73  74
ATOM     74  N   UNL A   1      33.435  37.073  31.256  1.00  0.00    -0.351 N 
ATOM     75  C   UNL A   1      33.856  36.659  32.497  1.00  0.00     0.270 C 
ATOM     76  H   UNL A   1      33.502  38.043  31.103  1.00  0.00     0.163 HD
ATOM     77  O   UNL A   1      34.028  37.522  33.352  1.00  0.00    -0.268 OA
BRANCH  75  78
ATOM     78  C   UNL A   1      34.073  35.263  32.744  1.00  0.00     0.132 A 
ATOM     79  N   UNL A   1      33.085  34.343  32.999  1.00  0.00    -0.270 N 
ATOM     80  C   UNL A   1      35.217  34.499  32.675  1.00  0.00     0.055 A 
ATOM     81  N   UNL A   1      33.512  33.087  33.221  1.00  0.00    -0.154 NA
ATOM     82  H   UNL A   1      32.131  34.585  33.018  1.00  0.00     0.190 HD
ATOM     83  C   UNL A   1      34.825  33.160  33.005  1.00  0.00     0.181 A 
ATOM     84  C   UNL A   1      36.499  34.952  32.372  1.00  0.00     0.055 A 
ATOM     85  N   UNL A   1      35.724  32.144  33.068  1.00  0.00    -0.232 NA
ATOM     86  C   UNL A   1      37.400  33.887  32.435  1.00  0.00     0.142 A 
ATOM     87  C   UNL A   1      36.992  32.575  32.771  1.00  0.00     0.152 A 
ATOM     88  F   UNL A   1      38.694  34.115  32.172  1.00  0.00    -0.205 F 
ENDBRANCH  75  78
ENDBRANCH  73  74
ENDBRANCH  72  73
ENDBRANCH  71  72
ENDBRANCH   1  71
TORSDOF 11
ENDMDL
MODEL 3
REMARK VINA RESULT:     -12.4      4.964     10.796
REMARK SMILES O=C(NCCCCNC(=O)c1[nH]nc2ncc(F)cc12)c1ccc(-c2c3nc(c(-c4c(F)c(F)c(F)c(F)c4F)c4ccc([nH]4)c(-c4c(F)c(F)c(F)c(F)c4F)c4nc(c(-c5c(F)c(F)c(F)c(F)c5F)c5ccc2[nH]5)C=C4)C=C3)cc1
REMARK SMILES IDX 4 1 3 2 1 3 2 4 21 6 22 7 83 8 23 9 82 10 24 11 25 12 26 13
REMARK SMILES IDX 76 14 27 15 81 16 75 17 77 18 28 19 80 20 74 21 73 22 29 24
REMARK SMILES IDX 61 25 41 26 60 27 42 28 45 29 59 30 78 31 43 32 44 33 58 35
REMARK SMILES IDX 79 36 46 37 30 38 31 39 39 40 32 41 33 42 37 43 40 44 34 45
REMARK SMILES IDX 35 46 38 47 36 48 62 49 63 50 71 51 64 52 65 53 69 54 72 55
REMARK SMILES IDX 66 56 67 57 70 58 68 59 47 60 48 61 56 62 49 63 50 64 54 65
REMARK SMILES IDX 57 66 51 67 52 68 55 69 53 70 5 71 6 72 7 73 8 74 9 75 10 77
REMARK SMILES IDX 11 78 12 79 20 80 13 81 14 83 19 84 15 85 17 86 16 87 18 88
REMARK H PARENT 3 5 77 23 45 34 8 76 12 82
REMARK Flexibility Score: inf
ROOT
ATOM      1  C   UNL A   1      34.154  31.205  27.553  1.00  0.00     0.116 C 
ENDROOT
BRANCH   1   2
ATOM      2  N   UNL A   1      34.290  31.894  28.821  1.00  0.00    -0.352 N 
ATOM      3  O   UNL A   1      35.006  32.729  30.728  1.00  0.00    -0.269 OA
ATOM      4  C   UNL A   1      35.215  31.910  29.828  1.00  0.00     0.251 C 
ATOM      5  H   UNL A   1      33.532  32.498  28.999  1.00  0.00     0.163 HD
BRANCH   4   6
ATOM      6  C   UNL A   1      36.416  31.030  29.935  1.00  0.00     0.039 A 
ATOM      7  C   UNL A   1      36.437  29.740  30.459  1.00  0.00     0.014 A 
ATOM      8  C   UNL A   1      37.631  31.568  29.458  1.00  0.00     0.014 A 
ATOM      9  C   UNL A   1      37.632  29.018  30.522  1.00  0.00     0.010 A 
ATOM     10  C   UNL A   1      38.828  30.847  29.512  1.00  0.00     0.010 A 
ATOM     11  C   UNL A   1      38.832  29.567  30.052  1.00  0.00    -0.014 A 
BRANCH  11  12
ATOM     12  C   UNL A   1      40.017  28.706  30.076  1.00  0.00     0.031 A 
ATOM     13  C   UNL A   1      40.710  28.556  31.389  1.00  0.00     0.074 A 
ATOM     14  C   UNL A   1      40.488  27.971  29.050  1.00  0.00     0.049 A 
ATOM     15  N   UNL A   1      41.912  28.920  31.707  1.00  0.00    -0.248 NA
ATOM     16  C   UNL A   1      39.963  27.926  32.484  1.00  0.00     0.031 C 
ATOM     17  C   UNL A   1      39.845  27.658  27.776  1.00  0.00     0.029 A 
ATOM     18  N   UNL A   1      41.672  27.284  28.986  1.00  0.00    -0.354 N 
ATOM     19  C   UNL A   1      42.136  28.442  32.997  1.00  0.00     0.074 A 
ATOM     20  C   UNL A   1      40.880  27.902  33.454  1.00  0.00     0.031 C 
ATOM     21  C   UNL A   1      40.565  26.706  27.138  1.00  0.00     0.029 A 
ATOM     22  C   UNL A   1      41.788  26.453  27.887  1.00  0.00     0.049 A 
ATOM     23  H   UNL A   1      42.380  27.375  29.665  1.00  0.00     0.167 HD
ATOM     24  C   UNL A   1      43.384  28.385  33.542  1.00  0.00     0.037 A 
ATOM     25  C   UNL A   1      42.802  25.598  27.624  1.00  0.00     0.037 A 
ATOM     26  C   UNL A   1      44.315  29.228  32.842  1.00  0.00     0.049 A 
ATOM     27  C   UNL A   1      44.004  26.056  28.362  1.00  0.00     0.074 A 
ATOM     28  C   UNL A   1      44.431  30.581  32.598  1.00  0.00     0.029 A 
ATOM     29  N   UNL A   1      45.239  28.625  32.031  1.00  0.00    -0.354 N 
ATOM     30  N   UNL A   1      44.681  27.135  28.083  1.00  0.00    -0.248 NA
ATOM     31  C   UNL A   1      44.356  25.407  29.618  1.00  0.00     0.031 C 
ATOM     32  C   UNL A   1      45.108  30.688  31.348  1.00  0.00     0.029 A 
ATOM     33  C   UNL A   1      45.352  29.389  30.900  1.00  0.00     0.049 A 
ATOM     34  H   UNL A   1      45.732  27.794  32.225  1.00  0.00     0.167 HD
ATOM     35  C   UNL A   1      45.248  27.515  29.286  1.00  0.00     0.074 A 
ATOM     36  C   UNL A   1      45.159  26.338  30.136  1.00  0.00     0.031 C 
ATOM     37  C   UNL A   1      45.463  28.830  29.573  1.00  0.00     0.037 A 
BRANCH  24  38
ATOM     38  C   UNL A   1      43.859  27.346  34.532  1.00  0.00     0.064 A 
ATOM     39  C   UNL A   1      43.899  25.987  34.147  1.00  0.00     0.173 A 
ATOM     40  C   UNL A   1      43.978  27.586  35.917  1.00  0.00     0.173 A 
ATOM     41  F   UNL A   1      43.769  25.636  32.859  1.00  0.00    -0.203 F 
ATOM     42  C   UNL A   1      43.975  24.951  35.083  1.00  0.00     0.198 A 
ATOM     43  C   UNL A   1      44.110  26.550  36.844  1.00  0.00     0.198 A 
ATOM     44  F   UNL A   1      43.863  28.817  36.431  1.00  0.00    -0.203 F 
ATOM     45  F   UNL A   1      43.879  23.678  34.677  1.00  0.00    -0.200 F 
ATOM     46  C   UNL A   1      44.076  25.234  36.432  1.00  0.00     0.200 A 
ATOM     47  F   UNL A   1      44.190  26.842  38.150  1.00  0.00    -0.200 F 
ATOM     48  F   UNL A   1      44.090  24.245  37.336  1.00  0.00    -0.200 F 
ENDBRANCH  24  38
BRANCH  25  49
ATOM     49  C   UNL A   1      42.775  24.305  26.903  1.00  0.00     0.064 A 
ATOM     50  C   UNL A   1      43.325  24.180  25.616  1.00  0.00     0.173 A 
ATOM     51  C   UNL A   1      42.464  23.104  27.568  1.00  0.00     0.173 A 
ATOM     52  F   UNL A   1      43.690  25.272  24.925  1.00  0.00    -0.203 F 
ATOM     53  C   UNL A   1      43.578  22.931  25.043  1.00  0.00     0.198 A 
ATOM     54  C   UNL A   1      42.704  21.857  26.990  1.00  0.00     0.198 A 
ATOM     55  F   UNL A   1      42.007  23.116  28.830  1.00  0.00    -0.203 F 
ATOM     56  F   UNL A   1      44.170  22.854  23.843  1.00  0.00    -0.200 F 
ATOM     57  C   UNL A   1      43.277  21.770  25.736  1.00  0.00     0.200 A 
ATOM     58  F   UNL A   1      42.438  20.742  27.685  1.00  0.00    -0.200 F 
ATOM     59  F   UNL A   1      43.578  20.574  25.215  1.00  0.00    -0.200 F 
ENDBRANCH  25  49
BRANCH  37  60
ATOM     60  C   UNL A   1      45.499  29.797  28.430  1.00  0.00     0.064 A 
ATOM     61  C   UNL A   1      44.351  30.351  27.842  1.00  0.00     0.173 A 
ATOM     62  C   UNL A   1      46.745  30.284  28.010  1.00  0.00     0.173 A 
ATOM     63  F   UNL A   1      43.127  30.010  28.267  1.00  0.00    -0.203 F 
ATOM     64  C   UNL A   1      44.450  31.317  26.843  1.00  0.00     0.198 A 
ATOM     65  C   UNL A   1      46.840  31.275  27.038  1.00  0.00     0.198 A 
ATOM     66  F   UNL A   1      47.872  29.833  28.582  1.00  0.00    -0.203 F 
ATOM     67  F   UNL A   1      43.341  31.825  26.288  1.00  0.00    -0.200 F 
ATOM     68  C   UNL A   1      45.694  31.783  26.448  1.00  0.00     0.200 A 
ATOM     69  F   UNL A   1      48.041  31.761  26.695  1.00  0.00    -0.200 F 
ATOM     70  F   UNL A   1      45.787  32.745  25.518  1.00  0.00    -0.200 F 
ENDBRANCH  37  60
ENDBRANCH  11  12
ENDBRANCH   4   6
ENDBRANCH   1   2
BRANCH   1  71
ATOM     71  C   UNL A   1      34.386  29.695  27.636  1.00  0.00     0.023 C 
BRANCH  71  72
ATOM     72  C   UNL A   1      33.778  28.867  26.496  1.00  0.00     0.023 C 
BRANCH  72  73
ATOM     73  C   UNL A   1      33.208  29.659  25.319  1.00  0.00     0.116 C 
BRANCH  73  74
ATOM     74  N   UNL A   1      33.834  29.305  24.056  1.00  0.00    -0.351 N 
ATOM     75  C   UNL A   1      33.289  28.837  22.885  1.00  0.00     0.270 C 
ATOM     76  H   UNL A   1      34.812  29.420  24.036  1.00  0.00     0.163 HD
ATOM     77  O   UNL A   1      34.059  28.383  22.045  1.00  0.00    -0.268 OA
BRANCH  75  78
ATOM     78  C   UNL A   1      31.868  28.893  22.691  1.00  0.00     0.132 A 
ATOM     79  N   UNL A   1      31.223  29.745  21.827  1.00  0.00    -0.270 N 
ATOM     80  C   UNL A   1      30.856  28.094  23.175  1.00  0.00     0.055 A 
ATOM     81  N   UNL A   1      29.882  29.642  21.814  1.00  0.00    -0.154 NA
ATOM     82  H   UNL A   1      31.708  30.386  21.258  1.00  0.00     0.190 HD
ATOM     83  C   UNL A   1      29.639  28.613  22.624  1.00  0.00     0.181 A 
ATOM     84  C   UNL A   1      30.996  27.017  24.046  1.00  0.00     0.055 A 
ATOM     85  N   UNL A   1      28.429  28.078  22.929  1.00  0.00    -0.232 NA
ATOM     86  C   UNL A   1      29.740  26.480  24.334  1.00  0.00     0.142 A 
ATOM     87  C   UNL A   1      28.550  27.014  23.786  1.00  0.00     0.152 A 
ATOM     88  F   UNL A   1      29.657  25.427  25.159  1.00  0.00    -0.205 F 
ENDBRANCH  75  78
ENDBRANCH  73  74
ENDBRANCH  72  73
ENDBRANCH  71  72
ENDBRANCH   1  71
TORSDOF 11
ENDMDL
