MODEL 1
REMARK VINA RESULT:     -11.4      0.000      0.000
REMARK SMILES Cc1n[nH]c(C(=O)NCCCCNC(=O)c2ccc(-c3c4nc(c(-c5c(F)c(F)c(F)c(F)c5F)c5ccc([nH]5)c(-c5c(F)c(F)c(F)c(F)c5F)c5nc(c(-c6c(F)c(F)c(F)c(F)c6F)c6ccc3[nH]6)C=C5)C=C4)cc2)c1Br
REMARK SMILES IDX 11 1 10 2 9 3 8 4 6 5 7 6 5 8 1 9 2 10 3 11 79 12 4 13 80 14
REMARK SMILES IDX 12 16 13 17 14 18 15 20 16 21 17 22 78 23 18 24 77 25 19 26
REMARK SMILES IDX 20 27 21 28 71 29 22 30 76 31 70 32 72 33 23 34 75 35 69 36
REMARK SMILES IDX 68 37 24 39 56 40 36 41 55 42 37 43 40 44 54 45 73 46 38 47
REMARK SMILES IDX 39 48 53 50 74 51 41 52 25 53 26 54 34 55 27 56 28 57 32 58
REMARK SMILES IDX 35 59 29 60 30 61 33 62 31 63 57 64 58 65 66 66 59 67 60 68
REMARK SMILES IDX 64 69 67 70 61 71 62 72 65 73 63 74 42 75 43 76 51 77 44 78
REMARK SMILES IDX 45 79 49 80 52 81 46 82 47 83 50 84 48 85
REMARK H PARENT 8 7 4 15 13 19 72 38 40 49
REMARK Flexibility Score: inf
ROOT
ATOM      1  C   UNL A   1      43.386  23.414  24.759  1.00  0.00     0.023 C 
ENDROOT
BRANCH   1   2
ATOM      2  C   UNL A   1      44.434  24.507  25.041  1.00  0.00     0.023 C 
BRANCH   2   3
ATOM      3  C   UNL A   1      43.878  25.867  25.476  1.00  0.00     0.116 C 
BRANCH   3   4
ATOM      4  N   UNL A   1      44.767  26.550  26.395  1.00  0.00    -0.351 N 
ATOM      5  C   UNL A   1      45.962  27.214  26.295  1.00  0.00     0.270 C 
ATOM      6  O   UNL A   1      46.376  27.648  27.373  1.00  0.00    -0.267 OA
ATOM      7  H   UNL A   1      44.428  26.533  27.320  1.00  0.00     0.163 HD
BRANCH   5   8
ATOM      8  C   UNL A   1      46.677  27.413  25.055  1.00  0.00     0.137 A 
ATOM      9  C   UNL A   1      49.425  27.296  22.560  1.00  0.00     0.070 C 
ATOM     10  C   UNL A   1      48.218  27.454  23.410  1.00  0.00     0.074 A 
ATOM     11  N   UNL A   1      47.167  28.132  22.936  1.00  0.00    -0.179 NA
ATOM     12  C   UNL A   1      47.948  26.975  24.709  1.00  0.00     0.071 A 
ATOM     13  N   UNL A   1      46.260  28.057  23.922  1.00  0.00    -0.272 N 
ATOM     14  Br  UNL A   1      49.152  25.939  25.715  1.00  0.00    -0.046 Br
ATOM     15  H   UNL A   1      45.358  28.439  23.837  1.00  0.00     0.190 HD
ENDBRANCH   5   8
ENDBRANCH   3   4
ENDBRANCH   2   3
ENDBRANCH   1   2
BRANCH   1  16
ATOM     16  C   UNL A   1      43.142  22.440  25.905  1.00  0.00     0.116 C 
BRANCH  16  17
ATOM     17  N   UNL A   1      41.749  21.995  26.018  1.00  0.00    -0.352 N 
ATOM     18  C   UNL A   1      40.717  22.585  26.740  1.00  0.00     0.251 C 
ATOM     19  H   UNL A   1      41.515  21.177  25.522  1.00  0.00     0.163 HD
ATOM     20  O   UNL A   1      39.729  21.960  27.075  1.00  0.00    -0.269 OA
BRANCH  18  21
ATOM     21  C   UNL A   1      40.842  24.018  27.060  1.00  0.00     0.039 A 
ATOM     22  C   UNL A   1      40.171  25.026  26.360  1.00  0.00     0.014 A 
ATOM     23  C   UNL A   1      41.631  24.318  28.159  1.00  0.00     0.014 A 
ATOM     24  C   UNL A   1      40.258  26.334  26.838  1.00  0.00     0.010 A 
ATOM     25  C   UNL A   1      41.496  25.529  28.764  1.00  0.00     0.010 A 
ATOM     26  C   UNL A   1      40.921  26.568  28.051  1.00  0.00    -0.014 A 
BRANCH  26  27
ATOM     27  C   UNL A   1      41.007  27.878  28.675  1.00  0.00     0.031 A 
ATOM     28  C   UNL A   1      42.106  28.737  28.165  1.00  0.00     0.074 A 
ATOM     29  C   UNL A   1      39.990  28.351  29.435  1.00  0.00     0.049 A 
ATOM     30  N   UNL A   1      43.120  29.194  28.820  1.00  0.00    -0.248 NA
ATOM     31  C   UNL A   1      42.160  29.018  26.720  1.00  0.00     0.031 C 
ATOM     32  C   UNL A   1      38.694  27.722  29.737  1.00  0.00     0.029 A 
ATOM     33  N   UNL A   1      39.859  29.570  30.018  1.00  0.00    -0.354 N 
ATOM     34  C   UNL A   1      43.841  29.978  27.923  1.00  0.00     0.074 A 
ATOM     35  C   UNL A   1      43.312  29.684  26.618  1.00  0.00     0.031 C 
ATOM     36  C   UNL A   1      37.839  28.643  30.234  1.00  0.00     0.029 A 
ATOM     37  C   UNL A   1      38.572  29.871  30.457  1.00  0.00     0.049 A 
ATOM     38  H   UNL A   1      40.614  30.192  30.122  1.00  0.00     0.167 HD
ATOM     39  C   UNL A   1      44.654  30.978  28.364  1.00  0.00     0.037 A 
ATOM     40  C   UNL A   1      38.151  31.065  30.947  1.00  0.00     0.037 A 
ATOM     41  C   UNL A   1      44.922  30.834  29.774  1.00  0.00     0.049 A 
ATOM     42  C   UNL A   1      39.367  31.815  31.355  1.00  0.00     0.074 A 
ATOM     43  C   UNL A   1      45.542  29.871  30.545  1.00  0.00     0.029 A 
ATOM     44  N   UNL A   1      44.171  31.582  30.647  1.00  0.00    -0.354 N 
ATOM     45  N   UNL A   1      40.141  31.443  32.339  1.00  0.00    -0.248 NA
ATOM     46  C   UNL A   1      39.990  32.667  30.352  1.00  0.00     0.031 C 
ATOM     47  C   UNL A   1      44.745  29.778  31.725  1.00  0.00     0.029 A 
ATOM     48  C   UNL A   1      43.740  30.744  31.645  1.00  0.00     0.049 A 
ATOM     49  H   UNL A   1      43.977  32.545  30.571  1.00  0.00     0.167 HD
ATOM     50  C   UNL A   1      41.431  31.649  31.870  1.00  0.00     0.074 A 
ATOM     51  C   UNL A   1      41.274  32.460  30.662  1.00  0.00     0.031 C 
ATOM     52  C   UNL A   1      42.476  30.897  32.327  1.00  0.00     0.037 A 
BRANCH  39  53
ATOM     53  C   UNL A   1      44.905  32.276  27.634  1.00  0.00     0.064 A 
ATOM     54  C   UNL A   1      46.105  32.430  26.908  1.00  0.00     0.173 A 
ATOM     55  C   UNL A   1      44.177  33.465  27.857  1.00  0.00     0.173 A 
ATOM     56  F   UNL A   1      46.883  31.370  26.641  1.00  0.00    -0.203 F 
ATOM     57  C   UNL A   1      46.582  33.686  26.524  1.00  0.00     0.198 A 
ATOM     58  C   UNL A   1      44.631  34.710  27.424  1.00  0.00     0.198 A 
ATOM     59  F   UNL A   1      43.062  33.493  28.595  1.00  0.00    -0.203 F 
ATOM     60  F   UNL A   1      47.791  33.792  25.956  1.00  0.00    -0.200 F 
ATOM     61  C   UNL A   1      45.848  34.826  26.791  1.00  0.00     0.200 A 
ATOM     62  F   UNL A   1      43.910  35.806  27.706  1.00  0.00    -0.200 F 
ATOM     63  F   UNL A   1      46.333  36.036  26.484  1.00  0.00    -0.200 F 
ENDBRANCH  39  53
BRANCH  40  64
ATOM     64  C   UNL A   1      36.834  31.720  30.759  1.00  0.00     0.064 A 
ATOM     65  C   UNL A   1      35.948  31.902  31.834  1.00  0.00     0.173 A 
ATOM     66  C   UNL A   1      36.542  32.433  29.581  1.00  0.00     0.173 A 
ATOM     67  F   UNL A   1      36.182  31.296  33.008  1.00  0.00    -0.203 F 
ATOM     68  C   UNL A   1      34.848  32.762  31.741  1.00  0.00     0.198 A 
ATOM     69  C   UNL A   1      35.443  33.291  29.489  1.00  0.00     0.198 A 
ATOM     70  F   UNL A   1      37.371  32.386  28.528  1.00  0.00    -0.203 F 
ATOM     71  F   UNL A   1      34.056  32.955  32.806  1.00  0.00    -0.200 F 
ATOM     72  C   UNL A   1      34.602  33.465  30.573  1.00  0.00     0.200 A 
ATOM     73  F   UNL A   1      35.242  33.996  28.366  1.00  0.00    -0.200 F 
ATOM     74  F   UNL A   1      33.587  34.336  30.504  1.00  0.00    -0.200 F 
ENDBRANCH  40  64
BRANCH  52  75
ATOM     75  C   UNL A   1      42.228  29.991  33.505  1.00  0.00     0.064 A 
ATOM     76  C   UNL A   1      41.851  28.640  33.399  1.00  0.00     0.173 A 
ATOM     77  C   UNL A   1      42.530  30.470  34.785  1.00  0.00     0.173 A 
ATOM     78  F   UNL A   1      41.642  28.073  32.207  1.00  0.00    -0.203 F 
ATOM     79  C   UNL A   1      41.745  27.823  34.525  1.00  0.00     0.198 A 
ATOM     80  C   UNL A   1      42.459  29.644  35.904  1.00  0.00     0.198 A 
ATOM     81  F   UNL A   1      42.951  31.734  34.944  1.00  0.00    -0.203 F 
ATOM     82  F   UNL A   1      41.376  26.540  34.393  1.00  0.00    -0.200 F 
ATOM     83  C   UNL A   1      42.056  28.325  35.776  1.00  0.00     0.200 A 
ATOM     84  F   UNL A   1      42.810  30.123  37.105  1.00  0.00    -0.200 F 
ATOM     85  F   UNL A   1      41.995  27.532  36.854  1.00  0.00    -0.200 F 
ENDBRANCH  52  75
ENDBRANCH  26  27
ENDBRANCH  18  21
ENDBRANCH  16  17
ENDBRANCH   1  16
TORSDOF 11
ENDMDL
MODEL 2
REMARK VINA RESULT:     -11.3      0.505      1.274
REMARK SMILES Cc1n[nH]c(C(=O)NCCCCNC(=O)c2ccc(-c3c4nc(c(-c5c(F)c(F)c(F)c(F)c5F)c5ccc([nH]5)c(-c5c(F)c(F)c(F)c(F)c5F)c5nc(c(-c6c(F)c(F)c(F)c(F)c6F)c6ccc3[nH]6)C=C5)C=C4)cc2)c1Br
REMARK SMILES IDX 11 1 10 2 9 3 8 4 6 5 7 6 5 8 1 9 2 10 3 11 79 12 4 13 80 14
REMARK SMILES IDX 12 16 13 17 14 18 15 20 16 21 17 22 78 23 18 24 77 25 19 26
REMARK SMILES IDX 20 27 21 28 71 29 22 30 76 31 70 32 72 33 23 34 75 35 69 36
REMARK SMILES IDX 68 37 24 39 56 40 36 41 55 42 37 43 40 44 54 45 73 46 38 47
REMARK SMILES IDX 39 48 53 50 74 51 41 52 25 53 26 54 34 55 27 56 28 57 32 58
REMARK SMILES IDX 35 59 29 60 30 61 33 62 31 63 57 64 58 65 66 66 59 67 60 68
REMARK SMILES IDX 64 69 67 70 61 71 62 72 65 73 63 74 42 75 43 76 51 77 44 78
REMARK SMILES IDX 45 79 49 80 52 81 46 82 47 83 50 84 48 85
REMARK H PARENT 8 7 4 15 13 19 72 38 40 49
REMARK Flexibility Score: inf
ROOT
ATOM      1  C   UNL A   1      44.333  22.475  25.688  1.00  0.00     0.023 C 
ENDROOT
BRANCH   1   2
ATOM      2  C   UNL A   1      45.260  23.653  26.045  1.00  0.00     0.023 C 
BRANCH   2   3
ATOM      3  C   UNL A   1      44.751  25.044  25.653  1.00  0.00     0.116 C 
BRANCH   3   4
ATOM      4  N   UNL A   1      45.363  26.091  26.446  1.00  0.00    -0.351 N 
ATOM      5  C   UNL A   1      46.258  27.103  26.214  1.00  0.00     0.270 C 
ATOM      6  O   UNL A   1      46.511  27.776  27.217  1.00  0.00    -0.267 OA
ATOM      7  H   UNL A   1      45.062  26.070  27.384  1.00  0.00     0.163 HD
BRANCH   5   8
ATOM      8  C   UNL A   1      46.848  27.384  24.925  1.00  0.00     0.137 A 
ATOM      9  C   UNL A   1      49.360  27.494  22.193  1.00  0.00     0.070 C 
ATOM     10  C   UNL A   1      48.229  27.562  23.153  1.00  0.00     0.074 A 
ATOM     11  N   UNL A   1      47.112  28.208  22.805  1.00  0.00    -0.179 NA
ATOM     12  C   UNL A   1      48.099  27.019  24.449  1.00  0.00     0.071 A 
ATOM     13  N   UNL A   1      46.303  28.052  23.864  1.00  0.00    -0.272 N 
ATOM     14  Br  UNL A   1      49.433  26.001  25.297  1.00  0.00    -0.046 Br
ATOM     15  H   UNL A   1      45.381  28.395  23.876  1.00  0.00     0.190 HD
ENDBRANCH   5   8
ENDBRANCH   3   4
ENDBRANCH   2   3
ENDBRANCH   1   2
BRANCH   1  16
ATOM     16  C   UNL A   1      43.028  22.863  25.005  1.00  0.00     0.116 C 
BRANCH  16  17
ATOM     17  N   UNL A   1      41.842  22.222  25.585  1.00  0.00    -0.352 N 
ATOM     18  C   UNL A   1      41.089  22.641  26.677  1.00  0.00     0.251 C 
ATOM     19  H   UNL A   1      41.542  21.393  25.147  1.00  0.00     0.163 HD
ATOM     20  O   UNL A   1      40.381  21.874  27.301  1.00  0.00    -0.269 OA
BRANCH  18  21
ATOM     21  C   UNL A   1      41.148  24.069  27.038  1.00  0.00     0.039 A 
ATOM     22  C   UNL A   1      40.324  25.043  26.467  1.00  0.00     0.014 A 
ATOM     23  C   UNL A   1      42.044  24.393  28.045  1.00  0.00     0.014 A 
ATOM     24  C   UNL A   1      40.375  26.339  26.984  1.00  0.00     0.010 A 
ATOM     25  C   UNL A   1      41.898  25.570  28.711  1.00  0.00     0.010 A 
ATOM     26  C   UNL A   1      41.165  26.584  28.117  1.00  0.00    -0.014 A 
BRANCH  26  27
ATOM     27  C   UNL A   1      41.232  27.876  28.779  1.00  0.00     0.031 A 
ATOM     28  C   UNL A   1      42.362  28.737  28.345  1.00  0.00     0.074 A 
ATOM     29  C   UNL A   1      40.185  28.339  29.503  1.00  0.00     0.049 A 
ATOM     30  N   UNL A   1      43.347  29.166  29.059  1.00  0.00    -0.248 NA
ATOM     31  C   UNL A   1      42.486  29.056  26.912  1.00  0.00     0.031 C 
ATOM     32  C   UNL A   1      38.870  27.714  29.727  1.00  0.00     0.029 A 
ATOM     33  N   UNL A   1      40.036  29.543  30.113  1.00  0.00    -0.354 N 
ATOM     34  C   UNL A   1      44.117  29.967  28.218  1.00  0.00     0.074 A 
ATOM     35  C   UNL A   1      43.647  29.713  26.882  1.00  0.00     0.031 C 
ATOM     36  C   UNL A   1      38.001  28.630  30.208  1.00  0.00     0.029 A 
ATOM     37  C   UNL A   1      38.733  29.845  30.498  1.00  0.00     0.049 A 
ATOM     38  H   UNL A   1      40.791  30.155  30.268  1.00  0.00     0.167 HD
ATOM     39  C   UNL A   1      44.917  30.947  28.724  1.00  0.00     0.037 A 
ATOM     40  C   UNL A   1      38.300  31.029  30.999  1.00  0.00     0.037 A 
ATOM     41  C   UNL A   1      45.117  30.763  30.140  1.00  0.00     0.049 A 
ATOM     42  C   UNL A   1      39.502  31.756  31.484  1.00  0.00     0.074 A 
ATOM     43  C   UNL A   1      45.691  29.774  30.914  1.00  0.00     0.029 A 
ATOM     44  N   UNL A   1      44.331  31.495  30.997  1.00  0.00    -0.354 N 
ATOM     45  N   UNL A   1      40.226  31.351  32.493  1.00  0.00    -0.248 NA
ATOM     46  C   UNL A   1      40.178  32.628  30.536  1.00  0.00     0.031 C 
ATOM     47  C   UNL A   1      44.838  29.657  32.051  1.00  0.00     0.029 A 
ATOM     48  C   UNL A   1      43.847  30.635  31.950  1.00  0.00     0.049 A 
ATOM     49  H   UNL A   1      44.150  32.461  30.939  1.00  0.00     0.167 HD
ATOM     50  C   UNL A   1      41.538  31.556  32.091  1.00  0.00     0.074 A 
ATOM     51  C   UNL A   1      41.444  32.400  30.900  1.00  0.00     0.031 C 
ATOM     52  C   UNL A   1      42.553  30.782  32.576  1.00  0.00     0.037 A 
BRANCH  39  53
ATOM     53  C   UNL A   1      45.213  32.262  28.042  1.00  0.00     0.064 A 
ATOM     54  C   UNL A   1      44.149  33.155  27.791  1.00  0.00     0.173 A 
ATOM     55  C   UNL A   1      46.416  32.551  27.364  1.00  0.00     0.173 A 
ATOM     56  F   UNL A   1      42.955  32.977  28.377  1.00  0.00    -0.203 F 
ATOM     57  C   UNL A   1      44.257  34.193  26.863  1.00  0.00     0.198 A 
ATOM     58  C   UNL A   1      46.535  33.620  26.477  1.00  0.00     0.198 A 
ATOM     59  F   UNL A   1      47.487  31.753  27.436  1.00  0.00    -0.203 F 
ATOM     60  F   UNL A   1      43.179  34.930  26.561  1.00  0.00    -0.200 F 
ATOM     61  C   UNL A   1      45.448  34.419  26.199  1.00  0.00     0.200 A 
ATOM     62  F   UNL A   1      47.696  33.813  25.833  1.00  0.00    -0.200 F 
ATOM     63  F   UNL A   1      45.535  35.370  25.260  1.00  0.00    -0.200 F 
ENDBRANCH  39  53
BRANCH  40  64
ATOM     64  C   UNL A   1      36.999  31.701  30.768  1.00  0.00     0.064 A 
ATOM     65  C   UNL A   1      36.073  31.882  31.809  1.00  0.00     0.173 A 
ATOM     66  C   UNL A   1      36.761  32.433  29.588  1.00  0.00     0.173 A 
ATOM     67  F   UNL A   1      36.253  31.259  32.984  1.00  0.00    -0.203 F 
ATOM     68  C   UNL A   1      34.988  32.756  31.684  1.00  0.00     0.198 A 
ATOM     69  C   UNL A   1      35.677  33.304  29.463  1.00  0.00     0.198 A 
ATOM     70  F   UNL A   1      37.632  32.387  28.568  1.00  0.00    -0.203 F 
ATOM     71  F   UNL A   1      34.156  32.945  32.719  1.00  0.00    -0.200 F 
ATOM     72  C   UNL A   1      34.796  33.475  30.515  1.00  0.00     0.200 A 
ATOM     73  F   UNL A   1      35.529  34.024  28.342  1.00  0.00    -0.200 F 
ATOM     74  F   UNL A   1      33.795  34.359  30.416  1.00  0.00    -0.200 F 
ENDBRANCH  40  64
BRANCH  52  75
ATOM     75  C   UNL A   1      42.242  29.848  33.716  1.00  0.00     0.064 A 
ATOM     76  C   UNL A   1      41.812  28.518  33.555  1.00  0.00     0.173 A 
ATOM     77  C   UNL A   1      42.536  30.270  35.018  1.00  0.00     0.173 A 
ATOM     78  F   UNL A   1      41.605  28.002  32.340  1.00  0.00    -0.203 F 
ATOM     79  C   UNL A   1      41.647  27.668  34.650  1.00  0.00     0.198 A 
ATOM     80  C   UNL A   1      42.406  29.410  36.106  1.00  0.00     0.198 A 
ATOM     81  F   UNL A   1      43.006  31.509  35.231  1.00  0.00    -0.203 F 
ATOM     82  F   UNL A   1      41.229  26.407  34.465  1.00  0.00    -0.200 F 
ATOM     83  C   UNL A   1      41.952  28.114  35.923  1.00  0.00     0.200 A 
ATOM     84  F   UNL A   1      42.750  29.831  37.330  1.00  0.00    -0.200 F 
ATOM     85  F   UNL A   1      41.834  27.287  36.972  1.00  0.00    -0.200 F 
ENDBRANCH  52  75
ENDBRANCH  26  27
ENDBRANCH  18  21
ENDBRANCH  16  17
ENDBRANCH   1  16
TORSDOF 11
ENDMDL
MODEL 3
REMARK VINA RESULT:     -11.2      5.201     10.711
REMARK SMILES Cc1n[nH]c(C(=O)NCCCCNC(=O)c2ccc(-c3c4nc(c(-c5c(F)c(F)c(F)c(F)c5F)c5ccc([nH]5)c(-c5c(F)c(F)c(F)c(F)c5F)c5nc(c(-c6c(F)c(F)c(F)c(F)c6F)c6ccc3[nH]6)C=C5)C=C4)cc2)c1Br
REMARK SMILES IDX 11 1 10 2 9 3 8 4 6 5 7 6 5 8 1 9 2 10 3 11 79 12 4 13 80 14
REMARK SMILES IDX 12 16 13 17 14 18 15 20 16 21 17 22 78 23 18 24 77 25 19 26
REMARK SMILES IDX 20 27 21 28 71 29 22 30 76 31 70 32 72 33 23 34 75 35 69 36
REMARK SMILES IDX 68 37 24 39 56 40 36 41 55 42 37 43 40 44 54 45 73 46 38 47
REMARK SMILES IDX 39 48 53 50 74 51 41 52 25 53 26 54 34 55 27 56 28 57 32 58
REMARK SMILES IDX 35 59 29 60 30 61 33 62 31 63 57 64 58 65 66 66 59 67 60 68
REMARK SMILES IDX 64 69 67 70 61 71 62 72 65 73 63 74 42 75 43 76 51 77 44 78
REMARK SMILES IDX 45 79 49 80 52 81 46 82 47 83 50 84 48 85
REMARK H PARENT 8 7 4 15 13 19 72 38 40 49
REMARK Flexibility Score: inf
ROOT
ATOM      1  C   UNL A   1      34.098  29.967  27.687  1.00  0.00     0.023 C 
ENDROOT
BRANCH   1   2
ATOM      2  C   UNL A   1      34.089  29.103  26.412  1.00  0.00     0.023 C 
BRANCH   2   3
ATOM      3  C   UNL A   1      33.186  29.599  25.277  1.00  0.00     0.116 C 
BRANCH   3   4
ATOM      4  N   UNL A   1      33.580  29.058  23.992  1.00  0.00    -0.351 N 
ATOM      5  C   UNL A   1      32.943  28.760  22.814  1.00  0.00     0.270 C 
ATOM      6  O   UNL A   1      33.694  28.293  21.954  1.00  0.00    -0.267 OA
ATOM      7  H   UNL A   1      34.542  28.853  23.955  1.00  0.00     0.163 HD
BRANCH   5   8
ATOM      8  C   UNL A   1      31.535  28.980  22.576  1.00  0.00     0.137 A 
ATOM      9  C   UNL A   1      27.854  28.551  22.810  1.00  0.00     0.070 C 
ATOM     10  C   UNL A   1      29.283  28.875  22.572  1.00  0.00     0.074 A 
ATOM     11  N   UNL A   1      29.601  29.822  21.682  1.00  0.00    -0.179 NA
ATOM     12  C   UNL A   1      30.449  28.344  23.162  1.00  0.00     0.071 A 
ATOM     13  N   UNL A   1      30.941  29.882  21.737  1.00  0.00    -0.272 N 
ATOM     14  Br  UNL A   1      30.438  27.016  24.493  1.00  0.00    -0.046 Br
ATOM     15  H   UNL A   1      31.460  30.530  21.210  1.00  0.00     0.190 HD
ENDBRANCH   5   8
ENDBRANCH   3   4
ENDBRANCH   2   3
ENDBRANCH   1   2
BRANCH   1  16
ATOM     16  C   UNL A   1      35.128  31.089  27.702  1.00  0.00     0.116 C 
BRANCH  16  17
ATOM     17  N   UNL A   1      34.954  32.039  28.806  1.00  0.00    -0.352 N 
ATOM     18  C   UNL A   1      35.460  31.953  30.099  1.00  0.00     0.251 C 
ATOM     19  H   UNL A   1      34.413  32.837  28.607  1.00  0.00     0.163 HD
ATOM     20  O   UNL A   1      34.966  32.570  31.024  1.00  0.00    -0.269 OA
BRANCH  18  21
ATOM     21  C   UNL A   1      36.649  31.108  30.311  1.00  0.00     0.039 A 
ATOM     22  C   UNL A   1      36.590  29.720  30.467  1.00  0.00     0.014 A 
ATOM     23  C   UNL A   1      37.865  31.773  30.282  1.00  0.00     0.014 A 
ATOM     24  C   UNL A   1      37.790  29.010  30.525  1.00  0.00     0.010 A 
ATOM     25  C   UNL A   1      39.006  31.062  30.072  1.00  0.00     0.010 A 
ATOM     26  C   UNL A   1      38.994  29.698  30.316  1.00  0.00    -0.014 A 
BRANCH  26  27
ATOM     27  C   UNL A   1      40.292  29.045  30.281  1.00  0.00     0.031 A 
ATOM     28  C   UNL A   1      40.931  28.863  31.611  1.00  0.00     0.074 A 
ATOM     29  C   UNL A   1      40.719  28.411  29.163  1.00  0.00     0.049 A 
ATOM     30  N   UNL A   1      42.041  29.372  32.029  1.00  0.00    -0.248 NA
ATOM     31  C   UNL A   1      40.184  28.135  32.650  1.00  0.00     0.031 C 
ATOM     32  C   UNL A   1      40.020  28.234  27.879  1.00  0.00     0.029 A 
ATOM     33  N   UNL A   1      41.849  27.683  28.975  1.00  0.00    -0.354 N 
ATOM     34  C   UNL A   1      42.233  28.877  33.317  1.00  0.00     0.074 A 
ATOM     35  C   UNL A   1      40.984  28.280  33.708  1.00  0.00     0.031 C 
ATOM     36  C   UNL A   1      40.627  27.269  27.153  1.00  0.00     0.029 A 
ATOM     37  C   UNL A   1      41.851  26.893  27.828  1.00  0.00     0.049 A 
ATOM     38  H   UNL A   1      42.607  27.710  29.602  1.00  0.00     0.167 HD
ATOM     39  C   UNL A   1      43.482  28.795  33.856  1.00  0.00     0.037 A 
ATOM     40  C   UNL A   1      42.795  25.980  27.486  1.00  0.00     0.037 A 
ATOM     41  C   UNL A   1      44.416  29.598  33.104  1.00  0.00     0.049 A 
ATOM     42  C   UNL A   1      44.010  26.299  28.280  1.00  0.00     0.074 A 
ATOM     43  C   UNL A   1      44.527  30.947  32.829  1.00  0.00     0.029 A 
ATOM     44  N   UNL A   1      45.196  28.963  32.169  1.00  0.00    -0.354 N 
ATOM     45  N   UNL A   1      44.705  27.392  28.118  1.00  0.00    -0.248 NA
ATOM     46  C   UNL A   1      44.141  25.658  29.580  1.00  0.00     0.031 C 
ATOM     47  C   UNL A   1      44.942  31.009  31.466  1.00  0.00     0.029 A 
ATOM     48  C   UNL A   1      45.143  29.703  31.015  1.00  0.00     0.049 A 
ATOM     49  H   UNL A   1      45.702  28.129  32.303  1.00  0.00     0.167 HD
ATOM     50  C   UNL A   1      45.015  27.807  29.406  1.00  0.00     0.074 A 
ATOM     51  C   UNL A   1      44.691  26.666  30.262  1.00  0.00     0.031 C 
ATOM     52  C   UNL A   1      45.217  29.127  29.692  1.00  0.00     0.037 A 
BRANCH  39  53
ATOM     53  C   UNL A   1      43.944  27.723  34.814  1.00  0.00     0.064 A 
ATOM     54  C   UNL A   1      43.835  26.371  34.427  1.00  0.00     0.173 A 
ATOM     55  C   UNL A   1      44.201  27.941  36.184  1.00  0.00     0.173 A 
ATOM     56  F   UNL A   1      43.587  26.042  33.150  1.00  0.00    -0.203 F 
ATOM     57  C   UNL A   1      43.884  25.329  35.357  1.00  0.00     0.198 A 
ATOM     58  C   UNL A   1      44.302  26.895  37.100  1.00  0.00     0.198 A 
ATOM     59  F   UNL A   1      44.252  29.167  36.716  1.00  0.00    -0.203 F 
ATOM     60  F   UNL A   1      43.642  24.072  34.960  1.00  0.00    -0.200 F 
ATOM     61  C   UNL A   1      44.108  25.593  36.695  1.00  0.00     0.200 A 
ATOM     62  F   UNL A   1      44.506  27.174  38.396  1.00  0.00    -0.200 F 
ATOM     63  F   UNL A   1      44.089  24.604  37.597  1.00  0.00    -0.200 F 
ENDBRANCH  39  53
BRANCH  40  64
ATOM     64  C   UNL A   1      42.604  24.677  26.805  1.00  0.00     0.064 A 
ATOM     65  C   UNL A   1      43.196  24.410  25.559  1.00  0.00     0.173 A 
ATOM     66  C   UNL A   1      42.075  23.570  27.496  1.00  0.00     0.173 A 
ATOM     67  F   UNL A   1      43.766  25.401  24.859  1.00  0.00    -0.203 F 
ATOM     68  C   UNL A   1      43.270  23.110  25.046  1.00  0.00     0.198 A 
ATOM     69  C   UNL A   1      42.148  22.273  26.982  1.00  0.00     0.198 A 
ATOM     70  F   UNL A   1      41.561  23.713  28.726  1.00  0.00    -0.203 F 
ATOM     71  F   UNL A   1      43.892  22.885  23.879  1.00  0.00    -0.200 F 
ATOM     72  C   UNL A   1      42.757  22.041  25.762  1.00  0.00     0.200 A 
ATOM     73  F   UNL A   1      41.685  21.244  27.705  1.00  0.00    -0.200 F 
ATOM     74  F   UNL A   1      42.884  20.789  25.301  1.00  0.00    -0.200 F 
ENDBRANCH  40  64
BRANCH  52  75
ATOM     75  C   UNL A   1      45.306  30.091  28.538  1.00  0.00     0.064 A 
ATOM     76  C   UNL A   1      44.206  30.778  27.992  1.00  0.00     0.173 A 
ATOM     77  C   UNL A   1      46.577  30.446  28.068  1.00  0.00     0.173 A 
ATOM     78  F   UNL A   1      42.968  30.574  28.452  1.00  0.00    -0.203 F 
ATOM     79  C   UNL A   1      44.370  31.741  26.996  1.00  0.00     0.198 A 
ATOM     80  C   UNL A   1      46.742  31.434  27.100  1.00  0.00     0.198 A 
ATOM     81  F   UNL A   1      47.669  29.869  28.590  1.00  0.00    -0.203 F 
ATOM     82  F   UNL A   1      43.301  32.374  26.490  1.00  0.00    -0.200 F 
ATOM     83  C   UNL A   1      45.639  32.073  26.557  1.00  0.00     0.200 A 
ATOM     84  F   UNL A   1      47.976  31.786  26.715  1.00  0.00    -0.200 F 
ATOM     85  F   UNL A   1      45.803  33.028  25.630  1.00  0.00    -0.200 F 
ENDBRANCH  52  75
ENDBRANCH  26  27
ENDBRANCH  18  21
ENDBRANCH  16  17
ENDBRANCH   1  16
TORSDOF 11
ENDMDL
