MODEL 1
REMARK VINA RESULT:     -11.7      0.000      0.000
REMARK SMILES CC[C@H](C)[C@@H](NC(=S)Nc1ccccc1)C(=O)NCCCCNC(=O)c1ccc(-c2c3nc(c(-c4c(F)c(F)c(F)c(F)c4F)c4ccc([nH]4)c(-c4c(F)c(F)c(F)c(F)c4F)c4nc(c(-c5c(F)c(F)c(F)c(F)c5F)c5ccc2[nH]5)C=C4)C=C3)cc1
REMARK SMILES IDX 19 1 18 2 16 3 17 4 5 6 3 7 4 8 2 9 1 10 6 11 7 13 8 14 9 15
REMARK SMILES IDX 10 17 11 18 15 19 12 20 14 21 13 22 20 23 21 24 22 25 23 26
REMARK SMILES IDX 24 27 25 29 26 30 27 31 88 32 28 33 87 34 29 35 30 36 31 37
REMARK SMILES IDX 81 38 32 39 86 40 80 41 82 42 33 43 85 44 79 45 78 46 34 48
REMARK SMILES IDX 66 49 46 50 65 51 47 52 50 53 64 54 83 55 48 56 49 57 63 59
REMARK SMILES IDX 84 60 51 61 35 62 36 63 44 64 37 65 38 66 42 67 45 68 39 69
REMARK SMILES IDX 40 70 43 71 41 72 67 73 68 74 76 75 69 76 70 77 74 78 77 79
REMARK SMILES IDX 71 80 72 81 75 82 73 83 52 84 53 85 61 86 54 87 55 88 59 89
REMARK SMILES IDX 62 90 56 91 57 92 60 93 58 94
REMARK H PARENT 18 5 6 12 9 16 23 28 82 47 50 58
REMARK Flexibility Score: inf
ROOT
ATOM      1  C   UNL A   1      37.673  21.941  25.349  1.00  0.00     0.116 C 
ENDROOT
BRANCH   1   2
ATOM      2  N   UNL A   1      37.373  22.888  24.301  1.00  0.00    -0.354 N 
ATOM      3  C   UNL A   1      36.133  23.181  23.823  1.00  0.00     0.242 C 
ATOM      4  O   UNL A   1      35.955  23.062  22.609  1.00  0.00    -0.273 OA
ATOM      5  H   UNL A   1      38.134  23.364  23.896  1.00  0.00     0.163 HD
BRANCH   3   6
ATOM      6  C   UNL A   1      34.993  23.524  24.810  1.00  0.00     0.173 C 
BRANCH   6   7
ATOM      7  C   UNL A   1      34.336  24.842  24.276  1.00  0.00     0.018 C 
ATOM      8  C   UNL A   1      33.097  24.650  23.402  1.00  0.00     0.010 C 
BRANCH   7   9
ATOM      9  C   UNL A   1      34.076  25.837  25.441  1.00  0.00     0.002 C 
ATOM     10  C   UNL A   1      33.587  27.218  25.034  1.00  0.00     0.004 C 
ENDBRANCH   7   9
ENDBRANCH   6   7
BRANCH   6  11
ATOM     11  N   UNL A   1      34.064  22.381  25.000  1.00  0.00    -0.350 N 
ATOM     12  H   UNL A   1      33.467  22.235  24.232  1.00  0.00     0.163 HD
BRANCH  11  13
ATOM     13  C   UNL A   1      33.863  21.500  26.007  1.00  0.00     0.171 C 
ATOM     14  S   UNL A   1      33.385  22.138  27.482  1.00  0.00    -0.041 S 
BRANCH  13  15
ATOM     15  N   UNL A   1      33.838  20.156  25.868  1.00  0.00    -0.333 N 
ATOM     16  H   UNL A   1      33.987  19.660  26.705  1.00  0.00     0.169 HD
BRANCH  15  17
ATOM     17  C   UNL A   1      33.636  19.343  24.746  1.00  0.00     0.040 A 
ATOM     18  C   UNL A   1      34.533  18.293  24.523  1.00  0.00     0.026 A 
ATOM     19  C   UNL A   1      32.541  19.515  23.902  1.00  0.00     0.026 A 
ATOM     20  C   UNL A   1      34.226  17.313  23.577  1.00  0.00     0.002 A 
ATOM     21  C   UNL A   1      32.254  18.553  22.934  1.00  0.00     0.002 A 
ATOM     22  C   UNL A   1      33.074  17.433  22.800  1.00  0.00     0.000 A 
ENDBRANCH  15  17
ENDBRANCH  13  15
ENDBRANCH  11  13
ENDBRANCH   6  11
ENDBRANCH   3   6
ENDBRANCH   1   2
BRANCH   1  23
ATOM     23  C   UNL A   1      37.272  20.546  24.861  1.00  0.00     0.023 C 
BRANCH  23  24
ATOM     24  C   UNL A   1      38.390  19.501  25.004  1.00  0.00     0.023 C 
BRANCH  24  25
ATOM     25  C   UNL A   1      39.604  19.993  25.785  1.00  0.00     0.116 C 
BRANCH  25  26
ATOM     26  N   UNL A   1      40.584  18.934  25.951  1.00  0.00    -0.352 N 
ATOM     27  C   UNL A   1      41.944  19.049  26.092  1.00  0.00     0.251 C 
ATOM     28  H   UNL A   1      40.227  18.017  25.965  1.00  0.00     0.163 HD
ATOM     29  O   UNL A   1      42.677  18.083  25.948  1.00  0.00    -0.269 OA
BRANCH  27  30
ATOM     30  C   UNL A   1      42.502  20.376  26.408  1.00  0.00     0.039 A 
ATOM     31  C   UNL A   1      43.128  21.107  25.400  1.00  0.00     0.014 A 
ATOM     32  C   UNL A   1      42.354  20.905  27.694  1.00  0.00     0.014 A 
ATOM     33  C   UNL A   1      43.550  22.409  25.664  1.00  0.00     0.010 A 
ATOM     34  C   UNL A   1      42.717  22.223  27.937  1.00  0.00     0.010 A 
ATOM     35  C   UNL A   1      43.310  22.990  26.921  1.00  0.00    -0.014 A 
BRANCH  35  36
ATOM     36  C   UNL A   1      43.634  24.413  27.186  1.00  0.00     0.031 A 
ATOM     37  C   UNL A   1      45.065  24.862  27.237  1.00  0.00     0.074 A 
ATOM     38  C   UNL A   1      42.636  25.273  27.472  1.00  0.00     0.049 A 
ATOM     39  N   UNL A   1      45.552  26.030  27.568  1.00  0.00    -0.248 NA
ATOM     40  C   UNL A   1      46.089  23.860  26.898  1.00  0.00     0.031 C 
ATOM     41  C   UNL A   1      41.211  24.937  27.496  1.00  0.00     0.029 A 
ATOM     42  N   UNL A   1      42.669  26.599  27.824  1.00  0.00    -0.354 N 
ATOM     43  C   UNL A   1      46.932  25.898  27.495  1.00  0.00     0.074 A 
ATOM     44  C   UNL A   1      47.210  24.529  27.122  1.00  0.00     0.031 C 
ATOM     45  C   UNL A   1      40.507  26.026  27.842  1.00  0.00     0.029 A 
ATOM     46  C   UNL A   1      41.431  27.123  28.112  1.00  0.00     0.049 A 
ATOM     47  H   UNL A   1      43.500  27.126  27.864  1.00  0.00     0.167 HD
ATOM     48  C   UNL A   1      47.877  26.844  27.711  1.00  0.00     0.037 A 
ATOM     49  C   UNL A   1      41.084  28.340  28.575  1.00  0.00     0.037 A 
ATOM     50  C   UNL A   1      47.588  28.212  28.049  1.00  0.00     0.049 A 
ATOM     51  C   UNL A   1      42.162  29.362  28.821  1.00  0.00     0.074 A 
ATOM     52  C   UNL A   1      48.472  29.268  28.187  1.00  0.00     0.029 A 
ATOM     53  N   UNL A   1      46.322  28.711  28.315  1.00  0.00    -0.354 N 
ATOM     54  N   UNL A   1      43.458  29.255  28.652  1.00  0.00    -0.248 NA
ATOM     55  C   UNL A   1      41.733  30.673  29.327  1.00  0.00     0.031 C 
ATOM     56  C   UNL A   1      47.750  30.388  28.606  1.00  0.00     0.029 A 
ATOM     57  C   UNL A   1      46.408  30.049  28.666  1.00  0.00     0.049 A 
ATOM     58  H   UNL A   1      45.487  28.192  28.263  1.00  0.00     0.167 HD
ATOM     59  C   UNL A   1      43.992  30.486  29.006  1.00  0.00     0.074 A 
ATOM     60  C   UNL A   1      42.880  31.333  29.379  1.00  0.00     0.031 C 
ATOM     61  C   UNL A   1      45.290  30.878  29.030  1.00  0.00     0.037 A 
BRANCH  48  62
ATOM     62  C   UNL A   1      49.318  26.445  27.598  1.00  0.00     0.064 A 
ATOM     63  C   UNL A   1      49.968  26.364  26.358  1.00  0.00     0.173 A 
ATOM     64  C   UNL A   1      50.083  26.235  28.756  1.00  0.00     0.173 A 
ATOM     65  F   UNL A   1      49.280  26.547  25.221  1.00  0.00    -0.203 F 
ATOM     66  C   UNL A   1      51.329  26.077  26.281  1.00  0.00     0.198 A 
ATOM     67  C   UNL A   1      51.449  25.977  28.676  1.00  0.00     0.198 A 
ATOM     68  F   UNL A   1      49.510  26.307  29.966  1.00  0.00    -0.203 F 
ATOM     69  F   UNL A   1      51.925  25.978  25.085  1.00  0.00    -0.200 F 
ATOM     70  C   UNL A   1      52.070  25.896  27.440  1.00  0.00     0.200 A 
ATOM     71  F   UNL A   1      52.165  25.818  29.798  1.00  0.00    -0.200 F 
ATOM     72  F   UNL A   1      53.384  25.644  27.364  1.00  0.00    -0.200 F 
ENDBRANCH  48  62
BRANCH  49  73
ATOM     73  C   UNL A   1      39.660  28.656  28.864  1.00  0.00     0.064 A 
ATOM     74  C   UNL A   1      38.828  29.221  27.887  1.00  0.00     0.173 A 
ATOM     75  C   UNL A   1      39.110  28.439  30.138  1.00  0.00     0.173 A 
ATOM     76  F   UNL A   1      39.311  29.468  26.660  1.00  0.00    -0.203 F 
ATOM     77  C   UNL A   1      37.518  29.592  28.182  1.00  0.00     0.198 A 
ATOM     78  C   UNL A   1      37.788  28.776  30.421  1.00  0.00     0.198 A 
ATOM     79  F   UNL A   1      39.860  27.896  31.109  1.00  0.00    -0.203 F 
ATOM     80  F   UNL A   1      36.768  30.192  27.247  1.00  0.00    -0.200 F 
ATOM     81  C   UNL A   1      36.997  29.365  29.446  1.00  0.00     0.200 A 
ATOM     82  F   UNL A   1      37.286  28.540  31.640  1.00  0.00    -0.200 F 
ATOM     83  F   UNL A   1      35.739  29.726  29.731  1.00  0.00    -0.200 F 
ENDBRANCH  49  73
BRANCH  61  84
ATOM     84  C   UNL A   1      45.577  32.290  29.452  1.00  0.00     0.064 A 
ATOM     85  C   UNL A   1      45.575  33.346  28.530  1.00  0.00     0.173 A 
ATOM     86  C   UNL A   1      45.797  32.597  30.804  1.00  0.00     0.173 A 
ATOM     87  F   UNL A   1      45.387  33.102  27.225  1.00  0.00    -0.203 F 
ATOM     88  C   UNL A   1      45.803  34.656  28.942  1.00  0.00     0.198 A 
ATOM     89  C   UNL A   1      45.990  33.912  31.217  1.00  0.00     0.198 A 
ATOM     90  F   UNL A   1      45.801  31.624  31.728  1.00  0.00    -0.203 F 
ATOM     91  F   UNL A   1      45.841  35.644  28.038  1.00  0.00    -0.200 F 
ATOM     92  C   UNL A   1      45.999  34.938  30.286  1.00  0.00     0.200 A 
ATOM     93  F   UNL A   1      46.162  34.185  32.519  1.00  0.00    -0.200 F 
ATOM     94  F   UNL A   1      46.202  36.202  30.684  1.00  0.00    -0.200 F 
ENDBRANCH  61  84
ENDBRANCH  35  36
ENDBRANCH  27  30
ENDBRANCH  25  26
ENDBRANCH  24  25
ENDBRANCH  23  24
ENDBRANCH   1  23
TORSDOF 17
ENDMDL
MODEL 2
REMARK VINA RESULT:     -11.7      1.355      7.713
REMARK SMILES CC[C@H](C)[C@@H](NC(=S)Nc1ccccc1)C(=O)NCCCCNC(=O)c1ccc(-c2c3nc(c(-c4c(F)c(F)c(F)c(F)c4F)c4ccc([nH]4)c(-c4c(F)c(F)c(F)c(F)c4F)c4nc(c(-c5c(F)c(F)c(F)c(F)c5F)c5ccc2[nH]5)C=C4)C=C3)cc1
REMARK SMILES IDX 19 1 18 2 16 3 17 4 5 6 3 7 4 8 2 9 1 10 6 11 7 13 8 14 9 15
REMARK SMILES IDX 10 17 11 18 15 19 12 20 14 21 13 22 20 23 21 24 22 25 23 26
REMARK SMILES IDX 24 27 25 29 26 30 27 31 88 32 28 33 87 34 29 35 30 36 31 37
REMARK SMILES IDX 81 38 32 39 86 40 80 41 82 42 33 43 85 44 79 45 78 46 34 48
REMARK SMILES IDX 66 49 46 50 65 51 47 52 50 53 64 54 83 55 48 56 49 57 63 59
REMARK SMILES IDX 84 60 51 61 35 62 36 63 44 64 37 65 38 66 42 67 45 68 39 69
REMARK SMILES IDX 40 70 43 71 41 72 67 73 68 74 76 75 69 76 70 77 74 78 77 79
REMARK SMILES IDX 71 80 72 81 75 82 73 83 52 84 53 85 61 86 54 87 55 88 59 89
REMARK SMILES IDX 62 90 56 91 57 92 60 93 58 94
REMARK H PARENT 18 5 6 12 9 16 23 28 82 47 50 58
REMARK Flexibility Score: inf
ROOT
ATOM      1  C   UNL A   1      37.406  22.279  25.600  1.00  0.00     0.116 C 
ENDROOT
BRANCH   1   2
ATOM      2  N   UNL A   1      37.274  23.129  24.440  1.00  0.00    -0.354 N 
ATOM      3  C   UNL A   1      36.154  23.270  23.678  1.00  0.00     0.242 C 
ATOM      4  O   UNL A   1      36.268  23.064  22.468  1.00  0.00    -0.273 OA
ATOM      5  H   UNL A   1      38.064  23.655  24.177  1.00  0.00     0.163 HD
BRANCH   3   6
ATOM      6  C   UNL A   1      34.795  23.555  24.359  1.00  0.00     0.173 C 
BRANCH   6   7
ATOM      7  C   UNL A   1      34.564  25.099  24.241  1.00  0.00     0.018 C 
ATOM      8  C   UNL A   1      33.755  25.551  23.026  1.00  0.00     0.010 C 
BRANCH   7   9
ATOM      9  C   UNL A   1      33.988  25.671  25.566  1.00  0.00     0.002 C 
ATOM     10  C   UNL A   1      33.634  27.149  25.550  1.00  0.00     0.004 C 
ENDBRANCH   7   9
ENDBRANCH   6   7
BRANCH   6  11
ATOM     11  N   UNL A   1      33.710  22.705  23.805  1.00  0.00    -0.350 N 
ATOM     12  H   UNL A   1      33.651  22.743  22.823  1.00  0.00     0.163 HD
BRANCH  11  13
ATOM     13  C   UNL A   1      32.786  21.890  24.364  1.00  0.00     0.171 C 
ATOM     14  S   UNL A   1      33.234  20.290  24.593  1.00  0.00    -0.041 S 
BRANCH  13  15
ATOM     15  N   UNL A   1      31.621  22.299  24.911  1.00  0.00    -0.333 N 
ATOM     16  H   UNL A   1      31.169  21.616  25.458  1.00  0.00     0.169 HD
BRANCH  15  17
ATOM     17  C   UNL A   1      30.941  23.521  24.842  1.00  0.00     0.040 A 
ATOM     18  C   UNL A   1      30.695  24.207  26.036  1.00  0.00     0.026 A 
ATOM     19  C   UNL A   1      30.573  24.087  23.624  1.00  0.00     0.026 A 
ATOM     20  C   UNL A   1      30.258  25.533  25.992  1.00  0.00     0.002 A 
ATOM     21  C   UNL A   1      30.104  25.401  23.584  1.00  0.00     0.002 A 
ATOM     22  C   UNL A   1      29.986  26.135  24.764  1.00  0.00     0.000 A 
ENDBRANCH  15  17
ENDBRANCH  13  15
ENDBRANCH  11  13
ENDBRANCH   6  11
ENDBRANCH   3   6
ENDBRANCH   1   2
BRANCH   1  23
ATOM     23  C   UNL A   1      36.993  20.859  25.200  1.00  0.00     0.023 C 
BRANCH  23  24
ATOM     24  C   UNL A   1      38.185  19.910  24.990  1.00  0.00     0.023 C 
BRANCH  24  25
ATOM     25  C   UNL A   1      39.438  20.307  25.764  1.00  0.00     0.116 C 
BRANCH  25  26
ATOM     26  N   UNL A   1      40.336  19.176  25.922  1.00  0.00    -0.352 N 
ATOM     27  C   UNL A   1      41.697  19.189  26.095  1.00  0.00     0.251 C 
ATOM     28  H   UNL A   1      39.914  18.288  25.902  1.00  0.00     0.163 HD
ATOM     29  O   UNL A   1      42.363  18.178  25.939  1.00  0.00    -0.269 OA
BRANCH  27  30
ATOM     30  C   UNL A   1      42.340  20.464  26.460  1.00  0.00     0.039 A 
ATOM     31  C   UNL A   1      42.913  21.248  25.459  1.00  0.00     0.014 A 
ATOM     32  C   UNL A   1      42.325  20.895  27.790  1.00  0.00     0.014 A 
ATOM     33  C   UNL A   1      43.416  22.506  25.783  1.00  0.00     0.010 A 
ATOM     34  C   UNL A   1      42.769  22.175  28.099  1.00  0.00     0.010 A 
ATOM     35  C   UNL A   1      43.309  22.995  27.096  1.00  0.00    -0.014 A 
BRANCH  35  36
ATOM     36  C   UNL A   1      43.720  24.379  27.438  1.00  0.00     0.031 A 
ATOM     37  C   UNL A   1      42.695  25.376  27.896  1.00  0.00     0.074 A 
ATOM     38  C   UNL A   1      45.000  24.753  27.242  1.00  0.00     0.049 A 
ATOM     39  N   UNL A   1      42.836  26.656  28.127  1.00  0.00    -0.248 NA
ATOM     40  C   UNL A   1      41.325  24.877  28.095  1.00  0.00     0.031 C 
ATOM     41  C   UNL A   1      46.071  23.881  26.757  1.00  0.00     0.029 A 
ATOM     42  N   UNL A   1      45.612  25.971  27.401  1.00  0.00    -0.354 N 
ATOM     43  C   UNL A   1      41.575  27.117  28.479  1.00  0.00     0.074 A 
ATOM     44  C   UNL A   1      40.672  25.990  28.400  1.00  0.00     0.031 C 
ATOM     45  C   UNL A   1      47.207  24.589  26.660  1.00  0.00     0.029 A 
ATOM     46  C   UNL A   1      46.935  25.975  27.026  1.00  0.00     0.049 A 
ATOM     47  H   UNL A   1      45.149  26.766  27.751  1.00  0.00     0.167 HD
ATOM     48  C   UNL A   1      41.213  28.369  28.846  1.00  0.00     0.037 A 
ATOM     49  C   UNL A   1      47.819  26.989  26.954  1.00  0.00     0.037 A 
ATOM     50  C   UNL A   1      42.126  29.475  28.954  1.00  0.00     0.049 A 
ATOM     51  C   UNL A   1      47.377  28.373  27.353  1.00  0.00     0.074 A 
ATOM     52  C   UNL A   1      41.874  30.755  29.415  1.00  0.00     0.029 A 
ATOM     53  N   UNL A   1      43.461  29.438  28.584  1.00  0.00    -0.354 N 
ATOM     54  N   UNL A   1      46.205  28.776  27.781  1.00  0.00    -0.248 NA
ATOM     55  C   UNL A   1      48.377  29.444  27.255  1.00  0.00     0.031 C 
ATOM     56  C   UNL A   1      43.037  31.512  29.259  1.00  0.00     0.029 A 
ATOM     57  C   UNL A   1      44.033  30.688  28.760  1.00  0.00     0.049 A 
ATOM     58  H   UNL A   1      43.933  28.642  28.246  1.00  0.00     0.167 HD
ATOM     59  C   UNL A   1      46.334  30.136  28.024  1.00  0.00     0.074 A 
ATOM     60  C   UNL A   1      47.704  30.487  27.718  1.00  0.00     0.031 C 
ATOM     61  C   UNL A   1      45.400  31.019  28.455  1.00  0.00     0.037 A 
BRANCH  48  62
ATOM     62  C   UNL A   1      39.768  28.627  29.156  1.00  0.00     0.064 A 
ATOM     63  C   UNL A   1      39.242  28.440  30.442  1.00  0.00     0.173 A 
ATOM     64  C   UNL A   1      38.922  29.161  28.171  1.00  0.00     0.173 A 
ATOM     65  F   UNL A   1      40.007  27.924  31.416  1.00  0.00    -0.203 F 
ATOM     66  C   UNL A   1      37.919  28.768  30.728  1.00  0.00     0.198 A 
ATOM     67  C   UNL A   1      37.608  29.514  28.468  1.00  0.00     0.198 A 
ATOM     68  F   UNL A   1      39.378  29.364  26.926  1.00  0.00    -0.203 F 
ATOM     69  F   UNL A   1      37.429  28.557  31.957  1.00  0.00    -0.200 F 
ATOM     70  C   UNL A   1      37.108  29.316  29.745  1.00  0.00     0.200 A 
ATOM     71  F   UNL A   1      36.832  30.058  27.520  1.00  0.00    -0.200 F 
ATOM     72  F   UNL A   1      35.843  29.654  30.030  1.00  0.00    -0.200 F 
ENDBRANCH  48  62
BRANCH  49  73
ATOM     73  C   UNL A   1      49.201  26.748  26.461  1.00  0.00     0.064 A 
ATOM     74  C   UNL A   1      49.530  26.919  25.108  1.00  0.00     0.173 A 
ATOM     75  C   UNL A   1      50.215  26.301  27.324  1.00  0.00     0.173 A 
ATOM     76  F   UNL A   1      48.592  27.324  24.238  1.00  0.00    -0.203 F 
ATOM     77  C   UNL A   1      50.803  26.616  24.632  1.00  0.00     0.198 A 
ATOM     78  C   UNL A   1      51.498  26.035  26.852  1.00  0.00     0.198 A 
ATOM     79  F   UNL A   1      49.957  26.126  28.628  1.00  0.00    -0.203 F 
ATOM     80  F   UNL A   1      51.069  26.723  23.323  1.00  0.00    -0.200 F 
ATOM     81  C   UNL A   1      51.788  26.178  25.504  1.00  0.00     0.200 A 
ATOM     82  F   UNL A   1      52.450  25.627  27.703  1.00  0.00    -0.200 F 
ATOM     83  F   UNL A   1      53.011  25.882  25.045  1.00  0.00    -0.200 F 
ENDBRANCH  49  73
BRANCH  61  84
ATOM     84  C   UNL A   1      45.830  32.445  28.640  1.00  0.00     0.064 A 
ATOM     85  C   UNL A   1      46.408  32.885  29.839  1.00  0.00     0.173 A 
ATOM     86  C   UNL A   1      45.719  33.365  27.587  1.00  0.00     0.173 A 
ATOM     87  F   UNL A   1      46.521  32.049  30.882  1.00  0.00    -0.203 F 
ATOM     88  C   UNL A   1      46.840  34.201  29.984  1.00  0.00     0.198 A 
ATOM     89  C   UNL A   1      46.184  34.670  27.723  1.00  0.00     0.198 A 
ATOM     90  F   UNL A   1      45.181  32.991  26.416  1.00  0.00    -0.203 F 
ATOM     91  F   UNL A   1      47.349  34.613  31.154  1.00  0.00    -0.200 F 
ATOM     92  C   UNL A   1      46.737  35.088  28.922  1.00  0.00     0.200 A 
ATOM     93  F   UNL A   1      46.099  35.521  26.690  1.00  0.00    -0.200 F 
ATOM     94  F   UNL A   1      47.169  36.349  29.058  1.00  0.00    -0.200 F 
ENDBRANCH  61  84
ENDBRANCH  35  36
ENDBRANCH  27  30
ENDBRANCH  25  26
ENDBRANCH  24  25
ENDBRANCH  23  24
ENDBRANCH   1  23
TORSDOF 17
ENDMDL
MODEL 3
REMARK VINA RESULT:     -11.7      0.849      7.556
REMARK SMILES CC[C@H](C)[C@@H](NC(=S)Nc1ccccc1)C(=O)NCCCCNC(=O)c1ccc(-c2c3nc(c(-c4c(F)c(F)c(F)c(F)c4F)c4ccc([nH]4)c(-c4c(F)c(F)c(F)c(F)c4F)c4nc(c(-c5c(F)c(F)c(F)c(F)c5F)c5ccc2[nH]5)C=C4)C=C3)cc1
REMARK SMILES IDX 19 1 18 2 16 3 17 4 5 6 3 7 4 8 2 9 1 10 6 11 7 13 8 14 9 15
REMARK SMILES IDX 10 17 11 18 15 19 12 20 14 21 13 22 20 23 21 24 22 25 23 26
REMARK SMILES IDX 24 27 25 29 26 30 27 31 88 32 28 33 87 34 29 35 30 36 31 37
REMARK SMILES IDX 81 38 32 39 86 40 80 41 82 42 33 43 85 44 79 45 78 46 34 48
REMARK SMILES IDX 66 49 46 50 65 51 47 52 50 53 64 54 83 55 48 56 49 57 63 59
REMARK SMILES IDX 84 60 51 61 35 62 36 63 44 64 37 65 38 66 42 67 45 68 39 69
REMARK SMILES IDX 40 70 43 71 41 72 67 73 68 74 76 75 69 76 70 77 74 78 77 79
REMARK SMILES IDX 71 80 72 81 75 82 73 83 52 84 53 85 61 86 54 87 55 88 59 89
REMARK SMILES IDX 62 90 56 91 57 92 60 93 58 94
REMARK H PARENT 18 5 6 12 9 16 23 28 82 47 50 58
REMARK Flexibility Score: inf
ROOT
ATOM      1  C   UNL A   1      37.383  22.310  25.452  1.00  0.00     0.116 C 
ENDROOT
BRANCH   1   2
ATOM      2  N   UNL A   1      37.116  23.141  24.302  1.00  0.00    -0.354 N 
ATOM      3  C   UNL A   1      35.922  23.250  23.657  1.00  0.00     0.242 C 
ATOM      4  O   UNL A   1      35.914  23.028  22.445  1.00  0.00    -0.273 OA
ATOM      5  H   UNL A   1      37.864  23.677  23.952  1.00  0.00     0.163 HD
BRANCH   3   6
ATOM      6  C   UNL A   1      34.634  23.520  24.470  1.00  0.00     0.173 C 
BRANCH   6   7
ATOM      7  C   UNL A   1      34.374  25.061  24.375  1.00  0.00     0.018 C 
ATOM      8  C   UNL A   1      33.310  25.486  23.362  1.00  0.00     0.010 C 
BRANCH   7   9
ATOM      9  C   UNL A   1      34.105  25.660  25.783  1.00  0.00     0.002 C 
ATOM     10  C   UNL A   1      32.740  26.301  25.979  1.00  0.00     0.004 C 
ENDBRANCH   7   9
ENDBRANCH   6   7
BRANCH   6  11
ATOM     11  N   UNL A   1      33.510  22.655  24.028  1.00  0.00    -0.350 N 
ATOM     12  H   UNL A   1      33.394  22.639  23.051  1.00  0.00     0.163 HD
BRANCH  11  13
ATOM     13  C   UNL A   1      32.610  21.886  24.684  1.00  0.00     0.171 C 
ATOM     14  S   UNL A   1      31.834  22.589  25.994  1.00  0.00    -0.041 S 
BRANCH  13  15
ATOM     15  N   UNL A   1      32.162  20.684  24.262  1.00  0.00    -0.333 N 
ATOM     16  H   UNL A   1      31.181  20.610  24.217  1.00  0.00     0.169 HD
BRANCH  15  17
ATOM     17  C   UNL A   1      32.844  19.524  23.874  1.00  0.00     0.040 A 
ATOM     18  C   UNL A   1      34.004  19.175  24.576  1.00  0.00     0.026 A 
ATOM     19  C   UNL A   1      32.362  18.691  22.868  1.00  0.00     0.026 A 
ATOM     20  C   UNL A   1      34.563  17.908  24.397  1.00  0.00     0.002 A 
ATOM     21  C   UNL A   1      32.943  17.439  22.667  1.00  0.00     0.002 A 
ATOM     22  C   UNL A   1      34.017  17.033  23.459  1.00  0.00     0.000 A 
ENDBRANCH  15  17
ENDBRANCH  13  15
ENDBRANCH  11  13
ENDBRANCH   6  11
ENDBRANCH   3   6
ENDBRANCH   1   2
BRANCH   1  23
ATOM     23  C   UNL A   1      36.976  20.874  25.109  1.00  0.00     0.023 C 
BRANCH  23  24
ATOM     24  C   UNL A   1      38.172  19.923  24.934  1.00  0.00     0.023 C 
BRANCH  24  25
ATOM     25  C   UNL A   1      39.367  20.259  25.820  1.00  0.00     0.116 C 
BRANCH  25  26
ATOM     26  N   UNL A   1      40.269  19.126  25.934  1.00  0.00    -0.352 N 
ATOM     27  C   UNL A   1      41.634  19.138  26.070  1.00  0.00     0.251 C 
ATOM     28  H   UNL A   1      39.847  18.238  25.911  1.00  0.00     0.163 HD
ATOM     29  O   UNL A   1      42.296  18.130  25.879  1.00  0.00    -0.269 OA
BRANCH  27  30
ATOM     30  C   UNL A   1      42.287  20.407  26.439  1.00  0.00     0.039 A 
ATOM     31  C   UNL A   1      42.891  21.175  25.444  1.00  0.00     0.014 A 
ATOM     32  C   UNL A   1      42.250  20.848  27.766  1.00  0.00     0.014 A 
ATOM     33  C   UNL A   1      43.404  22.429  25.769  1.00  0.00     0.010 A 
ATOM     34  C   UNL A   1      42.705  22.124  28.074  1.00  0.00     0.010 A 
ATOM     35  C   UNL A   1      43.276  22.930  27.077  1.00  0.00    -0.014 A 
BRANCH  35  36
ATOM     36  C   UNL A   1      43.699  24.310  27.417  1.00  0.00     0.031 A 
ATOM     37  C   UNL A   1      42.677  25.328  27.835  1.00  0.00     0.074 A 
ATOM     38  C   UNL A   1      44.989  24.663  27.254  1.00  0.00     0.049 A 
ATOM     39  N   UNL A   1      42.831  26.608  28.058  1.00  0.00    -0.248 NA
ATOM     40  C   UNL A   1      41.294  24.852  28.001  1.00  0.00     0.031 C 
ATOM     41  C   UNL A   1      46.060  23.769  26.808  1.00  0.00     0.029 A 
ATOM     42  N   UNL A   1      45.616  25.873  27.418  1.00  0.00    -0.354 N 
ATOM     43  C   UNL A   1      41.568  27.091  28.369  1.00  0.00     0.074 A 
ATOM     44  C   UNL A   1      40.650  25.977  28.275  1.00  0.00     0.031 C 
ATOM     45  C   UNL A   1      47.209  24.459  26.736  1.00  0.00     0.029 A 
ATOM     46  C   UNL A   1      46.949  25.853  27.081  1.00  0.00     0.049 A 
ATOM     47  H   UNL A   1      45.155  26.679  27.747  1.00  0.00     0.167 HD
ATOM     48  C   UNL A   1      41.214  28.352  28.714  1.00  0.00     0.037 A 
ATOM     49  C   UNL A   1      47.850  26.853  27.025  1.00  0.00     0.037 A 
ATOM     50  C   UNL A   1      42.141  29.445  28.837  1.00  0.00     0.049 A 
ATOM     51  C   UNL A   1      47.418  28.247  27.397  1.00  0.00     0.074 A 
ATOM     52  C   UNL A   1      41.896  30.734  29.278  1.00  0.00     0.029 A 
ATOM     53  N   UNL A   1      43.486  29.384  28.506  1.00  0.00    -0.354 N 
ATOM     54  N   UNL A   1      46.241  28.672  27.788  1.00  0.00    -0.248 NA
ATOM     55  C   UNL A   1      48.437  29.302  27.318  1.00  0.00     0.031 C 
ATOM     56  C   UNL A   1      43.075  31.471  29.148  1.00  0.00     0.029 A 
ATOM     57  C   UNL A   1      44.071  30.627  28.686  1.00  0.00     0.049 A 
ATOM     58  H   UNL A   1      43.954  28.577  28.189  1.00  0.00     0.167 HD
ATOM     59  C   UNL A   1      46.384  30.032  28.021  1.00  0.00     0.074 A 
ATOM     60  C   UNL A   1      47.767  30.360  27.752  1.00  0.00     0.031 C 
ATOM     61  C   UNL A   1      45.451  30.934  28.417  1.00  0.00     0.037 A 
BRANCH  48  62
ATOM     62  C   UNL A   1      39.765  28.635  28.979  1.00  0.00     0.064 A 
ATOM     63  C   UNL A   1      39.200  28.467  30.251  1.00  0.00     0.173 A 
ATOM     64  C   UNL A   1      38.956  29.173  27.966  1.00  0.00     0.173 A 
ATOM     65  F   UNL A   1      39.928  27.949  31.251  1.00  0.00    -0.203 F 
ATOM     66  C   UNL A   1      37.875  28.818  30.497  1.00  0.00     0.198 A 
ATOM     67  C   UNL A   1      37.641  29.549  28.223  1.00  0.00     0.198 A 
ATOM     68  F   UNL A   1      39.451  29.357  26.733  1.00  0.00    -0.203 F 
ATOM     69  F   UNL A   1      37.346  28.626  31.713  1.00  0.00    -0.200 F 
ATOM     70  C   UNL A   1      37.100  29.370  29.486  1.00  0.00     0.200 A 
ATOM     71  F   UNL A   1      36.900  30.096  27.248  1.00  0.00    -0.200 F 
ATOM     72  F   UNL A   1      35.833  29.730  29.732  1.00  0.00    -0.200 F 
ENDBRANCH  48  62
BRANCH  49  73
ATOM     73  C   UNL A   1      49.241  26.586  26.573  1.00  0.00     0.064 A 
ATOM     74  C   UNL A   1      50.228  26.160  27.474  1.00  0.00     0.173 A 
ATOM     75  C   UNL A   1      49.626  26.792  25.239  1.00  0.00     0.173 A 
ATOM     76  F   UNL A   1      49.917  25.969  28.765  1.00  0.00    -0.203 F 
ATOM     77  C   UNL A   1      51.549  25.988  27.067  1.00  0.00     0.198 A 
ATOM     78  C   UNL A   1      50.940  26.583  24.825  1.00  0.00     0.198 A 
ATOM     79  F   UNL A   1      48.721  27.195  24.334  1.00  0.00    -0.203 F 
ATOM     80  F   UNL A   1      52.484  25.646  27.964  1.00  0.00    -0.200 F 
ATOM     81  C   UNL A   1      51.904  26.195  25.743  1.00  0.00     0.200 A 
ATOM     82  F   UNL A   1      51.273  26.771  23.541  1.00  0.00    -0.200 F 
ATOM     83  F   UNL A   1      53.175  26.034  25.354  1.00  0.00    -0.200 F 
ENDBRANCH  49  73
BRANCH  61  84
ATOM     84  C   UNL A   1      45.898  32.355  28.601  1.00  0.00     0.064 A 
ATOM     85  C   UNL A   1      46.441  32.801  29.814  1.00  0.00     0.173 A 
ATOM     86  C   UNL A   1      45.839  33.264  27.533  1.00  0.00     0.173 A 
ATOM     87  F   UNL A   1      46.505  31.975  30.869  1.00  0.00    -0.203 F 
ATOM     88  C   UNL A   1      46.889  34.111  29.959  1.00  0.00     0.198 A 
ATOM     89  C   UNL A   1      46.319  34.563  27.671  1.00  0.00     0.198 A 
ATOM     90  F   UNL A   1      45.335  32.885  26.349  1.00  0.00    -0.203 F 
ATOM     91  F   UNL A   1      47.364  34.528  31.140  1.00  0.00    -0.200 F 
ATOM     92  C   UNL A   1      46.838  34.986  28.884  1.00  0.00     0.200 A 
ATOM     93  F   UNL A   1      46.284  35.402  26.626  1.00  0.00    -0.200 F 
ATOM     94  F   UNL A   1      47.285  36.242  29.019  1.00  0.00    -0.200 F 
ENDBRANCH  61  84
ENDBRANCH  35  36
ENDBRANCH  27  30
ENDBRANCH  25  26
ENDBRANCH  24  25
ENDBRANCH  23  24
ENDBRANCH   1  23
TORSDOF 17
ENDMDL
