MODEL 1
REMARK VINA RESULT:     -13.5      0.000      0.000
REMARK SMILES O=C(NCCCCNC(=O)[C@@H]1CCCC[C@@H]1C(=O)Nc1nc(-c2ccc(Cl)c(Cl)c2)cs1)c1ccc(-c2c3nc(c(-c4c(F)c(F)c(F)c(F)c4F)c4ccc([nH]4)c(-c4c(F)c(F)c(F)c(F)c4F)c4nc(c(-c5c(F)c(F)c(F)c(F)c5F)c5ccc2[nH]5)C=C4)C=C3)cc1
REMARK SMILES IDX 6 1 5 2 4 3 3 4 1 5 2 6 33 8 34 9 95 10 35 11 94 12 36 13
REMARK SMILES IDX 37 14 38 15 88 16 39 17 93 18 87 19 89 20 40 21 92 22 86 23
REMARK SMILES IDX 85 24 41 26 73 27 53 28 72 29 54 30 57 31 71 32 90 33 55 34
REMARK SMILES IDX 56 35 70 37 91 38 58 39 42 40 43 41 51 42 44 43 45 44 49 45
REMARK SMILES IDX 52 46 46 47 47 48 50 49 48 50 74 51 75 52 83 53 76 54 77 55
REMARK SMILES IDX 81 56 84 57 78 58 79 59 82 60 80 61 59 62 60 63 68 64 61 65
REMARK SMILES IDX 62 66 66 67 69 68 63 69 64 70 67 71 65 72 7 73 8 74 9 75
REMARK SMILES IDX 10 77 11 78 12 79 16 80 13 81 15 82 14 83 17 84 18 85 19 86
REMARK SMILES IDX 20 88 21 89 32 90 22 91 31 92 23 93 24 94 30 95 25 96 28 97
REMARK SMILES IDX 26 98 29 99 27 100
REMARK H PARENT 3 7 89 25 57 36 8 76 19 87
REMARK Flexibility Score: inf
ROOT
ATOM      1  C   UNL A   1      35.147  23.441  25.860  1.00  0.00     0.023 C 
ENDROOT
BRANCH   1   2
ATOM      2  C   UNL A   1      35.709  22.729  24.641  1.00  0.00     0.023 C 
BRANCH   2   3
ATOM      3  C   UNL A   1      37.220  22.803  24.479  1.00  0.00     0.116 C 
BRANCH   3   4
ATOM      4  N   UNL A   1      37.924  21.608  24.934  1.00  0.00    -0.352 N 
ATOM      5  O   UNL A   1      39.475  20.386  26.036  1.00  0.00    -0.269 OA
ATOM      6  C   UNL A   1      38.954  21.471  25.844  1.00  0.00     0.251 C 
ATOM      7  H   UNL A   1      37.614  20.766  24.530  1.00  0.00     0.163 HD
BRANCH   6   8
ATOM      8  C   UNL A   1      39.453  22.675  26.544  1.00  0.00     0.039 A 
ATOM      9  C   UNL A   1      38.999  23.935  26.168  1.00  0.00     0.014 A 
ATOM     10  C   UNL A   1      40.441  22.545  27.524  1.00  0.00     0.014 A 
ATOM     11  C   UNL A   1      39.704  25.056  26.574  1.00  0.00     0.010 A 
ATOM     12  C   UNL A   1      41.062  23.690  28.037  1.00  0.00     0.010 A 
ATOM     13  C   UNL A   1      40.743  24.953  27.517  1.00  0.00    -0.014 A 
BRANCH  13  14
ATOM     14  C   UNL A   1      41.440  26.198  27.936  1.00  0.00     0.031 A 
ATOM     15  C   UNL A   1      42.851  26.499  27.506  1.00  0.00     0.074 A 
ATOM     16  C   UNL A   1      40.737  27.114  28.632  1.00  0.00     0.049 A 
ATOM     17  N   UNL A   1      43.563  27.579  27.722  1.00  0.00    -0.248 NA
ATOM     18  C   UNL A   1      43.564  25.460  26.748  1.00  0.00     0.031 C 
ATOM     19  C   UNL A   1      39.367  26.924  29.118  1.00  0.00     0.029 A 
ATOM     20  N   UNL A   1      41.045  28.395  29.005  1.00  0.00    -0.354 N 
ATOM     21  C   UNL A   1      44.807  27.340  27.152  1.00  0.00     0.074 A 
ATOM     22  C   UNL A   1      44.764  26.004  26.595  1.00  0.00     0.031 C 
ATOM     23  C   UNL A   1      38.923  28.072  29.642  1.00  0.00     0.029 A 
ATOM     24  C   UNL A   1      39.999  29.055  29.603  1.00  0.00     0.049 A 
ATOM     25  H   UNL A   1      41.930  28.803  28.860  1.00  0.00     0.167 HD
ATOM     26  C   UNL A   1      45.883  28.163  27.096  1.00  0.00     0.037 A 
ATOM     27  C   UNL A   1      39.912  30.311  30.077  1.00  0.00     0.037 A 
ATOM     28  C   UNL A   1      45.910  29.503  27.629  1.00  0.00     0.049 A 
ATOM     29  C   UNL A   1      41.107  31.208  29.969  1.00  0.00     0.074 A 
ATOM     30  C   UNL A   1      46.953  30.414  27.625  1.00  0.00     0.029 A 
ATOM     31  N   UNL A   1      44.839  30.127  28.252  1.00  0.00    -0.354 N 
ATOM     32  N   UNL A   1      42.281  30.959  29.442  1.00  0.00    -0.248 NA
ATOM     33  C   UNL A   1      40.972  32.557  30.531  1.00  0.00     0.031 C 
ATOM     34  C   UNL A   1      46.521  31.579  28.270  1.00  0.00     0.029 A 
ATOM     35  C   UNL A   1      45.198  31.409  28.640  1.00  0.00     0.049 A 
ATOM     36  H   UNL A   1      43.954  29.720  28.395  1.00  0.00     0.167 HD
ATOM     37  C   UNL A   1      43.028  32.113  29.617  1.00  0.00     0.074 A 
ATOM     38  C   UNL A   1      42.160  33.079  30.259  1.00  0.00     0.031 C 
ATOM     39  C   UNL A   1      44.323  32.347  29.293  1.00  0.00     0.037 A 
BRANCH  26  40
ATOM     40  C   UNL A   1      47.133  27.642  26.446  1.00  0.00     0.064 A 
ATOM     41  C   UNL A   1      48.110  26.952  27.178  1.00  0.00     0.173 A 
ATOM     42  C   UNL A   1      47.323  27.776  25.062  1.00  0.00     0.173 A 
ATOM     43  F   UNL A   1      47.983  26.807  28.505  1.00  0.00    -0.203 F 
ATOM     44  C   UNL A   1      49.237  26.426  26.550  1.00  0.00     0.198 A 
ATOM     45  C   UNL A   1      48.439  27.229  24.434  1.00  0.00     0.198 A 
ATOM     46  F   UNL A   1      46.416  28.423  24.315  1.00  0.00    -0.203 F 
ATOM     47  F   UNL A   1      50.173  25.795  27.274  1.00  0.00    -0.200 F 
ATOM     48  C   UNL A   1      49.396  26.557  25.177  1.00  0.00     0.200 A 
ATOM     49  F   UNL A   1      48.586  27.348  23.107  1.00  0.00    -0.200 F 
ATOM     50  F   UNL A   1      50.475  26.039  24.574  1.00  0.00    -0.200 F 
ENDBRANCH  26  40
BRANCH  27  51
ATOM     51  C   UNL A   1      38.649  30.771  30.705  1.00  0.00     0.064 A 
ATOM     52  C   UNL A   1      37.574  31.222  29.928  1.00  0.00     0.173 A 
ATOM     53  C   UNL A   1      38.480  30.736  32.097  1.00  0.00     0.173 A 
ATOM     54  F   UNL A   1      37.693  31.290  28.594  1.00  0.00    -0.203 F 
ATOM     55  C   UNL A   1      36.382  31.632  30.522  1.00  0.00     0.198 A 
ATOM     56  C   UNL A   1      37.278  31.114  32.687  1.00  0.00     0.198 A 
ATOM     57  F   UNL A   1      39.477  30.304  32.883  1.00  0.00    -0.203 F 
ATOM     58  F   UNL A   1      35.381  32.095  29.760  1.00  0.00    -0.200 F 
ATOM     59  C   UNL A   1      36.231  31.569  31.899  1.00  0.00     0.200 A 
ATOM     60  F   UNL A   1      37.131  31.030  34.016  1.00  0.00    -0.200 F 
ATOM     61  F   UNL A   1      35.079  31.948  32.467  1.00  0.00    -0.200 F 
ENDBRANCH  27  51
BRANCH  39  62
ATOM     62  C   UNL A   1      44.866  33.699  29.642  1.00  0.00     0.064 A 
ATOM     63  C   UNL A   1      45.479  33.938  30.882  1.00  0.00     0.173 A 
ATOM     64  C   UNL A   1      44.773  34.763  28.735  1.00  0.00     0.173 A 
ATOM     65  F   UNL A   1      45.575  32.954  31.788  1.00  0.00    -0.203 F 
ATOM     66  C   UNL A   1      45.948  35.206  31.213  1.00  0.00     0.198 A 
ATOM     67  C   UNL A   1      45.266  36.023  29.060  1.00  0.00     0.198 A 
ATOM     68  F   UNL A   1      44.199  34.582  27.536  1.00  0.00    -0.203 F 
ATOM     69  F   UNL A   1      46.479  35.426  32.424  1.00  0.00    -0.200 F 
ATOM     70  C   UNL A   1      45.844  36.246  30.302  1.00  0.00     0.200 A 
ATOM     71  F   UNL A   1      45.171  37.027  28.177  1.00  0.00    -0.200 F 
ATOM     72  F   UNL A   1      46.289  37.468  30.626  1.00  0.00    -0.200 F 
ENDBRANCH  39  62
ENDBRANCH  13  14
ENDBRANCH   6   8
ENDBRANCH   3   4
ENDBRANCH   2   3
ENDBRANCH   1   2
BRANCH   1  73
ATOM     73  C   UNL A   1      34.299  24.673  25.587  1.00  0.00     0.116 C 
BRANCH  73  74
ATOM     74  N   UNL A   1      33.054  24.749  26.310  1.00  0.00    -0.356 N 
ATOM     75  C   UNL A   1      32.118  25.734  26.382  1.00  0.00     0.223 C 
ATOM     76  H   UNL A   1      32.844  23.949  26.844  1.00  0.00     0.163 HD
ATOM     77  O   UNL A   1      31.041  25.377  26.879  1.00  0.00    -0.275 OA
BRANCH  75  78
ATOM     78  C   UNL A   1      32.357  27.230  26.067  1.00  0.00     0.091 C 
ATOM     79  C   UNL A   1      31.565  28.092  27.084  1.00  0.00     0.014 C 
ATOM     80  C   UNL A   1      32.224  27.771  24.629  1.00  0.00     0.091 C 
ATOM     81  C   UNL A   1      31.827  29.590  26.948  1.00  0.00     0.001 C 
ATOM     82  C   UNL A   1      32.515  29.280  24.559  1.00  0.00     0.014 C 
ATOM     83  C   UNL A   1      31.653  30.085  25.521  1.00  0.00     0.001 C 
BRANCH  80  84
ATOM     84  C   UNL A   1      30.858  27.505  23.986  1.00  0.00     0.230 C 
ATOM     85  O   UNL A   1      29.901  28.262  24.170  1.00  0.00    -0.274 OA
ATOM     86  N   UNL A   1      30.662  26.468  23.125  1.00  0.00    -0.302 N 
ATOM     87  H   UNL A   1      29.880  26.540  22.531  1.00  0.00     0.172 HD
BRANCH  86  88
ATOM     88  C   UNL A   1      31.418  25.341  22.987  1.00  0.00     0.189 A 
ATOM     89  N   UNL A   1      31.321  24.195  23.609  1.00  0.00    -0.220 NA
ATOM     90  S   UNL A   1      32.576  25.430  21.735  1.00  0.00    -0.105 S 
ATOM     91  C   UNL A   1      32.208  23.295  23.050  1.00  0.00     0.084 A 
ATOM     92  C   UNL A   1      33.000  23.793  22.035  1.00  0.00     0.097 A 
BRANCH  91  93
ATOM     93  C   UNL A   1      32.263  21.915  23.484  1.00  0.00     0.003 A 
ATOM     94  C   UNL A   1      32.303  21.614  24.851  1.00  0.00     0.012 A 
ATOM     95  C   UNL A   1      32.267  20.878  22.546  1.00  0.00     0.032 A 
ATOM     96  C   UNL A   1      32.328  20.283  25.278  1.00  0.00     0.023 A 
ATOM     97  C   UNL A   1      32.294  19.546  22.972  1.00  0.00     0.060 A 
ATOM     98  C   UNL A   1      32.320  19.247  24.340  1.00  0.00     0.059 A 
ATOM     99  Cl  UNL A   1      32.287  18.316  21.757  1.00  0.00    -0.083 Cl
ATOM    100  Cl  UNL A   1      32.337  17.625  24.935  1.00  0.00    -0.083 Cl
ENDBRANCH  91  93
ENDBRANCH  86  88
ENDBRANCH  80  84
ENDBRANCH  75  78
ENDBRANCH  73  74
ENDBRANCH   1  73
TORSDOF 14
ENDMDL
MODEL 2
REMARK VINA RESULT:     -13.4      0.411      1.933
REMARK SMILES O=C(NCCCCNC(=O)[C@@H]1CCCC[C@@H]1C(=O)Nc1nc(-c2ccc(Cl)c(Cl)c2)cs1)c1ccc(-c2c3nc(c(-c4c(F)c(F)c(F)c(F)c4F)c4ccc([nH]4)c(-c4c(F)c(F)c(F)c(F)c4F)c4nc(c(-c5c(F)c(F)c(F)c(F)c5F)c5ccc2[nH]5)C=C4)C=C3)cc1
REMARK SMILES IDX 6 1 5 2 4 3 3 4 1 5 2 6 33 8 34 9 95 10 35 11 94 12 36 13
REMARK SMILES IDX 37 14 38 15 88 16 39 17 93 18 87 19 89 20 40 21 92 22 86 23
REMARK SMILES IDX 85 24 41 26 73 27 53 28 72 29 54 30 57 31 71 32 90 33 55 34
REMARK SMILES IDX 56 35 70 37 91 38 58 39 42 40 43 41 51 42 44 43 45 44 49 45
REMARK SMILES IDX 52 46 46 47 47 48 50 49 48 50 74 51 75 52 83 53 76 54 77 55
REMARK SMILES IDX 81 56 84 57 78 58 79 59 82 60 80 61 59 62 60 63 68 64 61 65
REMARK SMILES IDX 62 66 66 67 69 68 63 69 64 70 67 71 65 72 7 73 8 74 9 75
REMARK SMILES IDX 10 77 11 78 12 79 16 80 13 81 15 82 14 83 17 84 18 85 19 86
REMARK SMILES IDX 20 88 21 89 32 90 22 91 31 92 23 93 24 94 30 95 25 96 28 97
REMARK SMILES IDX 26 98 29 99 27 100
REMARK H PARENT 3 7 89 25 57 36 8 76 19 87
REMARK Flexibility Score: inf
ROOT
ATOM      1  C   UNL A   1      34.954  24.233  24.670  1.00  0.00     0.023 C 
ENDROOT
BRANCH   1   2
ATOM      2  C   UNL A   1      35.821  23.001  24.465  1.00  0.00     0.023 C 
BRANCH   2   3
ATOM      3  C   UNL A   1      36.283  22.308  25.738  1.00  0.00     0.116 C 
BRANCH   3   4
ATOM      4  N   UNL A   1      37.324  21.307  25.524  1.00  0.00    -0.352 N 
ATOM      5  O   UNL A   1      39.408  20.431  25.487  1.00  0.00    -0.269 OA
ATOM      6  C   UNL A   1      38.672  21.344  25.821  1.00  0.00     0.251 C 
ATOM      7  H   UNL A   1      37.015  20.474  25.101  1.00  0.00     0.163 HD
BRANCH   6   8
ATOM      8  C   UNL A   1      39.220  22.534  26.506  1.00  0.00     0.039 A 
ATOM      9  C   UNL A   1      38.784  23.805  26.144  1.00  0.00     0.014 A 
ATOM     10  C   UNL A   1      40.236  22.381  27.453  1.00  0.00     0.014 A 
ATOM     11  C   UNL A   1      39.528  24.909  26.528  1.00  0.00     0.010 A 
ATOM     12  C   UNL A   1      40.900  23.510  27.945  1.00  0.00     0.010 A 
ATOM     13  C   UNL A   1      40.594  24.781  27.437  1.00  0.00    -0.014 A 
BRANCH  13  14
ATOM     14  C   UNL A   1      41.333  26.009  27.834  1.00  0.00     0.031 A 
ATOM     15  C   UNL A   1      42.719  26.299  27.324  1.00  0.00     0.074 A 
ATOM     16  C   UNL A   1      40.687  26.921  28.587  1.00  0.00     0.049 A 
ATOM     17  N   UNL A   1      43.458  27.366  27.513  1.00  0.00    -0.248 NA
ATOM     18  C   UNL A   1      43.369  25.265  26.505  1.00  0.00     0.031 C 
ATOM     19  C   UNL A   1      39.347  26.740  29.153  1.00  0.00     0.029 A 
ATOM     20  N   UNL A   1      41.035  28.191  28.963  1.00  0.00    -0.354 N 
ATOM     21  C   UNL A   1      44.661  27.121  26.865  1.00  0.00     0.074 A 
ATOM     22  C   UNL A   1      44.566  25.796  26.289  1.00  0.00     0.031 C 
ATOM     23  C   UNL A   1      38.951  27.885  29.722  1.00  0.00     0.029 A 
ATOM     24  C   UNL A   1      40.037  28.854  29.634  1.00  0.00     0.049 A 
ATOM     25  H   UNL A   1      41.915  28.590  28.770  1.00  0.00     0.167 HD
ATOM     26  C   UNL A   1      45.743  27.930  26.757  1.00  0.00     0.037 A 
ATOM     27  C   UNL A   1      39.997  30.103  30.134  1.00  0.00     0.037 A 
ATOM     28  C   UNL A   1      45.822  29.260  27.310  1.00  0.00     0.049 A 
ATOM     29  C   UNL A   1      41.196  30.986  29.969  1.00  0.00     0.074 A 
ATOM     30  C   UNL A   1      46.876  30.157  27.258  1.00  0.00     0.029 A 
ATOM     31  N   UNL A   1      44.800  29.887  28.008  1.00  0.00    -0.354 N 
ATOM     32  N   UNL A   1      42.331  30.731  29.366  1.00  0.00    -0.248 NA
ATOM     33  C   UNL A   1      41.114  32.326  30.561  1.00  0.00     0.031 C 
ATOM     34  C   UNL A   1      46.500  31.316  27.948  1.00  0.00     0.029 A 
ATOM     35  C   UNL A   1      45.200  31.157  28.395  1.00  0.00     0.049 A 
ATOM     36  H   UNL A   1      43.920  29.489  28.198  1.00  0.00     0.167 HD
ATOM     37  C   UNL A   1      43.104  31.872  29.515  1.00  0.00     0.074 A 
ATOM     38  C   UNL A   1      42.290  32.837  30.226  1.00  0.00     0.031 C 
ATOM     39  C   UNL A   1      44.380  32.095  29.117  1.00  0.00     0.037 A 
BRANCH  26  40
ATOM     40  C   UNL A   1      46.944  27.405  26.023  1.00  0.00     0.064 A 
ATOM     41  C   UNL A   1      47.107  27.601  24.644  1.00  0.00     0.173 A 
ATOM     42  C   UNL A   1      47.977  26.759  26.720  1.00  0.00     0.173 A 
ATOM     43  F   UNL A   1      46.144  28.201  23.929  1.00  0.00    -0.203 F 
ATOM     44  C   UNL A   1      48.253  27.157  23.988  1.00  0.00     0.198 A 
ATOM     45  C   UNL A   1      49.132  26.339  26.065  1.00  0.00     0.198 A 
ATOM     46  F   UNL A   1      47.874  26.552  28.041  1.00  0.00    -0.203 F 
ATOM     47  F   UNL A   1      48.374  27.328  22.663  1.00  0.00    -0.200 F 
ATOM     48  C   UNL A   1      49.269  26.535  24.700  1.00  0.00     0.200 A 
ATOM     49  F   UNL A   1      50.116  25.747  26.757  1.00  0.00    -0.200 F 
ATOM     50  F   UNL A   1      50.376  26.121  24.069  1.00  0.00    -0.200 F 
ENDBRANCH  26  40
BRANCH  27  51
ATOM     51  C   UNL A   1      38.781  30.568  30.846  1.00  0.00     0.064 A 
ATOM     52  C   UNL A   1      38.687  30.500  32.242  1.00  0.00     0.173 A 
ATOM     53  C   UNL A   1      37.700  31.122  30.143  1.00  0.00     0.173 A 
ATOM     54  F   UNL A   1      39.687  29.964  32.956  1.00  0.00    -0.203 F 
ATOM     55  C   UNL A   1      37.552  30.959  32.907  1.00  0.00     0.198 A 
ATOM     56  C   UNL A   1      36.581  31.610  30.812  1.00  0.00     0.198 A 
ATOM     57  F   UNL A   1      37.745  31.216  28.807  1.00  0.00    -0.203 F 
ATOM     58  F   UNL A   1      37.469  30.850  34.241  1.00  0.00    -0.200 F 
ATOM     59  C   UNL A   1      36.504  31.522  32.193  1.00  0.00     0.200 A 
ATOM     60  F   UNL A   1      35.582  32.172  30.118  1.00  0.00    -0.200 F 
ATOM     61  F   UNL A   1      35.421  31.977  32.835  1.00  0.00    -0.200 F 
ENDBRANCH  27  51
BRANCH  39  62
ATOM     62  C   UNL A   1      44.963  33.433  29.455  1.00  0.00     0.064 A 
ATOM     63  C   UNL A   1      44.818  34.528  28.589  1.00  0.00     0.173 A 
ATOM     64  C   UNL A   1      45.673  33.622  30.648  1.00  0.00     0.173 A 
ATOM     65  F   UNL A   1      44.162  34.388  27.428  1.00  0.00    -0.203 F 
ATOM     66  C   UNL A   1      45.395  35.758  28.893  1.00  0.00     0.198 A 
ATOM     67  C   UNL A   1      46.226  34.861  30.960  1.00  0.00     0.198 A 
ATOM     68  F   UNL A   1      45.835  32.606  31.508  1.00  0.00    -0.203 F 
ATOM     69  F   UNL A   1      45.292  36.775  28.026  1.00  0.00    -0.200 F 
ATOM     70  C   UNL A   1      46.095  35.924  30.078  1.00  0.00     0.200 A 
ATOM     71  F   UNL A   1      46.898  35.023  32.108  1.00  0.00    -0.200 F 
ATOM     72  F   UNL A   1      46.656  37.107  30.365  1.00  0.00    -0.200 F 
ENDBRANCH  39  62
ENDBRANCH  13  14
ENDBRANCH   6   8
ENDBRANCH   3   4
ENDBRANCH   2   3
ENDBRANCH   1   2
BRANCH   1  73
ATOM     73  C   UNL A   1      34.662  24.617  26.111  1.00  0.00     0.116 C 
BRANCH  73  74
ATOM     74  N   UNL A   1      33.270  24.645  26.483  1.00  0.00    -0.356 N 
ATOM     75  C   UNL A   1      32.304  25.579  26.270  1.00  0.00     0.223 C 
ATOM     76  H   UNL A   1      32.964  23.850  26.976  1.00  0.00     0.163 HD
ATOM     77  O   UNL A   1      31.152  25.178  26.484  1.00  0.00    -0.275 OA
BRANCH  75  78
ATOM     78  C   UNL A   1      32.549  27.078  25.968  1.00  0.00     0.091 C 
ATOM     79  C   UNL A   1      31.787  27.934  27.012  1.00  0.00     0.014 C 
ATOM     80  C   UNL A   1      32.390  27.636  24.540  1.00  0.00     0.091 C 
ATOM     81  C   UNL A   1      32.059  29.431  26.888  1.00  0.00     0.001 C 
ATOM     82  C   UNL A   1      32.693  29.144  24.481  1.00  0.00     0.014 C 
ATOM     83  C   UNL A   1      31.859  29.945  25.472  1.00  0.00     0.001 C 
BRANCH  80  84
ATOM     84  C   UNL A   1      31.008  27.390  23.923  1.00  0.00     0.230 C 
ATOM     85  O   UNL A   1      30.067  28.163  24.122  1.00  0.00    -0.274 OA
ATOM     86  N   UNL A   1      30.780  26.353  23.070  1.00  0.00    -0.302 N 
ATOM     87  H   UNL A   1      29.988  26.436  22.490  1.00  0.00     0.172 HD
BRANCH  86  88
ATOM     88  C   UNL A   1      31.515  25.215  22.922  1.00  0.00     0.189 A 
ATOM     89  N   UNL A   1      31.440  24.086  23.579  1.00  0.00    -0.220 NA
ATOM     90  S   UNL A   1      32.605  25.257  21.607  1.00  0.00    -0.105 S 
ATOM     91  C   UNL A   1      32.286  23.162  22.998  1.00  0.00     0.084 A 
ATOM     92  C   UNL A   1      33.027  23.623  21.928  1.00  0.00     0.097 A 
BRANCH  91  93
ATOM     93  C   UNL A   1      32.350  21.793  23.465  1.00  0.00     0.003 A 
ATOM     94  C   UNL A   1      32.475  21.528  24.834  1.00  0.00     0.012 A 
ATOM     95  C   UNL A   1      32.279  20.732  22.558  1.00  0.00     0.032 A 
ATOM     96  C   UNL A   1      32.510  20.209  25.295  1.00  0.00     0.023 A 
ATOM     97  C   UNL A   1      32.315  19.411  23.018  1.00  0.00     0.060 A 
ATOM     98  C   UNL A   1      32.426  19.148  24.389  1.00  0.00     0.059 A 
ATOM     99  Cl  UNL A   1      32.212  18.149  21.841  1.00  0.00    -0.083 Cl
ATOM    100  Cl  UNL A   1      32.460  17.543  25.027  1.00  0.00    -0.083 Cl
ENDBRANCH  91  93
ENDBRANCH  86  88
ENDBRANCH  80  84
ENDBRANCH  75  78
ENDBRANCH  73  74
ENDBRANCH   1  73
TORSDOF 14
ENDMDL
MODEL 3
REMARK VINA RESULT:     -13.2      0.522      7.097
REMARK SMILES O=C(NCCCCNC(=O)[C@@H]1CCCC[C@@H]1C(=O)Nc1nc(-c2ccc(Cl)c(Cl)c2)cs1)c1ccc(-c2c3nc(c(-c4c(F)c(F)c(F)c(F)c4F)c4ccc([nH]4)c(-c4c(F)c(F)c(F)c(F)c4F)c4nc(c(-c5c(F)c(F)c(F)c(F)c5F)c5ccc2[nH]5)C=C4)C=C3)cc1
REMARK SMILES IDX 6 1 5 2 4 3 3 4 1 5 2 6 33 8 34 9 95 10 35 11 94 12 36 13
REMARK SMILES IDX 37 14 38 15 88 16 39 17 93 18 87 19 89 20 40 21 92 22 86 23
REMARK SMILES IDX 85 24 41 26 73 27 53 28 72 29 54 30 57 31 71 32 90 33 55 34
REMARK SMILES IDX 56 35 70 37 91 38 58 39 42 40 43 41 51 42 44 43 45 44 49 45
REMARK SMILES IDX 52 46 46 47 47 48 50 49 48 50 74 51 75 52 83 53 76 54 77 55
REMARK SMILES IDX 81 56 84 57 78 58 79 59 82 60 80 61 59 62 60 63 68 64 61 65
REMARK SMILES IDX 62 66 66 67 69 68 63 69 64 70 67 71 65 72 7 73 8 74 9 75
REMARK SMILES IDX 10 77 11 78 12 79 16 80 13 81 15 82 14 83 17 84 18 85 19 86
REMARK SMILES IDX 20 88 21 89 32 90 22 91 31 92 23 93 24 94 30 95 25 96 28 97
REMARK SMILES IDX 26 98 29 99 27 100
REMARK H PARENT 3 7 89 25 57 36 8 76 19 87
REMARK Flexibility Score: inf
ROOT
ATOM      1  C   UNL A   1      35.466  23.311  26.048  1.00  0.00     0.023 C 
ENDROOT
BRANCH   1   2
ATOM      2  C   UNL A   1      35.919  22.384  24.933  1.00  0.00     0.023 C 
BRANCH   2   3
ATOM      3  C   UNL A   1      37.415  22.380  24.655  1.00  0.00     0.116 C 
BRANCH   3   4
ATOM      4  N   UNL A   1      38.130  21.265  25.270  1.00  0.00    -0.352 N 
ATOM      5  O   UNL A   1      39.684  20.221  26.538  1.00  0.00    -0.269 OA
ATOM      6  C   UNL A   1      39.151  21.264  26.200  1.00  0.00     0.251 C 
ATOM      7  H   UNL A   1      37.836  20.373  24.977  1.00  0.00     0.163 HD
BRANCH   6   8
ATOM      8  C   UNL A   1      39.625  22.556  26.742  1.00  0.00     0.039 A 
ATOM      9  C   UNL A   1      39.004  23.740  26.357  1.00  0.00     0.014 A 
ATOM     10  C   UNL A   1      40.749  22.587  27.572  1.00  0.00     0.014 A 
ATOM     11  C   UNL A   1      39.648  24.945  26.583  1.00  0.00     0.010 A 
ATOM     12  C   UNL A   1      41.323  23.817  27.913  1.00  0.00     0.010 A 
ATOM     13  C   UNL A   1      40.815  25.005  27.367  1.00  0.00    -0.014 A 
BRANCH  13  14
ATOM     14  C   UNL A   1      41.441  26.333  27.599  1.00  0.00     0.031 A 
ATOM     15  C   UNL A   1      40.753  27.404  28.402  1.00  0.00     0.074 A 
ATOM     16  C   UNL A   1      42.701  26.525  27.159  1.00  0.00     0.049 A 
ATOM     17  N   UNL A   1      41.206  28.581  28.761  1.00  0.00    -0.248 NA
ATOM     18  C   UNL A   1      39.381  27.133  28.856  1.00  0.00     0.031 C 
ATOM     19  C   UNL A   1      43.461  25.563  26.355  1.00  0.00     0.029 A 
ATOM     20  N   UNL A   1      43.581  27.554  27.362  1.00  0.00    -0.354 N 
ATOM     21  C   UNL A   1      40.172  29.197  29.453  1.00  0.00     0.074 A 
ATOM     22  C   UNL A   1      39.057  28.273  29.453  1.00  0.00     0.031 C 
ATOM     23  C   UNL A   1      44.717  26.004  26.212  1.00  0.00     0.029 A 
ATOM     24  C   UNL A   1      44.830  27.314  26.843  1.00  0.00     0.049 A 
ATOM     25  H   UNL A   1      43.343  28.385  27.835  1.00  0.00     0.167 HD
ATOM     26  C   UNL A   1      40.158  30.419  30.040  1.00  0.00     0.037 A 
ATOM     27  C   UNL A   1      45.946  28.065  26.861  1.00  0.00     0.037 A 
ATOM     28  C   UNL A   1      41.280  31.324  30.062  1.00  0.00     0.049 A 
ATOM     29  C   UNL A   1      45.909  29.397  27.548  1.00  0.00     0.074 A 
ATOM     30  C   UNL A   1      41.364  32.585  30.626  1.00  0.00     0.029 A 
ATOM     31  N   UNL A   1      42.521  31.057  29.500  1.00  0.00    -0.354 N 
ATOM     32  N   UNL A   1      44.916  29.969  28.184  1.00  0.00    -0.248 NA
ATOM     33  C   UNL A   1      47.142  30.192  27.511  1.00  0.00     0.031 C 
ATOM     34  C   UNL A   1      42.647  33.092  30.383  1.00  0.00     0.029 A 
ATOM     35  C   UNL A   1      43.374  32.131  29.701  1.00  0.00     0.049 A 
ATOM     36  H   UNL A   1      42.760  30.226  29.029  1.00  0.00     0.167 HD
ATOM     37  C   UNL A   1      45.399  31.195  28.613  1.00  0.00     0.074 A 
ATOM     38  C   UNL A   1      46.787  31.264  28.205  1.00  0.00     0.031 C 
ATOM     39  C   UNL A   1      44.747  32.185  29.271  1.00  0.00     0.037 A 
BRANCH  26  40
ATOM     40  C   UNL A   1      38.886  30.866  30.703  1.00  0.00     0.064 A 
ATOM     41  C   UNL A   1      38.676  30.699  32.079  1.00  0.00     0.173 A 
ATOM     42  C   UNL A   1      37.895  31.532  29.965  1.00  0.00     0.173 A 
ATOM     43  F   UNL A   1      39.585  30.059  32.829  1.00  0.00    -0.203 F 
ATOM     44  C   UNL A   1      37.515  31.170  32.689  1.00  0.00     0.198 A 
ATOM     45  C   UNL A   1      36.747  32.023  30.582  1.00  0.00     0.198 A 
ATOM     46  F   UNL A   1      38.050  31.723  28.646  1.00  0.00    -0.203 F 
ATOM     47  F   UNL A   1      37.322  30.973  34.002  1.00  0.00    -0.200 F 
ATOM     48  C   UNL A   1      36.556  31.840  31.942  1.00  0.00     0.200 A 
ATOM     49  F   UNL A   1      35.827  32.678  29.860  1.00  0.00    -0.200 F 
ATOM     50  F   UNL A   1      35.447  32.304  32.533  1.00  0.00    -0.200 F 
ENDBRANCH  26  40
BRANCH  27  51
ATOM     51  C   UNL A   1      47.174  27.569  26.193  1.00  0.00     0.064 A 
ATOM     52  C   UNL A   1      47.393  27.783  24.826  1.00  0.00     0.173 A 
ATOM     53  C   UNL A   1      48.171  26.899  26.919  1.00  0.00     0.173 A 
ATOM     54  F   UNL A   1      46.462  28.403  24.087  1.00  0.00    -0.203 F 
ATOM     55  C   UNL A   1      48.559  27.334  24.208  1.00  0.00     0.198 A 
ATOM     56  C   UNL A   1      49.349  26.481  26.307  1.00  0.00     0.198 A 
ATOM     57  F   UNL A   1      48.011  26.678  28.231  1.00  0.00    -0.203 F 
ATOM     58  F   UNL A   1      48.729  27.517  22.891  1.00  0.00    -0.200 F 
ATOM     59  C   UNL A   1      49.539  26.692  24.950  1.00  0.00     0.200 A 
ATOM     60  F   UNL A   1      50.301  25.882  27.034  1.00  0.00    -0.200 F 
ATOM     61  F   UNL A   1      50.666  26.276  24.358  1.00  0.00    -0.200 F 
ENDBRANCH  27  51
BRANCH  39  62
ATOM     62  C   UNL A   1      45.536  33.421  29.573  1.00  0.00     0.064 A 
ATOM     63  C   UNL A   1      45.567  34.501  28.677  1.00  0.00     0.173 A 
ATOM     64  C   UNL A   1      46.269  33.529  30.763  1.00  0.00     0.173 A 
ATOM     65  F   UNL A   1      44.895  34.436  27.519  1.00  0.00    -0.203 F 
ATOM     66  C   UNL A   1      46.333  35.631  28.948  1.00  0.00     0.198 A 
ATOM     67  C   UNL A   1      47.014  34.671  31.042  1.00  0.00     0.198 A 
ATOM     68  F   UNL A   1      46.268  32.524  31.652  1.00  0.00    -0.203 F 
ATOM     69  F   UNL A   1      46.393  36.628  28.054  1.00  0.00    -0.200 F 
ATOM     70  C   UNL A   1      47.053  35.716  30.130  1.00  0.00     0.200 A 
ATOM     71  F   UNL A   1      47.705  34.756  32.188  1.00  0.00    -0.200 F 
ATOM     72  F   UNL A   1      47.796  36.802  30.386  1.00  0.00    -0.200 F 
ENDBRANCH  39  62
ENDBRANCH  13  14
ENDBRANCH   6   8
ENDBRANCH   3   4
ENDBRANCH   2   3
ENDBRANCH   1   2
BRANCH   1  73
ATOM     73  C   UNL A   1      34.522  24.433  25.647  1.00  0.00     0.116 C 
BRANCH  73  74
ATOM     74  N   UNL A   1      33.267  24.480  26.356  1.00  0.00    -0.356 N 
ATOM     75  C   UNL A   1      32.302  25.438  26.407  1.00  0.00     0.223 C 
ATOM     76  H   UNL A   1      33.074  23.680  26.896  1.00  0.00     0.163 HD
ATOM     77  O   UNL A   1      31.231  25.055  26.896  1.00  0.00    -0.275 OA
BRANCH  75  78
ATOM     78  C   UNL A   1      32.500  26.937  26.079  1.00  0.00     0.091 C 
ATOM     79  C   UNL A   1      31.688  27.787  27.090  1.00  0.00     0.014 C 
ATOM     80  C   UNL A   1      32.351  27.462  24.637  1.00  0.00     0.091 C 
ATOM     81  C   UNL A   1      31.910  29.290  26.940  1.00  0.00     0.001 C 
ATOM     82  C   UNL A   1      32.602  28.978  24.553  1.00  0.00     0.014 C 
ATOM     83  C   UNL A   1      31.721  29.768  25.510  1.00  0.00     0.001 C 
BRANCH  80  84
ATOM     84  C   UNL A   1      30.991  27.155  23.998  1.00  0.00     0.230 C 
ATOM     85  O   UNL A   1      30.024  27.905  24.152  1.00  0.00    -0.274 OA
ATOM     86  N   UNL A   1      30.812  26.084  23.176  1.00  0.00    -0.302 N 
ATOM     87  H   UNL A   1      30.032  26.124  22.576  1.00  0.00     0.172 HD
BRANCH  86  88
ATOM     88  C   UNL A   1      31.583  24.964  23.081  1.00  0.00     0.189 A 
ATOM     89  N   UNL A   1      31.469  23.822  23.708  1.00  0.00    -0.220 NA
ATOM     90  S   UNL A   1      32.796  25.053  21.881  1.00  0.00    -0.105 S 
ATOM     91  C   UNL A   1      32.388  22.926  23.198  1.00  0.00     0.084 A 
ATOM     92  C   UNL A   1      33.220  23.423  22.214  1.00  0.00     0.097 A 
BRANCH  91  93
ATOM     93  C   UNL A   1      32.436  21.549  23.646  1.00  0.00     0.003 A 
ATOM     94  C   UNL A   1      32.550  21.264  25.011  1.00  0.00     0.012 A 
ATOM     95  C   UNL A   1      32.360  20.503  22.722  1.00  0.00     0.032 A 
ATOM     96  C   UNL A   1      32.569  19.938  25.454  1.00  0.00     0.023 A 
ATOM     97  C   UNL A   1      32.381  19.174  23.163  1.00  0.00     0.060 A 
ATOM     98  C   UNL A   1      32.481  18.891  24.531  1.00  0.00     0.059 A 
ATOM     99  Cl  UNL A   1      32.273  17.931  21.968  1.00  0.00    -0.083 Cl
ATOM    100  Cl  UNL A   1      32.495  17.277  25.146  1.00  0.00    -0.083 Cl
ENDBRANCH  91  93
ENDBRANCH  86  88
ENDBRANCH  80  84
ENDBRANCH  75  78
ENDBRANCH  73  74
ENDBRANCH   1  73
TORSDOF 14
ENDMDL
