MODEL 1
REMARK VINA RESULT:     -13.1      0.000      0.000
REMARK SMILES CO[C@H]1C[C@@H](C(=O)NCCCCNC(=O)c2ccc(-c3c4nc(c(-c5c(F)c(F)c(F)c(F)c5F)c5ccc([nH]5)c(-c5c(F)c(F)c(F)c(F)c5F)c5nc(c(-c6c(F)c(F)c(F)c(F)c6F)c6ccc3[nH]6)C=C5)C=C4)cc2)N(C(=O)Nc2cc(C)cc(F)c2)C1
REMARK SMILES IDX 10 1 9 2 8 3 6 4 7 5 5 7 3 8 4 9 91 10 79 11 2 12 1 13 80 14
REMARK SMILES IDX 81 15 82 16 83 18 84 19 90 20 85 21 88 22 86 23 87 24 89 25
REMARK SMILES IDX 11 26 12 27 13 28 14 29 15 31 16 32 17 33 78 34 18 35 77 36
REMARK SMILES IDX 19 37 20 38 21 39 71 40 22 41 76 42 70 43 72 44 23 45 75 46
REMARK SMILES IDX 69 47 68 48 24 50 56 51 36 52 55 53 37 54 40 55 54 56 73 57
REMARK SMILES IDX 38 58 39 59 53 61 74 62 41 63 25 64 26 65 34 66 27 67 28 68
REMARK SMILES IDX 32 69 35 70 29 71 30 72 33 73 31 74 57 75 58 76 66 77 59 78
REMARK SMILES IDX 60 79 64 80 67 81 61 82 62 83 65 84 63 85 42 86 43 87 51 88
REMARK SMILES IDX 44 89 45 90 49 91 52 92 46 93 47 94 50 95 48 96
REMARK H PARENT 8 6 82 17 13 30 72 49 40 60
REMARK Flexibility Score: inf
ROOT
ATOM      1  C   UNL A   1      31.790  30.603  26.162  1.00  0.00     0.023 C 
ENDROOT
BRANCH   1   2
ATOM      2  C   UNL A   1      31.870  29.539  27.258  1.00  0.00     0.116 C 
BRANCH   2   3
ATOM      3  N   UNL A   1      32.869  28.512  27.019  1.00  0.00    -0.354 N 
ATOM      4  C   UNL A   1      32.875  27.467  26.141  1.00  0.00     0.242 C 
ATOM      5  O   UNL A   1      33.976  26.959  25.893  1.00  0.00    -0.273 OA
ATOM      6  H   UNL A   1      33.673  28.581  27.583  1.00  0.00     0.163 HD
BRANCH   4   7
ATOM      7  C   UNL A   1      31.634  27.049  25.339  1.00  0.00     0.179 C 
ATOM      8  C   UNL A   1      30.464  24.928  24.954  1.00  0.00     0.140 C 
ATOM      9  C   UNL A   1      31.096  25.791  26.033  1.00  0.00     0.069 C 
ATOM     10  C   UNL A   1      31.007  25.476  23.636  1.00  0.00     0.154 C 
ATOM     11  N   UNL A   1      31.738  26.709  23.914  1.00  0.00    -0.310 N 
BRANCH   8  12
ATOM     12  O   UNL A   1      30.852  23.558  25.084  1.00  0.00    -0.380 OA
ATOM     13  C   UNL A   1      31.529  23.267  26.298  1.00  0.00     0.195 C 
ENDBRANCH   8  12
BRANCH  11  14
ATOM     14  C   UNL A   1      31.895  27.555  22.834  1.00  0.00     0.322 C 
ATOM     15  O   UNL A   1      33.002  27.733  22.317  1.00  0.00    -0.248 OA
ATOM     16  N   UNL A   1      30.818  28.037  22.166  1.00  0.00    -0.308 N 
ATOM     17  H   UNL A   1      30.832  27.860  21.198  1.00  0.00     0.171 HD
BRANCH  16  18
ATOM     18  C   UNL A   1      29.690  28.742  22.601  1.00  0.00     0.046 A 
ATOM     19  C   UNL A   1      29.808  30.130  22.750  1.00  0.00     0.029 A 
ATOM     20  C   UNL A   1      28.500  28.119  22.952  1.00  0.00     0.065 A 
ATOM     21  C   UNL A   1      28.695  30.913  23.092  1.00  0.00    -0.046 A 
ATOM     22  C   UNL A   1      27.397  28.897  23.295  1.00  0.00     0.125 A 
ATOM     23  C   UNL A   1      28.822  32.400  23.224  1.00  0.00     0.044 C 
ATOM     24  C   UNL A   1      27.476  30.282  23.346  1.00  0.00     0.042 A 
ATOM     25  F   UNL A   1      26.226  28.303  23.554  1.00  0.00    -0.207 F 
ENDBRANCH  16  18
ENDBRANCH  11  14
ENDBRANCH   4   7
ENDBRANCH   2   3
ENDBRANCH   1   2
BRANCH   1  26
ATOM     26  C   UNL A   1      31.518  32.042  26.602  1.00  0.00     0.023 C 
BRANCH  26  27
ATOM     27  C   UNL A   1      32.636  32.767  27.337  1.00  0.00     0.116 C 
BRANCH  27  28
ATOM     28  N   UNL A   1      32.326  34.150  27.642  1.00  0.00    -0.352 N 
ATOM     29  C   UNL A   1      32.941  34.994  28.538  1.00  0.00     0.251 C 
ATOM     30  H   UNL A   1      31.574  34.539  27.140  1.00  0.00     0.163 HD
ATOM     31  O   UNL A   1      32.486  36.115  28.746  1.00  0.00    -0.269 OA
BRANCH  29  32
ATOM     32  C   UNL A   1      34.131  34.533  29.286  1.00  0.00     0.039 A 
ATOM     33  C   UNL A   1      33.952  33.964  30.549  1.00  0.00     0.014 A 
ATOM     34  C   UNL A   1      35.412  34.628  28.737  1.00  0.00     0.014 A 
ATOM     35  C   UNL A   1      35.046  33.422  31.228  1.00  0.00     0.010 A 
ATOM     36  C   UNL A   1      36.486  34.013  29.376  1.00  0.00     0.010 A 
ATOM     37  C   UNL A   1      36.316  33.402  30.629  1.00  0.00    -0.014 A 
BRANCH  37  38
ATOM     38  C   UNL A   1      37.479  32.756  31.291  1.00  0.00     0.031 A 
ATOM     39  C   UNL A   1      38.181  31.606  30.622  1.00  0.00     0.074 A 
ATOM     40  C   UNL A   1      37.859  33.149  32.524  1.00  0.00     0.049 A 
ATOM     41  N   UNL A   1      39.139  30.838  31.077  1.00  0.00    -0.248 NA
ATOM     42  C   UNL A   1      37.724  31.255  29.268  1.00  0.00     0.031 C 
ATOM     43  C   UNL A   1      37.240  34.226  33.297  1.00  0.00     0.029 A 
ATOM     44  N   UNL A   1      38.849  32.676  33.350  1.00  0.00    -0.354 N 
ATOM     45  C   UNL A   1      39.381  29.904  30.078  1.00  0.00     0.074 A 
ATOM     46  C   UNL A   1      38.438  30.168  29.013  1.00  0.00     0.031 C 
ATOM     47  C   UNL A   1      37.873  34.341  34.475  1.00  0.00     0.029 A 
ATOM     48  C   UNL A   1      38.912  33.320  34.561  1.00  0.00     0.049 A 
ATOM     49  H   UNL A   1      39.458  31.943  33.096  1.00  0.00     0.167 HD
ATOM     50  C   UNL A   1      40.322  28.930  30.041  1.00  0.00     0.037 A 
ATOM     51  C   UNL A   1      39.705  33.100  35.628  1.00  0.00     0.037 A 
ATOM     52  C   UNL A   1      41.277  28.688  31.089  1.00  0.00     0.049 A 
ATOM     53  C   UNL A   1      40.730  31.998  35.569  1.00  0.00     0.074 A 
ATOM     54  C   UNL A   1      42.306  27.762  31.121  1.00  0.00     0.029 A 
ATOM     55  N   UNL A   1      41.320  29.375  32.294  1.00  0.00    -0.354 N 
ATOM     56  N   UNL A   1      40.992  31.162  34.595  1.00  0.00    -0.248 NA
ATOM     57  C   UNL A   1      41.573  31.811  36.759  1.00  0.00     0.031 C 
ATOM     58  C   UNL A   1      42.939  27.854  32.364  1.00  0.00     0.029 A 
ATOM     59  C   UNL A   1      42.343  28.877  33.085  1.00  0.00     0.049 A 
ATOM     60  H   UNL A   1      40.713  30.107  32.549  1.00  0.00     0.167 HD
ATOM     61  C   UNL A   1      42.048  30.376  35.038  1.00  0.00     0.074 A 
ATOM     62  C   UNL A   1      42.385  30.840  36.367  1.00  0.00     0.031 C 
ATOM     63  C   UNL A   1      42.680  29.362  34.399  1.00  0.00     0.037 A 
BRANCH  50  64
ATOM     64  C   UNL A   1      40.365  28.052  28.824  1.00  0.00     0.064 A 
ATOM     65  C   UNL A   1      41.105  28.405  27.685  1.00  0.00     0.173 A 
ATOM     66  C   UNL A   1      39.690  26.821  28.810  1.00  0.00     0.173 A 
ATOM     67  F   UNL A   1      41.762  29.575  27.643  1.00  0.00    -0.203 F 
ATOM     68  C   UNL A   1      41.142  27.575  26.568  1.00  0.00     0.198 A 
ATOM     69  C   UNL A   1      39.757  25.979  27.703  1.00  0.00     0.198 A 
ATOM     70  F   UNL A   1      38.973  26.430  29.874  1.00  0.00    -0.203 F 
ATOM     71  F   UNL A   1      41.814  27.959  25.473  1.00  0.00    -0.200 F 
ATOM     72  C   UNL A   1      40.475  26.360  26.580  1.00  0.00     0.200 A 
ATOM     73  F   UNL A   1      39.124  24.798  27.723  1.00  0.00    -0.200 F 
ATOM     74  F   UNL A   1      40.519  25.558  25.507  1.00  0.00    -0.200 F 
ENDBRANCH  50  64
BRANCH  51  75
ATOM     75  C   UNL A   1      39.576  33.950  36.842  1.00  0.00     0.064 A 
ATOM     76  C   UNL A   1      38.789  33.540  37.928  1.00  0.00     0.173 A 
ATOM     77  C   UNL A   1      40.219  35.193  36.937  1.00  0.00     0.173 A 
ATOM     78  F   UNL A   1      38.134  32.371  37.876  1.00  0.00    -0.203 F 
ATOM     79  C   UNL A   1      38.633  34.350  39.051  1.00  0.00     0.198 A 
ATOM     80  C   UNL A   1      40.087  35.988  38.073  1.00  0.00     0.198 A 
ATOM     81  F   UNL A   1      40.985  35.632  35.928  1.00  0.00    -0.203 F 
ATOM     82  F   UNL A   1      37.834  33.955  40.052  1.00  0.00    -0.200 F 
ATOM     83  C   UNL A   1      39.287  35.570  39.126  1.00  0.00     0.200 A 
ATOM     84  F   UNL A   1      40.731  37.161  38.148  1.00  0.00    -0.200 F 
ATOM     85  F   UNL A   1      39.137  36.348  40.208  1.00  0.00    -0.200 F 
ENDBRANCH  51  75
BRANCH  63  86
ATOM     86  C   UNL A   1      43.836  28.712  35.104  1.00  0.00     0.064 A 
ATOM     87  C   UNL A   1      43.660  27.601  35.943  1.00  0.00     0.173 A 
ATOM     88  C   UNL A   1      45.144  29.172  34.887  1.00  0.00     0.173 A 
ATOM     89  F   UNL A   1      42.429  27.132  36.193  1.00  0.00    -0.203 F 
ATOM     90  C   UNL A   1      44.751  26.989  36.555  1.00  0.00     0.198 A 
ATOM     91  C   UNL A   1      46.234  28.538  35.476  1.00  0.00     0.198 A 
ATOM     92  F   UNL A   1      45.366  30.226  34.088  1.00  0.00    -0.203 F 
ATOM     93  F   UNL A   1      44.557  25.956  37.386  1.00  0.00    -0.200 F 
ATOM     94  C   UNL A   1      46.037  27.451  36.313  1.00  0.00     0.200 A 
ATOM     95  F   UNL A   1      47.476  28.976  35.230  1.00  0.00    -0.200 F 
ATOM     96  F   UNL A   1      47.086  26.851  36.893  1.00  0.00    -0.200 F 
ENDBRANCH  63  86
ENDBRANCH  37  38
ENDBRANCH  29  32
ENDBRANCH  27  28
ENDBRANCH  26  27
ENDBRANCH   1  26
TORSDOF 14
ENDMDL
MODEL 2
REMARK VINA RESULT:     -12.9      6.208     11.639
REMARK SMILES CO[C@H]1C[C@@H](C(=O)NCCCCNC(=O)c2ccc(-c3c4nc(c(-c5c(F)c(F)c(F)c(F)c5F)c5ccc([nH]5)c(-c5c(F)c(F)c(F)c(F)c5F)c5nc(c(-c6c(F)c(F)c(F)c(F)c6F)c6ccc3[nH]6)C=C5)C=C4)cc2)N(C(=O)Nc2cc(C)cc(F)c2)C1
REMARK SMILES IDX 10 1 9 2 8 3 6 4 7 5 5 7 3 8 4 9 91 10 79 11 2 12 1 13 80 14
REMARK SMILES IDX 81 15 82 16 83 18 84 19 90 20 85 21 88 22 86 23 87 24 89 25
REMARK SMILES IDX 11 26 12 27 13 28 14 29 15 31 16 32 17 33 78 34 18 35 77 36
REMARK SMILES IDX 19 37 20 38 21 39 71 40 22 41 76 42 70 43 72 44 23 45 75 46
REMARK SMILES IDX 69 47 68 48 24 50 56 51 36 52 55 53 37 54 40 55 54 56 73 57
REMARK SMILES IDX 38 58 39 59 53 61 74 62 41 63 25 64 26 65 34 66 27 67 28 68
REMARK SMILES IDX 32 69 35 70 29 71 30 72 33 73 31 74 57 75 58 76 66 77 59 78
REMARK SMILES IDX 60 79 64 80 67 81 61 82 62 83 65 84 63 85 42 86 43 87 51 88
REMARK SMILES IDX 44 89 45 90 49 91 52 92 46 93 47 94 50 95 48 96
REMARK H PARENT 8 6 82 17 13 30 72 49 40 60
REMARK Flexibility Score: inf
ROOT
ATOM      1  C   UNL A   1      36.958  20.762  24.960  1.00  0.00     0.023 C 
ENDROOT
BRANCH   1   2
ATOM      2  C   UNL A   1      37.309  22.051  24.215  1.00  0.00     0.116 C 
BRANCH   2   3
ATOM      3  N   UNL A   1      36.728  23.250  24.793  1.00  0.00    -0.354 N 
ATOM      4  C   UNL A   1      35.426  23.650  24.885  1.00  0.00     0.242 C 
ATOM      5  O   UNL A   1      35.174  24.526  25.722  1.00  0.00    -0.273 OA
ATOM      6  H   UNL A   1      37.380  23.877  25.182  1.00  0.00     0.163 HD
BRANCH   4   7
ATOM      7  C   UNL A   1      34.285  22.936  24.147  1.00  0.00     0.179 C 
ATOM      8  C   UNL A   1      32.525  23.647  22.594  1.00  0.00     0.140 C 
ATOM      9  C   UNL A   1      34.008  23.780  22.896  1.00  0.00     0.069 C 
ATOM     10  C   UNL A   1      31.904  23.099  23.876  1.00  0.00     0.154 C 
ATOM     11  N   UNL A   1      32.981  22.734  24.792  1.00  0.00    -0.310 N 
BRANCH   8  12
ATOM     12  O   UNL A   1      31.936  24.915  22.296  1.00  0.00    -0.380 OA
ATOM     13  C   UNL A   1      32.530  25.579  21.189  1.00  0.00     0.195 C 
ENDBRANCH   8  12
BRANCH  11  14
ATOM     14  C   UNL A   1      32.635  21.827  25.774  1.00  0.00     0.322 C 
ATOM     15  O   UNL A   1      32.615  22.151  26.966  1.00  0.00    -0.248 OA
ATOM     16  N   UNL A   1      32.089  20.628  25.453  1.00  0.00    -0.308 N 
ATOM     17  H   UNL A   1      31.230  20.446  25.895  1.00  0.00     0.171 HD
BRANCH  16  18
ATOM     18  C   UNL A   1      32.527  19.602  24.607  1.00  0.00     0.046 A 
ATOM     19  C   UNL A   1      33.427  18.666  25.132  1.00  0.00     0.029 A 
ATOM     20  C   UNL A   1      32.162  19.519  23.270  1.00  0.00     0.065 A 
ATOM     21  C   UNL A   1      33.835  17.559  24.374  1.00  0.00    -0.046 A 
ATOM     22  C   UNL A   1      32.571  18.421  22.518  1.00  0.00     0.125 A 
ATOM     23  C   UNL A   1      34.779  16.548  24.951  1.00  0.00     0.044 C 
ATOM     24  C   UNL A   1      33.382  17.434  23.060  1.00  0.00     0.042 A 
ATOM     25  F   UNL A   1      32.153  18.296  21.252  1.00  0.00    -0.207 F 
ENDBRANCH  16  18
ENDBRANCH  11  14
ENDBRANCH   4   7
ENDBRANCH   2   3
ENDBRANCH   1   2
BRANCH   1  26
ATOM     26  C   UNL A   1      38.047  19.693  25.061  1.00  0.00     0.023 C 
BRANCH  26  27
ATOM     27  C   UNL A   1      39.345  20.085  25.751  1.00  0.00     0.116 C 
BRANCH  27  28
ATOM     28  N   UNL A   1      40.307  19.004  25.832  1.00  0.00    -0.352 N 
ATOM     29  C   UNL A   1      41.656  19.068  26.092  1.00  0.00     0.251 C 
ATOM     30  H   UNL A   1      39.947  18.100  25.679  1.00  0.00     0.163 HD
ATOM     31  O   UNL A   1      42.350  18.058  26.025  1.00  0.00    -0.269 OA
BRANCH  29  32
ATOM     32  C   UNL A   1      42.283  20.370  26.412  1.00  0.00     0.039 A 
ATOM     33  C   UNL A   1      42.853  21.114  25.376  1.00  0.00     0.014 A 
ATOM     34  C   UNL A   1      42.282  20.872  27.716  1.00  0.00     0.014 A 
ATOM     35  C   UNL A   1      43.352  22.394  25.634  1.00  0.00     0.010 A 
ATOM     36  C   UNL A   1      42.704  22.178  27.954  1.00  0.00     0.010 A 
ATOM     37  C   UNL A   1      43.243  22.955  26.916  1.00  0.00    -0.014 A 
BRANCH  37  38
ATOM     38  C   UNL A   1      43.687  24.344  27.199  1.00  0.00     0.031 A 
ATOM     39  C   UNL A   1      42.702  25.358  27.712  1.00  0.00     0.074 A 
ATOM     40  C   UNL A   1      44.953  24.718  26.924  1.00  0.00     0.049 A 
ATOM     41  N   UNL A   1      42.860  26.642  27.915  1.00  0.00    -0.248 NA
ATOM     42  C   UNL A   1      41.348  24.867  28.012  1.00  0.00     0.031 C 
ATOM     43  C   UNL A   1      45.997  23.842  26.389  1.00  0.00     0.029 A 
ATOM     44  N   UNL A   1      45.574  25.937  27.043  1.00  0.00    -0.354 N 
ATOM     45  C   UNL A   1      41.624  27.112  28.342  1.00  0.00     0.074 A 
ATOM     46  C   UNL A   1      40.714  25.988  28.322  1.00  0.00     0.031 C 
ATOM     47  C   UNL A   1      47.129  24.547  26.240  1.00  0.00     0.029 A 
ATOM     48  C   UNL A   1      46.883  25.933  26.626  1.00  0.00     0.049 A 
ATOM     49  H   UNL A   1      45.122  26.740  27.394  1.00  0.00     0.167 HD
ATOM     50  C   UNL A   1      41.286  28.362  28.740  1.00  0.00     0.037 A 
ATOM     51  C   UNL A   1      47.778  26.937  26.547  1.00  0.00     0.037 A 
ATOM     52  C   UNL A   1      42.201  29.472  28.785  1.00  0.00     0.049 A 
ATOM     53  C   UNL A   1      47.371  28.322  26.977  1.00  0.00     0.074 A 
ATOM     54  C   UNL A   1      41.968  30.763  29.226  1.00  0.00     0.029 A 
ATOM     55  N   UNL A   1      43.524  29.423  28.373  1.00  0.00    -0.354 N 
ATOM     56  N   UNL A   1      46.219  28.741  27.438  1.00  0.00    -0.248 NA
ATOM     57  C   UNL A   1      48.393  29.375  26.877  1.00  0.00     0.031 C 
ATOM     58  C   UNL A   1      43.135  31.508  29.034  1.00  0.00     0.029 A 
ATOM     59  C   UNL A   1      44.113  30.667  28.527  1.00  0.00     0.049 A 
ATOM     60  H   UNL A   1      43.978  28.622  28.022  1.00  0.00     0.167 HD
ATOM     61  C   UNL A   1      46.384  30.092  27.715  1.00  0.00     0.074 A 
ATOM     62  C   UNL A   1      47.753  30.422  27.378  1.00  0.00     0.031 C 
ATOM     63  C   UNL A   1      45.483  30.977  28.205  1.00  0.00     0.037 A 
BRANCH  50  64
ATOM     64  C   UNL A   1      39.863  28.597  29.158  1.00  0.00     0.064 A 
ATOM     65  C   UNL A   1      39.436  28.373  30.476  1.00  0.00     0.173 A 
ATOM     66  C   UNL A   1      38.923  29.090  28.240  1.00  0.00     0.173 A 
ATOM     67  F   UNL A   1      40.293  27.894  31.391  1.00  0.00    -0.203 F 
ATOM     68  C   UNL A   1      38.115  28.605  30.851  1.00  0.00     0.198 A 
ATOM     69  C   UNL A   1      37.611  29.351  28.627  1.00  0.00     0.198 A 
ATOM     70  F   UNL A   1      39.278  29.328  26.969  1.00  0.00    -0.203 F 
ATOM     71  F   UNL A   1      37.719  28.334  32.103  1.00  0.00    -0.200 F 
ATOM     72  C   UNL A   1      37.206  29.100  29.929  1.00  0.00     0.200 A 
ATOM     73  F   UNL A   1      36.738  29.844  27.738  1.00  0.00    -0.200 F 
ATOM     74  F   UNL A   1      35.937  29.331  30.294  1.00  0.00    -0.200 F 
ENDBRANCH  50  64
BRANCH  51  75
ATOM     75  C   UNL A   1      49.157  26.670  26.056  1.00  0.00     0.064 A 
ATOM     76  C   UNL A   1      49.514  26.947  24.728  1.00  0.00     0.173 A 
ATOM     77  C   UNL A   1      50.139  26.122  26.894  1.00  0.00     0.173 A 
ATOM     78  F   UNL A   1      48.603  27.450  23.881  1.00  0.00    -0.203 F 
ATOM     79  C   UNL A   1      50.792  26.663  24.252  1.00  0.00     0.198 A 
ATOM     80  C   UNL A   1      51.426  25.867  26.424  1.00  0.00     0.198 A 
ATOM     81  F   UNL A   1      49.851  25.841  28.172  1.00  0.00    -0.203 F 
ATOM     82  F   UNL A   1      51.090  26.889  22.965  1.00  0.00    -0.200 F 
ATOM     83  C   UNL A   1      51.749  26.129  25.101  1.00  0.00     0.200 A 
ATOM     84  F   UNL A   1      52.352  25.364  27.251  1.00  0.00    -0.200 F 
ATOM     85  F   UNL A   1      52.979  25.858  24.642  1.00  0.00    -0.200 F 
ENDBRANCH  51  75
BRANCH  63  86
ATOM     86  C   UNL A   1      45.955  32.380  28.457  1.00  0.00     0.064 A 
ATOM     87  C   UNL A   1      46.549  32.754  29.672  1.00  0.00     0.173 A 
ATOM     88  C   UNL A   1      45.864  33.348  27.445  1.00  0.00     0.173 A 
ATOM     89  F   UNL A   1      46.647  31.870  30.676  1.00  0.00    -0.203 F 
ATOM     90  C   UNL A   1      47.016  34.051  29.869  1.00  0.00     0.198 A 
ATOM     91  C   UNL A   1      46.360  34.635  27.635  1.00  0.00     0.198 A 
ATOM     92  F   UNL A   1      45.311  33.039  26.262  1.00  0.00    -0.203 F 
ATOM     93  F   UNL A   1      47.542  34.398  31.052  1.00  0.00    -0.200 F 
ATOM     94  C   UNL A   1      46.930  34.986  28.849  1.00  0.00     0.200 A 
ATOM     95  F   UNL A   1      46.290  35.532  26.643  1.00  0.00    -0.200 F 
ATOM     96  F   UNL A   1      47.393  36.230  29.038  1.00  0.00    -0.200 F 
ENDBRANCH  63  86
ENDBRANCH  37  38
ENDBRANCH  29  32
ENDBRANCH  27  28
ENDBRANCH  26  27
ENDBRANCH   1  26
TORSDOF 14
ENDMDL
MODEL 3
REMARK VINA RESULT:     -12.9      0.588      7.166
REMARK SMILES CO[C@H]1C[C@@H](C(=O)NCCCCNC(=O)c2ccc(-c3c4nc(c(-c5c(F)c(F)c(F)c(F)c5F)c5ccc([nH]5)c(-c5c(F)c(F)c(F)c(F)c5F)c5nc(c(-c6c(F)c(F)c(F)c(F)c6F)c6ccc3[nH]6)C=C5)C=C4)cc2)N(C(=O)Nc2cc(C)cc(F)c2)C1
REMARK SMILES IDX 10 1 9 2 8 3 6 4 7 5 5 7 3 8 4 9 91 10 79 11 2 12 1 13 80 14
REMARK SMILES IDX 81 15 82 16 83 18 84 19 90 20 85 21 88 22 86 23 87 24 89 25
REMARK SMILES IDX 11 26 12 27 13 28 14 29 15 31 16 32 17 33 78 34 18 35 77 36
REMARK SMILES IDX 19 37 20 38 21 39 71 40 22 41 76 42 70 43 72 44 23 45 75 46
REMARK SMILES IDX 69 47 68 48 24 50 56 51 36 52 55 53 37 54 40 55 54 56 73 57
REMARK SMILES IDX 38 58 39 59 53 61 74 62 41 63 25 64 26 65 34 66 27 67 28 68
REMARK SMILES IDX 32 69 35 70 29 71 30 72 33 73 31 74 57 75 58 76 66 77 59 78
REMARK SMILES IDX 60 79 64 80 67 81 61 82 62 83 65 84 63 85 42 86 43 87 51 88
REMARK SMILES IDX 44 89 45 90 49 91 52 92 46 93 47 94 50 95 48 96
REMARK H PARENT 8 6 82 17 13 30 72 49 40 60
REMARK Flexibility Score: inf
ROOT
ATOM      1  C   UNL A   1      31.423  30.690  26.338  1.00  0.00     0.023 C 
ENDROOT
BRANCH   1   2
ATOM      2  C   UNL A   1      32.683  30.108  25.695  1.00  0.00     0.116 C 
BRANCH   2   3
ATOM      3  N   UNL A   1      33.150  28.877  26.307  1.00  0.00    -0.354 N 
ATOM      4  C   UNL A   1      32.804  27.579  26.066  1.00  0.00     0.242 C 
ATOM      5  O   UNL A   1      33.590  26.712  26.467  1.00  0.00    -0.273 OA
ATOM      6  H   UNL A   1      33.828  28.998  27.011  1.00  0.00     0.163 HD
BRANCH   4   7
ATOM      7  C   UNL A   1      31.613  27.189  25.178  1.00  0.00     0.179 C 
ATOM      8  C   UNL A   1      30.526  25.073  24.582  1.00  0.00     0.140 C 
ATOM      9  C   UNL A   1      31.083  25.868  25.751  1.00  0.00     0.069 C 
ATOM     10  C   UNL A   1      31.110  25.734  23.335  1.00  0.00     0.154 C 
ATOM     11  N   UNL A   1      31.790  26.961  23.738  1.00  0.00    -0.310 N 
BRANCH   8  12
ATOM     12  O   UNL A   1      30.950  23.708  24.627  1.00  0.00    -0.380 OA
ATOM     13  C   UNL A   1      32.245  23.527  25.184  1.00  0.00     0.195 C 
ENDBRANCH   8  12
BRANCH  11  14
ATOM     14  C   UNL A   1      31.969  27.891  22.733  1.00  0.00     0.322 C 
ATOM     15  O   UNL A   1      33.089  28.125  22.270  1.00  0.00    -0.248 OA
ATOM     16  N   UNL A   1      30.907  28.407  22.066  1.00  0.00    -0.308 N 
ATOM     17  H   UNL A   1      30.957  28.305  21.088  1.00  0.00     0.171 HD
BRANCH  16  18
ATOM     18  C   UNL A   1      29.752  29.059  22.514  1.00  0.00     0.046 A 
ATOM     19  C   UNL A   1      29.800  30.453  22.639  1.00  0.00     0.029 A 
ATOM     20  C   UNL A   1      28.604  28.380  22.899  1.00  0.00     0.065 A 
ATOM     21  C   UNL A   1      28.654  31.182  22.992  1.00  0.00    -0.046 A 
ATOM     22  C   UNL A   1      27.468  29.105  23.253  1.00  0.00     0.125 A 
ATOM     23  C   UNL A   1      28.706  32.676  23.099  1.00  0.00     0.044 C 
ATOM     24  C   UNL A   1      27.476  30.493  23.282  1.00  0.00     0.042 A 
ATOM     25  F   UNL A   1      26.335  28.455  23.545  1.00  0.00    -0.207 F 
ENDBRANCH  16  18
ENDBRANCH  11  14
ENDBRANCH   4   7
ENDBRANCH   2   3
ENDBRANCH   1   2
BRANCH   1  26
ATOM     26  C   UNL A   1      31.369  32.207  26.527  1.00  0.00     0.023 C 
BRANCH  26  27
ATOM     27  C   UNL A   1      32.583  32.872  27.159  1.00  0.00     0.116 C 
BRANCH  27  28
ATOM     28  N   UNL A   1      32.336  34.233  27.595  1.00  0.00    -0.352 N 
ATOM     29  C   UNL A   1      32.975  34.954  28.576  1.00  0.00     0.251 C 
ATOM     30  H   UNL A   1      31.612  34.706  27.124  1.00  0.00     0.163 HD
ATOM     31  O   UNL A   1      32.572  36.070  28.888  1.00  0.00    -0.269 OA
BRANCH  29  32
ATOM     32  C   UNL A   1      34.128  34.362  29.291  1.00  0.00     0.039 A 
ATOM     33  C   UNL A   1      33.890  33.597  30.434  1.00  0.00     0.014 A 
ATOM     34  C   UNL A   1      35.434  34.532  28.821  1.00  0.00     0.014 A 
ATOM     35  C   UNL A   1      34.950  32.938  31.063  1.00  0.00     0.010 A 
ATOM     36  C   UNL A   1      36.475  33.808  29.398  1.00  0.00     0.010 A 
ATOM     37  C   UNL A   1      36.246  33.002  30.525  1.00  0.00    -0.014 A 
BRANCH  37  38
ATOM     38  C   UNL A   1      37.375  32.243  31.123  1.00  0.00     0.031 A 
ATOM     39  C   UNL A   1      37.886  32.609  32.489  1.00  0.00     0.074 A 
ATOM     40  C   UNL A   1      37.991  31.277  30.412  1.00  0.00     0.049 A 
ATOM     41  N   UNL A   1      38.926  32.148  33.139  1.00  0.00    -0.248 NA
ATOM     42  C   UNL A   1      37.144  33.655  33.211  1.00  0.00     0.031 C 
ATOM     43  C   UNL A   1      37.617  30.851  29.063  1.00  0.00     0.029 A 
ATOM     44  N   UNL A   1      39.073  30.489  30.720  1.00  0.00    -0.354 N 
ATOM     45  C   UNL A   1      38.973  32.861  34.330  1.00  0.00     0.074 A 
ATOM     46  C   UNL A   1      37.891  33.820  34.293  1.00  0.00     0.031 C 
ATOM     47  C   UNL A   1      38.444  29.870  28.667  1.00  0.00     0.029 A 
ATOM     48  C   UNL A   1      39.433  29.628  29.712  1.00  0.00     0.049 A 
ATOM     49  H   UNL A   1      39.545  30.537  31.584  1.00  0.00     0.167 HD
ATOM     50  C   UNL A   1      39.827  32.713  35.371  1.00  0.00     0.037 A 
ATOM     51  C   UNL A   1      40.457  28.755  29.633  1.00  0.00     0.037 A 
ATOM     52  C   UNL A   1      40.886  31.739  35.417  1.00  0.00     0.049 A 
ATOM     53  C   UNL A   1      41.404  28.624  30.796  1.00  0.00     0.074 A 
ATOM     54  C   UNL A   1      41.768  31.473  36.449  1.00  0.00     0.029 A 
ATOM     55  N   UNL A   1      41.207  30.872  34.383  1.00  0.00    -0.354 N 
ATOM     56  N   UNL A   1      41.402  29.259  31.942  1.00  0.00    -0.248 NA
ATOM     57  C   UNL A   1      42.496  27.650  30.656  1.00  0.00     0.031 C 
ATOM     58  C   UNL A   1      42.655  30.481  36.022  1.00  0.00     0.029 A 
ATOM     59  C   UNL A   1      42.290  30.087  34.744  1.00  0.00     0.049 A 
ATOM     60  H   UNL A   1      40.736  30.823  33.519  1.00  0.00     0.167 HD
ATOM     61  C   UNL A   1      42.465  28.740  32.670  1.00  0.00     0.074 A 
ATOM     62  C   UNL A   1      43.086  27.730  31.840  1.00  0.00     0.031 C 
ATOM     63  C   UNL A   1      42.886  29.071  33.915  1.00  0.00     0.037 A 
BRANCH  50  64
ATOM     64  C   UNL A   1      39.651  33.627  36.550  1.00  0.00     0.064 A 
ATOM     65  C   UNL A   1      40.269  34.885  36.605  1.00  0.00     0.173 A 
ATOM     66  C   UNL A   1      38.823  33.256  37.620  1.00  0.00     0.173 A 
ATOM     67  F   UNL A   1      41.078  35.285  35.612  1.00  0.00    -0.203 F 
ATOM     68  C   UNL A   1      40.089  35.725  37.702  1.00  0.00     0.198 A 
ATOM     69  C   UNL A   1      38.619  34.112  38.699  1.00  0.00     0.198 A 
ATOM     70  F   UNL A   1      38.202  32.067  37.616  1.00  0.00    -0.203 F 
ATOM     71  F   UNL A   1      40.731  36.900  37.755  1.00  0.00    -0.200 F 
ATOM     72  C   UNL A   1      39.259  35.342  38.743  1.00  0.00     0.200 A 
ATOM     73  F   UNL A   1      37.804  33.746  39.699  1.00  0.00    -0.200 F 
ATOM     74  F   UNL A   1      39.079  36.155  39.794  1.00  0.00    -0.200 F 
ENDBRANCH  50  64
BRANCH  51  75
ATOM     75  C   UNL A   1      40.634  27.923  28.413  1.00  0.00     0.064 A 
ATOM     76  C   UNL A   1      40.044  26.655  28.314  1.00  0.00     0.173 A 
ATOM     77  C   UNL A   1      41.408  28.368  27.330  1.00  0.00     0.173 A 
ATOM     78  F   UNL A   1      39.315  26.175  29.332  1.00  0.00    -0.203 F 
ATOM     79  C   UNL A   1      40.239  25.855  27.190  1.00  0.00     0.198 A 
ATOM     80  C   UNL A   1      41.577  27.580  26.193  1.00  0.00     0.198 A 
ATOM     81  F   UNL A   1      41.993  29.573  27.372  1.00  0.00    -0.203 F 
ATOM     82  F   UNL A   1      39.705  24.627  27.144  1.00  0.00    -0.200 F 
ATOM     83  C   UNL A   1      41.000  26.320  26.128  1.00  0.00     0.200 A 
ATOM     84  F   UNL A   1      42.301  28.037  25.164  1.00  0.00    -0.200 F 
ATOM     85  F   UNL A   1      41.186  25.550  25.046  1.00  0.00    -0.200 F 
ENDBRANCH  51  75
BRANCH  63  86
ATOM     86  C   UNL A   1      44.045  28.304  34.482  1.00  0.00     0.064 A 
ATOM     87  C   UNL A   1      43.864  27.105  35.188  1.00  0.00     0.173 A 
ATOM     88  C   UNL A   1      45.360  28.745  34.264  1.00  0.00     0.173 A 
ATOM     89  F   UNL A   1      42.628  26.648  35.436  1.00  0.00    -0.203 F 
ATOM     90  C   UNL A   1      44.956  26.388  35.671  1.00  0.00     0.198 A 
ATOM     91  C   UNL A   1      46.449  28.010  34.721  1.00  0.00     0.198 A 
ATOM     92  F   UNL A   1      45.587  29.882  33.588  1.00  0.00    -0.203 F 
ATOM     93  F   UNL A   1      44.758  25.268  36.379  1.00  0.00    -0.200 F 
ATOM     94  C   UNL A   1      46.246  26.836  35.430  1.00  0.00     0.200 A 
ATOM     95  F   UNL A   1      47.695  28.435  34.474  1.00  0.00    -0.200 F 
ATOM     96  F   UNL A   1      47.295  26.136  35.884  1.00  0.00    -0.200 F 
ENDBRANCH  63  86
ENDBRANCH  37  38
ENDBRANCH  29  32
ENDBRANCH  27  28
ENDBRANCH  26  27
ENDBRANCH   1  26
TORSDOF 14
ENDMDL
