MODEL 1
REMARK VINA RESULT:     -13.6      0.000      0.000
REMARK SMILES Cc1ccc(F)c(C(=O)N[C@@H]2C=C[C@@H](C(=O)NCCCCNC(=O)c3ccc(-c4c5nc(c(-c6c(F)c(F)c(F)c(F)c6F)c6ccc([nH]6)c(-c6c(F)c(F)c(F)c(F)c6F)c6nc(c(-c7c(F)c(F)c(F)c(F)c7F)c7ccc4[nH]7)C=C6)C=C5)cc3)C2)c1
REMARK SMILES IDX 19 1 18 2 17 3 15 4 16 5 14 7 11 8 12 9 88 10 13 11 10 12
REMARK SMILES IDX 8 13 9 14 7 16 1 17 2 18 3 19 89 20 4 21 5 22 6 23 20 24
REMARK SMILES IDX 21 25 22 26 23 27 24 29 25 30 26 31 87 32 27 33 86 34 28 35
REMARK SMILES IDX 29 36 30 37 80 38 31 39 85 40 79 41 81 42 32 43 84 44 78 45
REMARK SMILES IDX 77 46 33 48 65 49 45 50 64 51 46 52 49 53 63 54 82 55 47 56
REMARK SMILES IDX 48 57 62 59 83 60 50 61 34 62 35 63 43 64 36 65 37 66 41 67
REMARK SMILES IDX 44 68 38 69 39 70 42 71 40 72 66 73 67 74 75 75 68 76 69 77
REMARK SMILES IDX 73 78 76 79 70 80 71 81 74 82 72 83 51 84 52 85 60 86 53 87
REMARK SMILES IDX 54 88 58 89 61 90 55 91 56 92 59 93 57 94
REMARK H PARENT 17 6 10 15 22 28 81 47 49 58
REMARK Flexibility Score: inf
ROOT
ATOM      1  C   UNL A   1      34.008  28.244  24.089  1.00  0.00     0.023 C 
ENDROOT
BRANCH   1   2
ATOM      2  C   UNL A   1      33.201  28.414  22.799  1.00  0.00     0.116 C 
BRANCH   2   3
ATOM      3  N   UNL A   1      33.392  27.333  21.853  1.00  0.00    -0.356 N 
ATOM      4  C   UNL A   1      32.657  26.225  21.566  1.00  0.00     0.227 C 
ATOM      5  O   UNL A   1      33.015  25.578  20.575  1.00  0.00    -0.274 OA
ATOM      6  H   UNL A   1      34.211  27.417  21.314  1.00  0.00     0.163 HD
BRANCH   4   7
ATOM      7  C   UNL A   1      31.497  25.705  22.432  1.00  0.00     0.103 C 
ATOM      8  C   UNL A   1      31.633  25.519  24.882  1.00  0.00     0.106 C 
ATOM      9  C   UNL A   1      30.634  26.548  24.449  1.00  0.00    -0.006 C 
ATOM     10  C   UNL A   1      31.976  24.806  23.569  1.00  0.00     0.047 C 
ATOM     11  C   UNL A   1      30.611  26.693  23.117  1.00  0.00    -0.016 C 
BRANCH   8  12
ATOM     12  N   UNL A   1      31.088  24.683  25.929  1.00  0.00    -0.346 N 
ATOM     13  C   UNL A   1      31.643  23.631  26.629  1.00  0.00     0.254 C 
ATOM     14  O   UNL A   1      31.053  23.217  27.624  1.00  0.00    -0.269 OA
ATOM     15  H   UNL A   1      30.163  24.903  26.186  1.00  0.00     0.164 HD
BRANCH  13  16
ATOM     16  C   UNL A   1      32.880  22.950  26.170  1.00  0.00     0.075 A 
ATOM     17  C   UNL A   1      36.573  23.710  25.686  1.00  0.00     0.044 C 
ATOM     18  C   UNL A   1      35.268  22.967  25.687  1.00  0.00    -0.050 A 
ATOM     19  C   UNL A   1      35.119  21.812  24.919  1.00  0.00     0.006 A 
ATOM     20  C   UNL A   1      34.162  23.463  26.398  1.00  0.00     0.020 A 
ATOM     21  C   UNL A   1      33.870  21.203  24.809  1.00  0.00     0.040 A 
ATOM     22  C   UNL A   1      32.755  21.790  25.405  1.00  0.00     0.135 A 
ATOM     23  F   UNL A   1      31.559  21.231  25.177  1.00  0.00    -0.206 F 
ENDBRANCH  13  16
ENDBRANCH   8  12
ENDBRANCH   4   7
ENDBRANCH   2   3
ENDBRANCH   1   2
BRANCH   1  24
ATOM     24  C   UNL A   1      33.359  28.765  25.379  1.00  0.00     0.023 C 
BRANCH  24  25
ATOM     25  C   UNL A   1      34.346  28.950  26.515  1.00  0.00     0.116 C 
BRANCH  25  26
ATOM     26  N   UNL A   1      34.318  30.310  27.055  1.00  0.00    -0.352 N 
ATOM     27  C   UNL A   1      35.099  30.849  28.058  1.00  0.00     0.251 C 
ATOM     28  H   UNL A   1      33.659  30.919  26.649  1.00  0.00     0.163 HD
ATOM     29  O   UNL A   1      34.773  31.872  28.639  1.00  0.00    -0.269 OA
BRANCH  27  30
ATOM     30  C   UNL A   1      36.353  30.163  28.397  1.00  0.00     0.039 A 
ATOM     31  C   UNL A   1      36.477  29.344  29.527  1.00  0.00     0.014 A 
ATOM     32  C   UNL A   1      37.419  30.361  27.531  1.00  0.00     0.014 A 
ATOM     33  C   UNL A   1      37.679  28.673  29.747  1.00  0.00     0.010 A 
ATOM     34  C   UNL A   1      38.516  29.562  27.635  1.00  0.00     0.010 A 
ATOM     35  C   UNL A   1      38.682  28.784  28.783  1.00  0.00    -0.014 A 
BRANCH  35  36
ATOM     36  C   UNL A   1      40.021  28.240  28.893  1.00  0.00     0.031 A 
ATOM     37  C   UNL A   1      40.319  26.863  28.491  1.00  0.00     0.074 A 
ATOM     38  C   UNL A   1      40.976  29.156  29.168  1.00  0.00     0.049 A 
ATOM     39  N   UNL A   1      41.315  26.190  28.948  1.00  0.00    -0.248 NA
ATOM     40  C   UNL A   1      39.511  26.122  27.527  1.00  0.00     0.031 C 
ATOM     41  C   UNL A   1      42.417  29.084  29.010  1.00  0.00     0.029 A 
ATOM     42  N   UNL A   1      40.762  30.416  29.752  1.00  0.00    -0.354 N 
ATOM     43  C   UNL A   1      41.479  25.104  28.117  1.00  0.00     0.074 A 
ATOM     44  C   UNL A   1      40.267  25.033  27.335  1.00  0.00     0.031 C 
ATOM     45  C   UNL A   1      42.977  30.072  29.737  1.00  0.00     0.029 A 
ATOM     46  C   UNL A   1      41.909  30.711  30.496  1.00  0.00     0.049 A 
ATOM     47  H   UNL A   1      39.960  30.981  29.657  1.00  0.00     0.167 HD
ATOM     48  C   UNL A   1      42.707  24.514  28.049  1.00  0.00     0.037 A 
ATOM     49  C   UNL A   1      41.806  30.744  31.859  1.00  0.00     0.037 A 
ATOM     50  C   UNL A   1      43.657  25.224  28.904  1.00  0.00     0.049 A 
ATOM     51  C   UNL A   1      42.601  29.629  32.481  1.00  0.00     0.074 A 
ATOM     52  C   UNL A   1      44.573  26.223  28.617  1.00  0.00     0.029 A 
ATOM     53  N   UNL A   1      43.464  25.252  30.283  1.00  0.00    -0.354 N 
ATOM     54  N   UNL A   1      42.822  28.480  31.901  1.00  0.00    -0.248 NA
ATOM     55  C   UNL A   1      43.273  29.759  33.766  1.00  0.00     0.031 C 
ATOM     56  C   UNL A   1      44.890  26.890  29.826  1.00  0.00     0.029 A 
ATOM     57  C   UNL A   1      44.176  26.292  30.851  1.00  0.00     0.049 A 
ATOM     58  H   UNL A   1      42.900  24.619  30.783  1.00  0.00     0.167 HD
ATOM     59  C   UNL A   1      43.685  27.750  32.673  1.00  0.00     0.074 A 
ATOM     60  C   UNL A   1      43.927  28.587  33.835  1.00  0.00     0.031 C 
ATOM     61  C   UNL A   1      44.166  26.531  32.285  1.00  0.00     0.037 A 
BRANCH  48  62
ATOM     62  C   UNL A   1      43.117  23.536  26.971  1.00  0.00     0.064 A 
ATOM     63  C   UNL A   1      42.781  22.166  27.060  1.00  0.00     0.173 A 
ATOM     64  C   UNL A   1      43.852  23.893  25.825  1.00  0.00     0.173 A 
ATOM     65  F   UNL A   1      42.031  21.690  28.061  1.00  0.00    -0.203 F 
ATOM     66  C   UNL A   1      43.212  21.223  26.125  1.00  0.00     0.198 A 
ATOM     67  C   UNL A   1      44.315  22.940  24.907  1.00  0.00     0.198 A 
ATOM     68  F   UNL A   1      44.113  25.178  25.545  1.00  0.00    -0.203 F 
ATOM     69  F   UNL A   1      42.864  19.936  26.273  1.00  0.00    -0.200 F 
ATOM     70  C   UNL A   1      43.998  21.604  25.060  1.00  0.00     0.200 A 
ATOM     71  F   UNL A   1      45.070  23.328  23.869  1.00  0.00    -0.200 F 
ATOM     72  F   UNL A   1      44.434  20.694  24.178  1.00  0.00    -0.200 F 
ENDBRANCH  48  62
BRANCH  49  73
ATOM     73  C   UNL A   1      40.461  31.233  32.306  1.00  0.00     0.064 A 
ATOM     74  C   UNL A   1      40.085  32.533  31.902  1.00  0.00     0.173 A 
ATOM     75  C   UNL A   1      39.430  30.351  32.664  1.00  0.00     0.173 A 
ATOM     76  F   UNL A   1      41.030  33.422  31.553  1.00  0.00    -0.203 F 
ATOM     77  C   UNL A   1      38.750  32.876  31.704  1.00  0.00     0.198 A 
ATOM     78  C   UNL A   1      38.088  30.709  32.486  1.00  0.00     0.198 A 
ATOM     79  F   UNL A   1      39.713  29.107  33.072  1.00  0.00    -0.203 F 
ATOM     80  F   UNL A   1      38.438  34.068  31.173  1.00  0.00    -0.200 F 
ATOM     81  C   UNL A   1      37.753  31.951  31.963  1.00  0.00     0.200 A 
ATOM     82  F   UNL A   1      37.119  29.819  32.744  1.00  0.00    -0.200 F 
ATOM     83  F   UNL A   1      36.477  32.245  31.676  1.00  0.00    -0.200 F 
ENDBRANCH  49  73
BRANCH  61  84
ATOM     84  C   UNL A   1      44.802  25.512  33.198  1.00  0.00     0.064 A 
ATOM     85  C   UNL A   1      46.175  25.213  33.192  1.00  0.00     0.173 A 
ATOM     86  C   UNL A   1      44.056  24.909  34.242  1.00  0.00     0.173 A 
ATOM     87  F   UNL A   1      47.023  25.821  32.354  1.00  0.00    -0.203 F 
ATOM     88  C   UNL A   1      46.741  24.317  34.100  1.00  0.00     0.198 A 
ATOM     89  C   UNL A   1      44.640  24.076  35.193  1.00  0.00     0.198 A 
ATOM     90  F   UNL A   1      42.744  25.132  34.399  1.00  0.00    -0.203 F 
ATOM     91  F   UNL A   1      48.044  24.021  34.009  1.00  0.00    -0.200 F 
ATOM     92  C   UNL A   1      45.978  23.759  35.108  1.00  0.00     0.200 A 
ATOM     93  F   UNL A   1      43.900  23.602  36.206  1.00  0.00    -0.200 F 
ATOM     94  F   UNL A   1      46.538  22.942  36.008  1.00  0.00    -0.200 F 
ENDBRANCH  61  84
ENDBRANCH  35  36
ENDBRANCH  27  30
ENDBRANCH  25  26
ENDBRANCH  24  25
ENDBRANCH   1  24
TORSDOF 13
ENDMDL
MODEL 2
REMARK VINA RESULT:     -13.6      1.118      2.123
REMARK SMILES Cc1ccc(F)c(C(=O)N[C@@H]2C=C[C@@H](C(=O)NCCCCNC(=O)c3ccc(-c4c5nc(c(-c6c(F)c(F)c(F)c(F)c6F)c6ccc([nH]6)c(-c6c(F)c(F)c(F)c(F)c6F)c6nc(c(-c7c(F)c(F)c(F)c(F)c7F)c7ccc4[nH]7)C=C6)C=C5)cc3)C2)c1
REMARK SMILES IDX 19 1 18 2 17 3 15 4 16 5 14 7 11 8 12 9 88 10 13 11 10 12
REMARK SMILES IDX 8 13 9 14 7 16 1 17 2 18 3 19 89 20 4 21 5 22 6 23 20 24
REMARK SMILES IDX 21 25 22 26 23 27 24 29 25 30 26 31 87 32 27 33 86 34 28 35
REMARK SMILES IDX 29 36 30 37 80 38 31 39 85 40 79 41 81 42 32 43 84 44 78 45
REMARK SMILES IDX 77 46 33 48 65 49 45 50 64 51 46 52 49 53 63 54 82 55 47 56
REMARK SMILES IDX 48 57 62 59 83 60 50 61 34 62 35 63 43 64 36 65 37 66 41 67
REMARK SMILES IDX 44 68 38 69 39 70 42 71 40 72 66 73 67 74 75 75 68 76 69 77
REMARK SMILES IDX 73 78 76 79 70 80 71 81 74 82 72 83 51 84 52 85 60 86 53 87
REMARK SMILES IDX 54 88 58 89 61 90 55 91 56 92 59 93 57 94
REMARK H PARENT 17 6 10 15 22 28 81 47 49 58
REMARK Flexibility Score: inf
ROOT
ATOM      1  C   UNL A   1      33.315  29.328  24.819  1.00  0.00     0.023 C 
ENDROOT
BRANCH   1   2
ATOM      2  C   UNL A   1      33.547  29.067  23.329  1.00  0.00     0.116 C 
BRANCH   2   3
ATOM      3  N   UNL A   1      32.328  28.788  22.595  1.00  0.00    -0.356 N 
ATOM      4  C   UNL A   1      31.433  27.765  22.660  1.00  0.00     0.227 C 
ATOM      5  O   UNL A   1      30.396  27.909  22.001  1.00  0.00    -0.274 OA
ATOM      6  H   UNL A   1      32.105  29.468  21.920  1.00  0.00     0.163 HD
BRANCH   4   7
ATOM      7  C   UNL A   1      31.675  26.447  23.414  1.00  0.00     0.103 C 
ATOM      8  C   UNL A   1      29.960  25.365  24.808  1.00  0.00     0.106 C 
ATOM      9  C   UNL A   1      30.301  24.549  23.600  1.00  0.00    -0.006 C 
ATOM     10  C   UNL A   1      31.047  26.446  24.805  1.00  0.00     0.047 C 
ATOM     11  C   UNL A   1      31.186  25.172  22.809  1.00  0.00    -0.016 C 
BRANCH   8  12
ATOM     12  N   UNL A   1      29.903  24.532  25.990  1.00  0.00    -0.346 N 
ATOM     13  C   UNL A   1      30.795  23.603  26.485  1.00  0.00     0.254 C 
ATOM     14  O   UNL A   1      30.620  23.179  27.626  1.00  0.00    -0.269 OA
ATOM     15  H   UNL A   1      29.090  24.650  26.533  1.00  0.00     0.164 HD
BRANCH  13  16
ATOM     16  C   UNL A   1      31.898  23.056  25.657  1.00  0.00     0.075 A 
ATOM     17  C   UNL A   1      32.834  19.831  23.877  1.00  0.00     0.044 C 
ATOM     18  C   UNL A   1      32.919  21.236  24.399  1.00  0.00    -0.050 A 
ATOM     19  C   UNL A   1      34.150  21.889  24.456  1.00  0.00     0.006 A 
ATOM     20  C   UNL A   1      31.778  21.881  24.906  1.00  0.00     0.020 A 
ATOM     21  C   UNL A   1      34.251  23.137  25.071  1.00  0.00     0.040 A 
ATOM     22  C   UNL A   1      33.137  23.697  25.694  1.00  0.00     0.135 A 
ATOM     23  F   UNL A   1      33.309  24.842  26.368  1.00  0.00    -0.206 F 
ENDBRANCH  13  16
ENDBRANCH   8  12
ENDBRANCH   4   7
ENDBRANCH   2   3
ENDBRANCH   1   2
BRANCH   1  24
ATOM     24  C   UNL A   1      34.032  28.390  25.800  1.00  0.00     0.023 C 
BRANCH  24  25
ATOM     25  C   UNL A   1      33.832  28.775  27.253  1.00  0.00     0.116 C 
BRANCH  25  26
ATOM     26  N   UNL A   1      33.872  30.225  27.451  1.00  0.00    -0.352 N 
ATOM     27  C   UNL A   1      34.771  30.963  28.195  1.00  0.00     0.251 C 
ATOM     28  H   UNL A   1      33.168  30.740  26.993  1.00  0.00     0.163 HD
ATOM     29  O   UNL A   1      34.520  32.104  28.549  1.00  0.00    -0.269 OA
BRANCH  27  30
ATOM     30  C   UNL A   1      36.057  30.340  28.536  1.00  0.00     0.039 A 
ATOM     31  C   UNL A   1      36.278  29.702  29.763  1.00  0.00     0.014 A 
ATOM     32  C   UNL A   1      37.052  30.408  27.570  1.00  0.00     0.014 A 
ATOM     33  C   UNL A   1      37.503  29.074  29.988  1.00  0.00     0.010 A 
ATOM     34  C   UNL A   1      38.165  29.637  27.709  1.00  0.00     0.010 A 
ATOM     35  C   UNL A   1      38.429  29.042  28.944  1.00  0.00    -0.014 A 
BRANCH  35  36
ATOM     36  C   UNL A   1      39.780  28.525  29.031  1.00  0.00     0.031 A 
ATOM     37  C   UNL A   1      40.089  27.138  28.675  1.00  0.00     0.074 A 
ATOM     38  C   UNL A   1      40.727  29.467  29.239  1.00  0.00     0.049 A 
ATOM     39  N   UNL A   1      41.111  26.500  29.125  1.00  0.00    -0.248 NA
ATOM     40  C   UNL A   1      39.264  26.346  27.767  1.00  0.00     0.031 C 
ATOM     41  C   UNL A   1      42.163  29.412  29.036  1.00  0.00     0.029 A 
ATOM     42  N   UNL A   1      40.509  30.746  29.779  1.00  0.00    -0.354 N 
ATOM     43  C   UNL A   1      41.267  25.385  28.332  1.00  0.00     0.074 A 
ATOM     44  C   UNL A   1      40.032  25.262  27.593  1.00  0.00     0.031 C 
ATOM     45  C   UNL A   1      42.728  30.438  29.705  1.00  0.00     0.029 A 
ATOM     46  C   UNL A   1      41.675  31.089  30.474  1.00  0.00     0.049 A 
ATOM     47  H   UNL A   1      39.695  31.293  29.688  1.00  0.00     0.167 HD
ATOM     48  C   UNL A   1      42.503  24.812  28.247  1.00  0.00     0.037 A 
ATOM     49  C   UNL A   1      41.615  31.174  31.836  1.00  0.00     0.037 A 
ATOM     50  C   UNL A   1      43.466  25.571  29.041  1.00  0.00     0.049 A 
ATOM     51  C   UNL A   1      42.449  30.098  32.475  1.00  0.00     0.074 A 
ATOM     52  C   UNL A   1      44.355  26.574  28.686  1.00  0.00     0.029 A 
ATOM     53  N   UNL A   1      43.318  25.651  30.424  1.00  0.00    -0.354 N 
ATOM     54  N   UNL A   1      42.672  28.931  31.934  1.00  0.00    -0.248 NA
ATOM     55  C   UNL A   1      43.160  30.290  33.732  1.00  0.00     0.031 C 
ATOM     56  C   UNL A   1      44.699  27.293  29.856  1.00  0.00     0.029 A 
ATOM     57  C   UNL A   1      44.029  26.725  30.927  1.00  0.00     0.049 A 
ATOM     58  H   UNL A   1      42.781  25.030  30.967  1.00  0.00     0.167 HD
ATOM     59  C   UNL A   1      43.572  28.246  32.705  1.00  0.00     0.074 A 
ATOM     60  C   UNL A   1      43.836  29.133  33.825  1.00  0.00     0.031 C 
ATOM     61  C   UNL A   1      44.061  27.021  32.350  1.00  0.00     0.037 A 
BRANCH  48  62
ATOM     62  C   UNL A   1      42.895  23.800  27.196  1.00  0.00     0.064 A 
ATOM     63  C   UNL A   1      42.572  22.432  27.341  1.00  0.00     0.173 A 
ATOM     64  C   UNL A   1      43.601  24.120  26.020  1.00  0.00     0.173 A 
ATOM     65  F   UNL A   1      41.849  21.987  28.376  1.00  0.00    -0.203 F 
ATOM     66  C   UNL A   1      42.988  21.458  26.431  1.00  0.00     0.198 A 
ATOM     67  C   UNL A   1      44.049  23.138  25.126  1.00  0.00     0.198 A 
ATOM     68  F   UNL A   1      43.845  25.396  25.688  1.00  0.00    -0.203 F 
ATOM     69  F   UNL A   1      42.653  20.175  26.633  1.00  0.00    -0.200 F 
ATOM     70  C   UNL A   1      43.746  21.806  25.335  1.00  0.00     0.200 A 
ATOM     71  F   UNL A   1      44.777  23.493  24.058  1.00  0.00    -0.200 F 
ATOM     72  F   UNL A   1      44.168  20.868  24.476  1.00  0.00    -0.200 F 
ENDBRANCH  48  62
BRANCH  49  73
ATOM     73  C   UNL A   1      40.277  31.659  32.308  1.00  0.00     0.064 A 
ATOM     74  C   UNL A   1      39.411  30.697  32.873  1.00  0.00     0.173 A 
ATOM     75  C   UNL A   1      40.047  33.001  32.643  1.00  0.00     0.173 A 
ATOM     76  F   UNL A   1      39.579  29.396  32.584  1.00  0.00    -0.203 F 
ATOM     77  C   UNL A   1      38.478  31.042  33.849  1.00  0.00     0.198 A 
ATOM     78  C   UNL A   1      39.091  33.345  33.607  1.00  0.00     0.198 A 
ATOM     79  F   UNL A   1      40.820  33.970  32.133  1.00  0.00    -0.203 F 
ATOM     80  F   UNL A   1      37.779  30.081  34.474  1.00  0.00    -0.200 F 
ATOM     81  C   UNL A   1      38.343  32.362  34.241  1.00  0.00     0.200 A 
ATOM     82  F   UNL A   1      38.952  34.625  33.984  1.00  0.00    -0.200 F 
ATOM     83  F   UNL A   1      37.521  32.680  35.250  1.00  0.00    -0.200 F 
ENDBRANCH  49  73
BRANCH  61  84
ATOM     84  C   UNL A   1      44.745  26.049  33.281  1.00  0.00     0.064 A 
ATOM     85  C   UNL A   1      44.061  25.272  34.231  1.00  0.00     0.173 A 
ATOM     86  C   UNL A   1      46.122  25.748  33.130  1.00  0.00     0.173 A 
ATOM     87  F   UNL A   1      42.733  25.349  34.378  1.00  0.00    -0.203 F 
ATOM     88  C   UNL A   1      44.716  24.331  35.027  1.00  0.00     0.198 A 
ATOM     89  C   UNL A   1      46.755  24.754  33.872  1.00  0.00     0.198 A 
ATOM     90  F   UNL A   1      46.894  26.380  32.235  1.00  0.00    -0.203 F 
ATOM     91  F   UNL A   1      44.027  23.662  35.960  1.00  0.00    -0.200 F 
ATOM     92  C   UNL A   1      46.058  24.062  34.839  1.00  0.00     0.200 A 
ATOM     93  F   UNL A   1      48.039  24.457  33.626  1.00  0.00    -0.200 F 
ATOM     94  F   UNL A   1      46.670  23.121  35.568  1.00  0.00    -0.200 F 
ENDBRANCH  61  84
ENDBRANCH  35  36
ENDBRANCH  27  30
ENDBRANCH  25  26
ENDBRANCH  24  25
ENDBRANCH   1  24
TORSDOF 13
ENDMDL
MODEL 3
REMARK VINA RESULT:     -13.5      3.425      9.484
REMARK SMILES Cc1ccc(F)c(C(=O)N[C@@H]2C=C[C@@H](C(=O)NCCCCNC(=O)c3ccc(-c4c5nc(c(-c6c(F)c(F)c(F)c(F)c6F)c6ccc([nH]6)c(-c6c(F)c(F)c(F)c(F)c6F)c6nc(c(-c7c(F)c(F)c(F)c(F)c7F)c7ccc4[nH]7)C=C6)C=C5)cc3)C2)c1
REMARK SMILES IDX 19 1 18 2 17 3 15 4 16 5 14 7 11 8 12 9 88 10 13 11 10 12
REMARK SMILES IDX 8 13 9 14 7 16 1 17 2 18 3 19 89 20 4 21 5 22 6 23 20 24
REMARK SMILES IDX 21 25 22 26 23 27 24 29 25 30 26 31 87 32 27 33 86 34 28 35
REMARK SMILES IDX 29 36 30 37 80 38 31 39 85 40 79 41 81 42 32 43 84 44 78 45
REMARK SMILES IDX 77 46 33 48 65 49 45 50 64 51 46 52 49 53 63 54 82 55 47 56
REMARK SMILES IDX 48 57 62 59 83 60 50 61 34 62 35 63 43 64 36 65 37 66 41 67
REMARK SMILES IDX 44 68 38 69 39 70 42 71 40 72 66 73 67 74 75 75 68 76 69 77
REMARK SMILES IDX 73 78 76 79 70 80 71 81 74 82 72 83 51 84 52 85 60 86 53 87
REMARK SMILES IDX 54 88 58 89 61 90 55 91 56 92 59 93 57 94
REMARK H PARENT 17 6 10 15 22 28 81 47 49 58
REMARK Flexibility Score: inf
ROOT
ATOM      1  C   UNL A   1      36.631  21.801  25.126  1.00  0.00     0.023 C 
ENDROOT
BRANCH   1   2
ATOM      2  C   UNL A   1      35.350  21.003  25.381  1.00  0.00     0.116 C 
BRANCH   2   3
ATOM      3  N   UNL A   1      34.300  21.273  24.418  1.00  0.00    -0.356 N 
ATOM      4  C   UNL A   1      33.166  22.022  24.485  1.00  0.00     0.227 C 
ATOM      5  O   UNL A   1      32.558  22.181  23.420  1.00  0.00    -0.274 OA
ATOM      6  H   UNL A   1      34.433  20.831  23.549  1.00  0.00     0.163 HD
BRANCH   4   7
ATOM      7  C   UNL A   1      32.573  22.586  25.787  1.00  0.00     0.103 C 
ATOM      8  C   UNL A   1      31.662  24.864  25.970  1.00  0.00     0.106 C 
ATOM      9  C   UNL A   1      30.602  23.818  26.131  1.00  0.00    -0.006 C 
ATOM     10  C   UNL A   1      32.957  24.045  26.019  1.00  0.00     0.047 C 
ATOM     11  C   UNL A   1      31.091  22.581  25.965  1.00  0.00    -0.016 C 
BRANCH   8  12
ATOM     12  N   UNL A   1      31.527  25.891  26.980  1.00  0.00    -0.346 N 
ATOM     13  C   UNL A   1      31.528  27.267  26.877  1.00  0.00     0.254 C 
ATOM     14  O   UNL A   1      31.179  27.924  27.855  1.00  0.00    -0.269 OA
ATOM     15  H   UNL A   1      31.414  25.549  27.897  1.00  0.00     0.164 HD
BRANCH  13  16
ATOM     16  C   UNL A   1      32.004  27.961  25.654  1.00  0.00     0.075 A 
ATOM     17  C   UNL A   1      30.648  29.159  22.311  1.00  0.00     0.044 C 
ATOM     18  C   UNL A   1      31.609  28.872  23.430  1.00  0.00    -0.050 A 
ATOM     19  C   UNL A   1      32.984  28.887  23.193  1.00  0.00     0.006 A 
ATOM     20  C   UNL A   1      31.138  28.512  24.704  1.00  0.00     0.020 A 
ATOM     21  C   UNL A   1      33.868  28.483  24.192  1.00  0.00     0.040 A 
ATOM     22  C   UNL A   1      33.376  27.994  25.402  1.00  0.00     0.135 A 
ATOM     23  F   UNL A   1      34.260  27.512  26.286  1.00  0.00    -0.206 F 
ENDBRANCH  13  16
ENDBRANCH   8  12
ENDBRANCH   4   7
ENDBRANCH   2   3
ENDBRANCH   1   2
BRANCH   1  24
ATOM     24  C   UNL A   1      36.483  23.327  25.041  1.00  0.00     0.023 C 
BRANCH  24  25
ATOM     25  C   UNL A   1      37.351  24.070  26.038  1.00  0.00     0.116 C 
BRANCH  25  26
ATOM     26  N   UNL A   1      38.456  23.247  26.530  1.00  0.00    -0.352 N 
ATOM     27  C   UNL A   1      39.680  23.660  27.017  1.00  0.00     0.251 C 
ATOM     28  H   UNL A   1      38.307  22.273  26.512  1.00  0.00     0.163 HD
ATOM     29  O   UNL A   1      40.629  22.895  27.089  1.00  0.00    -0.269 OA
BRANCH  27  30
ATOM     30  C   UNL A   1      39.806  25.052  27.469  1.00  0.00     0.039 A 
ATOM     31  C   UNL A   1      40.376  26.051  26.668  1.00  0.00     0.014 A 
ATOM     32  C   UNL A   1      39.322  25.337  28.739  1.00  0.00     0.014 A 
ATOM     33  C   UNL A   1      40.399  27.364  27.139  1.00  0.00     0.010 A 
ATOM     34  C   UNL A   1      39.168  26.635  29.115  1.00  0.00     0.010 A 
ATOM     35  C   UNL A   1      39.780  27.638  28.359  1.00  0.00    -0.014 A 
BRANCH  35  36
ATOM     36  C   UNL A   1      39.794  28.915  29.044  1.00  0.00     0.031 A 
ATOM     37  C   UNL A   1      38.762  29.924  28.794  1.00  0.00     0.074 A 
ATOM     38  C   UNL A   1      40.677  28.993  30.064  1.00  0.00     0.049 A 
ATOM     39  N   UNL A   1      38.934  31.182  28.999  1.00  0.00    -0.248 NA
ATOM     40  C   UNL A   1      37.432  29.596  28.288  1.00  0.00     0.031 C 
ATOM     41  C   UNL A   1      40.745  29.924  31.175  1.00  0.00     0.029 A 
ATOM     42  N   UNL A   1      41.809  28.178  30.235  1.00  0.00    -0.354 N 
ATOM     43  C   UNL A   1      37.686  31.764  28.990  1.00  0.00     0.074 A 
ATOM     44  C   UNL A   1      36.805  30.773  28.419  1.00  0.00     0.031 C 
ATOM     45  C   UNL A   1      41.974  29.844  31.725  1.00  0.00     0.029 A 
ATOM     46  C   UNL A   1      42.770  28.961  30.882  1.00  0.00     0.049 A 
ATOM     47  H   UNL A   1      41.907  27.239  29.953  1.00  0.00     0.167 HD
ATOM     48  C   UNL A   1      37.510  32.944  29.653  1.00  0.00     0.037 A 
ATOM     49  C   UNL A   1      43.891  29.317  30.185  1.00  0.00     0.037 A 
ATOM     50  C   UNL A   1      38.757  33.349  30.300  1.00  0.00     0.049 A 
ATOM     51  C   UNL A   1      43.925  30.803  29.953  1.00  0.00     0.074 A 
ATOM     52  C   UNL A   1      39.218  33.161  31.594  1.00  0.00     0.029 A 
ATOM     53  N   UNL A   1      39.874  33.656  29.527  1.00  0.00    -0.354 N 
ATOM     54  N   UNL A   1      42.858  31.547  29.839  1.00  0.00    -0.248 NA
ATOM     55  C   UNL A   1      45.163  31.569  29.915  1.00  0.00     0.031 C 
ATOM     56  C   UNL A   1      40.627  33.302  31.585  1.00  0.00     0.029 A 
ATOM     57  C   UNL A   1      41.025  33.586  30.289  1.00  0.00     0.049 A 
ATOM     58  H   UNL A   1      39.847  33.890  28.571  1.00  0.00     0.167 HD
ATOM     59  C   UNL A   1      43.237  32.861  29.771  1.00  0.00     0.074 A 
ATOM     60  C   UNL A   1      44.689  32.821  29.809  1.00  0.00     0.031 C 
ATOM     61  C   UNL A   1      42.333  33.885  29.726  1.00  0.00     0.037 A 
BRANCH  48  62
ATOM     62  C   UNL A   1      36.160  33.529  29.994  1.00  0.00     0.064 A 
ATOM     63  C   UNL A   1      35.331  34.086  28.993  1.00  0.00     0.173 A 
ATOM     64  C   UNL A   1      35.629  33.577  31.297  1.00  0.00     0.173 A 
ATOM     65  F   UNL A   1      35.673  34.057  27.700  1.00  0.00    -0.203 F 
ATOM     66  C   UNL A   1      34.114  34.707  29.282  1.00  0.00     0.198 A 
ATOM     67  C   UNL A   1      34.425  34.232  31.590  1.00  0.00     0.198 A 
ATOM     68  F   UNL A   1      36.244  32.959  32.315  1.00  0.00    -0.203 F 
ATOM     69  F   UNL A   1      33.379  35.223  28.285  1.00  0.00    -0.200 F 
ATOM     70  C   UNL A   1      33.670  34.802  30.583  1.00  0.00     0.200 A 
ATOM     71  F   UNL A   1      34.001  34.307  32.860  1.00  0.00    -0.200 F 
ATOM     72  F   UNL A   1      32.516  35.422  30.863  1.00  0.00    -0.200 F 
ENDBRANCH  48  62
BRANCH  49  73
ATOM     73  C   UNL A   1      44.304  28.256  29.210  1.00  0.00     0.064 A 
ATOM     74  C   UNL A   1      44.022  28.495  27.847  1.00  0.00     0.173 A 
ATOM     75  C   UNL A   1      45.319  27.332  29.501  1.00  0.00     0.173 A 
ATOM     76  F   UNL A   1      43.057  29.365  27.508  1.00  0.00    -0.203 F 
ATOM     77  C   UNL A   1      44.823  27.969  26.835  1.00  0.00     0.198 A 
ATOM     78  C   UNL A   1      46.105  26.787  28.478  1.00  0.00     0.198 A 
ATOM     79  F   UNL A   1      45.630  27.044  30.772  1.00  0.00    -0.203 F 
ATOM     80  F   UNL A   1      44.619  28.340  25.561  1.00  0.00    -0.200 F 
ATOM     81  C   UNL A   1      45.886  27.142  27.154  1.00  0.00     0.200 A 
ATOM     82  F   UNL A   1      47.132  25.979  28.783  1.00  0.00    -0.200 F 
ATOM     83  F   UNL A   1      46.716  26.719  26.192  1.00  0.00    -0.200 F 
ENDBRANCH  49  73
BRANCH  61  84
ATOM     84  C   UNL A   1      42.632  35.297  29.286  1.00  0.00     0.064 A 
ATOM     85  C   UNL A   1      42.148  35.858  28.093  1.00  0.00     0.173 A 
ATOM     86  C   UNL A   1      43.299  36.200  30.153  1.00  0.00     0.173 A 
ATOM     87  F   UNL A   1      41.379  35.159  27.250  1.00  0.00    -0.203 F 
ATOM     88  C   UNL A   1      42.385  37.190  27.752  1.00  0.00     0.198 A 
ATOM     89  C   UNL A   1      43.466  37.547  29.843  1.00  0.00     0.198 A 
ATOM     90  F   UNL A   1      43.781  35.817  31.344  1.00  0.00    -0.203 F 
ATOM     91  F   UNL A   1      41.954  37.656  26.573  1.00  0.00    -0.200 F 
ATOM     92  C   UNL A   1      43.031  38.038  28.632  1.00  0.00     0.200 A 
ATOM     93  F   UNL A   1      44.030  38.369  30.739  1.00  0.00    -0.200 F 
ATOM     94  F   UNL A   1      43.209  39.327  28.322  1.00  0.00    -0.200 F 
ENDBRANCH  61  84
ENDBRANCH  35  36
ENDBRANCH  27  30
ENDBRANCH  25  26
ENDBRANCH  24  25
ENDBRANCH   1  24
TORSDOF 13
ENDMDL
