MODEL 1
REMARK VINA RESULT:     -11.8      0.000      0.000
REMARK SMILES CCCCCn1c(SCC(=O)NCCCCNC(=O)c2ccc(-c3c4nc(c(-c5c(F)c(F)c(F)c(F)c5F)c5ccc([nH]5)c(-c5c(F)c(F)c(F)c(F)c5F)c5nc(c(-c6c(F)c(F)c(F)c(F)c6F)c6ccc3[nH]6)C=C5)C=C4)cc2)nc2ccccc2c1=O
REMARK SMILES IDX 10 1 11 2 12 3 9 5 8 6 7 7 6 8 90 9 83 10 89 11 91 12 84 13
REMARK SMILES IDX 88 14 85 15 87 16 86 17 5 18 4 19 3 20 2 21 1 22 13 23 14 24
REMARK SMILES IDX 15 25 16 26 17 27 18 28 19 30 20 31 21 32 82 33 22 34 81 35
REMARK SMILES IDX 23 36 24 37 25 38 75 39 26 40 80 41 74 42 76 43 27 44 79 45
REMARK SMILES IDX 73 46 72 47 28 49 60 50 40 51 59 52 41 53 44 54 58 55 77 56
REMARK SMILES IDX 42 57 43 58 57 60 78 61 45 62 29 63 30 64 38 65 31 66 32 67
REMARK SMILES IDX 36 68 39 69 33 70 34 71 37 72 35 73 61 74 62 75 70 76 63 77
REMARK SMILES IDX 64 78 68 79 71 80 65 81 66 82 69 83 67 84 46 85 47 86 55 87
REMARK SMILES IDX 48 88 49 89 53 90 56 91 50 92 51 93 54 94 52 95
REMARK H PARENT 12 4 17 29 76 48 44 59
REMARK Flexibility Score: inf
ROOT
ATOM      1  C   UNL A   1      32.937  28.082  22.408  1.00  0.00     0.230 C 
ATOM      2  O   UNL A   1      34.037  28.281  21.892  1.00  0.00    -0.274 OA
ATOM      3  N   UNL A   1      32.068  29.126  22.514  1.00  0.00    -0.355 N 
ATOM      4  H   UNL A   1      32.329  29.951  22.043  1.00  0.00     0.163 HD
ENDROOT
BRANCH   1   5
ATOM      5  C   UNL A   1      32.499  26.708  22.847  1.00  0.00     0.178 C 
BRANCH   5   6
ATOM      6  S   UNL A   1      32.995  25.366  21.782  1.00  0.00    -0.078 SA
BRANCH   6   7
ATOM      7  C   UNL A   1      33.456  23.913  22.640  1.00  0.00     0.171 A 
ATOM      8  N   UNL A   1      32.606  23.024  23.281  1.00  0.00    -0.287 N 
ATOM      9  C   UNL A   1      33.137  21.873  23.890  1.00  0.00     0.262 A 
ATOM     10  N   UNL A   1      34.749  23.823  22.710  1.00  0.00    -0.224 NA
ATOM     11  C   UNL A   1      34.592  21.824  24.081  1.00  0.00     0.066 A 
ATOM     12  O   UNL A   1      32.463  20.933  24.307  1.00  0.00    -0.269 OA
ATOM     13  C   UNL A   1      35.336  22.839  23.503  1.00  0.00     0.079 A 
ATOM     14  C   UNL A   1      35.194  20.850  24.889  1.00  0.00     0.016 A 
ATOM     15  C   UNL A   1      36.707  22.903  23.770  1.00  0.00     0.029 A 
ATOM     16  C   UNL A   1      36.562  20.921  25.149  1.00  0.00     0.001 A 
ATOM     17  C   UNL A   1      37.318  21.953  24.596  1.00  0.00     0.002 A 
BRANCH   8  18
ATOM     18  C   UNL A   1      31.156  23.131  23.413  1.00  0.00     0.128 C 
BRANCH  18  19
ATOM     19  C   UNL A   1      30.698  24.086  24.525  1.00  0.00     0.022 C 
BRANCH  19  20
ATOM     20  C   UNL A   1      30.771  23.541  25.956  1.00  0.00     0.002 C 
BRANCH  20  21
ATOM     21  C   UNL A   1      31.998  23.911  26.794  1.00  0.00    -0.003 C 
ATOM     22  C   UNL A   1      32.927  24.945  26.185  1.00  0.00     0.004 C 
ENDBRANCH  20  21
ENDBRANCH  19  20
ENDBRANCH  18  19
ENDBRANCH   8  18
ENDBRANCH   6   7
ENDBRANCH   5   6
ENDBRANCH   1   5
BRANCH   3  23
ATOM     23  C   UNL A   1      30.811  29.176  23.233  1.00  0.00     0.116 C 
BRANCH  23  24
ATOM     24  C   UNL A   1      30.968  29.919  24.557  1.00  0.00     0.023 C 
BRANCH  24  25
ATOM     25  C   UNL A   1      31.773  29.163  25.615  1.00  0.00     0.023 C 
BRANCH  25  26
ATOM     26  C   UNL A   1      33.001  29.895  26.139  1.00  0.00     0.116 C 
BRANCH  26  27
ATOM     27  N   UNL A   1      32.709  31.194  26.727  1.00  0.00    -0.352 N 
ATOM     28  C   UNL A   1      33.519  31.956  27.537  1.00  0.00     0.251 C 
ATOM     29  H   UNL A   1      31.824  31.574  26.520  1.00  0.00     0.163 HD
ATOM     30  O   UNL A   1      33.123  33.016  28.009  1.00  0.00    -0.269 OA
BRANCH  28  31
ATOM     31  C   UNL A   1      34.856  31.436  27.881  1.00  0.00     0.039 A 
ATOM     32  C   UNL A   1      35.009  30.111  28.293  1.00  0.00     0.014 A 
ATOM     33  C   UNL A   1      35.937  32.320  27.904  1.00  0.00     0.014 A 
ATOM     34  C   UNL A   1      36.192  29.723  28.904  1.00  0.00     0.010 A 
ATOM     35  C   UNL A   1      37.154  31.901  28.443  1.00  0.00     0.010 A 
ATOM     36  C   UNL A   1      37.269  30.621  29.007  1.00  0.00    -0.014 A 
BRANCH  36  37
ATOM     37  C   UNL A   1      38.486  30.205  29.750  1.00  0.00     0.031 A 
ATOM     38  C   UNL A   1      38.713  30.661  31.166  1.00  0.00     0.074 A 
ATOM     39  C   UNL A   1      39.344  29.346  29.171  1.00  0.00     0.049 A 
ATOM     40  N   UNL A   1      39.683  30.347  31.988  1.00  0.00    -0.248 NA
ATOM     41  C   UNL A   1      37.728  31.594  31.737  1.00  0.00     0.031 C 
ATOM     42  C   UNL A   1      39.219  28.826  27.809  1.00  0.00     0.029 A 
ATOM     43  N   UNL A   1      40.465  28.726  29.664  1.00  0.00    -0.354 N 
ATOM     44  C   UNL A   1      39.436  31.054  33.158  1.00  0.00     0.074 A 
ATOM     45  C   UNL A   1      38.243  31.840  32.934  1.00  0.00     0.031 C 
ATOM     46  C   UNL A   1      40.181  27.916  27.597  1.00  0.00     0.029 A 
ATOM     47  C   UNL A   1      41.024  27.833  28.786  1.00  0.00     0.049 A 
ATOM     48  H   UNL A   1      40.831  28.906  30.559  1.00  0.00     0.167 HD
ATOM     49  C   UNL A   1      40.133  31.035  34.318  1.00  0.00     0.037 A 
ATOM     50  C   UNL A   1      42.100  27.034  28.920  1.00  0.00     0.037 A 
ATOM     51  C   UNL A   1      41.297  30.221  34.553  1.00  0.00     0.049 A 
ATOM     52  C   UNL A   1      42.880  27.065  30.202  1.00  0.00     0.074 A 
ATOM     53  C   UNL A   1      42.038  30.090  35.714  1.00  0.00     0.029 A 
ATOM     54  N   UNL A   1      41.886  29.396  33.606  1.00  0.00    -0.354 N 
ATOM     55  N   UNL A   1      42.625  27.725  31.306  1.00  0.00    -0.248 NA
ATOM     56  C   UNL A   1      44.107  26.259  30.252  1.00  0.00     0.031 C 
ATOM     57  C   UNL A   1      43.101  29.220  35.458  1.00  0.00     0.029 A 
ATOM     58  C   UNL A   1      43.001  28.779  34.147  1.00  0.00     0.049 A 
ATOM     59  H   UNL A   1      41.559  29.269  32.686  1.00  0.00     0.167 HD
ATOM     60  C   UNL A   1      43.659  27.419  32.178  1.00  0.00     0.074 A 
ATOM     61  C   UNL A   1      44.532  26.494  31.486  1.00  0.00     0.031 C 
ATOM     62  C   UNL A   1      43.868  27.874  33.438  1.00  0.00     0.037 A 
BRANCH  49  63
ATOM     63  C   UNL A   1      39.664  31.923  35.434  1.00  0.00     0.064 A 
ATOM     64  C   UNL A   1      40.158  33.225  35.594  1.00  0.00     0.173 A 
ATOM     65  C   UNL A   1      38.664  31.486  36.316  1.00  0.00     0.173 A 
ATOM     66  F   UNL A   1      41.122  33.686  34.783  1.00  0.00    -0.203 F 
ATOM     67  C   UNL A   1      39.680  34.053  36.607  1.00  0.00     0.198 A 
ATOM     68  C   UNL A   1      38.172  32.324  37.312  1.00  0.00     0.198 A 
ATOM     69  F   UNL A   1      38.153  30.251  36.200  1.00  0.00    -0.203 F 
ATOM     70  F   UNL A   1      40.191  35.282  36.761  1.00  0.00    -0.200 F 
ATOM     71  C   UNL A   1      38.683  33.605  37.460  1.00  0.00     0.200 A 
ATOM     72  F   UNL A   1      37.199  31.894  38.129  1.00  0.00    -0.200 F 
ATOM     73  F   UNL A   1      38.217  34.407  38.428  1.00  0.00    -0.200 F 
ENDBRANCH  49  63
BRANCH  50  74
ATOM     74  C   UNL A   1      42.484  26.137  27.803  1.00  0.00     0.064 A 
ATOM     75  C   UNL A   1      41.873  24.886  27.645  1.00  0.00     0.173 A 
ATOM     76  C   UNL A   1      43.427  26.532  26.843  1.00  0.00     0.173 A 
ATOM     77  F   UNL A   1      40.978  24.460  28.549  1.00  0.00    -0.203 F 
ATOM     78  C   UNL A   1      42.188  24.065  26.565  1.00  0.00     0.198 A 
ATOM     79  C   UNL A   1      43.723  25.721  25.750  1.00  0.00     0.198 A 
ATOM     80  F   UNL A   1      44.036  27.721  26.950  1.00  0.00    -0.203 F 
ATOM     81  F   UNL A   1      41.602  22.867  26.444  1.00  0.00    -0.200 F 
ATOM     82  C   UNL A   1      43.103  24.487  25.612  1.00  0.00     0.200 A 
ATOM     83  F   UNL A   1      44.595  26.140  24.825  1.00  0.00    -0.200 F 
ATOM     84  F   UNL A   1      43.390  23.706  24.562  1.00  0.00    -0.200 F 
ENDBRANCH  50  74
BRANCH  62  85
ATOM     85  C   UNL A   1      45.100  27.402  34.147  1.00  0.00     0.064 A 
ATOM     86  C   UNL A   1      46.289  28.144  34.101  1.00  0.00     0.173 A 
ATOM     87  C   UNL A   1      45.070  26.251  34.947  1.00  0.00     0.173 A 
ATOM     88  F   UNL A   1      46.367  29.244  33.337  1.00  0.00    -0.203 F 
ATOM     89  C   UNL A   1      47.405  27.749  34.831  1.00  0.00     0.198 A 
ATOM     90  C   UNL A   1      46.182  25.871  35.694  1.00  0.00     0.198 A 
ATOM     91  F   UNL A   1      43.953  25.512  35.028  1.00  0.00    -0.203 F 
ATOM     92  F   UNL A   1      48.537  28.462  34.757  1.00  0.00    -0.200 F 
ATOM     93  C   UNL A   1      47.348  26.620  35.635  1.00  0.00     0.200 A 
ATOM     94  F   UNL A   1      46.122  24.787  36.479  1.00  0.00    -0.200 F 
ATOM     95  F   UNL A   1      48.418  26.253  36.352  1.00  0.00    -0.200 F 
ENDBRANCH  62  85
ENDBRANCH  36  37
ENDBRANCH  28  31
ENDBRANCH  26  27
ENDBRANCH  25  26
ENDBRANCH  24  25
ENDBRANCH  23  24
ENDBRANCH   3  23
TORSDOF 17
ENDMDL
MODEL 2
REMARK VINA RESULT:     -11.7      4.473      9.682
REMARK SMILES CCCCCn1c(SCC(=O)NCCCCNC(=O)c2ccc(-c3c4nc(c(-c5c(F)c(F)c(F)c(F)c5F)c5ccc([nH]5)c(-c5c(F)c(F)c(F)c(F)c5F)c5nc(c(-c6c(F)c(F)c(F)c(F)c6F)c6ccc3[nH]6)C=C5)C=C4)cc2)nc2ccccc2c1=O
REMARK SMILES IDX 10 1 11 2 12 3 9 5 8 6 7 7 6 8 90 9 83 10 89 11 91 12 84 13
REMARK SMILES IDX 88 14 85 15 87 16 86 17 5 18 4 19 3 20 2 21 1 22 13 23 14 24
REMARK SMILES IDX 15 25 16 26 17 27 18 28 19 30 20 31 21 32 82 33 22 34 81 35
REMARK SMILES IDX 23 36 24 37 25 38 75 39 26 40 80 41 74 42 76 43 27 44 79 45
REMARK SMILES IDX 73 46 72 47 28 49 60 50 40 51 59 52 41 53 44 54 58 55 77 56
REMARK SMILES IDX 42 57 43 58 57 60 78 61 45 62 29 63 30 64 38 65 31 66 32 67
REMARK SMILES IDX 36 68 39 69 33 70 34 71 37 72 35 73 61 74 62 75 70 76 63 77
REMARK SMILES IDX 64 78 68 79 71 80 65 81 66 82 69 83 67 84 46 85 47 86 55 87
REMARK SMILES IDX 48 88 49 89 53 90 56 91 50 92 51 93 54 94 52 95
REMARK H PARENT 12 4 17 29 76 48 44 59
REMARK Flexibility Score: inf
ROOT
ATOM      1  C   UNL A   1      33.582  22.229  27.107  1.00  0.00     0.230 C 
ATOM      2  O   UNL A   1      33.297  22.687  28.214  1.00  0.00    -0.274 OA
ATOM      3  N   UNL A   1      34.782  21.604  26.950  1.00  0.00    -0.355 N 
ATOM      4  H   UNL A   1      35.291  21.438  27.776  1.00  0.00     0.163 HD
ENDROOT
BRANCH   1   5
ATOM      5  C   UNL A   1      32.614  22.270  25.954  1.00  0.00     0.178 C 
BRANCH   5   6
ATOM      6  S   UNL A   1      31.077  23.120  26.269  1.00  0.00    -0.078 SA
BRANCH   6   7
ATOM      7  C   UNL A   1      31.040  24.763  25.671  1.00  0.00     0.171 A 
ATOM      8  N   UNL A   1      31.039  25.162  24.343  1.00  0.00    -0.287 N 
ATOM      9  C   UNL A   1      30.960  26.530  24.029  1.00  0.00     0.262 A 
ATOM     10  N   UNL A   1      31.135  25.602  26.656  1.00  0.00    -0.224 NA
ATOM     11  C   UNL A   1      31.190  27.485  25.121  1.00  0.00     0.066 A 
ATOM     12  O   UNL A   1      30.756  26.976  22.901  1.00  0.00    -0.269 OA
ATOM     13  C   UNL A   1      31.305  26.961  26.399  1.00  0.00     0.079 A 
ATOM     14  C   UNL A   1      31.380  28.851  24.875  1.00  0.00     0.016 A 
ATOM     15  C   UNL A   1      31.655  27.819  27.447  1.00  0.00     0.029 A 
ATOM     16  C   UNL A   1      31.726  29.699  25.926  1.00  0.00     0.001 A 
ATOM     17  C   UNL A   1      31.873  29.180  27.212  1.00  0.00     0.002 A 
BRANCH   8  18
ATOM     18  C   UNL A   1      31.111  24.303  23.164  1.00  0.00     0.128 C 
BRANCH  18  19
ATOM     19  C   UNL A   1      32.441  24.397  22.403  1.00  0.00     0.022 C 
BRANCH  19  20
ATOM     20  C   UNL A   1      33.549  23.441  22.857  1.00  0.00     0.002 C 
BRANCH  20  21
ATOM     21  C   UNL A   1      34.795  24.054  23.502  1.00  0.00    -0.003 C 
ATOM     22  C   UNL A   1      34.542  25.003  24.658  1.00  0.00     0.004 C 
ENDBRANCH  20  21
ENDBRANCH  19  20
ENDBRANCH  18  19
ENDBRANCH   8  18
ENDBRANCH   6   7
ENDBRANCH   5   6
ENDBRANCH   1   5
BRANCH   3  23
ATOM     23  C   UNL A   1      35.404  21.153  25.721  1.00  0.00     0.116 C 
BRANCH  23  24
ATOM     24  C   UNL A   1      36.814  21.719  25.582  1.00  0.00     0.023 C 
BRANCH  24  25
ATOM     25  C   UNL A   1      37.866  20.698  25.147  1.00  0.00     0.023 C 
BRANCH  25  26
ATOM     26  C   UNL A   1      39.208  20.808  25.858  1.00  0.00     0.116 C 
BRANCH  26  27
ATOM     27  N   UNL A   1      40.014  19.597  25.792  1.00  0.00    -0.352 N 
ATOM     28  C   UNL A   1      41.348  19.452  26.095  1.00  0.00     0.251 C 
ATOM     29  H   UNL A   1      39.548  18.784  25.493  1.00  0.00     0.163 HD
ATOM     30  O   UNL A   1      41.918  18.378  25.942  1.00  0.00    -0.269 OA
BRANCH  28  31
ATOM     31  C   UNL A   1      42.097  20.640  26.547  1.00  0.00     0.039 A 
ATOM     32  C   UNL A   1      42.192  20.934  27.908  1.00  0.00     0.014 A 
ATOM     33  C   UNL A   1      42.601  21.523  25.589  1.00  0.00     0.014 A 
ATOM     34  C   UNL A   1      42.619  22.195  28.301  1.00  0.00     0.010 A 
ATOM     35  C   UNL A   1      43.109  22.757  25.995  1.00  0.00     0.010 A 
ATOM     36  C   UNL A   1      43.060  23.128  27.347  1.00  0.00    -0.014 A 
BRANCH  36  37
ATOM     37  C   UNL A   1      43.421  24.499  27.792  1.00  0.00     0.031 A 
ATOM     38  C   UNL A   1      44.855  24.954  27.787  1.00  0.00     0.074 A 
ATOM     39  C   UNL A   1      42.439  25.358  28.121  1.00  0.00     0.049 A 
ATOM     40  N   UNL A   1      45.348  26.132  28.081  1.00  0.00    -0.248 NA
ATOM     41  C   UNL A   1      45.874  23.961  27.407  1.00  0.00     0.031 C 
ATOM     42  C   UNL A   1      41.014  25.032  28.149  1.00  0.00     0.029 A 
ATOM     43  N   UNL A   1      42.486  26.689  28.454  1.00  0.00    -0.354 N 
ATOM     44  C   UNL A   1      46.724  26.016  27.941  1.00  0.00     0.074 A 
ATOM     45  C   UNL A   1      46.998  24.646  27.566  1.00  0.00     0.031 C 
ATOM     46  C   UNL A   1      40.314  26.145  28.413  1.00  0.00     0.029 A 
ATOM     47  C   UNL A   1      41.246  27.249  28.631  1.00  0.00     0.049 A 
ATOM     48  H   UNL A   1      43.325  27.191  28.556  1.00  0.00     0.167 HD
ATOM     49  C   UNL A   1      47.672  26.970  28.094  1.00  0.00     0.037 A 
ATOM     50  C   UNL A   1      40.894  28.513  28.937  1.00  0.00     0.037 A 
ATOM     51  C   UNL A   1      47.393  28.343  28.427  1.00  0.00     0.049 A 
ATOM     52  C   UNL A   1      41.967  29.541  29.144  1.00  0.00     0.074 A 
ATOM     53  C   UNL A   1      48.281  29.398  28.549  1.00  0.00     0.029 A 
ATOM     54  N   UNL A   1      46.129  28.851  28.688  1.00  0.00    -0.354 N 
ATOM     55  N   UNL A   1      43.264  29.422  28.992  1.00  0.00    -0.248 NA
ATOM     56  C   UNL A   1      41.533  30.873  29.588  1.00  0.00     0.031 C 
ATOM     57  C   UNL A   1      47.560  30.534  28.926  1.00  0.00     0.029 A 
ATOM     58  C   UNL A   1      46.218  30.196  29.003  1.00  0.00     0.049 A 
ATOM     59  H   UNL A   1      45.294  28.331  28.653  1.00  0.00     0.167 HD
ATOM     60  C   UNL A   1      43.801  30.657  29.323  1.00  0.00     0.074 A 
ATOM     61  C   UNL A   1      42.688  31.521  29.660  1.00  0.00     0.031 C 
ATOM     62  C   UNL A   1      45.102  31.036  29.353  1.00  0.00     0.037 A 
BRANCH  49  63
ATOM     63  C   UNL A   1      49.107  26.573  27.908  1.00  0.00     0.064 A 
ATOM     64  C   UNL A   1      49.676  26.453  26.632  1.00  0.00     0.173 A 
ATOM     65  C   UNL A   1      49.936  26.367  29.020  1.00  0.00     0.173 A 
ATOM     66  F   UNL A   1      48.922  26.629  25.537  1.00  0.00    -0.203 F 
ATOM     67  C   UNL A   1      51.021  26.127  26.476  1.00  0.00     0.198 A 
ATOM     68  C   UNL A   1      51.286  26.065  28.861  1.00  0.00     0.198 A 
ATOM     69  F   UNL A   1      49.442  26.477  30.262  1.00  0.00    -0.203 F 
ATOM     70  F   UNL A   1      51.536  25.986  25.247  1.00  0.00    -0.200 F 
ATOM     71  C   UNL A   1      51.826  25.941  27.590  1.00  0.00     0.200 A 
ATOM     72  F   UNL A   1      52.066  25.896  29.938  1.00  0.00    -0.200 F 
ATOM     73  F   UNL A   1      53.123  25.636  27.438  1.00  0.00    -0.200 F 
ENDBRANCH  49  63
BRANCH  50  74
ATOM     74  C   UNL A   1      39.457  28.859  29.055  1.00  0.00     0.064 A 
ATOM     75  C   UNL A   1      38.803  28.793  30.292  1.00  0.00     0.173 A 
ATOM     76  C   UNL A   1      38.723  29.311  27.948  1.00  0.00     0.173 A 
ATOM     77  F   UNL A   1      39.460  28.349  31.374  1.00  0.00    -0.203 F 
ATOM     78  C   UNL A   1      37.469  29.173  30.419  1.00  0.00     0.198 A 
ATOM     79  C   UNL A   1      37.397  29.714  28.082  1.00  0.00     0.198 A 
ATOM     80  F   UNL A   1      39.307  29.395  26.745  1.00  0.00    -0.203 F 
ATOM     81  F   UNL A   1      36.861  29.086  31.609  1.00  0.00    -0.200 F 
ATOM     82  C   UNL A   1      36.770  29.643  29.317  1.00  0.00     0.200 A 
ATOM     83  F   UNL A   1      36.732  30.183  27.018  1.00  0.00    -0.200 F 
ATOM     84  F   UNL A   1      35.493  30.028  29.444  1.00  0.00    -0.200 F 
ENDBRANCH  50  74
BRANCH  62  85
ATOM     85  C   UNL A   1      45.403  32.437  29.787  1.00  0.00     0.064 A 
ATOM     86  C   UNL A   1      45.722  32.726  31.122  1.00  0.00     0.173 A 
ATOM     87  C   UNL A   1      45.460  33.481  28.853  1.00  0.00     0.173 A 
ATOM     88  F   UNL A   1      45.667  31.761  32.052  1.00  0.00    -0.203 F 
ATOM     89  C   UNL A   1      46.087  34.013  31.506  1.00  0.00     0.198 A 
ATOM     90  C   UNL A   1      45.846  34.763  29.237  1.00  0.00     0.198 A 
ATOM     91  F   UNL A   1      45.169  33.252  27.563  1.00  0.00    -0.203 F 
ATOM     92  F   UNL A   1      46.369  34.272  32.790  1.00  0.00    -0.200 F 
ATOM     93  C   UNL A   1      46.159  35.027  30.562  1.00  0.00     0.200 A 
ATOM     94  F   UNL A   1      45.928  35.738  28.322  1.00  0.00    -0.200 F 
ATOM     95  F   UNL A   1      46.529  36.261  30.931  1.00  0.00    -0.200 F 
ENDBRANCH  62  85
ENDBRANCH  36  37
ENDBRANCH  28  31
ENDBRANCH  26  27
ENDBRANCH  25  26
ENDBRANCH  24  25
ENDBRANCH  23  24
ENDBRANCH   3  23
TORSDOF 17
ENDMDL
MODEL 3
REMARK VINA RESULT:     -11.7      0.611      7.161
REMARK SMILES CCCCCn1c(SCC(=O)NCCCCNC(=O)c2ccc(-c3c4nc(c(-c5c(F)c(F)c(F)c(F)c5F)c5ccc([nH]5)c(-c5c(F)c(F)c(F)c(F)c5F)c5nc(c(-c6c(F)c(F)c(F)c(F)c6F)c6ccc3[nH]6)C=C5)C=C4)cc2)nc2ccccc2c1=O
REMARK SMILES IDX 10 1 11 2 12 3 9 5 8 6 7 7 6 8 90 9 83 10 89 11 91 12 84 13
REMARK SMILES IDX 88 14 85 15 87 16 86 17 5 18 4 19 3 20 2 21 1 22 13 23 14 24
REMARK SMILES IDX 15 25 16 26 17 27 18 28 19 30 20 31 21 32 82 33 22 34 81 35
REMARK SMILES IDX 23 36 24 37 25 38 75 39 26 40 80 41 74 42 76 43 27 44 79 45
REMARK SMILES IDX 73 46 72 47 28 49 60 50 40 51 59 52 41 53 44 54 58 55 77 56
REMARK SMILES IDX 42 57 43 58 57 60 78 61 45 62 29 63 30 64 38 65 31 66 32 67
REMARK SMILES IDX 36 68 39 69 33 70 34 71 37 72 35 73 61 74 62 75 70 76 63 77
REMARK SMILES IDX 64 78 68 79 71 80 65 81 66 82 69 83 67 84 46 85 47 86 55 87
REMARK SMILES IDX 48 88 49 89 53 90 56 91 50 92 51 93 54 94 52 95
REMARK H PARENT 12 4 17 29 76 48 44 59
REMARK Flexibility Score: inf
ROOT
ATOM      1  C   UNL A   1      32.946  28.053  22.392  1.00  0.00     0.230 C 
ATOM      2  O   UNL A   1      34.059  28.300  21.927  1.00  0.00    -0.274 OA
ATOM      3  N   UNL A   1      31.992  29.024  22.349  1.00  0.00    -0.355 N 
ATOM      4  H   UNL A   1      32.217  29.824  21.821  1.00  0.00     0.163 HD
ENDROOT
BRANCH   1   5
ATOM      5  C   UNL A   1      32.591  26.690  22.927  1.00  0.00     0.178 C 
BRANCH   5   6
ATOM      6  S   UNL A   1      32.993  25.316  21.863  1.00  0.00    -0.078 SA
BRANCH   6   7
ATOM      7  C   UNL A   1      33.402  23.849  22.723  1.00  0.00     0.171 A 
ATOM      8  N   UNL A   1      32.527  23.015  23.402  1.00  0.00    -0.287 N 
ATOM      9  C   UNL A   1      33.014  21.843  24.006  1.00  0.00     0.262 A 
ATOM     10  N   UNL A   1      34.690  23.689  22.751  1.00  0.00    -0.224 NA
ATOM     11  C   UNL A   1      34.470  21.715  24.150  1.00  0.00     0.066 A 
ATOM     12  O   UNL A   1      32.305  20.945  24.457  1.00  0.00    -0.269 OA
ATOM     13  C   UNL A   1      35.249  22.682  23.535  1.00  0.00     0.079 A 
ATOM     14  C   UNL A   1      35.045  20.718  24.949  1.00  0.00     0.016 A 
ATOM     15  C   UNL A   1      36.629  22.673  23.756  1.00  0.00     0.029 A 
ATOM     16  C   UNL A   1      36.423  20.716  25.163  1.00  0.00     0.001 A 
ATOM     17  C   UNL A   1      37.215  21.700  24.573  1.00  0.00     0.002 A 
BRANCH   8  18
ATOM     18  C   UNL A   1      31.090  23.203  23.581  1.00  0.00     0.128 C 
BRANCH  18  19
ATOM     19  C   UNL A   1      30.724  24.297  24.593  1.00  0.00     0.022 C 
BRANCH  19  20
ATOM     20  C   UNL A   1      30.772  23.894  26.071  1.00  0.00     0.002 C 
BRANCH  20  21
ATOM     21  C   UNL A   1      32.138  23.889  26.762  1.00  0.00    -0.003 C 
ATOM     22  C   UNL A   1      33.118  24.949  26.293  1.00  0.00     0.004 C 
ENDBRANCH  20  21
ENDBRANCH  19  20
ENDBRANCH  18  19
ENDBRANCH   8  18
ENDBRANCH   6   7
ENDBRANCH   5   6
ENDBRANCH   1   5
BRANCH   3  23
ATOM     23  C   UNL A   1      30.689  29.028  22.984  1.00  0.00     0.116 C 
BRANCH  23  24
ATOM     24  C   UNL A   1      30.695  29.897  24.239  1.00  0.00     0.023 C 
BRANCH  24  25
ATOM     25  C   UNL A   1      31.413  29.272  25.437  1.00  0.00     0.023 C 
BRANCH  25  26
ATOM     26  C   UNL A   1      32.666  30.006  25.895  1.00  0.00     0.116 C 
BRANCH  26  27
ATOM     27  N   UNL A   1      32.414  31.348  26.398  1.00  0.00    -0.352 N 
ATOM     28  C   UNL A   1      33.211  32.103  27.228  1.00  0.00     0.251 C 
ATOM     29  H   UNL A   1      31.571  31.767  26.110  1.00  0.00     0.163 HD
ATOM     30  O   UNL A   1      32.849  33.206  27.620  1.00  0.00    -0.269 OA
BRANCH  28  31
ATOM     31  C   UNL A   1      34.486  31.525  27.692  1.00  0.00     0.039 A 
ATOM     32  C   UNL A   1      34.567  30.168  28.011  1.00  0.00     0.014 A 
ATOM     33  C   UNL A   1      35.568  32.377  27.921  1.00  0.00     0.014 A 
ATOM     34  C   UNL A   1      35.658  29.704  28.732  1.00  0.00     0.010 A 
ATOM     35  C   UNL A   1      36.701  31.887  28.571  1.00  0.00     0.010 A 
ATOM     36  C   UNL A   1      36.727  30.565  29.040  1.00  0.00    -0.014 A 
BRANCH  36  37
ATOM     37  C   UNL A   1      37.834  30.062  29.893  1.00  0.00     0.031 A 
ATOM     38  C   UNL A   1      38.892  29.156  29.321  1.00  0.00     0.074 A 
ATOM     39  C   UNL A   1      37.928  30.494  31.164  1.00  0.00     0.049 A 
ATOM     40  N   UNL A   1      39.963  28.673  29.898  1.00  0.00    -0.248 NA
ATOM     41  C   UNL A   1      38.728  28.733  27.921  1.00  0.00     0.031 C 
ATOM     42  C   UNL A   1      36.970  31.382  31.820  1.00  0.00     0.029 A 
ATOM     43  N   UNL A   1      38.892  30.278  32.116  1.00  0.00    -0.354 N 
ATOM     44  C   UNL A   1      40.586  27.879  28.944  1.00  0.00     0.074 A 
ATOM     45  C   UNL A   1      39.759  27.916  27.758  1.00  0.00     0.031 C 
ATOM     46  C   UNL A   1      37.426  31.692  33.043  1.00  0.00     0.029 A 
ATOM     47  C   UNL A   1      38.678  30.978  33.276  1.00  0.00     0.049 A 
ATOM     48  H   UNL A   1      39.662  29.680  31.980  1.00  0.00     0.167 HD
ATOM     49  C   UNL A   1      41.750  27.195  29.044  1.00  0.00     0.037 A 
ATOM     50  C   UNL A   1      39.406  31.038  34.407  1.00  0.00     0.037 A 
ATOM     51  C   UNL A   1      42.591  27.192  30.213  1.00  0.00     0.049 A 
ATOM     52  C   UNL A   1      40.670  30.235  34.507  1.00  0.00     0.074 A 
ATOM     53  C   UNL A   1      43.817  26.576  30.391  1.00  0.00     0.029 A 
ATOM     54  N   UNL A   1      42.292  27.841  31.401  1.00  0.00    -0.354 N 
ATOM     55  N   UNL A   1      41.256  29.502  33.592  1.00  0.00    -0.248 NA
ATOM     56  C   UNL A   1      41.364  30.248  35.802  1.00  0.00     0.031 C 
ATOM     57  C   UNL A   1      44.240  26.816  31.701  1.00  0.00     0.029 A 
ATOM     58  C   UNL A   1      43.295  27.613  32.328  1.00  0.00     0.049 A 
ATOM     59  H   UNL A   1      41.487  28.384  31.561  1.00  0.00     0.167 HD
ATOM     60  C   UNL A   1      42.381  28.964  34.198  1.00  0.00     0.074 A 
ATOM     61  C   UNL A   1      42.412  29.475  35.553  1.00  0.00     0.031 C 
ATOM     62  C   UNL A   1      43.301  28.115  33.677  1.00  0.00     0.037 A 
BRANCH  49  63
ATOM     63  C   UNL A   1      42.191  26.383  27.862  1.00  0.00     0.064 A 
ATOM     64  C   UNL A   1      43.142  26.868  26.952  1.00  0.00     0.173 A 
ATOM     65  C   UNL A   1      41.703  25.082  27.671  1.00  0.00     0.173 A 
ATOM     66  F   UNL A   1      43.632  28.110  27.085  1.00  0.00    -0.203 F 
ATOM     67  C   UNL A   1      43.576  26.086  25.884  1.00  0.00     0.198 A 
ATOM     68  C   UNL A   1      42.156  24.294  26.617  1.00  0.00     0.198 A 
ATOM     69  F   UNL A   1      40.798  24.569  28.518  1.00  0.00    -0.203 F 
ATOM     70  F   UNL A   1      44.460  26.582  25.009  1.00  0.00    -0.200 F 
ATOM     71  C   UNL A   1      43.088  24.797  25.722  1.00  0.00     0.200 A 
ATOM     72  F   UNL A   1      41.693  23.045  26.467  1.00  0.00    -0.200 F 
ATOM     73  F   UNL A   1      43.515  24.042  24.700  1.00  0.00    -0.200 F 
ENDBRANCH  49  63
BRANCH  50  74
ATOM     74  C   UNL A   1      38.947  31.900  35.523  1.00  0.00     0.064 A 
ATOM     75  C   UNL A   1      38.197  31.367  36.579  1.00  0.00     0.173 A 
ATOM     76  C   UNL A   1      39.291  33.258  35.584  1.00  0.00     0.173 A 
ATOM     77  F   UNL A   1      37.829  30.076  36.555  1.00  0.00    -0.203 F 
ATOM     78  C   UNL A   1      37.812  32.160  37.658  1.00  0.00     0.198 A 
ATOM     79  C   UNL A   1      38.927  34.044  36.675  1.00  0.00     0.198 A 
ATOM     80  F   UNL A   1      40.011  33.813  34.598  1.00  0.00    -0.203 F 
ATOM     81  F   UNL A   1      37.082  31.630  38.648  1.00  0.00    -0.200 F 
ATOM     82  C   UNL A   1      38.187  33.494  37.711  1.00  0.00     0.200 A 
ATOM     83  F   UNL A   1      39.305  35.328  36.729  1.00  0.00    -0.200 F 
ATOM     84  F   UNL A   1      37.835  34.250  38.759  1.00  0.00    -0.200 F 
ENDBRANCH  50  74
BRANCH  62  85
ATOM     85  C   UNL A   1      44.408  27.661  34.578  1.00  0.00     0.064 A 
ATOM     86  C   UNL A   1      45.577  28.421  34.723  1.00  0.00     0.173 A 
ATOM     87  C   UNL A   1      44.266  26.509  35.364  1.00  0.00     0.173 A 
ATOM     88  F   UNL A   1      45.762  29.522  33.980  1.00  0.00    -0.203 F 
ATOM     89  C   UNL A   1      46.567  28.043  35.626  1.00  0.00     0.198 A 
ATOM     90  C   UNL A   1      45.249  26.146  36.282  1.00  0.00     0.198 A 
ATOM     91  F   UNL A   1      43.162  25.753  35.264  1.00  0.00    -0.203 F 
ATOM     92  F   UNL A   1      47.685  28.773  35.735  1.00  0.00    -0.200 F 
ATOM     93  C   UNL A   1      46.397  26.912  36.411  1.00  0.00     0.200 A 
ATOM     94  F   UNL A   1      45.078  25.061  37.049  1.00  0.00    -0.200 F 
ATOM     95  F   UNL A   1      47.342  26.561  37.293  1.00  0.00    -0.200 F 
ENDBRANCH  62  85
ENDBRANCH  36  37
ENDBRANCH  28  31
ENDBRANCH  26  27
ENDBRANCH  25  26
ENDBRANCH  24  25
ENDBRANCH  23  24
ENDBRANCH   3  23
TORSDOF 17
ENDMDL
