MODEL 1
REMARK VINA RESULT:     -11.3      0.000      0.000
REMARK SMILES CCn1nccc1[C@H](F)C(=O)NCCCCNC(=O)c1ccc(-c2c3nc(c(-c4c(F)c(F)c(F)c(F)c4F)c4ccc([nH]4)c(-c4c(F)c(F)c(F)c(F)c4F)c4nc(c(-c5c(F)c(F)c(F)c(F)c5F)c5ccc2[nH]5)C=C4)C=C3)cc1
REMARK SMILES IDX 14 1 13 2 12 3 10 4 11 5 8 7 9 8 7 9 3 10 4 11 5 12 6 13
REMARK SMILES IDX 2 14 1 15 15 16 16 17 17 18 18 19 19 21 20 22 21 23 82 24
REMARK SMILES IDX 22 25 81 26 23 27 24 28 25 29 75 30 26 31 80 32 74 33 76 34
REMARK SMILES IDX 27 35 79 36 73 37 72 38 28 40 60 41 40 42 59 43 41 44 44 45
REMARK SMILES IDX 58 46 77 47 42 48 43 49 57 51 78 52 45 53 29 54 30 55 38 56
REMARK SMILES IDX 31 57 32 58 36 59 39 60 33 61 34 62 37 63 35 64 61 65 62 66
REMARK SMILES IDX 70 67 63 68 64 69 68 70 71 71 65 72 66 73 69 74 67 75 46 76
REMARK SMILES IDX 47 77 55 78 48 79 49 80 53 81 56 82 50 83 51 84 54 85 52 86
REMARK H PARENT 12 6 17 20 76 39 44 50
REMARK Flexibility Score: inf
ROOT
ATOM      1  C   UNL A   1      37.472  31.538  33.552  1.00  0.00     0.023 C 
ENDROOT
BRANCH   1   2
ATOM      2  C   UNL A   1      36.859  32.904  33.871  1.00  0.00     0.116 C 
BRANCH   2   3
ATOM      3  N   UNL A   1      35.411  32.923  33.779  1.00  0.00    -0.353 N 
ATOM      4  C   UNL A   1      34.611  33.532  32.846  1.00  0.00     0.260 C 
ATOM      5  O   UNL A   1      33.404  33.265  32.885  1.00  0.00    -0.271 OA
ATOM      6  H   UNL A   1      34.936  32.429  34.486  1.00  0.00     0.163 HD
BRANCH   4   7
ATOM      7  C   UNL A   1      35.179  34.489  31.784  1.00  0.00     0.303 C 
ATOM      8  F   UNL A   1      36.260  33.956  31.142  1.00  0.00    -0.230 F 
BRANCH   7   9
ATOM      9  C   UNL A   1      34.156  34.923  30.780  1.00  0.00     0.082 A 
ATOM     10  N   UNL A   1      33.252  35.951  30.962  1.00  0.00    -0.266 N 
ATOM     11  N   UNL A   1      32.535  36.207  29.841  1.00  0.00    -0.181 NA
ATOM     12  C   UNL A   1      32.934  35.295  28.963  1.00  0.00     0.135 A 
ATOM     13  C   UNL A   1      33.910  34.451  29.499  1.00  0.00     0.049 A 
BRANCH  10  14
ATOM     14  C   UNL A   1      32.850  36.724  32.126  1.00  0.00     0.141 C 
ATOM     15  C   UNL A   1      33.894  37.369  33.016  1.00  0.00     0.029 C 
ENDBRANCH  10  14
ENDBRANCH   7   9
ENDBRANCH   4   7
ENDBRANCH   2   3
ENDBRANCH   1   2
BRANCH   1  16
ATOM     16  C   UNL A   1      36.733  30.671  32.522  1.00  0.00     0.023 C 
BRANCH  16  17
ATOM     17  C   UNL A   1      36.884  31.109  31.073  1.00  0.00     0.116 C 
BRANCH  17  18
ATOM     18  N   UNL A   1      35.872  30.546  30.182  1.00  0.00    -0.352 N 
ATOM     19  C   UNL A   1      36.076  29.863  28.993  1.00  0.00     0.251 C 
ATOM     20  H   UNL A   1      34.935  30.667  30.459  1.00  0.00     0.163 HD
ATOM     21  O   UNL A   1      35.191  29.750  28.165  1.00  0.00    -0.269 OA
BRANCH  19  22
ATOM     22  C   UNL A   1      37.404  29.268  28.752  1.00  0.00     0.039 A 
ATOM     23  C   UNL A   1      38.196  29.667  27.671  1.00  0.00     0.014 A 
ATOM     24  C   UNL A   1      37.865  28.324  29.664  1.00  0.00     0.014 A 
ATOM     25  C   UNL A   1      39.497  29.173  27.571  1.00  0.00     0.010 A 
ATOM     26  C   UNL A   1      39.187  27.955  29.648  1.00  0.00     0.010 A 
ATOM     27  C   UNL A   1      39.995  28.334  28.579  1.00  0.00    -0.014 A 
BRANCH  27  28
ATOM     28  C   UNL A   1      41.393  27.911  28.590  1.00  0.00     0.031 A 
ATOM     29  C   UNL A   1      41.681  26.659  27.837  1.00  0.00     0.074 A 
ATOM     30  C   UNL A   1      42.387  28.715  29.025  1.00  0.00     0.049 A 
ATOM     31  N   UNL A   1      42.136  25.543  28.302  1.00  0.00    -0.248 NA
ATOM     32  C   UNL A   1      41.338  26.606  26.407  1.00  0.00     0.031 C 
ATOM     33  C   UNL A   1      42.270  30.108  29.478  1.00  0.00     0.029 A 
ATOM     34  N   UNL A   1      43.736  28.506  29.045  1.00  0.00    -0.354 N 
ATOM     35  C   UNL A   1      42.325  24.710  27.197  1.00  0.00     0.074 A 
ATOM     36  C   UNL A   1      41.660  25.349  26.094  1.00  0.00     0.031 C 
ATOM     37  C   UNL A   1      43.490  30.686  29.494  1.00  0.00     0.029 A 
ATOM     38  C   UNL A   1      44.484  29.659  29.250  1.00  0.00     0.049 A 
ATOM     39  H   UNL A   1      44.143  27.618  28.924  1.00  0.00     0.167 HD
ATOM     40  C   UNL A   1      43.247  23.706  27.239  1.00  0.00     0.037 A 
ATOM     41  C   UNL A   1      45.831  29.776  29.236  1.00  0.00     0.037 A 
ATOM     42  C   UNL A   1      43.701  23.495  28.590  1.00  0.00     0.049 A 
ATOM     43  C   UNL A   1      46.401  28.435  29.480  1.00  0.00     0.074 A 
ATOM     44  C   UNL A   1      43.246  22.860  29.723  1.00  0.00     0.029 A 
ATOM     45  N   UNL A   1      44.703  24.346  28.970  1.00  0.00    -0.354 N 
ATOM     46  N   UNL A   1      46.282  27.800  30.612  1.00  0.00    -0.248 NA
ATOM     47  C   UNL A   1      46.847  27.627  28.350  1.00  0.00     0.031 C 
ATOM     48  C   UNL A   1      43.904  23.488  30.823  1.00  0.00     0.029 A 
ATOM     49  C   UNL A   1      44.760  24.469  30.331  1.00  0.00     0.049 A 
ATOM     50  H   UNL A   1      45.305  24.811  28.344  1.00  0.00     0.167 HD
ATOM     51  C   UNL A   1      46.211  26.472  30.245  1.00  0.00     0.074 A 
ATOM     52  C   UNL A   1      46.753  26.411  28.896  1.00  0.00     0.031 C 
ATOM     53  C   UNL A   1      45.411  25.609  30.930  1.00  0.00     0.037 A 
BRANCH  40  54
ATOM     54  C   UNL A   1      44.110  23.234  26.081  1.00  0.00     0.064 A 
ATOM     55  C   UNL A   1      44.138  21.853  25.776  1.00  0.00     0.173 A 
ATOM     56  C   UNL A   1      45.141  23.997  25.494  1.00  0.00     0.173 A 
ATOM     57  F   UNL A   1      43.208  21.022  26.271  1.00  0.00    -0.203 F 
ATOM     58  C   UNL A   1      45.172  21.275  25.031  1.00  0.00     0.198 A 
ATOM     59  C   UNL A   1      46.142  23.423  24.709  1.00  0.00     0.198 A 
ATOM     60  F   UNL A   1      45.293  25.302  25.743  1.00  0.00    -0.203 F 
ATOM     61  F   UNL A   1      45.223  19.944  24.882  1.00  0.00    -0.200 F 
ATOM     62  C   UNL A   1      46.180  22.060  24.507  1.00  0.00     0.200 A 
ATOM     63  F   UNL A   1      47.121  24.200  24.221  1.00  0.00    -0.200 F 
ATOM     64  F   UNL A   1      47.206  21.505  23.850  1.00  0.00    -0.200 F 
ENDBRANCH  40  54
BRANCH  41  65
ATOM     65  C   UNL A   1      46.674  30.935  28.881  1.00  0.00     0.064 A 
ATOM     66  C   UNL A   1      46.751  31.398  27.559  1.00  0.00     0.173 A 
ATOM     67  C   UNL A   1      47.182  31.785  29.881  1.00  0.00     0.173 A 
ATOM     68  F   UNL A   1      46.266  30.654  26.555  1.00  0.00    -0.203 F 
ATOM     69  C   UNL A   1      47.259  32.664  27.258  1.00  0.00     0.198 A 
ATOM     70  C   UNL A   1      47.692  33.047  29.580  1.00  0.00     0.198 A 
ATOM     71  F   UNL A   1      47.098  31.443  31.176  1.00  0.00    -0.203 F 
ATOM     72  F   UNL A   1      47.249  33.102  25.992  1.00  0.00    -0.200 F 
ATOM     73  C   UNL A   1      47.713  33.494  28.270  1.00  0.00     0.200 A 
ATOM     74  F   UNL A   1      48.097  33.856  30.569  1.00  0.00    -0.200 F 
ATOM     75  F   UNL A   1      48.127  34.737  27.990  1.00  0.00    -0.200 F 
ENDBRANCH  41  65
BRANCH  53  76
ATOM     76  C   UNL A   1      45.058  25.979  32.335  1.00  0.00     0.064 A 
ATOM     77  C   UNL A   1      43.914  26.705  32.701  1.00  0.00     0.173 A 
ATOM     78  C   UNL A   1      45.898  25.530  33.360  1.00  0.00     0.173 A 
ATOM     79  F   UNL A   1      43.025  27.101  31.781  1.00  0.00    -0.203 F 
ATOM     80  C   UNL A   1      43.651  27.008  34.035  1.00  0.00     0.198 A 
ATOM     81  C   UNL A   1      45.616  25.803  34.694  1.00  0.00     0.198 A 
ATOM     82  F   UNL A   1      46.984  24.797  33.066  1.00  0.00    -0.203 F 
ATOM     83  F   UNL A   1      42.565  27.724  34.360  1.00  0.00    -0.200 F 
ATOM     84  C   UNL A   1      44.500  26.552  35.030  1.00  0.00     0.200 A 
ATOM     85  F   UNL A   1      46.419  25.326  35.654  1.00  0.00    -0.200 F 
ATOM     86  F   UNL A   1      44.234  26.819  36.316  1.00  0.00    -0.200 F 
ENDBRANCH  53  76
ENDBRANCH  27  28
ENDBRANCH  19  22
ENDBRANCH  17  18
ENDBRANCH  16  17
ENDBRANCH   1  16
TORSDOF 13
ENDMDL
MODEL 2
REMARK VINA RESULT:     -11.2      3.967      8.723
REMARK SMILES CCn1nccc1[C@H](F)C(=O)NCCCCNC(=O)c1ccc(-c2c3nc(c(-c4c(F)c(F)c(F)c(F)c4F)c4ccc([nH]4)c(-c4c(F)c(F)c(F)c(F)c4F)c4nc(c(-c5c(F)c(F)c(F)c(F)c5F)c5ccc2[nH]5)C=C4)C=C3)cc1
REMARK SMILES IDX 14 1 13 2 12 3 10 4 11 5 8 7 9 8 7 9 3 10 4 11 5 12 6 13
REMARK SMILES IDX 2 14 1 15 15 16 16 17 17 18 18 19 19 21 20 22 21 23 82 24
REMARK SMILES IDX 22 25 81 26 23 27 24 28 25 29 75 30 26 31 80 32 74 33 76 34
REMARK SMILES IDX 27 35 79 36 73 37 72 38 28 40 60 41 40 42 59 43 41 44 44 45
REMARK SMILES IDX 58 46 77 47 42 48 43 49 57 51 78 52 45 53 29 54 30 55 38 56
REMARK SMILES IDX 31 57 32 58 36 59 39 60 33 61 34 62 37 63 35 64 61 65 62 66
REMARK SMILES IDX 70 67 63 68 64 69 68 70 71 71 65 72 66 73 69 74 67 75 46 76
REMARK SMILES IDX 47 77 55 78 48 79 49 80 53 81 56 82 50 83 51 84 54 85 52 86
REMARK H PARENT 12 6 17 20 76 39 44 50
REMARK Flexibility Score: inf
ROOT
ATOM      1  C   UNL A   1      32.550  30.563  26.996  1.00  0.00     0.023 C 
ENDROOT
BRANCH   1   2
ATOM      2  C   UNL A   1      32.237  30.078  25.579  1.00  0.00     0.116 C 
BRANCH   2   3
ATOM      3  N   UNL A   1      31.785  28.700  25.527  1.00  0.00    -0.353 N 
ATOM      4  C   UNL A   1      31.160  28.033  24.504  1.00  0.00     0.260 C 
ATOM      5  O   UNL A   1      31.021  26.811  24.637  1.00  0.00    -0.271 OA
ATOM      6  H   UNL A   1      31.949  28.170  26.340  1.00  0.00     0.163 HD
BRANCH   4   7
ATOM      7  C   UNL A   1      30.667  28.756  23.239  1.00  0.00     0.303 C 
ATOM      8  F   UNL A   1      31.001  28.078  22.101  1.00  0.00    -0.230 F 
BRANCH   7   9
ATOM      9  C   UNL A   1      29.194  29.026  23.255  1.00  0.00     0.082 A 
ATOM     10  N   UNL A   1      28.617  30.275  23.374  1.00  0.00    -0.266 N 
ATOM     11  N   UNL A   1      27.270  30.232  23.229  1.00  0.00    -0.181 NA
ATOM     12  C   UNL A   1      26.981  28.945  23.085  1.00  0.00     0.135 A 
ATOM     13  C   UNL A   1      28.127  28.148  23.129  1.00  0.00     0.049 A 
BRANCH  10  14
ATOM     14  C   UNL A   1      29.146  31.582  23.725  1.00  0.00     0.141 C 
ATOM     15  C   UNL A   1      28.785  32.802  22.901  1.00  0.00     0.029 C 
ENDBRANCH  10  14
ENDBRANCH   7   9
ENDBRANCH   4   7
ENDBRANCH   2   3
ENDBRANCH   1   2
BRANCH   1  16
ATOM     16  C   UNL A   1      33.978  30.331  27.510  1.00  0.00     0.023 C 
BRANCH  16  17
ATOM     17  C   UNL A   1      34.842  31.578  27.622  1.00  0.00     0.116 C 
BRANCH  17  18
ATOM     18  N   UNL A   1      34.780  32.217  28.935  1.00  0.00    -0.352 N 
ATOM     19  C   UNL A   1      35.474  31.865  30.082  1.00  0.00     0.251 C 
ATOM     20  H   UNL A   1      34.174  32.989  29.013  1.00  0.00     0.163 HD
ATOM     21  O   UNL A   1      35.100  32.218  31.185  1.00  0.00    -0.269 OA
BRANCH  19  22
ATOM     22  C   UNL A   1      36.690  31.043  29.934  1.00  0.00     0.039 A 
ATOM     23  C   UNL A   1      37.937  31.624  29.688  1.00  0.00     0.014 A 
ATOM     24  C   UNL A   1      36.563  29.666  30.089  1.00  0.00     0.014 A 
ATOM     25  C   UNL A   1      39.072  30.812  29.695  1.00  0.00     0.010 A 
ATOM     26  C   UNL A   1      37.687  28.895  30.243  1.00  0.00     0.010 A 
ATOM     27  C   UNL A   1      38.941  29.448  29.997  1.00  0.00    -0.014 A 
BRANCH  27  28
ATOM     28  C   UNL A   1      40.114  28.593  30.156  1.00  0.00     0.031 A 
ATOM     29  C   UNL A   1      40.568  28.395  31.560  1.00  0.00     0.074 A 
ATOM     30  C   UNL A   1      40.597  27.835  29.146  1.00  0.00     0.049 A 
ATOM     31  N   UNL A   1      41.697  28.740  32.083  1.00  0.00    -0.248 NA
ATOM     32  C   UNL A   1      39.619  27.826  32.530  1.00  0.00     0.031 C 
ATOM     33  C   UNL A   1      40.031  27.682  27.799  1.00  0.00     0.029 A 
ATOM     34  N   UNL A   1      41.630  26.943  29.140  1.00  0.00    -0.354 N 
ATOM     35  C   UNL A   1      41.683  28.257  33.393  1.00  0.00     0.074 A 
ATOM     36  C   UNL A   1      40.327  27.864  33.661  1.00  0.00     0.031 C 
ATOM     37  C   UNL A   1      40.566  26.597  27.201  1.00  0.00     0.029 A 
ATOM     38  C   UNL A   1      41.646  26.104  28.033  1.00  0.00     0.049 A 
ATOM     39  H   UNL A   1      42.304  26.898  29.856  1.00  0.00     0.167 HD
ATOM     40  C   UNL A   1      42.852  27.974  34.037  1.00  0.00     0.037 A 
ATOM     41  C   UNL A   1      42.491  25.075  27.794  1.00  0.00     0.037 A 
ATOM     42  C   UNL A   1      43.972  28.512  33.308  1.00  0.00     0.049 A 
ATOM     43  C   UNL A   1      43.701  25.288  28.616  1.00  0.00     0.074 A 
ATOM     44  C   UNL A   1      44.583  29.734  33.149  1.00  0.00     0.029 A 
ATOM     45  N   UNL A   1      44.407  27.700  32.296  1.00  0.00    -0.354 N 
ATOM     46  N   UNL A   1      44.539  26.266  28.417  1.00  0.00    -0.248 NA
ATOM     47  C   UNL A   1      43.834  24.595  29.892  1.00  0.00     0.031 C 
ATOM     48  C   UNL A   1      45.275  29.674  31.902  1.00  0.00     0.029 A 
ATOM     49  C   UNL A   1      45.090  28.410  31.349  1.00  0.00     0.049 A 
ATOM     50  H   UNL A   1      44.248  26.729  32.256  1.00  0.00     0.167 HD
ATOM     51  C   UNL A   1      44.989  26.583  29.682  1.00  0.00     0.074 A 
ATOM     52  C   UNL A   1      44.686  25.422  30.505  1.00  0.00     0.031 C 
ATOM     53  C   UNL A   1      45.252  27.877  30.017  1.00  0.00     0.037 A 
BRANCH  40  54
ATOM     54  C   UNL A   1      43.079  26.841  35.023  1.00  0.00     0.064 A 
ATOM     55  C   UNL A   1      43.394  27.161  36.364  1.00  0.00     0.173 A 
ATOM     56  C   UNL A   1      43.332  25.504  34.653  1.00  0.00     0.173 A 
ATOM     57  F   UNL A   1      43.195  28.401  36.837  1.00  0.00    -0.203 F 
ATOM     58  C   UNL A   1      44.007  26.246  37.225  1.00  0.00     0.198 A 
ATOM     59  C   UNL A   1      43.897  24.578  35.532  1.00  0.00     0.198 A 
ATOM     60  F   UNL A   1      43.154  25.063  33.403  1.00  0.00    -0.203 F 
ATOM     61  F   UNL A   1      44.406  26.638  38.444  1.00  0.00    -0.200 F 
ATOM     62  C   UNL A   1      44.268  24.956  36.805  1.00  0.00     0.200 A 
ATOM     63  F   UNL A   1      44.157  23.335  35.101  1.00  0.00    -0.200 F 
ATOM     64  F   UNL A   1      44.914  24.096  37.602  1.00  0.00    -0.200 F 
ENDBRANCH  40  54
BRANCH  41  65
ATOM     65  C   UNL A   1      42.276  23.837  27.019  1.00  0.00     0.064 A 
ATOM     66  C   UNL A   1      43.207  23.412  26.059  1.00  0.00     0.173 A 
ATOM     67  C   UNL A   1      41.306  22.900  27.420  1.00  0.00     0.173 A 
ATOM     68  F   UNL A   1      44.176  24.243  25.646  1.00  0.00    -0.203 F 
ATOM     69  C   UNL A   1      43.200  22.106  25.564  1.00  0.00     0.198 A 
ATOM     70  C   UNL A   1      41.298  21.597  26.923  1.00  0.00     0.198 A 
ATOM     71  F   UNL A   1      40.413  23.206  28.373  1.00  0.00    -0.203 F 
ATOM     72  F   UNL A   1      44.150  21.715  24.703  1.00  0.00    -0.200 F 
ATOM     73  C   UNL A   1      42.258  21.194  26.010  1.00  0.00     0.200 A 
ATOM     74  F   UNL A   1      40.403  20.712  27.386  1.00  0.00    -0.200 F 
ATOM     75  F   UNL A   1      42.301  19.921  25.595  1.00  0.00    -0.200 F 
ENDBRANCH  41  65
BRANCH  53  76
ATOM     76  C   UNL A   1      45.551  28.821  28.899  1.00  0.00     0.064 A 
ATOM     77  C   UNL A   1      46.793  28.916  28.251  1.00  0.00     0.173 A 
ATOM     78  C   UNL A   1      44.512  29.633  28.432  1.00  0.00     0.173 A 
ATOM     79  F   UNL A   1      47.812  28.117  28.592  1.00  0.00    -0.203 F 
ATOM     80  C   UNL A   1      46.994  29.820  27.210  1.00  0.00     0.198 A 
ATOM     81  C   UNL A   1      44.704  30.510  27.371  1.00  0.00     0.198 A 
ATOM     82  F   UNL A   1      43.294  29.552  28.992  1.00  0.00    -0.203 F 
ATOM     83  F   UNL A   1      48.195  29.912  26.621  1.00  0.00    -0.200 F 
ATOM     84  C   UNL A   1      45.947  30.613  26.769  1.00  0.00     0.200 A 
ATOM     85  F   UNL A   1      43.678  31.246  26.922  1.00  0.00    -0.200 F 
ATOM     86  F   UNL A   1      46.131  31.464  25.750  1.00  0.00    -0.200 F 
ENDBRANCH  53  76
ENDBRANCH  27  28
ENDBRANCH  19  22
ENDBRANCH  17  18
ENDBRANCH  16  17
ENDBRANCH   1  16
TORSDOF 13
ENDMDL
MODEL 3
REMARK VINA RESULT:     -11.2      4.644     10.419
REMARK SMILES CCn1nccc1[C@H](F)C(=O)NCCCCNC(=O)c1ccc(-c2c3nc(c(-c4c(F)c(F)c(F)c(F)c4F)c4ccc([nH]4)c(-c4c(F)c(F)c(F)c(F)c4F)c4nc(c(-c5c(F)c(F)c(F)c(F)c5F)c5ccc2[nH]5)C=C4)C=C3)cc1
REMARK SMILES IDX 14 1 13 2 12 3 10 4 11 5 8 7 9 8 7 9 3 10 4 11 5 12 6 13
REMARK SMILES IDX 2 14 1 15 15 16 16 17 17 18 18 19 19 21 20 22 21 23 82 24
REMARK SMILES IDX 22 25 81 26 23 27 24 28 25 29 75 30 26 31 80 32 74 33 76 34
REMARK SMILES IDX 27 35 79 36 73 37 72 38 28 40 60 41 40 42 59 43 41 44 44 45
REMARK SMILES IDX 58 46 77 47 42 48 43 49 57 51 78 52 45 53 29 54 30 55 38 56
REMARK SMILES IDX 31 57 32 58 36 59 39 60 33 61 34 62 37 63 35 64 61 65 62 66
REMARK SMILES IDX 70 67 63 68 64 69 68 70 71 71 65 72 66 73 69 74 67 75 46 76
REMARK SMILES IDX 47 77 55 78 48 79 49 80 53 81 56 82 50 83 51 84 54 85 52 86
REMARK H PARENT 12 6 17 20 76 39 44 50
REMARK Flexibility Score: inf
ROOT
ATOM      1  C   UNL A   1      38.342  23.468  26.485  1.00  0.00     0.023 C 
ENDROOT
BRANCH   1   2
ATOM      2  C   UNL A   1      37.001  23.522  25.749  1.00  0.00     0.116 C 
BRANCH   2   3
ATOM      3  N   UNL A   1      35.901  22.962  26.513  1.00  0.00    -0.353 N 
ATOM      4  C   UNL A   1      35.199  21.804  26.295  1.00  0.00     0.260 C 
ATOM      5  O   UNL A   1      34.412  21.453  27.183  1.00  0.00    -0.271 OA
ATOM      6  H   UNL A   1      35.621  23.486  27.297  1.00  0.00     0.163 HD
BRANCH   4   7
ATOM      7  C   UNL A   1      35.385  20.964  25.020  1.00  0.00     0.303 C 
ATOM      8  F   UNL A   1      36.434  20.096  25.129  1.00  0.00    -0.230 F 
BRANCH   7   9
ATOM      9  C   UNL A   1      34.147  20.217  24.626  1.00  0.00     0.082 A 
ATOM     10  N   UNL A   1      33.075  20.761  23.946  1.00  0.00    -0.266 N 
ATOM     11  N   UNL A   1      32.154  19.824  23.609  1.00  0.00    -0.181 NA
ATOM     12  C   UNL A   1      32.608  18.694  24.136  1.00  0.00     0.135 A 
ATOM     13  C   UNL A   1      33.818  18.882  24.806  1.00  0.00     0.049 A 
BRANCH  10  14
ATOM     14  C   UNL A   1      32.695  22.126  23.623  1.00  0.00     0.141 C 
ATOM     15  C   UNL A   1      32.139  23.041  24.697  1.00  0.00     0.029 C 
ENDBRANCH  10  14
ENDBRANCH   7   9
ENDBRANCH   4   7
ENDBRANCH   2   3
ENDBRANCH   1   2
BRANCH   1  16
ATOM     16  C   UNL A   1      39.134  22.155  26.387  1.00  0.00     0.023 C 
BRANCH  16  17
ATOM     17  C   UNL A   1      40.423  22.110  27.195  1.00  0.00     0.116 C 
BRANCH  17  18
ATOM     18  N   UNL A   1      41.628  22.263  26.384  1.00  0.00    -0.352 N 
ATOM     19  C   UNL A   1      42.238  23.443  25.986  1.00  0.00     0.251 C 
ATOM     20  H   UNL A   1      42.058  21.429  26.085  1.00  0.00     0.163 HD
ATOM     21  O   UNL A   1      43.007  23.475  25.044  1.00  0.00    -0.269 OA
BRANCH  19  22
ATOM     22  C   UNL A   1      41.930  24.673  26.740  1.00  0.00     0.039 A 
ATOM     23  C   UNL A   1      42.375  24.853  28.053  1.00  0.00     0.014 A 
ATOM     24  C   UNL A   1      41.215  25.671  26.085  1.00  0.00     0.014 A 
ATOM     25  C   UNL A   1      42.173  26.089  28.668  1.00  0.00     0.010 A 
ATOM     26  C   UNL A   1      41.149  26.927  26.633  1.00  0.00     0.010 A 
ATOM     27  C   UNL A   1      41.579  27.132  27.942  1.00  0.00    -0.014 A 
BRANCH  27  28
ATOM     28  C   UNL A   1      41.480  28.480  28.496  1.00  0.00     0.031 A 
ATOM     29  C   UNL A   1      42.529  29.431  28.038  1.00  0.00     0.074 A 
ATOM     30  C   UNL A   1      40.385  28.907  29.164  1.00  0.00     0.049 A 
ATOM     31  N   UNL A   1      43.423  30.028  28.755  1.00  0.00    -0.248 NA
ATOM     32  C   UNL A   1      42.666  29.684  26.595  1.00  0.00     0.031 C 
ATOM     33  C   UNL A   1      39.136  28.167  29.389  1.00  0.00     0.029 A 
ATOM     34  N   UNL A   1      40.104  30.136  29.685  1.00  0.00    -0.354 N 
ATOM     35  C   UNL A   1      44.108  30.883  27.890  1.00  0.00     0.074 A 
ATOM     36  C   UNL A   1      43.720  30.502  26.559  1.00  0.00     0.031 C 
ATOM     37  C   UNL A   1      38.164  29.022  29.773  1.00  0.00     0.029 A 
ATOM     38  C   UNL A   1      38.766  30.318  30.014  1.00  0.00     0.049 A 
ATOM     39  H   UNL A   1      40.787  30.833  29.816  1.00  0.00     0.167 HD
ATOM     40  C   UNL A   1      44.721  32.004  28.368  1.00  0.00     0.037 A 
ATOM     41  C   UNL A   1      38.179  31.449  30.466  1.00  0.00     0.037 A 
ATOM     42  C   UNL A   1      44.790  31.966  29.806  1.00  0.00     0.049 A 
ATOM     43  C   UNL A   1      39.237  32.304  31.044  1.00  0.00     0.074 A 
ATOM     44  C   UNL A   1      45.572  31.365  30.766  1.00  0.00     0.029 A 
ATOM     45  N   UNL A   1      43.648  32.404  30.421  1.00  0.00    -0.354 N 
ATOM     46  N   UNL A   1      39.899  31.995  32.123  1.00  0.00    -0.248 NA
ATOM     47  C   UNL A   1      39.807  33.382  30.244  1.00  0.00     0.031 C 
ATOM     48  C   UNL A   1      44.778  31.313  31.952  1.00  0.00     0.029 A 
ATOM     49  C   UNL A   1      43.546  31.906  31.690  1.00  0.00     0.049 A 
ATOM     50  H   UNL A   1      42.986  33.000  30.003  1.00  0.00     0.167 HD
ATOM     51  C   UNL A   1      41.157  32.517  31.905  1.00  0.00     0.074 A 
ATOM     52  C   UNL A   1      40.989  33.508  30.852  1.00  0.00     0.031 C 
ATOM     53  C   UNL A   1      42.264  31.862  32.352  1.00  0.00     0.037 A 
BRANCH  40  54
ATOM     54  C   UNL A   1      44.829  33.340  27.652  1.00  0.00     0.064 A 
ATOM     55  C   UNL A   1      46.096  33.756  27.181  1.00  0.00     0.173 A 
ATOM     56  C   UNL A   1      43.849  34.353  27.706  1.00  0.00     0.173 A 
ATOM     57  F   UNL A   1      47.110  32.883  27.081  1.00  0.00    -0.203 F 
ATOM     58  C   UNL A   1      46.380  35.094  26.890  1.00  0.00     0.198 A 
ATOM     59  C   UNL A   1      44.124  35.679  27.366  1.00  0.00     0.198 A 
ATOM     60  F   UNL A   1      42.624  34.135  28.195  1.00  0.00    -0.203 F 
ATOM     61  F   UNL A   1      47.632  35.458  26.575  1.00  0.00    -0.200 F 
ATOM     62  C   UNL A   1      45.396  36.057  26.993  1.00  0.00     0.200 A 
ATOM     63  F   UNL A   1      43.159  36.602  27.487  1.00  0.00    -0.200 F 
ATOM     64  F   UNL A   1      45.679  37.349  26.780  1.00  0.00    -0.200 F 
ENDBRANCH  40  54
BRANCH  41  65
ATOM     65  C   UNL A   1      36.788  31.919  30.309  1.00  0.00     0.064 A 
ATOM     66  C   UNL A   1      35.948  32.085  31.420  1.00  0.00     0.173 A 
ATOM     67  C   UNL A   1      36.359  32.496  29.099  1.00  0.00     0.173 A 
ATOM     68  F   UNL A   1      36.302  31.584  32.613  1.00  0.00    -0.203 F 
ATOM     69  C   UNL A   1      34.770  32.830  31.340  1.00  0.00     0.198 A 
ATOM     70  C   UNL A   1      35.181  33.237  29.019  1.00  0.00     0.198 A 
ATOM     71  F   UNL A   1      37.128  32.432  28.001  1.00  0.00    -0.203 F 
ATOM     72  F   UNL A   1      34.030  33.028  32.440  1.00  0.00    -0.200 F 
ATOM     73  C   UNL A   1      34.396  33.421  30.144  1.00  0.00     0.200 A 
ATOM     74  F   UNL A   1      34.845  33.833  27.865  1.00  0.00    -0.200 F 
ATOM     75  F   UNL A   1      33.308  34.200  30.086  1.00  0.00    -0.200 F 
ENDBRANCH  41  65
BRANCH  53  76
ATOM     76  C   UNL A   1      42.077  30.910  33.488  1.00  0.00     0.064 A 
ATOM     77  C   UNL A   1      42.021  31.288  34.840  1.00  0.00     0.173 A 
ATOM     78  C   UNL A   1      41.897  29.556  33.185  1.00  0.00     0.173 A 
ATOM     79  F   UNL A   1      42.108  32.575  35.199  1.00  0.00    -0.203 F 
ATOM     80  C   UNL A   1      41.839  30.340  35.844  1.00  0.00     0.198 A 
ATOM     81  C   UNL A   1      41.681  28.616  34.186  1.00  0.00     0.198 A 
ATOM     82  F   UNL A   1      41.902  29.148  31.906  1.00  0.00    -0.203 F 
ATOM     83  F   UNL A   1      41.813  30.720  37.130  1.00  0.00    -0.200 F 
ATOM     84  C   UNL A   1      41.664  29.006  35.516  1.00  0.00     0.200 A 
ATOM     85  F   UNL A   1      41.474  27.333  33.860  1.00  0.00    -0.200 F 
ATOM     86  F   UNL A   1      41.462  28.097  36.479  1.00  0.00    -0.200 F 
ENDBRANCH  53  76
ENDBRANCH  27  28
ENDBRANCH  19  22
ENDBRANCH  17  18
ENDBRANCH  16  17
ENDBRANCH   1  16
TORSDOF 13
ENDMDL
