MODEL 1
REMARK VINA RESULT:     -12.4      0.000      0.000
REMARK SMILES CO[C@H]1C[C@H](C(=O)NCCCCNC(=O)c2ccc(-c3c4nc(c(-c5c(F)c(F)c(F)c(F)c5F)c5ccc([nH]5)c(-c5c(F)c(F)c(F)c(F)c5F)c5nc(c(-c6c(F)c(F)c(F)c(F)c6F)c6ccc3[nH]6)C=C5)C=C4)cc2)N(C(=O)[C@H]2C=C[C@@H]([NH3+])C2)C1
REMARK SMILES IDX 10 1 9 2 8 3 6 4 7 5 5 7 3 8 4 9 88 10 79 11 2 12 1 13 80 14
REMARK SMILES IDX 81 15 82 16 83 17 87 18 84 19 85 20 86 21 11 25 12 26 13 27
REMARK SMILES IDX 14 28 15 30 16 31 17 32 78 33 18 34 77 35 19 36 20 37 21 38
REMARK SMILES IDX 71 39 22 40 76 41 70 42 72 43 23 44 75 45 69 46 68 47 24 49
REMARK SMILES IDX 56 50 36 51 55 52 37 53 40 54 54 55 73 56 38 57 39 58 53 60
REMARK SMILES IDX 74 61 41 62 25 63 26 64 34 65 27 66 28 67 32 68 35 69 29 70
REMARK SMILES IDX 30 71 33 72 31 73 57 74 58 75 66 76 59 77 60 78 64 79 67 80
REMARK SMILES IDX 61 81 62 82 65 83 63 84 42 85 43 86 51 87 44 88 45 89 49 90
REMARK SMILES IDX 52 91 46 92 47 93 50 94 48 95
REMARK H PARENT 8 6 86 22 86 23 86 24 13 29 72 48 40 59
REMARK Flexibility Score: inf
ROOT
ATOM      1  C   UNL A   1      31.732  30.561  26.228  1.00  0.00     0.023 C 
ENDROOT
BRANCH   1   2
ATOM      2  C   UNL A   1      32.550  29.671  27.171  1.00  0.00     0.116 C 
BRANCH   2   3
ATOM      3  N   UNL A   1      31.936  28.368  27.312  1.00  0.00    -0.354 N 
ATOM      4  C   UNL A   1      31.443  27.495  26.395  1.00  0.00     0.242 C 
ATOM      5  O   UNL A   1      30.743  26.581  26.852  1.00  0.00    -0.273 OA
ATOM      6  H   UNL A   1      31.861  28.058  28.243  1.00  0.00     0.163 HD
BRANCH   4   7
ATOM      7  C   UNL A   1      31.547  27.668  24.857  1.00  0.00     0.177 C 
ATOM      8  C   UNL A   1      32.696  25.932  23.595  1.00  0.00     0.139 C 
ATOM      9  C   UNL A   1      32.923  27.249  24.333  1.00  0.00     0.069 C 
ATOM     10  C   UNL A   1      31.258  26.036  23.103  1.00  0.00     0.152 C 
ATOM     11  N   UNL A   1      30.591  26.995  23.975  1.00  0.00    -0.327 N 
BRANCH   8  12
ATOM     12  O   UNL A   1      33.598  25.740  22.512  1.00  0.00    -0.380 OA
ATOM     13  C   UNL A   1      32.935  25.563  21.265  1.00  0.00     0.195 C 
ENDBRANCH   8  12
BRANCH  11  14
ATOM     14  C   UNL A   1      29.286  27.326  23.677  1.00  0.00     0.230 C 
ATOM     15  O   UNL A   1      28.364  26.612  24.095  1.00  0.00    -0.274 OA
BRANCH  14  16
ATOM     16  C   UNL A   1      28.923  28.523  22.786  1.00  0.00     0.107 C 
ATOM     17  C   UNL A   1      27.556  29.093  22.974  1.00  0.00    -0.012 C 
ATOM     18  C   UNL A   1      29.858  29.731  22.934  1.00  0.00     0.087 C 
ATOM     19  C   UNL A   1      27.581  30.430  22.976  1.00  0.00     0.033 C 
ATOM     20  C   UNL A   1      28.961  30.972  22.802  1.00  0.00     0.205 C 
BRANCH  20  21
ATOM     21  N   UNL A   1      29.272  31.977  23.802  1.00  0.00    -0.352 N 
ATOM     22  H   UNL A   1      28.409  32.427  24.111  1.00  0.00     0.345 HD
ATOM     23  H   UNL A   1      29.894  32.677  23.399  1.00  0.00     0.345 HD
ATOM     24  H   UNL A   1      29.728  31.534  24.599  1.00  0.00     0.345 HD
ENDBRANCH  20  21
ENDBRANCH  14  16
ENDBRANCH  11  14
ENDBRANCH   4   7
ENDBRANCH   2   3
ENDBRANCH   1   2
BRANCH   1  25
ATOM     25  C   UNL A   1      31.432  31.967  26.744  1.00  0.00     0.023 C 
BRANCH  25  26
ATOM     26  C   UNL A   1      32.638  32.722  27.289  1.00  0.00     0.116 C 
BRANCH  26  27
ATOM     27  N   UNL A   1      32.362  34.112  27.622  1.00  0.00    -0.352 N 
ATOM     28  C   UNL A   1      33.007  34.916  28.533  1.00  0.00     0.251 C 
ATOM     29  H   UNL A   1      31.619  34.531  27.130  1.00  0.00     0.163 HD
ATOM     30  O   UNL A   1      32.604  36.051  28.758  1.00  0.00    -0.269 OA
BRANCH  28  31
ATOM     31  C   UNL A   1      34.160  34.374  29.281  1.00  0.00     0.039 A 
ATOM     32  C   UNL A   1      33.917  33.606  30.423  1.00  0.00     0.014 A 
ATOM     33  C   UNL A   1      35.465  34.575  28.827  1.00  0.00     0.014 A 
ATOM     34  C   UNL A   1      34.982  32.972  31.064  1.00  0.00     0.010 A 
ATOM     35  C   UNL A   1      36.514  33.883  29.421  1.00  0.00     0.010 A 
ATOM     36  C   UNL A   1      36.282  33.071  30.541  1.00  0.00    -0.014 A 
BRANCH  36  37
ATOM     37  C   UNL A   1      37.413  32.325  31.144  1.00  0.00     0.031 A 
ATOM     38  C   UNL A   1      37.905  32.687  32.517  1.00  0.00     0.074 A 
ATOM     39  C   UNL A   1      38.045  31.381  30.423  1.00  0.00     0.049 A 
ATOM     40  N   UNL A   1      38.927  32.211  33.181  1.00  0.00    -0.248 NA
ATOM     41  C   UNL A   1      37.170  33.748  33.223  1.00  0.00     0.031 C 
ATOM     42  C   UNL A   1      37.702  30.987  29.056  1.00  0.00     0.029 A 
ATOM     43  N   UNL A   1      39.122  30.589  30.735  1.00  0.00    -0.354 N 
ATOM     44  C   UNL A   1      38.971  32.930  34.368  1.00  0.00     0.074 A 
ATOM     45  C   UNL A   1      37.904  33.905  34.315  1.00  0.00     0.031 C 
ATOM     46  C   UNL A   1      38.538  30.016  28.653  1.00  0.00     0.029 A 
ATOM     47  C   UNL A   1      39.494  29.740  29.721  1.00  0.00     0.049 A 
ATOM     48  H   UNL A   1      39.585  30.626  31.602  1.00  0.00     0.167 HD
ATOM     49  C   UNL A   1      39.811  32.773  35.417  1.00  0.00     0.037 A 
ATOM     50  C   UNL A   1      40.494  28.841  29.662  1.00  0.00     0.037 A 
ATOM     51  C   UNL A   1      40.843  31.772  35.485  1.00  0.00     0.049 A 
ATOM     52  C   UNL A   1      41.389  28.659  30.857  1.00  0.00     0.074 A 
ATOM     53  C   UNL A   1      41.696  31.480  36.535  1.00  0.00     0.029 A 
ATOM     54  N   UNL A   1      41.158  30.895  34.457  1.00  0.00    -0.354 N 
ATOM     55  N   UNL A   1      41.372  29.291  32.005  1.00  0.00    -0.248 NA
ATOM     56  C   UNL A   1      42.434  27.632  30.754  1.00  0.00     0.031 C 
ATOM     57  C   UNL A   1      42.549  30.448  36.131  1.00  0.00     0.029 A 
ATOM     58  C   UNL A   1      42.202  30.071  34.843  1.00  0.00     0.049 A 
ATOM     59  H   UNL A   1      40.706  30.864  33.582  1.00  0.00     0.167 HD
ATOM     60  C   UNL A   1      42.383  28.724  32.768  1.00  0.00     0.074 A 
ATOM     61  C   UNL A   1      42.985  27.686  31.958  1.00  0.00     0.031 C 
ATOM     62  C   UNL A   1      42.779  29.037  34.026  1.00  0.00     0.037 A 
BRANCH  49  63
ATOM     63  C   UNL A   1      39.641  33.697  36.586  1.00  0.00     0.064 A 
ATOM     64  C   UNL A   1      40.260  34.956  36.621  1.00  0.00     0.173 A 
ATOM     65  C   UNL A   1      38.824  33.337  37.667  1.00  0.00     0.173 A 
ATOM     66  F   UNL A   1      41.063  35.341  35.618  1.00  0.00    -0.203 F 
ATOM     67  C   UNL A   1      40.088  35.808  37.708  1.00  0.00     0.198 A 
ATOM     68  C   UNL A   1      38.631  34.203  38.740  1.00  0.00     0.198 A 
ATOM     69  F   UNL A   1      38.206  32.145  37.681  1.00  0.00    -0.203 F 
ATOM     70  F   UNL A   1      40.726  36.986  37.741  1.00  0.00    -0.200 F 
ATOM     71  C   UNL A   1      39.269  35.435  38.762  1.00  0.00     0.200 A 
ATOM     72  F   UNL A   1      37.831  33.845  39.753  1.00  0.00    -0.200 F 
ATOM     73  F   UNL A   1      39.099  36.260  39.805  1.00  0.00    -0.200 F 
ENDBRANCH  49  63
BRANCH  50  74
ATOM     74  C   UNL A   1      40.683  28.019  28.440  1.00  0.00     0.064 A 
ATOM     75  C   UNL A   1      41.480  28.478  27.381  1.00  0.00     0.173 A 
ATOM     76  C   UNL A   1      40.073  26.764  28.301  1.00  0.00     0.173 A 
ATOM     77  F   UNL A   1      42.069  29.681  27.462  1.00  0.00    -0.203 F 
ATOM     78  C   UNL A   1      41.642  27.724  26.222  1.00  0.00     0.198 A 
ATOM     79  C   UNL A   1      40.256  26.000  27.150  1.00  0.00     0.198 A 
ATOM     80  F   UNL A   1      39.307  26.277  29.287  1.00  0.00    -0.203 F 
ATOM     81  F   UNL A   1      42.373  28.207  25.208  1.00  0.00    -0.200 F 
ATOM     82  C   UNL A   1      41.033  26.484  26.108  1.00  0.00     0.200 A 
ATOM     83  F   UNL A   1      39.676  24.796  27.049  1.00  0.00    -0.200 F 
ATOM     84  F   UNL A   1      41.189  25.758  24.993  1.00  0.00    -0.200 F 
ENDBRANCH  50  74
BRANCH  62  85
ATOM     85  C   UNL A   1      43.894  28.225  34.615  1.00  0.00     0.064 A 
ATOM     86  C   UNL A   1      45.230  28.640  34.525  1.00  0.00     0.173 A 
ATOM     87  C   UNL A   1      43.616  27.040  35.314  1.00  0.00     0.173 A 
ATOM     88  F   UNL A   1      45.545  29.757  33.853  1.00  0.00    -0.203 F 
ATOM     89  C   UNL A   1      46.252  27.886  35.094  1.00  0.00     0.198 A 
ATOM     90  C   UNL A   1      44.638  26.303  35.904  1.00  0.00     0.198 A 
ATOM     91  F   UNL A   1      42.353  26.605  35.432  1.00  0.00    -0.203 F 
ATOM     92  F   UNL A   1      47.526  28.279  34.960  1.00  0.00    -0.200 F 
ATOM     93  C   UNL A   1      45.954  26.723  35.789  1.00  0.00     0.200 A 
ATOM     94  F   UNL A   1      44.348  25.185  36.584  1.00  0.00    -0.200 F 
ATOM     95  F   UNL A   1      46.939  26.002  36.342  1.00  0.00    -0.200 F 
ENDBRANCH  62  85
ENDBRANCH  36  37
ENDBRANCH  28  31
ENDBRANCH  26  27
ENDBRANCH  25  26
ENDBRANCH   1  25
TORSDOF 15
ENDMDL
MODEL 2
REMARK VINA RESULT:     -12.4      1.657      7.894
REMARK SMILES CO[C@H]1C[C@H](C(=O)NCCCCNC(=O)c2ccc(-c3c4nc(c(-c5c(F)c(F)c(F)c(F)c5F)c5ccc([nH]5)c(-c5c(F)c(F)c(F)c(F)c5F)c5nc(c(-c6c(F)c(F)c(F)c(F)c6F)c6ccc3[nH]6)C=C5)C=C4)cc2)N(C(=O)[C@H]2C=C[C@@H]([NH3+])C2)C1
REMARK SMILES IDX 10 1 9 2 8 3 6 4 7 5 5 7 3 8 4 9 88 10 79 11 2 12 1 13 80 14
REMARK SMILES IDX 81 15 82 16 83 17 87 18 84 19 85 20 86 21 11 25 12 26 13 27
REMARK SMILES IDX 14 28 15 30 16 31 17 32 78 33 18 34 77 35 19 36 20 37 21 38
REMARK SMILES IDX 71 39 22 40 76 41 70 42 72 43 23 44 75 45 69 46 68 47 24 49
REMARK SMILES IDX 56 50 36 51 55 52 37 53 40 54 54 55 73 56 38 57 39 58 53 60
REMARK SMILES IDX 74 61 41 62 25 63 26 64 34 65 27 66 28 67 32 68 35 69 29 70
REMARK SMILES IDX 30 71 33 72 31 73 57 74 58 75 66 76 59 77 60 78 64 79 67 80
REMARK SMILES IDX 61 81 62 82 65 83 63 84 42 85 43 86 51 87 44 88 45 89 49 90
REMARK SMILES IDX 52 91 46 92 47 93 50 94 48 95
REMARK H PARENT 8 6 86 22 86 23 86 24 13 29 72 48 40 59
REMARK Flexibility Score: inf
ROOT
ATOM      1  C   UNL A   1      31.993  30.377  26.778  1.00  0.00     0.023 C 
ENDROOT
BRANCH   1   2
ATOM      2  C   UNL A   1      33.036  29.949  25.740  1.00  0.00     0.116 C 
BRANCH   2   3
ATOM      3  N   UNL A   1      32.397  29.420  24.555  1.00  0.00    -0.354 N 
ATOM      4  C   UNL A   1      32.160  28.146  24.146  1.00  0.00     0.242 C 
ATOM      5  O   UNL A   1      31.829  28.020  22.959  1.00  0.00    -0.273 OA
ATOM      6  H   UNL A   1      32.074  30.109  23.930  1.00  0.00     0.163 HD
BRANCH   4   7
ATOM      7  C   UNL A   1      32.444  26.875  24.988  1.00  0.00     0.177 C 
ATOM      8  C   UNL A   1      30.547  25.483  25.616  1.00  0.00     0.139 C 
ATOM      9  C   UNL A   1      31.387  26.671  26.078  1.00  0.00     0.069 C 
ATOM     10  C   UNL A   1      31.518  24.656  24.783  1.00  0.00     0.152 C 
ATOM     11  N   UNL A   1      32.561  25.570  24.334  1.00  0.00    -0.327 N 
BRANCH   8  12
ATOM     12  O   UNL A   1      30.019  24.724  26.697  1.00  0.00    -0.380 OA
ATOM     13  C   UNL A   1      30.432  23.363  26.670  1.00  0.00     0.195 C 
ENDBRANCH   8  12
BRANCH  11  14
ATOM     14  C   UNL A   1      33.613  25.034  23.622  1.00  0.00     0.230 C 
ATOM     15  O   UNL A   1      33.937  25.538  22.538  1.00  0.00    -0.274 OA
BRANCH  14  16
ATOM     16  C   UNL A   1      34.373  23.784  24.091  1.00  0.00     0.107 C 
ATOM     17  C   UNL A   1      35.191  23.085  23.057  1.00  0.00    -0.012 C 
ATOM     18  C   UNL A   1      35.355  24.034  25.243  1.00  0.00     0.087 C 
ATOM     19  C   UNL A   1      36.383  22.719  23.543  1.00  0.00     0.033 C 
ATOM     20  C   UNL A   1      36.562  23.120  24.969  1.00  0.00     0.205 C 
BRANCH  20  21
ATOM     21  N   UNL A   1      37.823  23.807  25.178  1.00  0.00    -0.352 N 
ATOM     22  H   UNL A   1      37.939  24.009  26.172  1.00  0.00     0.345 HD
ATOM     23  H   UNL A   1      37.826  24.680  24.651  1.00  0.00     0.345 HD
ATOM     24  H   UNL A   1      38.590  23.214  24.861  1.00  0.00     0.345 HD
ENDBRANCH  20  21
ENDBRANCH  14  16
ENDBRANCH  11  14
ENDBRANCH   4   7
ENDBRANCH   2   3
ENDBRANCH   1   2
BRANCH   1  25
ATOM     25  C   UNL A   1      31.687  31.873  26.827  1.00  0.00     0.023 C 
BRANCH  25  26
ATOM     26  C   UNL A   1      32.819  32.744  27.357  1.00  0.00     0.116 C 
BRANCH  26  27
ATOM     27  N   UNL A   1      32.419  34.110  27.662  1.00  0.00    -0.352 N 
ATOM     28  C   UNL A   1      32.969  34.977  28.578  1.00  0.00     0.251 C 
ATOM     29  H   UNL A   1      31.656  34.458  27.145  1.00  0.00     0.163 HD
ATOM     30  O   UNL A   1      32.467  36.076  28.776  1.00  0.00    -0.269 OA
BRANCH  28  31
ATOM     31  C   UNL A   1      34.143  34.543  29.363  1.00  0.00     0.039 A 
ATOM     32  C   UNL A   1      33.935  33.984  30.626  1.00  0.00     0.014 A 
ATOM     33  C   UNL A   1      35.431  34.636  28.833  1.00  0.00     0.014 A 
ATOM     34  C   UNL A   1      35.015  33.443  31.325  1.00  0.00     0.010 A 
ATOM     35  C   UNL A   1      36.493  34.031  29.496  1.00  0.00     0.010 A 
ATOM     36  C   UNL A   1      36.294  33.424  30.745  1.00  0.00    -0.014 A 
BRANCH  36  37
ATOM     37  C   UNL A   1      37.437  32.765  31.423  1.00  0.00     0.031 A 
ATOM     38  C   UNL A   1      38.140  31.614  30.762  1.00  0.00     0.074 A 
ATOM     39  C   UNL A   1      37.784  33.151  32.665  1.00  0.00     0.049 A 
ATOM     40  N   UNL A   1      39.102  30.858  31.223  1.00  0.00    -0.248 NA
ATOM     41  C   UNL A   1      37.678  31.245  29.414  1.00  0.00     0.031 C 
ATOM     42  C   UNL A   1      37.133  34.211  33.437  1.00  0.00     0.029 A 
ATOM     43  N   UNL A   1      38.763  32.683  33.505  1.00  0.00    -0.354 N 
ATOM     44  C   UNL A   1      39.342  29.911  30.237  1.00  0.00     0.074 A 
ATOM     45  C   UNL A   1      38.396  30.158  29.171  1.00  0.00     0.031 C 
ATOM     46  C   UNL A   1      37.742  34.325  34.628  1.00  0.00     0.029 A 
ATOM     47  C   UNL A   1      38.805  33.329  34.717  1.00  0.00     0.049 A 
ATOM     48  H   UNL A   1      39.376  31.952  33.264  1.00  0.00     0.167 HD
ATOM     49  C   UNL A   1      40.284  28.940  30.212  1.00  0.00     0.037 A 
ATOM     50  C   UNL A   1      39.610  33.138  35.778  1.00  0.00     0.037 A 
ATOM     51  C   UNL A   1      41.253  28.726  31.255  1.00  0.00     0.049 A 
ATOM     52  C   UNL A   1      40.675  32.077  35.709  1.00  0.00     0.074 A 
ATOM     53  C   UNL A   1      42.298  27.819  31.290  1.00  0.00     0.029 A 
ATOM     54  N   UNL A   1      41.296  29.434  32.446  1.00  0.00    -0.354 N 
ATOM     55  N   UNL A   1      40.943  31.238  34.738  1.00  0.00    -0.248 NA
ATOM     56  C   UNL A   1      41.555  31.943  36.877  1.00  0.00     0.031 C 
ATOM     57  C   UNL A   1      42.954  27.956  32.518  1.00  0.00     0.029 A 
ATOM     58  C   UNL A   1      42.342  28.975  33.231  1.00  0.00     0.049 A 
ATOM     59  H   UNL A   1      40.676  30.156  32.698  1.00  0.00     0.167 HD
ATOM     60  C   UNL A   1      42.035  30.496  35.166  1.00  0.00     0.074 A 
ATOM     61  C   UNL A   1      42.389  30.993  36.479  1.00  0.00     0.031 C 
ATOM     62  C   UNL A   1      42.684  29.490  34.529  1.00  0.00     0.037 A 
BRANCH  49  63
ATOM     63  C   UNL A   1      40.322  28.040  29.013  1.00  0.00     0.064 A 
ATOM     64  C   UNL A   1      41.078  28.365  27.876  1.00  0.00     0.173 A 
ATOM     65  C   UNL A   1      39.624  26.824  29.012  1.00  0.00     0.173 A 
ATOM     66  F   UNL A   1      41.752  29.524  27.822  1.00  0.00    -0.203 F 
ATOM     67  C   UNL A   1      41.111  27.517  26.772  1.00  0.00     0.198 A 
ATOM     68  C   UNL A   1      39.682  25.965  27.917  1.00  0.00     0.198 A 
ATOM     69  F   UNL A   1      38.889  26.465  30.076  1.00  0.00    -0.203 F 
ATOM     70  F   UNL A   1      41.803  27.870  25.680  1.00  0.00    -0.200 F 
ATOM     71  C   UNL A   1      40.420  26.315  26.797  1.00  0.00     0.200 A 
ATOM     72  F   UNL A   1      39.021  24.800  27.946  1.00  0.00    -0.200 F 
ATOM     73  F   UNL A   1      40.459  25.497  25.735  1.00  0.00    -0.200 F 
ENDBRANCH  49  63
BRANCH  50  74
ATOM     74  C   UNL A   1      39.466  33.990  36.985  1.00  0.00     0.064 A 
ATOM     75  C   UNL A   1      40.080  35.249  37.052  1.00  0.00     0.173 A 
ATOM     76  C   UNL A   1      38.719  33.567  38.094  1.00  0.00     0.173 A 
ATOM     77  F   UNL A   1      40.820  35.688  36.022  1.00  0.00    -0.203 F 
ATOM     78  C   UNL A   1      39.970  36.044  38.191  1.00  0.00     0.198 A 
ATOM     79  C   UNL A   1      38.590  34.374  39.222  1.00  0.00     0.198 A 
ATOM     80  F   UNL A   1      38.108  32.375  38.076  1.00  0.00    -0.203 F 
ATOM     81  F   UNL A   1      40.603  37.224  38.245  1.00  0.00    -0.200 F 
ATOM     82  C   UNL A   1      39.222  35.608  39.274  1.00  0.00     0.200 A 
ATOM     83  F   UNL A   1      37.856  33.955  40.262  1.00  0.00    -0.200 F 
ATOM     84  F   UNL A   1      39.117  36.372  40.369  1.00  0.00    -0.200 F 
ENDBRANCH  50  74
BRANCH  62  85
ATOM     85  C   UNL A   1      43.864  28.885  35.230  1.00  0.00     0.064 A 
ATOM     86  C   UNL A   1      45.162  29.383  35.044  1.00  0.00     0.173 A 
ATOM     87  C   UNL A   1      43.687  27.824  36.130  1.00  0.00     0.173 A 
ATOM     88  F   UNL A   1      45.382  30.387  34.182  1.00  0.00    -0.203 F 
ATOM     89  C   UNL A   1      46.244  28.824  35.717  1.00  0.00     0.198 A 
ATOM     90  C   UNL A   1      44.768  27.284  36.821  1.00  0.00     0.198 A 
ATOM     91  F   UNL A   1      42.464  27.316  36.345  1.00  0.00    -0.203 F 
ATOM     92  F   UNL A   1      47.481  29.287  35.493  1.00  0.00    -0.200 F 
ATOM     93  C   UNL A   1      46.045  27.781  36.610  1.00  0.00     0.200 A 
ATOM     94  F   UNL A   1      44.574  26.284  37.690  1.00  0.00    -0.200 F 
ATOM     95  F   UNL A   1      47.088  27.249  37.261  1.00  0.00    -0.200 F 
ENDBRANCH  62  85
ENDBRANCH  36  37
ENDBRANCH  28  31
ENDBRANCH  26  27
ENDBRANCH  25  26
ENDBRANCH   1  25
TORSDOF 15
ENDMDL
MODEL 3
REMARK VINA RESULT:     -12.3      0.561      7.539
REMARK SMILES CO[C@H]1C[C@H](C(=O)NCCCCNC(=O)c2ccc(-c3c4nc(c(-c5c(F)c(F)c(F)c(F)c5F)c5ccc([nH]5)c(-c5c(F)c(F)c(F)c(F)c5F)c5nc(c(-c6c(F)c(F)c(F)c(F)c6F)c6ccc3[nH]6)C=C5)C=C4)cc2)N(C(=O)[C@H]2C=C[C@@H]([NH3+])C2)C1
REMARK SMILES IDX 10 1 9 2 8 3 6 4 7 5 5 7 3 8 4 9 88 10 79 11 2 12 1 13 80 14
REMARK SMILES IDX 81 15 82 16 83 17 87 18 84 19 85 20 86 21 11 25 12 26 13 27
REMARK SMILES IDX 14 28 15 30 16 31 17 32 78 33 18 34 77 35 19 36 20 37 21 38
REMARK SMILES IDX 71 39 22 40 76 41 70 42 72 43 23 44 75 45 69 46 68 47 24 49
REMARK SMILES IDX 56 50 36 51 55 52 37 53 40 54 54 55 73 56 38 57 39 58 53 60
REMARK SMILES IDX 74 61 41 62 25 63 26 64 34 65 27 66 28 67 32 68 35 69 29 70
REMARK SMILES IDX 30 71 33 72 31 73 57 74 58 75 66 76 59 77 60 78 64 79 67 80
REMARK SMILES IDX 61 81 62 82 65 83 63 84 42 85 43 86 51 87 44 88 45 89 49 90
REMARK SMILES IDX 52 91 46 92 47 93 50 94 48 95
REMARK H PARENT 8 6 86 22 86 23 86 24 13 29 72 48 40 59
REMARK Flexibility Score: inf
ROOT
ATOM      1  C   UNL A   1      32.048  30.455  26.223  1.00  0.00     0.023 C 
ENDROOT
BRANCH   1   2
ATOM      2  C   UNL A   1      32.772  29.492  27.171  1.00  0.00     0.116 C 
BRANCH   2   3
ATOM      3  N   UNL A   1      32.043  28.249  27.299  1.00  0.00    -0.354 N 
ATOM      4  C   UNL A   1      31.453  27.445  26.376  1.00  0.00     0.242 C 
ATOM      5  O   UNL A   1      30.681  26.590  26.829  1.00  0.00    -0.273 OA
ATOM      6  H   UNL A   1      31.958  27.926  28.226  1.00  0.00     0.163 HD
BRANCH   4   7
ATOM      7  C   UNL A   1      31.542  27.642  24.840  1.00  0.00     0.177 C 
ATOM      8  C   UNL A   1      32.692  25.933  23.542  1.00  0.00     0.139 C 
ATOM      9  C   UNL A   1      32.917  27.241  24.297  1.00  0.00     0.069 C 
ATOM     10  C   UNL A   1      31.250  26.034  23.064  1.00  0.00     0.152 C 
ATOM     11  N   UNL A   1      30.584  26.975  23.956  1.00  0.00    -0.327 N 
BRANCH   8  12
ATOM     12  O   UNL A   1      33.587  25.764  22.448  1.00  0.00    -0.380 OA
ATOM     13  C   UNL A   1      32.915  25.619  21.203  1.00  0.00     0.195 C 
ENDBRANCH   8  12
BRANCH  11  14
ATOM     14  C   UNL A   1      29.274  27.300  23.674  1.00  0.00     0.230 C 
ATOM     15  O   UNL A   1      28.362  26.558  24.066  1.00  0.00    -0.274 OA
BRANCH  14  16
ATOM     16  C   UNL A   1      28.892  28.526  22.832  1.00  0.00     0.107 C 
ATOM     17  C   UNL A   1      27.545  29.112  23.094  1.00  0.00    -0.012 C 
ATOM     18  C   UNL A   1      29.853  29.715  22.972  1.00  0.00     0.087 C 
ATOM     19  C   UNL A   1      27.592  30.448  23.131  1.00  0.00     0.033 C 
ATOM     20  C   UNL A   1      28.971  30.974  22.912  1.00  0.00     0.205 C 
BRANCH  20  21
ATOM     21  N   UNL A   1      29.341  31.946  23.924  1.00  0.00    -0.352 N 
ATOM     22  H   UNL A   1      28.616  31.982  24.642  1.00  0.00     0.345 HD
ATOM     23  H   UNL A   1      29.439  32.865  23.494  1.00  0.00     0.345 HD
ATOM     24  H   UNL A   1      30.227  31.673  24.351  1.00  0.00     0.345 HD
ENDBRANCH  20  21
ENDBRANCH  14  16
ENDBRANCH  11  14
ENDBRANCH   4   7
ENDBRANCH   2   3
ENDBRANCH   1   2
BRANCH   1  25
ATOM     25  C   UNL A   1      31.625  31.789  26.836  1.00  0.00     0.023 C 
BRANCH  25  26
ATOM     26  C   UNL A   1      32.769  32.644  27.364  1.00  0.00     0.116 C 
BRANCH  26  27
ATOM     27  N   UNL A   1      32.398  34.026  27.632  1.00  0.00    -0.352 N 
ATOM     28  C   UNL A   1      32.973  34.909  28.516  1.00  0.00     0.251 C 
ATOM     29  H   UNL A   1      31.637  34.373  27.113  1.00  0.00     0.163 HD
ATOM     30  O   UNL A   1      32.493  36.023  28.686  1.00  0.00    -0.269 OA
BRANCH  28  31
ATOM     31  C   UNL A   1      34.147  34.477  29.303  1.00  0.00     0.039 A 
ATOM     32  C   UNL A   1      33.937  33.904  30.559  1.00  0.00     0.014 A 
ATOM     33  C   UNL A   1      35.437  34.585  28.780  1.00  0.00     0.014 A 
ATOM     34  C   UNL A   1      35.018  33.365  31.259  1.00  0.00     0.010 A 
ATOM     35  C   UNL A   1      36.500  33.982  29.443  1.00  0.00     0.010 A 
ATOM     36  C   UNL A   1      36.300  33.362  30.685  1.00  0.00    -0.014 A 
BRANCH  36  37
ATOM     37  C   UNL A   1      37.444  32.706  31.362  1.00  0.00     0.031 A 
ATOM     38  C   UNL A   1      38.146  31.552  30.703  1.00  0.00     0.074 A 
ATOM     39  C   UNL A   1      37.795  33.095  32.602  1.00  0.00     0.049 A 
ATOM     40  N   UNL A   1      39.109  30.797  31.164  1.00  0.00    -0.248 NA
ATOM     41  C   UNL A   1      37.680  31.178  29.358  1.00  0.00     0.031 C 
ATOM     42  C   UNL A   1      37.146  34.158  33.372  1.00  0.00     0.029 A 
ATOM     43  N   UNL A   1      38.776  32.631  33.441  1.00  0.00    -0.354 N 
ATOM     44  C   UNL A   1      39.347  29.848  30.180  1.00  0.00     0.074 A 
ATOM     45  C   UNL A   1      38.397  30.090  29.116  1.00  0.00     0.031 C 
ATOM     46  C   UNL A   1      37.758  34.277  34.561  1.00  0.00     0.029 A 
ATOM     47  C   UNL A   1      38.822  33.281  34.650  1.00  0.00     0.049 A 
ATOM     48  H   UNL A   1      39.389  31.899  33.200  1.00  0.00     0.167 HD
ATOM     49  C   UNL A   1      40.289  28.876  30.157  1.00  0.00     0.037 A 
ATOM     50  C   UNL A   1      39.630  33.093  35.710  1.00  0.00     0.037 A 
ATOM     51  C   UNL A   1      41.260  28.665  31.197  1.00  0.00     0.049 A 
ATOM     52  C   UNL A   1      40.694  32.032  35.641  1.00  0.00     0.074 A 
ATOM     53  C   UNL A   1      42.305  27.759  31.233  1.00  0.00     0.029 A 
ATOM     54  N   UNL A   1      41.307  29.378  32.386  1.00  0.00    -0.354 N 
ATOM     55  N   UNL A   1      40.960  31.190  34.673  1.00  0.00    -0.248 NA
ATOM     56  C   UNL A   1      41.578  31.902  36.808  1.00  0.00     0.031 C 
ATOM     57  C   UNL A   1      42.965  27.900  32.458  1.00  0.00     0.029 A 
ATOM     58  C   UNL A   1      42.355  28.921  33.170  1.00  0.00     0.049 A 
ATOM     59  H   UNL A   1      40.687  30.101  32.637  1.00  0.00     0.167 HD
ATOM     60  C   UNL A   1      42.053  30.449  35.101  1.00  0.00     0.074 A 
ATOM     61  C   UNL A   1      42.410  30.952  36.410  1.00  0.00     0.031 C 
ATOM     62  C   UNL A   1      42.701  29.442  34.466  1.00  0.00     0.037 A 
BRANCH  49  63
ATOM     63  C   UNL A   1      40.324  27.972  28.960  1.00  0.00     0.064 A 
ATOM     64  C   UNL A   1      39.603  26.768  28.930  1.00  0.00     0.173 A 
ATOM     65  C   UNL A   1      41.055  28.329  27.818  1.00  0.00     0.173 A 
ATOM     66  F   UNL A   1      38.900  26.375  30.003  1.00  0.00    -0.203 F 
ATOM     67  C   UNL A   1      39.637  25.942  27.810  1.00  0.00     0.198 A 
ATOM     68  C   UNL A   1      41.064  27.513  26.689  1.00  0.00     0.198 A 
ATOM     69  F   UNL A   1      41.758  29.472  27.795  1.00  0.00    -0.203 F 
ATOM     70  F   UNL A   1      38.980  24.774  27.822  1.00  0.00    -0.200 F 
ATOM     71  C   UNL A   1      40.361  26.318  26.689  1.00  0.00     0.200 A 
ATOM     72  F   UNL A   1      41.755  27.884  25.603  1.00  0.00    -0.200 F 
ATOM     73  F   UNL A   1      40.386  25.524  25.609  1.00  0.00    -0.200 F 
ENDBRANCH  49  63
BRANCH  50  74
ATOM     74  C   UNL A   1      39.489  33.950  36.914  1.00  0.00     0.064 A 
ATOM     75  C   UNL A   1      38.741  33.519  38.019  1.00  0.00     0.173 A 
ATOM     76  C   UNL A   1      40.091  35.214  36.987  1.00  0.00     0.173 A 
ATOM     77  F   UNL A   1      38.131  32.324  37.987  1.00  0.00    -0.203 F 
ATOM     78  C   UNL A   1      38.582  34.327  39.142  1.00  0.00     0.198 A 
ATOM     79  C   UNL A   1      39.952  36.012  38.120  1.00  0.00     0.198 A 
ATOM     80  F   UNL A   1      40.822  35.670  35.960  1.00  0.00    -0.203 F 
ATOM     81  F   UNL A   1      37.825  33.908  40.165  1.00  0.00    -0.200 F 
ATOM     82  C   UNL A   1      39.191  35.572  39.194  1.00  0.00     0.200 A 
ATOM     83  F   UNL A   1      40.553  37.209  38.173  1.00  0.00    -0.200 F 
ATOM     84  F   UNL A   1      39.039  36.349  40.274  1.00  0.00    -0.200 F 
ENDBRANCH  50  74
BRANCH  62  85
ATOM     85  C   UNL A   1      43.883  28.839  35.165  1.00  0.00     0.064 A 
ATOM     86  C   UNL A   1      43.747  27.724  36.004  1.00  0.00     0.173 A 
ATOM     87  C   UNL A   1      45.169  29.358  34.959  1.00  0.00     0.173 A 
ATOM     88  F   UNL A   1      42.535  27.203  36.243  1.00  0.00    -0.203 F 
ATOM     89  C   UNL A   1      44.856  27.163  36.630  1.00  0.00     0.198 A 
ATOM     90  C   UNL A   1      46.280  28.779  35.566  1.00  0.00     0.198 A 
ATOM     91  F   UNL A   1      45.350  30.421  34.161  1.00  0.00    -0.203 F 
ATOM     92  F   UNL A   1      44.699  26.124  37.461  1.00  0.00    -0.200 F 
ATOM     93  C   UNL A   1      46.121  27.686  36.405  1.00  0.00     0.200 A 
ATOM     94  F   UNL A   1      47.502  29.279  35.340  1.00  0.00    -0.200 F 
ATOM     95  F   UNL A   1      47.188  27.140  37.004  1.00  0.00    -0.200 F 
ENDBRANCH  62  85
ENDBRANCH  36  37
ENDBRANCH  28  31
ENDBRANCH  26  27
ENDBRANCH  25  26
ENDBRANCH   1  25
TORSDOF 15
ENDMDL
