MODEL 1
REMARK VINA RESULT:     -13.1      0.000      0.000
REMARK SMILES COc1cc(NC(=O)[C@@H]2CC=CC[C@H]2C(=O)NCCCCNC(=O)c2ccc(-c3c4nc(c(-c5c(F)c(F)c(F)c(F)c5F)c5ccc([nH]5)c(-c5c(F)c(F)c(F)c(F)c5F)c5nc(c(-c6c(F)c(F)c(F)c(F)c6F)c6ccc3[nH]6)C=C5)C=C4)cc2)c(OC)cc1Cl
REMARK SMILES IDX 19 1 18 2 17 3 15 4 16 5 14 7 9 8 10 9 11 10 13 11 12 12
REMARK SMILES IDX 7 13 6 14 8 16 5 17 3 18 4 19 92 20 91 21 93 22 88 23 2 24
REMARK SMILES IDX 1 25 89 26 90 27 20 28 21 29 22 30 23 31 24 33 25 34 26 35
REMARK SMILES IDX 87 36 27 37 86 38 28 39 29 40 30 41 80 42 31 43 85 44 79 45
REMARK SMILES IDX 81 46 32 47 84 48 78 49 77 50 33 52 65 53 45 54 64 55 46 56
REMARK SMILES IDX 49 57 63 58 82 59 47 60 48 61 62 63 83 64 50 65 34 66 35 67
REMARK SMILES IDX 43 68 36 69 37 70 41 71 44 72 38 73 39 74 42 75 40 76 66 77
REMARK SMILES IDX 67 78 75 79 68 80 69 81 73 82 76 83 70 84 71 85 74 86 72 87
REMARK SMILES IDX 51 88 52 89 60 90 53 91 54 92 58 93 61 94 55 95 56 96 59 97
REMARK SMILES IDX 57 98
REMARK H PARENT 17 6 6 15 22 32 81 51 49 62
REMARK Flexibility Score: inf
ROOT
ATOM      1  C   UNL A   1      31.818  30.437  26.781  1.00  0.00     0.023 C 
ENDROOT
BRANCH   1   2
ATOM      2  C   UNL A   1      31.827  29.837  25.380  1.00  0.00     0.116 C 
BRANCH   2   3
ATOM      3  N   UNL A   1      33.164  29.674  24.850  1.00  0.00    -0.356 N 
ATOM      4  C   UNL A   1      33.687  28.640  24.150  1.00  0.00     0.224 C 
ATOM      5  O   UNL A   1      34.529  28.933  23.294  1.00  0.00    -0.275 OA
ATOM      6  H   UNL A   1      33.780  30.423  25.023  1.00  0.00     0.163 HD
BRANCH   4   7
ATOM      7  C   UNL A   1      33.210  27.190  24.270  1.00  0.00     0.095 C 
ATOM      8  C   UNL A   1      33.223  26.335  22.984  1.00  0.00     0.095 C 
ATOM      9  C   UNL A   1      33.346  24.807  23.330  1.00  0.00     0.041 C 
ATOM     10  C   UNL A   1      34.063  24.398  24.567  1.00  0.00    -0.030 C 
ATOM     11  C   UNL A   1      34.049  26.692  25.480  1.00  0.00     0.041 C 
ATOM     12  C   UNL A   1      34.370  25.246  25.545  1.00  0.00    -0.030 C 
BRANCH   8  13
ATOM     13  C   UNL A   1      32.101  26.349  21.898  1.00  0.00     0.228 C 
ATOM     14  N   UNL A   1      31.031  27.125  21.667  1.00  0.00    -0.323 N 
ATOM     15  H   UNL A   1      30.675  26.890  20.779  1.00  0.00     0.170 HD
ATOM     16  O   UNL A   1      32.272  25.582  20.922  1.00  0.00    -0.274 OA
BRANCH  14  17
ATOM     17  C   UNL A   1      30.222  28.138  22.195  1.00  0.00     0.087 A 
ATOM     18  C   UNL A   1      29.370  30.400  22.362  1.00  0.00     0.139 A 
ATOM     19  C   UNL A   1      30.303  29.476  21.872  1.00  0.00     0.078 A 
ATOM     20  C   UNL A   1      28.386  29.988  23.256  1.00  0.00     0.086 A 
ATOM     21  C   UNL A   1      28.361  28.667  23.695  1.00  0.00     0.073 A 
ATOM     22  Cl  UNL A   1      27.210  31.090  23.872  1.00  0.00    -0.080 Cl
ATOM     23  C   UNL A   1      29.274  27.745  23.174  1.00  0.00     0.144 A 
BRANCH  18  24
ATOM     24  O   UNL A   1      29.327  31.674  21.862  1.00  0.00    -0.495 OA
ATOM     25  C   UNL A   1      28.362  31.856  20.832  1.00  0.00     0.278 C 
ENDBRANCH  18  24
BRANCH  23  26
ATOM     26  O   UNL A   1      29.311  26.416  23.539  1.00  0.00    -0.495 OA
ATOM     27  C   UNL A   1      29.775  26.127  24.856  1.00  0.00     0.278 C 
ENDBRANCH  23  26
ENDBRANCH  14  17
ENDBRANCH   8  13
ENDBRANCH   4   7
ENDBRANCH   2   3
ENDBRANCH   1   2
BRANCH   1  28
ATOM     28  C   UNL A   1      31.592  31.950  26.848  1.00  0.00     0.023 C 
BRANCH  28  29
ATOM     29  C   UNL A   1      32.762  32.780  27.368  1.00  0.00     0.116 C 
BRANCH  29  30
ATOM     30  N   UNL A   1      32.399  34.149  27.700  1.00  0.00    -0.352 N 
ATOM     31  C   UNL A   1      32.973  35.017  28.595  1.00  0.00     0.251 C 
ATOM     32  H   UNL A   1      31.626  34.507  27.208  1.00  0.00     0.163 HD
ATOM     33  O   UNL A   1      32.468  36.118  28.792  1.00  0.00    -0.269 OA
BRANCH  31  34
ATOM     34  C   UNL A   1      34.166  34.607  29.361  1.00  0.00     0.039 A 
ATOM     35  C   UNL A   1      33.989  34.143  30.667  1.00  0.00     0.014 A 
ATOM     36  C   UNL A   1      35.441  34.647  28.793  1.00  0.00     0.014 A 
ATOM     37  C   UNL A   1      35.080  33.630  31.371  1.00  0.00     0.010 A 
ATOM     38  C   UNL A   1      36.515  34.075  29.469  1.00  0.00     0.010 A 
ATOM     39  C   UNL A   1      36.340  33.546  30.757  1.00  0.00    -0.014 A 
BRANCH  39  40
ATOM     40  C   UNL A   1      37.470  32.856  31.426  1.00  0.00     0.031 A 
ATOM     41  C   UNL A   1      38.123  31.666  30.788  1.00  0.00     0.074 A 
ATOM     42  C   UNL A   1      37.847  33.255  32.655  1.00  0.00     0.049 A 
ATOM     43  N   UNL A   1      39.071  30.893  31.255  1.00  0.00    -0.248 NA
ATOM     44  C   UNL A   1      37.628  31.277  29.459  1.00  0.00     0.031 C 
ATOM     45  C   UNL A   1      37.245  34.359  33.404  1.00  0.00     0.029 A 
ATOM     46  N   UNL A   1      38.811  32.768  33.501  1.00  0.00    -0.354 N 
ATOM     47  C   UNL A   1      39.280  29.924  30.284  1.00  0.00     0.074 A 
ATOM     48  C   UNL A   1      38.323  30.173  29.226  1.00  0.00     0.031 C 
ATOM     49  C   UNL A   1      37.860  34.473  34.591  1.00  0.00     0.029 A 
ATOM     50  C   UNL A   1      38.872  33.427  34.703  1.00  0.00     0.049 A 
ATOM     51  H   UNL A   1      39.404  32.016  33.266  1.00  0.00     0.167 HD
ATOM     52  C   UNL A   1      40.202  28.931  30.267  1.00  0.00     0.037 A 
ATOM     53  C   UNL A   1      39.645  33.205  35.783  1.00  0.00     0.037 A 
ATOM     54  C   UNL A   1      41.155  28.694  31.319  1.00  0.00     0.049 A 
ATOM     55  C   UNL A   1      40.651  32.088  35.748  1.00  0.00     0.074 A 
ATOM     56  C   UNL A   1      42.178  27.762  31.365  1.00  0.00     0.029 A 
ATOM     57  N   UNL A   1      41.194  29.388  32.521  1.00  0.00    -0.354 N 
ATOM     58  N   UNL A   1      40.898  31.230  34.790  1.00  0.00    -0.248 NA
ATOM     59  C   UNL A   1      41.486  31.912  36.944  1.00  0.00     0.031 C 
ATOM     60  C   UNL A   1      42.802  27.858  32.615  1.00  0.00     0.029 A 
ATOM     61  C   UNL A   1      42.201  28.882  33.330  1.00  0.00     0.049 A 
ATOM     62  H   UNL A   1      40.596  30.130  32.764  1.00  0.00     0.167 HD
ATOM     63  C   UNL A   1      41.920  30.417  35.259  1.00  0.00     0.074 A 
ATOM     64  C   UNL A   1      42.263  30.901  36.581  1.00  0.00     0.031 C 
ATOM     65  C   UNL A   1      42.517  29.362  34.651  1.00  0.00     0.037 A 
BRANCH  52  66
ATOM     66  C   UNL A   1      40.216  28.027  29.068  1.00  0.00     0.064 A 
ATOM     67  C   UNL A   1      39.508  26.816  29.053  1.00  0.00     0.173 A 
ATOM     68  C   UNL A   1      40.934  28.381  27.916  1.00  0.00     0.173 A 
ATOM     69  F   UNL A   1      38.812  26.426  30.132  1.00  0.00    -0.203 F 
ATOM     70  C   UNL A   1      39.551  25.972  27.946  1.00  0.00     0.198 A 
ATOM     71  C   UNL A   1      40.950  27.550  26.798  1.00  0.00     0.198 A 
ATOM     72  F   UNL A   1      41.622  29.530  27.873  1.00  0.00    -0.203 F 
ATOM     73  F   UNL A   1      38.916  24.793  27.978  1.00  0.00    -0.200 F 
ATOM     74  C   UNL A   1      40.268  26.343  26.818  1.00  0.00     0.200 A 
ATOM     75  F   UNL A   1      41.633  27.913  25.705  1.00  0.00    -0.200 F 
ATOM     76  F   UNL A   1      40.310  25.529  25.753  1.00  0.00    -0.200 F 
ENDBRANCH  52  66
BRANCH  53  77
ATOM     77  C   UNL A   1      39.496  34.072  36.979  1.00  0.00     0.064 A 
ATOM     78  C   UNL A   1      38.733  33.658  38.078  1.00  0.00     0.173 A 
ATOM     79  C   UNL A   1      40.142  35.315  37.061  1.00  0.00     0.173 A 
ATOM     80  F   UNL A   1      38.082  32.487  38.037  1.00  0.00    -0.203 F 
ATOM     81  C   UNL A   1      38.615  34.457  39.214  1.00  0.00     0.198 A 
ATOM     82  C   UNL A   1      40.045  36.101  38.206  1.00  0.00     0.198 A 
ATOM     83  F   UNL A   1      40.889  35.753  36.038  1.00  0.00    -0.203 F 
ATOM     84  F   UNL A   1      37.855  34.051  40.239  1.00  0.00    -0.200 F 
ATOM     85  C   UNL A   1      39.278  35.673  39.280  1.00  0.00     0.200 A 
ATOM     86  F   UNL A   1      40.699  37.268  38.273  1.00  0.00    -0.200 F 
ATOM     87  F   UNL A   1      39.175  36.435  40.378  1.00  0.00    -0.200 F 
ENDBRANCH  53  77
BRANCH  65  88
ATOM     88  C   UNL A   1      43.600  28.657  35.415  1.00  0.00     0.064 A 
ATOM     89  C   UNL A   1      44.952  28.991  35.243  1.00  0.00     0.173 A 
ATOM     90  C   UNL A   1      43.282  27.666  36.355  1.00  0.00     0.173 A 
ATOM     91  F   UNL A   1      45.308  29.920  34.343  1.00  0.00    -0.203 F 
ATOM     92  C   UNL A   1      45.947  28.343  35.969  1.00  0.00     0.198 A 
ATOM     93  C   UNL A   1      44.277  27.039  37.100  1.00  0.00     0.198 A 
ATOM     94  F   UNL A   1      42.005  27.312  36.560  1.00  0.00    -0.203 F 
ATOM     95  F   UNL A   1      47.235  28.647  35.757  1.00  0.00    -0.200 F 
ATOM     96  C   UNL A   1      45.609  27.373  36.902  1.00  0.00     0.200 A 
ATOM     97  F   UNL A   1      43.949  26.111  38.009  1.00  0.00    -0.200 F 
ATOM     98  F   UNL A   1      46.567  26.755  37.605  1.00  0.00    -0.200 F 
ENDBRANCH  65  88
ENDBRANCH  39  40
ENDBRANCH  31  34
ENDBRANCH  29  30
ENDBRANCH  28  29
ENDBRANCH   1  28
TORSDOF 15
ENDMDL
MODEL 2
REMARK VINA RESULT:     -13.0      1.522      3.367
REMARK SMILES COc1cc(NC(=O)[C@@H]2CC=CC[C@H]2C(=O)NCCCCNC(=O)c2ccc(-c3c4nc(c(-c5c(F)c(F)c(F)c(F)c5F)c5ccc([nH]5)c(-c5c(F)c(F)c(F)c(F)c5F)c5nc(c(-c6c(F)c(F)c(F)c(F)c6F)c6ccc3[nH]6)C=C5)C=C4)cc2)c(OC)cc1Cl
REMARK SMILES IDX 19 1 18 2 17 3 15 4 16 5 14 7 9 8 10 9 11 10 13 11 12 12
REMARK SMILES IDX 7 13 6 14 8 16 5 17 3 18 4 19 92 20 91 21 93 22 88 23 2 24
REMARK SMILES IDX 1 25 89 26 90 27 20 28 21 29 22 30 23 31 24 33 25 34 26 35
REMARK SMILES IDX 87 36 27 37 86 38 28 39 29 40 30 41 80 42 31 43 85 44 79 45
REMARK SMILES IDX 81 46 32 47 84 48 78 49 77 50 33 52 65 53 45 54 64 55 46 56
REMARK SMILES IDX 49 57 63 58 82 59 47 60 48 61 62 63 83 64 50 65 34 66 35 67
REMARK SMILES IDX 43 68 36 69 37 70 41 71 44 72 38 73 39 74 42 75 40 76 66 77
REMARK SMILES IDX 67 78 75 79 68 80 69 81 73 82 76 83 70 84 71 85 74 86 72 87
REMARK SMILES IDX 51 88 52 89 60 90 53 91 54 92 58 93 61 94 55 95 56 96 59 97
REMARK SMILES IDX 57 98
REMARK H PARENT 17 6 6 15 22 32 81 51 49 62
REMARK Flexibility Score: inf
ROOT
ATOM      1  C   UNL A   1      32.058  30.463  26.354  1.00  0.00     0.023 C 
ENDROOT
BRANCH   1   2
ATOM      2  C   UNL A   1      31.200  29.952  25.202  1.00  0.00     0.116 C 
BRANCH   2   3
ATOM      3  N   UNL A   1      31.906  29.020  24.349  1.00  0.00    -0.356 N 
ATOM      4  C   UNL A   1      31.605  28.610  23.095  1.00  0.00     0.224 C 
ATOM      5  O   UNL A   1      32.566  28.373  22.355  1.00  0.00    -0.275 OA
ATOM      6  H   UNL A   1      32.723  28.629  24.737  1.00  0.00     0.163 HD
BRANCH   4   7
ATOM      7  C   UNL A   1      30.185  28.554  22.525  1.00  0.00     0.095 C 
ATOM      8  C   UNL A   1      29.054  28.138  23.490  1.00  0.00     0.095 C 
ATOM      9  C   UNL A   1      27.673  28.719  23.016  1.00  0.00     0.041 C 
ATOM     10  C   UNL A   1      27.645  29.999  22.258  1.00  0.00    -0.030 C 
ATOM     11  C   UNL A   1      30.077  29.945  21.838  1.00  0.00     0.041 C 
ATOM     12  C   UNL A   1      28.729  30.548  21.715  1.00  0.00    -0.030 C 
BRANCH   8  13
ATOM     13  C   UNL A   1      28.695  26.662  23.853  1.00  0.00     0.228 C 
ATOM     14  N   UNL A   1      29.405  25.532  23.987  1.00  0.00    -0.323 N 
ATOM     15  H   UNL A   1      28.817  24.852  24.388  1.00  0.00     0.170 HD
ATOM     16  O   UNL A   1      27.527  26.466  24.261  1.00  0.00    -0.274 OA
BRANCH  14  17
ATOM     17  C   UNL A   1      30.658  24.941  23.781  1.00  0.00     0.087 A 
ATOM     18  C   UNL A   1      32.639  24.392  22.498  1.00  0.00     0.139 A 
ATOM     19  C   UNL A   1      31.335  24.899  22.581  1.00  0.00     0.078 A 
ATOM     20  C   UNL A   1      33.244  23.844  23.626  1.00  0.00     0.086 A 
ATOM     21  C   UNL A   1      32.534  23.760  24.820  1.00  0.00     0.073 A 
ATOM     22  Cl  UNL A   1      34.853  23.222  23.572  1.00  0.00    -0.080 Cl
ATOM     23  C   UNL A   1      31.247  24.301  24.902  1.00  0.00     0.144 A 
BRANCH  18  24
ATOM     24  O   UNL A   1      33.377  24.559  21.358  1.00  0.00    -0.495 OA
ATOM     25  C   UNL A   1      32.763  25.406  20.393  1.00  0.00     0.278 C 
ENDBRANCH  18  24
BRANCH  23  26
ATOM     26  O   UNL A   1      30.478  24.277  26.046  1.00  0.00    -0.495 OA
ATOM     27  C   UNL A   1      30.379  23.027  26.724  1.00  0.00     0.278 C 
ENDBRANCH  23  26
ENDBRANCH  14  17
ENDBRANCH   8  13
ENDBRANCH   4   7
ENDBRANCH   2   3
ENDBRANCH   1   2
BRANCH   1  28
ATOM     28  C   UNL A   1      31.691  31.852  26.883  1.00  0.00     0.023 C 
BRANCH  28  29
ATOM     29  C   UNL A   1      32.860  32.737  27.305  1.00  0.00     0.116 C 
BRANCH  29  30
ATOM     30  N   UNL A   1      32.462  34.092  27.658  1.00  0.00    -0.352 N 
ATOM     31  C   UNL A   1      33.000  34.953  28.581  1.00  0.00     0.251 C 
ATOM     32  H   UNL A   1      31.691  34.444  27.157  1.00  0.00     0.163 HD
ATOM     33  O   UNL A   1      32.470  36.040  28.790  1.00  0.00    -0.269 OA
BRANCH  31  34
ATOM     34  C   UNL A   1      34.187  34.552  29.362  1.00  0.00     0.039 A 
ATOM     35  C   UNL A   1      33.993  34.033  30.644  1.00  0.00     0.014 A 
ATOM     36  C   UNL A   1      35.474  34.653  28.828  1.00  0.00     0.014 A 
ATOM     37  C   UNL A   1      35.082  33.529  31.357  1.00  0.00     0.010 A 
ATOM     38  C   UNL A   1      36.548  34.090  29.510  1.00  0.00     0.010 A 
ATOM     39  C   UNL A   1      36.359  33.507  30.772  1.00  0.00    -0.014 A 
BRANCH  39  40
ATOM     40  C   UNL A   1      37.493  32.828  31.444  1.00  0.00     0.031 A 
ATOM     41  C   UNL A   1      38.159  31.643  30.809  1.00  0.00     0.074 A 
ATOM     42  C   UNL A   1      37.864  33.231  32.674  1.00  0.00     0.049 A 
ATOM     43  N   UNL A   1      39.112  30.879  31.279  1.00  0.00    -0.248 NA
ATOM     44  C   UNL A   1      37.670  31.248  29.480  1.00  0.00     0.031 C 
ATOM     45  C   UNL A   1      37.252  34.331  33.420  1.00  0.00     0.029 A 
ATOM     46  N   UNL A   1      38.832  32.754  33.522  1.00  0.00    -0.354 N 
ATOM     47  C   UNL A   1      39.332  29.911  30.309  1.00  0.00     0.074 A 
ATOM     48  C   UNL A   1      38.375  30.151  29.250  1.00  0.00     0.031 C 
ATOM     49  C   UNL A   1      37.863  34.451  34.609  1.00  0.00     0.029 A 
ATOM     50  C   UNL A   1      38.884  33.415  34.724  1.00  0.00     0.049 A 
ATOM     51  H   UNL A   1      39.431  32.007  33.290  1.00  0.00     0.167 HD
ATOM     52  C   UNL A   1      40.263  28.927  30.295  1.00  0.00     0.037 A 
ATOM     53  C   UNL A   1      39.657  33.201  35.805  1.00  0.00     0.037 A 
ATOM     54  C   UNL A   1      41.216  28.699  31.349  1.00  0.00     0.049 A 
ATOM     55  C   UNL A   1      40.673  32.093  35.774  1.00  0.00     0.074 A 
ATOM     56  C   UNL A   1      42.247  27.776  31.398  1.00  0.00     0.029 A 
ATOM     57  N   UNL A   1      41.246  29.394  32.550  1.00  0.00    -0.354 N 
ATOM     58  N   UNL A   1      40.930  31.236  34.817  1.00  0.00    -0.248 NA
ATOM     59  C   UNL A   1      41.507  31.925  36.972  1.00  0.00     0.031 C 
ATOM     60  C   UNL A   1      42.868  27.879  32.650  1.00  0.00     0.029 A 
ATOM     61  C   UNL A   1      42.256  28.898  33.362  1.00  0.00     0.049 A 
ATOM     62  H   UNL A   1      40.641  30.132  32.792  1.00  0.00     0.167 HD
ATOM     63  C   UNL A   1      41.958  30.432  35.289  1.00  0.00     0.074 A 
ATOM     64  C   UNL A   1      42.294  30.921  36.611  1.00  0.00     0.031 C 
ATOM     65  C   UNL A   1      42.565  29.383  34.684  1.00  0.00     0.037 A 
BRANCH  52  66
ATOM     66  C   UNL A   1      40.287  28.021  29.097  1.00  0.00     0.064 A 
ATOM     67  C   UNL A   1      41.032  28.339  27.951  1.00  0.00     0.173 A 
ATOM     68  C   UNL A   1      39.569  26.816  29.099  1.00  0.00     0.173 A 
ATOM     69  F   UNL A   1      41.729  29.484  27.894  1.00  0.00    -0.203 F 
ATOM     70  C   UNL A   1      41.024  27.505  26.836  1.00  0.00     0.198 A 
ATOM     71  C   UNL A   1      39.589  25.969  27.994  1.00  0.00     0.198 A 
ATOM     72  F   UNL A   1      38.847  26.460  30.171  1.00  0.00    -0.203 F 
ATOM     73  F   UNL A   1      41.695  27.859  25.731  1.00  0.00    -0.200 F 
ATOM     74  C   UNL A   1      40.306  26.319  26.860  1.00  0.00     0.200 A 
ATOM     75  F   UNL A   1      38.904  24.817  28.022  1.00  0.00    -0.200 F 
ATOM     76  F   UNL A   1      40.299  25.517  25.786  1.00  0.00    -0.200 F 
ENDBRANCH  52  66
BRANCH  53  77
ATOM     77  C   UNL A   1      39.498  34.067  37.000  1.00  0.00     0.064 A 
ATOM     78  C   UNL A   1      38.740  33.646  38.100  1.00  0.00     0.173 A 
ATOM     79  C   UNL A   1      40.130  35.318  37.081  1.00  0.00     0.173 A 
ATOM     80  F   UNL A   1      38.102  32.468  38.060  1.00  0.00    -0.203 F 
ATOM     81  C   UNL A   1      38.612  34.446  39.234  1.00  0.00     0.198 A 
ATOM     82  C   UNL A   1      40.023  36.104  38.225  1.00  0.00     0.198 A 
ATOM     83  F   UNL A   1      40.872  35.763  36.057  1.00  0.00    -0.203 F 
ATOM     84  F   UNL A   1      37.857  34.032  40.260  1.00  0.00    -0.200 F 
ATOM     85  C   UNL A   1      39.261  35.669  39.299  1.00  0.00     0.200 A 
ATOM     86  F   UNL A   1      40.664  37.279  38.291  1.00  0.00    -0.200 F 
ATOM     87  F   UNL A   1      39.149  36.431  40.396  1.00  0.00    -0.200 F 
ENDBRANCH  53  77
BRANCH  65  88
ATOM     88  C   UNL A   1      43.653  28.688  35.450  1.00  0.00     0.064 A 
ATOM     89  C   UNL A   1      43.365  27.655  36.354  1.00  0.00     0.173 A 
ATOM     90  C   UNL A   1      44.999  29.031  35.250  1.00  0.00     0.173 A 
ATOM     91  F   UNL A   1      42.092  27.302  36.592  1.00  0.00    -0.203 F 
ATOM     92  C   UNL A   1      44.383  27.005  37.046  1.00  0.00     0.198 A 
ATOM     93  C   UNL A   1      46.016  28.360  35.923  1.00  0.00     0.198 A 
ATOM     94  F   UNL A   1      45.328  30.009  34.394  1.00  0.00    -0.203 F 
ATOM     95  F   UNL A   1      44.082  26.050  37.937  1.00  0.00    -0.200 F 
ATOM     96  C   UNL A   1      45.708  27.352  36.824  1.00  0.00     0.200 A 
ATOM     97  F   UNL A   1      47.296  28.688  35.700  1.00  0.00    -0.200 F 
ATOM     98  F   UNL A   1      46.687  26.720  37.486  1.00  0.00    -0.200 F 
ENDBRANCH  65  88
ENDBRANCH  39  40
ENDBRANCH  31  34
ENDBRANCH  29  30
ENDBRANCH  28  29
ENDBRANCH   1  28
TORSDOF 15
ENDMDL
MODEL 3
REMARK VINA RESULT:     -12.8      1.611      7.831
REMARK SMILES COc1cc(NC(=O)[C@@H]2CC=CC[C@H]2C(=O)NCCCCNC(=O)c2ccc(-c3c4nc(c(-c5c(F)c(F)c(F)c(F)c5F)c5ccc([nH]5)c(-c5c(F)c(F)c(F)c(F)c5F)c5nc(c(-c6c(F)c(F)c(F)c(F)c6F)c6ccc3[nH]6)C=C5)C=C4)cc2)c(OC)cc1Cl
REMARK SMILES IDX 19 1 18 2 17 3 15 4 16 5 14 7 9 8 10 9 11 10 13 11 12 12
REMARK SMILES IDX 7 13 6 14 8 16 5 17 3 18 4 19 92 20 91 21 93 22 88 23 2 24
REMARK SMILES IDX 1 25 89 26 90 27 20 28 21 29 22 30 23 31 24 33 25 34 26 35
REMARK SMILES IDX 87 36 27 37 86 38 28 39 29 40 30 41 80 42 31 43 85 44 79 45
REMARK SMILES IDX 81 46 32 47 84 48 78 49 77 50 33 52 65 53 45 54 64 55 46 56
REMARK SMILES IDX 49 57 63 58 82 59 47 60 48 61 62 63 83 64 50 65 34 66 35 67
REMARK SMILES IDX 43 68 36 69 37 70 41 71 44 72 38 73 39 74 42 75 40 76 66 77
REMARK SMILES IDX 67 78 75 79 68 80 69 81 73 82 76 83 70 84 71 85 74 86 72 87
REMARK SMILES IDX 51 88 52 89 60 90 53 91 54 92 58 93 61 94 55 95 56 96 59 97
REMARK SMILES IDX 57 98
REMARK H PARENT 17 6 6 15 22 32 81 51 49 62
REMARK Flexibility Score: inf
ROOT
ATOM      1  C   UNL A   1      31.924  30.568  26.380  1.00  0.00     0.023 C 
ENDROOT
BRANCH   1   2
ATOM      2  C   UNL A   1      31.150  30.141  25.138  1.00  0.00     0.116 C 
BRANCH   2   3
ATOM      3  N   UNL A   1      31.871  29.177  24.334  1.00  0.00    -0.356 N 
ATOM      4  C   UNL A   1      31.577  28.698  23.103  1.00  0.00     0.224 C 
ATOM      5  O   UNL A   1      32.542  28.437  22.376  1.00  0.00    -0.275 OA
ATOM      6  H   UNL A   1      32.693  28.818  24.742  1.00  0.00     0.163 HD
BRANCH   4   7
ATOM      7  C   UNL A   1      30.158  28.591  22.536  1.00  0.00     0.095 C 
ATOM      8  C   UNL A   1      29.047  28.125  23.502  1.00  0.00     0.095 C 
ATOM      9  C   UNL A   1      27.643  28.656  23.036  1.00  0.00     0.041 C 
ATOM     10  C   UNL A   1      27.564  29.938  22.287  1.00  0.00    -0.030 C 
ATOM     11  C   UNL A   1      29.995  29.981  21.860  1.00  0.00     0.041 C 
ATOM     12  C   UNL A   1      28.623  30.532  21.745  1.00  0.00    -0.030 C 
BRANCH   8  13
ATOM     13  C   UNL A   1      28.747  26.634  23.855  1.00  0.00     0.228 C 
ATOM     14  N   UNL A   1      29.488  25.516  23.906  1.00  0.00    -0.323 N 
ATOM     15  H   UNL A   1      28.946  24.815  24.335  1.00  0.00     0.170 HD
ATOM     16  O   UNL A   1      27.619  26.403  24.349  1.00  0.00    -0.274 OA
BRANCH  14  17
ATOM     17  C   UNL A   1      30.732  24.957  23.588  1.00  0.00     0.087 A 
ATOM     18  C   UNL A   1      32.719  24.659  22.236  1.00  0.00     0.139 A 
ATOM     19  C   UNL A   1      31.425  25.164  22.414  1.00  0.00     0.078 A 
ATOM     20  C   UNL A   1      33.298  23.863  23.221  1.00  0.00     0.086 A 
ATOM     21  C   UNL A   1      32.569  23.536  24.361  1.00  0.00     0.073 A 
ATOM     22  Cl  UNL A   1      34.895  23.233  23.048  1.00  0.00    -0.080 Cl
ATOM     23  C   UNL A   1      31.291  24.074  24.546  1.00  0.00     0.144 A 
BRANCH  18  24
ATOM     24  O   UNL A   1      33.477  25.054  21.166  1.00  0.00    -0.495 OA
ATOM     25  C   UNL A   1      32.728  25.676  20.128  1.00  0.00     0.278 C 
ENDBRANCH  18  24
BRANCH  23  26
ATOM     26  O   UNL A   1      30.506  23.817  25.650  1.00  0.00    -0.495 OA
ATOM     27  C   UNL A   1      31.174  23.330  26.811  1.00  0.00     0.278 C 
ENDBRANCH  23  26
ENDBRANCH  14  17
ENDBRANCH   8  13
ENDBRANCH   4   7
ENDBRANCH   2   3
ENDBRANCH   1   2
BRANCH   1  28
ATOM     28  C   UNL A   1      31.619  31.978  26.892  1.00  0.00     0.023 C 
BRANCH  28  29
ATOM     29  C   UNL A   1      32.829  32.855  27.200  1.00  0.00     0.116 C 
BRANCH  29  30
ATOM     30  N   UNL A   1      32.477  34.195  27.641  1.00  0.00    -0.352 N 
ATOM     31  C   UNL A   1      33.025  34.966  28.636  1.00  0.00     0.251 C 
ATOM     32  H   UNL A   1      31.732  34.614  27.151  1.00  0.00     0.163 HD
ATOM     33  O   UNL A   1      32.533  36.056  28.912  1.00  0.00    -0.269 OA
BRANCH  31  34
ATOM     34  C   UNL A   1      34.175  34.461  29.411  1.00  0.00     0.039 A 
ATOM     35  C   UNL A   1      33.924  33.779  30.604  1.00  0.00     0.014 A 
ATOM     36  C   UNL A   1      35.486  34.629  28.956  1.00  0.00     0.014 A 
ATOM     37  C   UNL A   1      34.980  33.182  31.294  1.00  0.00     0.010 A 
ATOM     38  C   UNL A   1      36.529  33.977  29.608  1.00  0.00     0.010 A 
ATOM     39  C   UNL A   1      36.283  33.233  30.771  1.00  0.00    -0.014 A 
BRANCH  39  40
ATOM     40  C   UNL A   1      37.387  32.468  31.400  1.00  0.00     0.031 A 
ATOM     41  C   UNL A   1      37.913  32.856  32.750  1.00  0.00     0.074 A 
ATOM     42  C   UNL A   1      37.974  31.474  30.707  1.00  0.00     0.049 A 
ATOM     43  N   UNL A   1      38.918  32.354  33.422  1.00  0.00    -0.248 NA
ATOM     44  C   UNL A   1      37.237  33.974  33.423  1.00  0.00     0.031 C 
ATOM     45  C   UNL A   1      37.591  31.045  29.361  1.00  0.00     0.029 A 
ATOM     46  N   UNL A   1      39.026  30.655  31.029  1.00  0.00    -0.354 N 
ATOM     47  C   UNL A   1      38.999  33.097  34.591  1.00  0.00     0.074 A 
ATOM     48  C   UNL A   1      37.978  34.120  34.511  1.00  0.00     0.031 C 
ATOM     49  C   UNL A   1      38.390  30.037  28.976  1.00  0.00     0.029 A 
ATOM     50  C   UNL A   1      39.362  29.774  30.031  1.00  0.00     0.049 A 
ATOM     51  H   UNL A   1      39.496  30.695  31.894  1.00  0.00     0.167 HD
ATOM     52  C   UNL A   1      39.835  32.927  35.643  1.00  0.00     0.037 A 
ATOM     53  C   UNL A   1      40.354  28.865  29.966  1.00  0.00     0.037 A 
ATOM     54  C   UNL A   1      40.843  31.902  35.719  1.00  0.00     0.049 A 
ATOM     55  C   UNL A   1      41.280  28.703  31.139  1.00  0.00     0.074 A 
ATOM     56  C   UNL A   1      41.690  31.598  36.770  1.00  0.00     0.029 A 
ATOM     57  N   UNL A   1      41.150  31.020  34.692  1.00  0.00    -0.354 N 
ATOM     58  N   UNL A   1      41.294  29.356  32.275  1.00  0.00    -0.248 NA
ATOM     59  C   UNL A   1      42.324  27.677  31.022  1.00  0.00     0.031 C 
ATOM     60  C   UNL A   1      42.545  30.567  36.360  1.00  0.00     0.029 A 
ATOM     61  C   UNL A   1      42.198  30.194  35.072  1.00  0.00     0.049 A 
ATOM     62  H   UNL A   1      40.693  30.984  33.821  1.00  0.00     0.167 HD
ATOM     63  C   UNL A   1      42.339  28.817  33.012  1.00  0.00     0.074 A 
ATOM     64  C   UNL A   1      42.921  27.766  32.203  1.00  0.00     0.031 C 
ATOM     65  C   UNL A   1      42.779  29.165  34.246  1.00  0.00     0.037 A 
BRANCH  52  66
ATOM     66  C   UNL A   1      39.689  33.877  36.797  1.00  0.00     0.064 A 
ATOM     67  C   UNL A   1      40.396  35.088  36.845  1.00  0.00     0.173 A 
ATOM     68  C   UNL A   1      38.825  33.580  37.861  1.00  0.00     0.173 A 
ATOM     69  F   UNL A   1      41.244  35.416  35.857  1.00  0.00    -0.203 F 
ATOM     70  C   UNL A   1      40.274  35.948  37.933  1.00  0.00     0.198 A 
ATOM     71  C   UNL A   1      38.681  34.457  38.934  1.00  0.00     0.198 A 
ATOM     72  F   UNL A   1      38.120  32.440  37.863  1.00  0.00    -0.203 F 
ATOM     73  F   UNL A   1      41.005  37.070  37.984  1.00  0.00    -0.200 F 
ATOM     74  C   UNL A   1      39.414  35.634  38.974  1.00  0.00     0.200 A 
ATOM     75  F   UNL A   1      37.841  34.159  39.934  1.00  0.00    -0.200 F 
ATOM     76  F   UNL A   1      39.298  36.462  40.022  1.00  0.00    -0.200 F 
ENDBRANCH  52  66
BRANCH  53  77
ATOM     77  C   UNL A   1      40.507  28.037  28.743  1.00  0.00     0.064 A 
ATOM     78  C   UNL A   1      39.840  26.812  28.614  1.00  0.00     0.173 A 
ATOM     79  C   UNL A   1      41.294  28.470  27.665  1.00  0.00     0.173 A 
ATOM     80  F   UNL A   1      39.092  26.348  29.626  1.00  0.00    -0.203 F 
ATOM     81  C   UNL A   1      39.959  26.047  27.456  1.00  0.00     0.198 A 
ATOM     82  C   UNL A   1      41.391  27.717  26.498  1.00  0.00     0.198 A 
ATOM     83  F   UNL A   1      41.947  29.639  27.738  1.00  0.00    -0.203 F 
ATOM     84  F   UNL A   1      39.334  24.865  27.370  1.00  0.00    -0.200 F 
ATOM     85  C   UNL A   1      40.727  26.504  26.396  1.00  0.00     0.200 A 
ATOM     86  F   UNL A   1      42.122  28.169  25.470  1.00  0.00    -0.200 F 
ATOM     87  F   UNL A   1      40.830  25.774  25.277  1.00  0.00    -0.200 F 
ENDBRANCH  53  77
BRANCH  65  88
ATOM     88  C   UNL A   1      43.952  28.404  34.793  1.00  0.00     0.064 A 
ATOM     89  C   UNL A   1      43.779  27.207  35.505  1.00  0.00     0.173 A 
ATOM     90  C   UNL A   1      45.262  28.854  34.572  1.00  0.00     0.173 A 
ATOM     91  F   UNL A   1      42.545  26.745  35.758  1.00  0.00    -0.203 F 
ATOM     92  C   UNL A   1      44.875  26.501  35.992  1.00  0.00     0.198 A 
ATOM     93  C   UNL A   1      46.356  28.130  35.036  1.00  0.00     0.198 A 
ATOM     94  F   UNL A   1      45.482  29.991  33.894  1.00  0.00    -0.203 F 
ATOM     95  F   UNL A   1      44.685  25.383  36.707  1.00  0.00    -0.200 F 
ATOM     96  C   UNL A   1      46.162  26.957  35.751  1.00  0.00     0.200 A 
ATOM     97  F   UNL A   1      47.600  28.567  34.793  1.00  0.00    -0.200 F 
ATOM     98  F   UNL A   1      47.216  26.272  36.215  1.00  0.00    -0.200 F 
ENDBRANCH  65  88
ENDBRANCH  39  40
ENDBRANCH  31  34
ENDBRANCH  29  30
ENDBRANCH  28  29
ENDBRANCH   1  28
TORSDOF 15
ENDMDL
