MODEL 1
REMARK VINA RESULT:     -12.7      0.000      0.000
REMARK SMILES C[C@@H](C(=O)NCCCCNC(=O)c1ccc(-c2c3nc(c(-c4c(F)c(F)c(F)c(F)c4F)c4ccc([nH]4)c(-c4c(F)c(F)c(F)c(F)c4F)c4nc(c(-c5c(F)c(F)c(F)c(F)c5F)c5ccc2[nH]5)C=C4)C=C3)cc1)c1ccc(C[C@H]2CCC[C@H]2O)cc1
REMARK SMILES IDX 6 1 5 2 3 3 4 4 2 6 1 7 76 8 77 9 88 10 78 11 87 12 79 13
REMARK SMILES IDX 80 14 81 15 82 16 85 17 83 18 84 19 86 20 7 22 8 23 9 24
REMARK SMILES IDX 10 25 11 26 12 28 13 29 14 30 75 31 15 32 74 33 16 34 17 35
REMARK SMILES IDX 18 36 68 37 19 38 73 39 67 40 69 41 20 42 72 43 66 44 65 45
REMARK SMILES IDX 21 47 53 48 33 49 52 50 34 51 37 52 51 53 70 54 35 55 36 56
REMARK SMILES IDX 50 58 71 59 38 60 22 61 23 62 31 63 24 64 25 65 29 66 32 67
REMARK SMILES IDX 26 68 27 69 30 70 28 71 54 72 55 73 63 74 56 75 57 76 61 77
REMARK SMILES IDX 64 78 58 79 59 80 62 81 60 82 39 83 40 84 48 85 41 86 42 87
REMARK SMILES IDX 46 88 49 89 43 90 44 91 47 92 45 93
REMARK H PARENT 5 5 86 21 10 27 69 46 37 57
REMARK Flexibility Score: inf
ROOT
ATOM      1  C   UNL A   1      32.708  30.370  26.482  1.00  0.00     0.116 C 
ENDROOT
BRANCH   1   2
ATOM      2  N   UNL A   1      32.447  29.361  27.488  1.00  0.00    -0.356 N 
ATOM      3  C   UNL A   1      32.161  28.033  27.330  1.00  0.00     0.227 C 
ATOM      4  O   UNL A   1      31.652  27.473  28.302  1.00  0.00    -0.274 OA
ATOM      5  H   UNL A   1      32.480  29.677  28.419  1.00  0.00     0.163 HD
BRANCH   3   6
ATOM      6  C   UNL A   1      32.466  27.342  25.985  1.00  0.00     0.105 C 
ATOM      7  C   UNL A   1      33.793  27.923  25.462  1.00  0.00     0.023 C 
BRANCH   6   8
ATOM      8  C   UNL A   1      31.374  27.453  24.914  1.00  0.00    -0.036 A 
ATOM      9  C   UNL A   1      31.556  28.311  23.816  1.00  0.00     0.005 A 
ATOM     10  C   UNL A   1      30.167  26.745  24.977  1.00  0.00     0.005 A 
ATOM     11  C   UNL A   1      30.505  28.608  22.951  1.00  0.00     0.004 A 
ATOM     12  C   UNL A   1      29.102  27.065  24.129  1.00  0.00     0.004 A 
ATOM     13  C   UNL A   1      29.239  28.070  23.169  1.00  0.00    -0.048 A 
BRANCH  13  14
ATOM     14  C   UNL A   1      28.039  28.622  22.444  1.00  0.00     0.041 C 
BRANCH  14  15
ATOM     15  C   UNL A   1      27.840  30.153  22.506  1.00  0.00     0.022 C 
ATOM     16  C   UNL A   1      28.512  30.879  23.685  1.00  0.00     0.007 C 
ATOM     17  C   UNL A   1      28.213  31.000  21.277  1.00  0.00     0.117 C 
ATOM     18  C   UNL A   1      28.773  32.313  23.207  1.00  0.00     0.003 C 
ATOM     19  C   UNL A   1      28.137  32.421  21.824  1.00  0.00     0.032 C 
BRANCH  17  20
ATOM     20  O   UNL A   1      29.521  30.792  20.772  1.00  0.00    -0.393 OA
ATOM     21  H   UNL A   1      29.572  29.914  20.361  1.00  0.00     0.210 HD
ENDBRANCH  17  20
ENDBRANCH  14  15
ENDBRANCH  13  14
ENDBRANCH   6   8
ENDBRANCH   3   6
ENDBRANCH   1   2
BRANCH   1  22
ATOM     22  C   UNL A   1      31.410  31.072  26.070  1.00  0.00     0.023 C 
BRANCH  22  23
ATOM     23  C   UNL A   1      31.325  32.549  26.459  1.00  0.00     0.023 C 
BRANCH  23  24
ATOM     24  C   UNL A   1      32.509  33.072  27.261  1.00  0.00     0.116 C 
BRANCH  24  25
ATOM     25  N   UNL A   1      32.291  34.415  27.766  1.00  0.00    -0.352 N 
ATOM     26  C   UNL A   1      32.954  35.097  28.755  1.00  0.00     0.251 C 
ATOM     27  H   UNL A   1      31.557  34.912  27.336  1.00  0.00     0.163 HD
ATOM     28  O   UNL A   1      32.524  36.177  29.142  1.00  0.00    -0.269 OA
BRANCH  26  29
ATOM     29  C   UNL A   1      34.164  34.518  29.377  1.00  0.00     0.039 A 
ATOM     30  C   UNL A   1      34.022  33.823  30.579  1.00  0.00     0.014 A 
ATOM     31  C   UNL A   1      35.429  34.664  28.798  1.00  0.00     0.014 A 
ATOM     32  C   UNL A   1      35.136  33.229  31.170  1.00  0.00     0.010 A 
ATOM     33  C   UNL A   1      36.526  34.003  29.347  1.00  0.00     0.010 A 
ATOM     34  C   UNL A   1      36.391  33.283  30.542  1.00  0.00    -0.014 A 
BRANCH  34  35
ATOM     35  C   UNL A   1      37.553  32.569  31.128  1.00  0.00     0.031 A 
ATOM     36  C   UNL A   1      38.065  32.924  32.496  1.00  0.00     0.074 A 
ATOM     37  C   UNL A   1      38.158  31.603  30.410  1.00  0.00     0.049 A 
ATOM     38  N   UNL A   1      39.045  32.383  33.177  1.00  0.00    -0.248 NA
ATOM     39  C   UNL A   1      37.409  34.047  33.182  1.00  0.00     0.031 C 
ATOM     40  C   UNL A   1      37.797  31.215  29.045  1.00  0.00     0.029 A 
ATOM     41  N   UNL A   1      39.199  30.767  30.726  1.00  0.00    -0.354 N 
ATOM     42  C   UNL A   1      39.115  33.092  34.369  1.00  0.00     0.074 A 
ATOM     43  C   UNL A   1      38.128  34.146  34.291  1.00  0.00     0.031 C 
ATOM     44  C   UNL A   1      38.579  30.198  28.655  1.00  0.00     0.029 A 
ATOM     45  C   UNL A   1      39.517  29.881  29.726  1.00  0.00     0.049 A 
ATOM     46  H   UNL A   1      39.673  30.800  31.588  1.00  0.00     0.167 HD
ATOM     47  C   UNL A   1      39.908  32.862  35.443  1.00  0.00     0.037 A 
ATOM     48  C   UNL A   1      40.456  28.919  29.681  1.00  0.00     0.037 A 
ATOM     49  C   UNL A   1      40.887  31.809  35.519  1.00  0.00     0.049 A 
ATOM     50  C   UNL A   1      41.321  28.685  30.889  1.00  0.00     0.074 A 
ATOM     51  C   UNL A   1      41.717  31.474  36.574  1.00  0.00     0.029 A 
ATOM     52  N   UNL A   1      41.172  30.921  34.491  1.00  0.00    -0.354 N 
ATOM     53  N   UNL A   1      41.324  29.314  32.040  1.00  0.00    -0.248 NA
ATOM     54  C   UNL A   1      42.303  27.596  30.799  1.00  0.00     0.031 C 
ATOM     55  C   UNL A   1      42.534  30.411  36.172  1.00  0.00     0.029 A 
ATOM     56  C   UNL A   1      42.176  30.049  34.883  1.00  0.00     0.049 A 
ATOM     57  H   UNL A   1      40.727  30.911  33.614  1.00  0.00     0.167 HD
ATOM     58  C   UNL A   1      42.291  28.686  32.815  1.00  0.00     0.074 A 
ATOM     59  C   UNL A   1      42.827  27.605  32.015  1.00  0.00     0.031 C 
ATOM     60  C   UNL A   1      42.704  28.982  34.072  1.00  0.00     0.037 A 
BRANCH  47  61
ATOM     61  C   UNL A   1      39.737  33.759  36.637  1.00  0.00     0.064 A 
ATOM     62  C   UNL A   1      40.374  35.007  36.711  1.00  0.00     0.173 A 
ATOM     63  C   UNL A   1      38.885  33.396  37.692  1.00  0.00     0.173 A 
ATOM     64  F   UNL A   1      41.208  35.399  35.735  1.00  0.00    -0.203 F 
ATOM     65  C   UNL A   1      40.185  35.847  37.805  1.00  0.00     0.198 A 
ATOM     66  C   UNL A   1      38.674  34.253  38.770  1.00  0.00     0.198 A 
ATOM     67  F   UNL A   1      38.247  32.217  37.670  1.00  0.00    -0.203 F 
ATOM     68  F   UNL A   1      40.840  37.014  37.873  1.00  0.00    -0.200 F 
ATOM     69  C   UNL A   1      39.328  35.474  38.829  1.00  0.00     0.200 A 
ATOM     70  F   UNL A   1      37.835  33.896  39.753  1.00  0.00    -0.200 F 
ATOM     71  F   UNL A   1      39.136  36.289  39.875  1.00  0.00    -0.200 F 
ENDBRANCH  47  61
BRANCH  48  72
ATOM     72  C   UNL A   1      40.619  28.091  28.455  1.00  0.00     0.064 A 
ATOM     73  C   UNL A   1      39.988  26.847  28.330  1.00  0.00     0.173 A 
ATOM     74  C   UNL A   1      41.427  28.522  27.392  1.00  0.00     0.173 A 
ATOM     75  F   UNL A   1      39.219  26.382  29.327  1.00  0.00    -0.203 F 
ATOM     76  C   UNL A   1      40.185  26.048  27.206  1.00  0.00     0.198 A 
ATOM     77  C   UNL A   1      41.596  27.738  26.253  1.00  0.00     0.198 A 
ATOM     78  F   UNL A   1      42.047  29.709  27.457  1.00  0.00    -0.203 F 
ATOM     79  F   UNL A   1      39.618  24.835  27.140  1.00  0.00    -0.200 F 
ATOM     80  C   UNL A   1      40.985  26.496  26.166  1.00  0.00     0.200 A 
ATOM     81  F   UNL A   1      42.355  28.183  25.243  1.00  0.00    -0.200 F 
ATOM     82  F   UNL A   1      41.175  25.728  25.085  1.00  0.00    -0.200 F 
ENDBRANCH  48  72
BRANCH  60  83
ATOM     83  C   UNL A   1      43.776  28.108  34.658  1.00  0.00     0.064 A 
ATOM     84  C   UNL A   1      45.136  28.433  34.544  1.00  0.00     0.173 A 
ATOM     85  C   UNL A   1      43.440  26.928  35.341  1.00  0.00     0.173 A 
ATOM     86  F   UNL A   1      45.512  29.542  33.889  1.00  0.00    -0.203 F 
ATOM     87  C   UNL A   1      46.120  27.588  35.050  1.00  0.00     0.198 A 
ATOM     88  C   UNL A   1      44.426  26.105  35.877  1.00  0.00     0.198 A 
ATOM     89  F   UNL A   1      42.155  26.574  35.487  1.00  0.00    -0.203 F 
ATOM     90  F   UNL A   1      47.414  27.885  34.865  1.00  0.00    -0.200 F 
ATOM     91  C   UNL A   1      45.764  26.428  35.719  1.00  0.00     0.200 A 
ATOM     92  F   UNL A   1      44.079  24.991  36.539  1.00  0.00    -0.200 F 
ATOM     93  F   UNL A   1      46.713  25.613  36.202  1.00  0.00    -0.200 F 
ENDBRANCH  60  83
ENDBRANCH  34  35
ENDBRANCH  26  29
ENDBRANCH  24  25
ENDBRANCH  23  24
ENDBRANCH  22  23
ENDBRANCH   1  22
TORSDOF 15
ENDMDL
MODEL 2
REMARK VINA RESULT:     -12.6      1.985      8.279
REMARK SMILES C[C@@H](C(=O)NCCCCNC(=O)c1ccc(-c2c3nc(c(-c4c(F)c(F)c(F)c(F)c4F)c4ccc([nH]4)c(-c4c(F)c(F)c(F)c(F)c4F)c4nc(c(-c5c(F)c(F)c(F)c(F)c5F)c5ccc2[nH]5)C=C4)C=C3)cc1)c1ccc(C[C@H]2CCC[C@H]2O)cc1
REMARK SMILES IDX 6 1 5 2 3 3 4 4 2 6 1 7 76 8 77 9 88 10 78 11 87 12 79 13
REMARK SMILES IDX 80 14 81 15 82 16 85 17 83 18 84 19 86 20 7 22 8 23 9 24
REMARK SMILES IDX 10 25 11 26 12 28 13 29 14 30 75 31 15 32 74 33 16 34 17 35
REMARK SMILES IDX 18 36 68 37 19 38 73 39 67 40 69 41 20 42 72 43 66 44 65 45
REMARK SMILES IDX 21 47 53 48 33 49 52 50 34 51 37 52 51 53 70 54 35 55 36 56
REMARK SMILES IDX 50 58 71 59 38 60 22 61 23 62 31 63 24 64 25 65 29 66 32 67
REMARK SMILES IDX 26 68 27 69 30 70 28 71 54 72 55 73 63 74 56 75 57 76 61 77
REMARK SMILES IDX 64 78 58 79 59 80 62 81 60 82 39 83 40 84 48 85 41 86 42 87
REMARK SMILES IDX 46 88 49 89 43 90 44 91 47 92 45 93
REMARK H PARENT 5 5 86 21 10 27 69 46 37 57
REMARK Flexibility Score: inf
ROOT
ATOM      1  C   UNL A   1      32.665  30.306  26.827  1.00  0.00     0.116 C 
ENDROOT
BRANCH   1   2
ATOM      2  N   UNL A   1      32.161  29.072  27.395  1.00  0.00    -0.356 N 
ATOM      3  C   UNL A   1      31.707  27.948  26.761  1.00  0.00     0.227 C 
ATOM      4  O   UNL A   1      31.026  27.183  27.445  1.00  0.00    -0.274 OA
ATOM      5  H   UNL A   1      32.143  29.037  28.378  1.00  0.00     0.163 HD
BRANCH   3   6
ATOM      6  C   UNL A   1      32.047  27.721  25.273  1.00  0.00     0.105 C 
ATOM      7  C   UNL A   1      30.713  27.593  24.514  1.00  0.00     0.023 C 
BRANCH   6   8
ATOM      8  C   UNL A   1      32.952  26.522  24.969  1.00  0.00    -0.036 A 
ATOM      9  C   UNL A   1      33.366  26.272  23.649  1.00  0.00     0.005 A 
ATOM     10  C   UNL A   1      33.388  25.625  25.954  1.00  0.00     0.005 A 
ATOM     11  C   UNL A   1      33.994  25.078  23.303  1.00  0.00     0.004 A 
ATOM     12  C   UNL A   1      33.991  24.413  25.604  1.00  0.00     0.004 A 
ATOM     13  C   UNL A   1      34.211  24.092  24.263  1.00  0.00    -0.048 A 
BRANCH  13  14
ATOM     14  C   UNL A   1      34.593  22.695  23.849  1.00  0.00     0.041 C 
BRANCH  14  15
ATOM     15  C   UNL A   1      36.035  22.247  24.176  1.00  0.00     0.022 C 
ATOM     16  C   UNL A   1      37.001  23.351  24.640  1.00  0.00     0.007 C 
ATOM     17  C   UNL A   1      36.246  21.108  25.189  1.00  0.00     0.117 C 
ATOM     18  C   UNL A   1      38.052  22.656  25.513  1.00  0.00     0.003 C 
ATOM     19  C   UNL A   1      37.750  21.162  25.432  1.00  0.00     0.032 C 
BRANCH  17  20
ATOM     20  O   UNL A   1      35.593  21.278  26.435  1.00  0.00    -0.393 OA
ATOM     21  H   UNL A   1      35.317  22.203  26.531  1.00  0.00     0.210 HD
ENDBRANCH  17  20
ENDBRANCH  14  15
ENDBRANCH  13  14
ENDBRANCH   6   8
ENDBRANCH   3   6
ENDBRANCH   1   2
BRANCH   1  22
ATOM     22  C   UNL A   1      31.532  31.102  26.172  1.00  0.00     0.023 C 
BRANCH  22  23
ATOM     23  C   UNL A   1      31.371  32.534  26.688  1.00  0.00     0.023 C 
BRANCH  23  24
ATOM     24  C   UNL A   1      32.596  33.109  27.384  1.00  0.00     0.116 C 
BRANCH  24  25
ATOM     25  N   UNL A   1      32.403  34.484  27.808  1.00  0.00    -0.352 N 
ATOM     26  C   UNL A   1      33.033  35.191  28.800  1.00  0.00     0.251 C 
ATOM     27  H   UNL A   1      31.716  34.985  27.310  1.00  0.00     0.163 HD
ATOM     28  O   UNL A   1      32.625  36.305  29.107  1.00  0.00    -0.269 OA
BRANCH  26  29
ATOM     29  C   UNL A   1      34.180  34.601  29.523  1.00  0.00     0.039 A 
ATOM     30  C   UNL A   1      33.948  34.021  30.771  1.00  0.00     0.014 A 
ATOM     31  C   UNL A   1      35.474  34.624  28.992  1.00  0.00     0.014 A 
ATOM     32  C   UNL A   1      34.999  33.417  31.460  1.00  0.00     0.010 A 
ATOM     33  C   UNL A   1      36.506  33.952  29.643  1.00  0.00     0.010 A 
ATOM     34  C   UNL A   1      36.280  33.346  30.887  1.00  0.00    -0.014 A 
BRANCH  34  35
ATOM     35  C   UNL A   1      37.372  32.621  31.583  1.00  0.00     0.031 A 
ATOM     36  C   UNL A   1      38.050  31.445  30.937  1.00  0.00     0.074 A 
ATOM     37  C   UNL A   1      37.740  33.020  32.816  1.00  0.00     0.049 A 
ATOM     38  N   UNL A   1      39.043  30.716  31.385  1.00  0.00    -0.248 NA
ATOM     39  C   UNL A   1      37.534  31.014  29.630  1.00  0.00     0.031 C 
ATOM     40  C   UNL A   1      37.111  34.103  33.575  1.00  0.00     0.029 A 
ATOM     41  N   UNL A   1      38.734  32.568  33.647  1.00  0.00    -0.354 N 
ATOM     42  C   UNL A   1      39.274  29.752  30.412  1.00  0.00     0.074 A 
ATOM     43  C   UNL A   1      38.274  29.942  29.385  1.00  0.00     0.031 C 
ATOM     44  C   UNL A   1      37.755  34.253  34.743  1.00  0.00     0.029 A 
ATOM     45  C   UNL A   1      38.819  33.260  34.831  1.00  0.00     0.049 A 
ATOM     46  H   UNL A   1      39.330  31.819  33.416  1.00  0.00     0.167 HD
ATOM     47  C   UNL A   1      40.252  28.816  30.367  1.00  0.00     0.037 A 
ATOM     48  C   UNL A   1      39.664  33.112  35.868  1.00  0.00     0.037 A 
ATOM     49  C   UNL A   1      41.248  28.632  31.390  1.00  0.00     0.049 A 
ATOM     50  C   UNL A   1      40.741  32.065  35.788  1.00  0.00     0.074 A 
ATOM     51  C   UNL A   1      42.300  27.734  31.422  1.00  0.00     0.029 A 
ATOM     52  N   UNL A   1      41.312  29.361  32.569  1.00  0.00    -0.354 N 
ATOM     53  N   UNL A   1      40.996  31.210  34.827  1.00  0.00    -0.248 NA
ATOM     54  C   UNL A   1      41.660  31.974  36.931  1.00  0.00     0.031 C 
ATOM     55  C   UNL A   1      42.975  27.888  32.638  1.00  0.00     0.029 A 
ATOM     56  C   UNL A   1      42.376  28.921  33.341  1.00  0.00     0.049 A 
ATOM     57  H   UNL A   1      40.694  30.085  32.821  1.00  0.00     0.167 HD
ATOM     58  C   UNL A   1      42.112  30.494  35.240  1.00  0.00     0.074 A 
ATOM     59  C   UNL A   1      42.506  31.041  36.522  1.00  0.00     0.031 C 
ATOM     60  C   UNL A   1      42.750  29.471  34.619  1.00  0.00     0.037 A 
BRANCH  47  61
ATOM     61  C   UNL A   1      40.304  27.925  29.157  1.00  0.00     0.064 A 
ATOM     62  C   UNL A   1      39.568  26.732  29.096  1.00  0.00     0.173 A 
ATOM     63  C   UNL A   1      41.051  28.292  28.027  1.00  0.00     0.173 A 
ATOM     64  F   UNL A   1      38.847  26.328  30.153  1.00  0.00    -0.203 F 
ATOM     65  C   UNL A   1      39.596  25.928  27.960  1.00  0.00     0.198 A 
ATOM     66  C   UNL A   1      41.051  27.502  26.880  1.00  0.00     0.198 A 
ATOM     67  F   UNL A   1      41.768  29.425  28.029  1.00  0.00    -0.203 F 
ATOM     68  F   UNL A   1      38.920  24.771  27.942  1.00  0.00    -0.200 F 
ATOM     69  C   UNL A   1      40.329  26.318  26.849  1.00  0.00     0.200 A 
ATOM     70  F   UNL A   1      41.750  27.887  25.803  1.00  0.00    -0.200 F 
ATOM     71  F   UNL A   1      40.344  25.550  25.751  1.00  0.00    -0.200 F 
ENDBRANCH  47  61
BRANCH  48  72
ATOM     72  C   UNL A   1      39.537  33.986  37.064  1.00  0.00     0.064 A 
ATOM     73  C   UNL A   1      38.791  33.587  38.180  1.00  0.00     0.173 A 
ATOM     74  C   UNL A   1      40.146  35.251  37.106  1.00  0.00     0.173 A 
ATOM     75  F   UNL A   1      38.175  32.395  38.183  1.00  0.00    -0.203 F 
ATOM     76  C   UNL A   1      38.627  34.430  39.278  1.00  0.00     0.198 A 
ATOM     77  C   UNL A   1      40.010  36.079  38.218  1.00  0.00     0.198 A 
ATOM     78  F   UNL A   1      40.878  35.678  36.067  1.00  0.00    -0.203 F 
ATOM     79  F   UNL A   1      37.857  34.046  40.305  1.00  0.00    -0.200 F 
ATOM     80  C   UNL A   1      39.241  35.673  39.298  1.00  0.00     0.200 A 
ATOM     81  F   UNL A   1      40.620  37.271  38.240  1.00  0.00    -0.200 F 
ATOM     82  F   UNL A   1      39.083  36.483  40.353  1.00  0.00    -0.200 F 
ENDBRANCH  48  72
BRANCH  60  83
ATOM     83  C   UNL A   1      43.949  28.895  35.317  1.00  0.00     0.064 A 
ATOM     84  C   UNL A   1      45.250  29.341  35.035  1.00  0.00     0.173 A 
ATOM     85  C   UNL A   1      43.798  27.884  36.279  1.00  0.00     0.173 A 
ATOM     86  F   UNL A   1      45.451  30.295  34.113  1.00  0.00    -0.203 F 
ATOM     87  C   UNL A   1      46.355  28.764  35.654  1.00  0.00     0.198 A 
ATOM     88  C   UNL A   1      44.904  27.336  36.923  1.00  0.00     0.198 A 
ATOM     89  F   UNL A   1      42.577  27.428  36.595  1.00  0.00    -0.203 F 
ATOM     90  F   UNL A   1      47.591  29.157  35.315  1.00  0.00    -0.200 F 
ATOM     91  C   UNL A   1      46.181  27.766  36.600  1.00  0.00     0.200 A 
ATOM     92  F   UNL A   1      44.732  26.382  37.850  1.00  0.00    -0.200 F 
ATOM     93  F   UNL A   1      47.247  27.209  37.193  1.00  0.00    -0.200 F 
ENDBRANCH  60  83
ENDBRANCH  34  35
ENDBRANCH  26  29
ENDBRANCH  24  25
ENDBRANCH  23  24
ENDBRANCH  22  23
ENDBRANCH   1  22
TORSDOF 15
ENDMDL
MODEL 3
REMARK VINA RESULT:     -12.6      0.839      7.412
REMARK SMILES C[C@@H](C(=O)NCCCCNC(=O)c1ccc(-c2c3nc(c(-c4c(F)c(F)c(F)c(F)c4F)c4ccc([nH]4)c(-c4c(F)c(F)c(F)c(F)c4F)c4nc(c(-c5c(F)c(F)c(F)c(F)c5F)c5ccc2[nH]5)C=C4)C=C3)cc1)c1ccc(C[C@H]2CCC[C@H]2O)cc1
REMARK SMILES IDX 6 1 5 2 3 3 4 4 2 6 1 7 76 8 77 9 88 10 78 11 87 12 79 13
REMARK SMILES IDX 80 14 81 15 82 16 85 17 83 18 84 19 86 20 7 22 8 23 9 24
REMARK SMILES IDX 10 25 11 26 12 28 13 29 14 30 75 31 15 32 74 33 16 34 17 35
REMARK SMILES IDX 18 36 68 37 19 38 73 39 67 40 69 41 20 42 72 43 66 44 65 45
REMARK SMILES IDX 21 47 53 48 33 49 52 50 34 51 37 52 51 53 70 54 35 55 36 56
REMARK SMILES IDX 50 58 71 59 38 60 22 61 23 62 31 63 24 64 25 65 29 66 32 67
REMARK SMILES IDX 26 68 27 69 30 70 28 71 54 72 55 73 63 74 56 75 57 76 61 77
REMARK SMILES IDX 64 78 58 79 59 80 62 81 60 82 39 83 40 84 48 85 41 86 42 87
REMARK SMILES IDX 46 88 49 89 43 90 44 91 47 92 45 93
REMARK H PARENT 5 5 86 21 10 27 69 46 37 57
REMARK Flexibility Score: inf
ROOT
ATOM      1  C   UNL A   1      32.840  30.288  26.500  1.00  0.00     0.116 C 
ENDROOT
BRANCH   1   2
ATOM      2  N   UNL A   1      32.497  29.325  27.527  1.00  0.00    -0.356 N 
ATOM      3  C   UNL A   1      32.173  28.003  27.401  1.00  0.00     0.227 C 
ATOM      4  O   UNL A   1      31.599  27.495  28.366  1.00  0.00    -0.274 OA
ATOM      5  H   UNL A   1      32.497  29.673  28.447  1.00  0.00     0.163 HD
BRANCH   3   6
ATOM      6  C   UNL A   1      32.516  27.254  26.096  1.00  0.00     0.105 C 
ATOM      7  C   UNL A   1      33.970  27.610  25.732  1.00  0.00     0.023 C 
BRANCH   6   8
ATOM      8  C   UNL A   1      31.586  27.522  24.907  1.00  0.00    -0.036 A 
ATOM      9  C   UNL A   1      32.013  28.356  23.858  1.00  0.00     0.005 A 
ATOM     10  C   UNL A   1      30.295  26.987  24.810  1.00  0.00     0.005 A 
ATOM     11  C   UNL A   1      31.124  28.801  22.883  1.00  0.00     0.004 A 
ATOM     12  C   UNL A   1      29.394  27.457  23.850  1.00  0.00     0.004 A 
ATOM     13  C   UNL A   1      29.779  28.441  22.938  1.00  0.00    -0.048 A 
BRANCH  13  14
ATOM     14  C   UNL A   1      28.762  29.159  22.089  1.00  0.00     0.041 C 
BRANCH  14  15
ATOM     15  C   UNL A   1      28.907  30.693  21.989  1.00  0.00     0.022 C 
ATOM     16  C   UNL A   1      28.193  31.368  20.804  1.00  0.00     0.007 C 
ATOM     17  C   UNL A   1      28.520  31.555  23.204  1.00  0.00     0.117 C 
ATOM     18  C   UNL A   1      27.888  32.802  21.252  1.00  0.00     0.003 C 
ATOM     19  C   UNL A   1      28.538  32.965  22.623  1.00  0.00     0.032 C 
BRANCH  17  20
ATOM     20  O   UNL A   1      27.227  31.314  23.731  1.00  0.00    -0.393 OA
ATOM     21  H   UNL A   1      27.174  31.673  24.631  1.00  0.00     0.210 HD
ENDBRANCH  17  20
ENDBRANCH  14  15
ENDBRANCH  13  14
ENDBRANCH   6   8
ENDBRANCH   3   6
ENDBRANCH   1   2
BRANCH   1  22
ATOM     22  C   UNL A   1      31.596  31.054  26.039  1.00  0.00     0.023 C 
BRANCH  22  23
ATOM     23  C   UNL A   1      31.379  32.403  26.729  1.00  0.00     0.023 C 
BRANCH  23  24
ATOM     24  C   UNL A   1      32.641  33.059  27.270  1.00  0.00     0.116 C 
BRANCH  24  25
ATOM     25  N   UNL A   1      32.414  34.421  27.719  1.00  0.00    -0.352 N 
ATOM     26  C   UNL A   1      33.013  35.120  28.736  1.00  0.00     0.251 C 
ATOM     27  H   UNL A   1      31.726  34.918  27.220  1.00  0.00     0.163 HD
ATOM     28  O   UNL A   1      32.578  36.219  29.058  1.00  0.00    -0.269 OA
BRANCH  26  29
ATOM     29  C   UNL A   1      34.160  34.537  29.466  1.00  0.00     0.039 A 
ATOM     30  C   UNL A   1      33.912  33.889  30.677  1.00  0.00     0.014 A 
ATOM     31  C   UNL A   1      35.466  34.633  28.978  1.00  0.00     0.014 A 
ATOM     32  C   UNL A   1      34.964  33.292  31.370  1.00  0.00     0.010 A 
ATOM     33  C   UNL A   1      36.504  33.968  29.629  1.00  0.00     0.010 A 
ATOM     34  C   UNL A   1      36.263  33.295  30.835  1.00  0.00    -0.014 A 
BRANCH  34  35
ATOM     35  C   UNL A   1      37.360  32.577  31.531  1.00  0.00     0.031 A 
ATOM     36  C   UNL A   1      38.054  31.414  30.879  1.00  0.00     0.074 A 
ATOM     37  C   UNL A   1      37.719  32.972  32.768  1.00  0.00     0.049 A 
ATOM     38  N   UNL A   1      39.054  30.693  31.326  1.00  0.00    -0.248 NA
ATOM     39  C   UNL A   1      37.548  30.986  29.567  1.00  0.00     0.031 C 
ATOM     40  C   UNL A   1      37.075  34.042  33.532  1.00  0.00     0.029 A 
ATOM     41  N   UNL A   1      38.715  32.525  33.600  1.00  0.00    -0.354 N 
ATOM     42  C   UNL A   1      39.299  29.738  30.348  1.00  0.00     0.074 A 
ATOM     43  C   UNL A   1      38.301  29.924  29.317  1.00  0.00     0.031 C 
ATOM     44  C   UNL A   1      37.712  34.191  34.703  1.00  0.00     0.029 A 
ATOM     45  C   UNL A   1      38.788  33.210  34.788  1.00  0.00     0.049 A 
ATOM     46  H   UNL A   1      39.320  31.784  33.366  1.00  0.00     0.167 HD
ATOM     47  C   UNL A   1      40.287  28.813  30.299  1.00  0.00     0.037 A 
ATOM     48  C   UNL A   1      39.630  33.063  35.828  1.00  0.00     0.037 A 
ATOM     49  C   UNL A   1      41.282  28.633  31.325  1.00  0.00     0.049 A 
ATOM     50  C   UNL A   1      40.719  32.029  35.745  1.00  0.00     0.074 A 
ATOM     51  C   UNL A   1      42.343  27.747  31.355  1.00  0.00     0.029 A 
ATOM     52  N   UNL A   1      41.333  29.355  32.509  1.00  0.00    -0.354 N 
ATOM     53  N   UNL A   1      40.988  31.184  34.779  1.00  0.00    -0.248 NA
ATOM     54  C   UNL A   1      41.634  31.940  36.891  1.00  0.00     0.031 C 
ATOM     55  C   UNL A   1      43.011  27.900  32.575  1.00  0.00     0.029 A 
ATOM     56  C   UNL A   1      42.399  28.921  33.283  1.00  0.00     0.049 A 
ATOM     57  H   UNL A   1      40.706  30.069  32.764  1.00  0.00     0.167 HD
ATOM     58  C   UNL A   1      42.110  30.477  35.192  1.00  0.00     0.074 A 
ATOM     59  C   UNL A   1      42.492  31.019  36.479  1.00  0.00     0.031 C 
ATOM     60  C   UNL A   1      42.761  29.466  34.566  1.00  0.00     0.037 A 
BRANCH  47  61
ATOM     61  C   UNL A   1      40.354  27.932  29.084  1.00  0.00     0.064 A 
ATOM     62  C   UNL A   1      39.622  26.737  29.005  1.00  0.00     0.173 A 
ATOM     63  C   UNL A   1      41.113  28.308  27.964  1.00  0.00     0.173 A 
ATOM     64  F   UNL A   1      38.890  26.324  30.052  1.00  0.00    -0.203 F 
ATOM     65  C   UNL A   1      39.663  25.942  27.864  1.00  0.00     0.198 A 
ATOM     66  C   UNL A   1      41.126  27.527  26.812  1.00  0.00     0.198 A 
ATOM     67  F   UNL A   1      41.827  29.442  27.982  1.00  0.00    -0.203 F 
ATOM     68  F   UNL A   1      38.990  24.784  27.830  1.00  0.00    -0.200 F 
ATOM     69  C   UNL A   1      40.407  26.342  26.764  1.00  0.00     0.200 A 
ATOM     70  F   UNL A   1      41.836  27.921  25.745  1.00  0.00    -0.200 F 
ATOM     71  F   UNL A   1      40.436  25.583  25.660  1.00  0.00    -0.200 F 
ENDBRANCH  47  61
BRANCH  48  72
ATOM     72  C   UNL A   1      39.489  33.928  37.030  1.00  0.00     0.064 A 
ATOM     73  C   UNL A   1      38.760  33.503  38.148  1.00  0.00     0.173 A 
ATOM     74  C   UNL A   1      40.065  35.207  37.074  1.00  0.00     0.173 A 
ATOM     75  F   UNL A   1      38.175  32.296  38.148  1.00  0.00    -0.203 F 
ATOM     76  C   UNL A   1      38.582  34.336  39.252  1.00  0.00     0.198 A 
ATOM     77  C   UNL A   1      39.915  36.025  38.192  1.00  0.00     0.198 A 
ATOM     78  F   UNL A   1      40.779  35.659  36.034  1.00  0.00    -0.203 F 
ATOM     79  F   UNL A   1      37.829  33.927  40.282  1.00  0.00    -0.200 F 
ATOM     80  C   UNL A   1      39.163  35.594  39.275  1.00  0.00     0.200 A 
ATOM     81  F   UNL A   1      40.495  37.232  38.217  1.00  0.00    -0.200 F 
ATOM     82  F   UNL A   1      38.992  36.395  40.335  1.00  0.00    -0.200 F 
ENDBRANCH  48  72
BRANCH  60  83
ATOM     83  C   UNL A   1      43.964  28.899  35.265  1.00  0.00     0.064 A 
ATOM     84  C   UNL A   1      45.256  29.389  35.021  1.00  0.00     0.173 A 
ATOM     85  C   UNL A   1      43.824  27.851  36.189  1.00  0.00     0.173 A 
ATOM     86  F   UNL A   1      45.447  30.379  34.137  1.00  0.00    -0.203 F 
ATOM     87  C   UNL A   1      46.367  28.820  35.640  1.00  0.00     0.198 A 
ATOM     88  C   UNL A   1      44.934  27.311  36.833  1.00  0.00     0.198 A 
ATOM     89  F   UNL A   1      42.611  27.351  36.467  1.00  0.00    -0.203 F 
ATOM     90  F   UNL A   1      47.597  29.259  35.336  1.00  0.00    -0.200 F 
ATOM     91  C   UNL A   1      46.205  27.786  36.548  1.00  0.00     0.200 A 
ATOM     92  F   UNL A   1      44.773  26.320  37.723  1.00  0.00    -0.200 F 
ATOM     93  F   UNL A   1      47.275  27.237  37.139  1.00  0.00    -0.200 F 
ENDBRANCH  60  83
ENDBRANCH  34  35
ENDBRANCH  26  29
ENDBRANCH  24  25
ENDBRANCH  23  24
ENDBRANCH  22  23
ENDBRANCH   1  22
TORSDOF 15
ENDMDL
