MODEL 1
REMARK VINA RESULT:     -11.9      0.000      0.000
REMARK SMILES COc1ncnc(N2CCSC[C@@H]2CC(=O)NCCCCNC(=O)c2ccc(-c3c4nc(c(-c5c(F)c(F)c(F)c(F)c5F)c5ccc([nH]5)c(-c5c(F)c(F)c(F)c(F)c5F)c5nc(c(-c6c(F)c(F)c(F)c(F)c6F)c6ccc3[nH]6)C=C5)C=C4)cc2)c1[N+](=O)[O-]
REMARK SMILES IDX 19 1 18 2 17 3 15 4 16 5 14 7 13 8 8 9 9 10 10 11 12 12
REMARK SMILES IDX 11 13 7 14 3 15 4 16 88 17 5 18 6 19 2 20 1 21 89 22 90 23
REMARK SMILES IDX 91 24 20 25 21 26 22 27 23 28 24 30 25 31 26 32 87 33 27 34
REMARK SMILES IDX 86 35 28 36 29 37 30 38 80 39 31 40 85 41 79 42 81 43 32 44
REMARK SMILES IDX 84 45 78 46 77 47 33 49 65 50 45 51 64 52 46 53 49 54 63 55
REMARK SMILES IDX 82 56 47 57 48 58 62 60 83 61 50 62 34 63 35 64 43 65 36 66
REMARK SMILES IDX 37 67 41 68 44 69 38 70 39 71 42 72 40 73 66 74 67 75 75 76
REMARK SMILES IDX 68 77 69 78 73 79 76 80 70 81 71 82 74 83 72 84 51 85 52 86
REMARK SMILES IDX 60 87 53 88 54 89 58 90 61 91 55 92 56 93 59 94 57 95
REMARK H PARENT 17 6 22 29 81 48 49 59
REMARK Flexibility Score: inf
ROOT
ATOM      1  C   UNL A   1      31.959  27.649  26.949  1.00  0.00     0.023 C 
ENDROOT
BRANCH   1   2
ATOM      2  C   UNL A   1      31.030  26.943  25.960  1.00  0.00     0.116 C 
BRANCH   2   3
ATOM      3  N   UNL A   1      30.375  25.769  26.501  1.00  0.00    -0.356 N 
ATOM      4  C   UNL A   1      30.759  24.464  26.525  1.00  0.00     0.222 C 
ATOM      5  O   UNL A   1      30.097  23.678  27.207  1.00  0.00    -0.275 OA
ATOM      6  H   UNL A   1      29.504  25.945  26.924  1.00  0.00     0.163 HD
BRANCH   4   7
ATOM      7  C   UNL A   1      31.969  23.982  25.761  1.00  0.00     0.126 C 
BRANCH   7   8
ATOM      8  C   UNL A   1      31.614  23.129  24.535  1.00  0.00     0.103 C 
ATOM      9  N   UNL A   1      32.819  22.559  23.884  1.00  0.00    -0.345 N 
ATOM     10  C   UNL A   1      33.710  23.468  23.147  1.00  0.00     0.129 C 
ATOM     11  C   UNL A   1      32.984  24.207  22.016  1.00  0.00     0.091 C 
ATOM     12  C   UNL A   1      30.726  23.889  23.529  1.00  0.00     0.095 C 
ATOM     13  S   UNL A   1      31.592  25.212  22.621  1.00  0.00    -0.158 SA
BRANCH   9  14
ATOM     14  C   UNL A   1      32.870  21.191  23.685  1.00  0.00     0.215 A 
ATOM     15  C   UNL A   1      33.376  18.945  24.269  1.00  0.00     0.299 A 
ATOM     16  N   UNL A   1      32.676  18.456  23.230  1.00  0.00    -0.196 NA
ATOM     17  C   UNL A   1      33.528  20.293  24.507  1.00  0.00     0.372 A 
ATOM     18  C   UNL A   1      32.106  19.379  22.451  1.00  0.00     0.228 A 
ATOM     19  N   UNL A   1      32.153  20.711  22.640  1.00  0.00    -0.212 NA
BRANCH  15  20
ATOM     20  O   UNL A   1      33.991  18.010  25.065  1.00  0.00    -0.476 OA
ATOM     21  C   UNL A   1      33.086  16.951  25.375  1.00  0.00     0.280 C 
ENDBRANCH  15  20
BRANCH  17  22
ATOM     22  N   UNL A   1      34.193  20.686  25.704  1.00  0.00     0.072 N 
ATOM     23  O   UNL A   1      35.391  20.984  25.610  1.00  0.00    -0.258 OA
ATOM     24  O   UNL A   1      33.504  20.767  26.731  1.00  0.00    -0.258 OA
ENDBRANCH  17  22
ENDBRANCH   9  14
ENDBRANCH   7   8
ENDBRANCH   4   7
ENDBRANCH   2   3
ENDBRANCH   1   2
BRANCH   1  25
ATOM     25  C   UNL A   1      31.777  29.162  27.068  1.00  0.00     0.023 C 
BRANCH  25  26
ATOM     26  C   UNL A   1      32.742  30.004  26.246  1.00  0.00     0.116 C 
BRANCH  26  27
ATOM     27  N   UNL A   1      32.625  31.417  26.554  1.00  0.00    -0.352 N 
ATOM     28  C   UNL A   1      33.365  32.220  27.383  1.00  0.00     0.251 C 
ATOM     29  H   UNL A   1      31.889  31.878  26.089  1.00  0.00     0.163 HD
ATOM     30  O   UNL A   1      32.959  33.355  27.620  1.00  0.00    -0.269 OA
BRANCH  28  31
ATOM     31  C   UNL A   1      34.631  31.757  28.004  1.00  0.00     0.039 A 
ATOM     32  C   UNL A   1      34.658  30.468  28.552  1.00  0.00     0.014 A 
ATOM     33  C   UNL A   1      35.753  32.580  28.138  1.00  0.00     0.014 A 
ATOM     34  C   UNL A   1      35.798  30.005  29.212  1.00  0.00     0.010 A 
ATOM     35  C   UNL A   1      36.918  32.092  28.733  1.00  0.00     0.010 A 
ATOM     36  C   UNL A   1      36.945  30.811  29.300  1.00  0.00    -0.014 A 
BRANCH  36  37
ATOM     37  C   UNL A   1      38.151  30.325  30.018  1.00  0.00     0.031 A 
ATOM     38  C   UNL A   1      38.419  30.755  31.435  1.00  0.00     0.074 A 
ATOM     39  C   UNL A   1      39.016  29.506  29.389  1.00  0.00     0.049 A 
ATOM     40  N   UNL A   1      39.404  30.418  32.230  1.00  0.00    -0.248 NA
ATOM     41  C   UNL A   1      37.470  31.707  32.031  1.00  0.00     0.031 C 
ATOM     42  C   UNL A   1      38.899  29.061  28.001  1.00  0.00     0.029 A 
ATOM     43  N   UNL A   1      40.161  28.900  29.840  1.00  0.00    -0.354 N 
ATOM     44  C   UNL A   1      39.201  31.125  33.409  1.00  0.00     0.074 A 
ATOM     45  C   UNL A   1      38.026  31.947  33.210  1.00  0.00     0.031 C 
ATOM     46  C   UNL A   1      39.914  28.227  27.721  1.00  0.00     0.029 A 
ATOM     47  C   UNL A   1      40.762  28.095  28.902  1.00  0.00     0.049 A 
ATOM     48  H   UNL A   1      40.520  29.029  30.748  1.00  0.00     0.167 HD
ATOM     49  C   UNL A   1      39.912  31.076  34.560  1.00  0.00     0.037 A 
ATOM     50  C   UNL A   1      41.864  27.327  28.992  1.00  0.00     0.037 A 
ATOM     51  C   UNL A   1      41.059  30.232  34.772  1.00  0.00     0.049 A 
ATOM     52  C   UNL A   1      42.610  27.257  30.296  1.00  0.00     0.074 A 
ATOM     53  C   UNL A   1      41.809  30.065  35.923  1.00  0.00     0.029 A 
ATOM     54  N   UNL A   1      41.619  29.408  33.808  1.00  0.00    -0.354 N 
ATOM     55  N   UNL A   1      42.365  27.875  31.424  1.00  0.00    -0.248 NA
ATOM     56  C   UNL A   1      43.780  26.368  30.339  1.00  0.00     0.031 C 
ATOM     57  C   UNL A   1      42.842  29.163  35.647  1.00  0.00     0.029 A 
ATOM     58  C   UNL A   1      42.713  28.740  34.334  1.00  0.00     0.049 A 
ATOM     59  H   UNL A   1      41.288  29.312  32.886  1.00  0.00     0.167 HD
ATOM     60  C   UNL A   1      43.332  27.436  32.317  1.00  0.00     0.074 A 
ATOM     61  C   UNL A   1      44.157  26.483  31.604  1.00  0.00     0.031 C 
ATOM     62  C   UNL A   1      43.521  27.793  33.611  1.00  0.00     0.037 A 
BRANCH  49  63
ATOM     63  C   UNL A   1      39.462  31.955  35.690  1.00  0.00     0.064 A 
ATOM     64  C   UNL A   1      39.986  33.244  35.869  1.00  0.00     0.173 A 
ATOM     65  C   UNL A   1      38.473  31.519  36.584  1.00  0.00     0.173 A 
ATOM     66  F   UNL A   1      40.943  33.703  35.049  1.00  0.00    -0.203 F 
ATOM     67  C   UNL A   1      39.554  34.055  36.917  1.00  0.00     0.198 A 
ATOM     68  C   UNL A   1      38.025  32.341  37.615  1.00  0.00     0.198 A 
ATOM     69  F   UNL A   1      37.936  30.296  36.455  1.00  0.00    -0.203 F 
ATOM     70  F   UNL A   1      40.102  35.265  37.094  1.00  0.00    -0.200 F 
ATOM     71  C   UNL A   1      38.570  33.605  37.784  1.00  0.00     0.200 A 
ATOM     72  F   UNL A   1      37.067  31.910  38.446  1.00  0.00    -0.200 F 
ATOM     73  F   UNL A   1      38.153  34.388  38.788  1.00  0.00    -0.200 F 
ENDBRANCH  49  63
BRANCH  50  74
ATOM     74  C   UNL A   1      42.298  26.524  27.822  1.00  0.00     0.064 A 
ATOM     75  C   UNL A   1      41.729  25.270  27.562  1.00  0.00     0.173 A 
ATOM     76  C   UNL A   1      43.285  26.991  26.941  1.00  0.00     0.173 A 
ATOM     77  F   UNL A   1      40.797  24.774  28.389  1.00  0.00    -0.203 F 
ATOM     78  C   UNL A   1      42.142  24.504  26.473  1.00  0.00     0.198 A 
ATOM     79  C   UNL A   1      43.679  26.235  25.839  1.00  0.00     0.198 A 
ATOM     80  F   UNL A   1      43.855  28.187  27.146  1.00  0.00    -0.203 F 
ATOM     81  F   UNL A   1      41.608  23.293  26.270  1.00  0.00    -0.200 F 
ATOM     82  C   UNL A   1      43.112  24.990  25.610  1.00  0.00     0.200 A 
ATOM     83  F   UNL A   1      44.608  26.713  25.001  1.00  0.00    -0.200 F 
ATOM     84  F   UNL A   1      43.506  24.256  24.561  1.00  0.00    -0.200 F 
ENDBRANCH  50  74
BRANCH  62  85
ATOM     85  C   UNL A   1      44.654  27.132  34.341  1.00  0.00     0.064 A 
ATOM     86  C   UNL A   1      44.481  25.915  35.014  1.00  0.00     0.173 A 
ATOM     87  C   UNL A   1      45.930  27.716  34.350  1.00  0.00     0.173 A 
ATOM     88  F   UNL A   1      43.275  25.327  35.046  1.00  0.00    -0.203 F 
ATOM     89  C   UNL A   1      45.537  25.319  35.696  1.00  0.00     0.198 A 
ATOM     90  C   UNL A   1      46.990  27.104  35.012  1.00  0.00     0.198 A 
ATOM     91  F   UNL A   1      46.148  28.877  33.715  1.00  0.00    -0.203 F 
ATOM     92  F   UNL A   1      45.337  24.180  36.375  1.00  0.00    -0.200 F 
ATOM     93  C   UNL A   1      46.792  25.911  35.691  1.00  0.00     0.200 A 
ATOM     94  F   UNL A   1      48.204  27.672  34.997  1.00  0.00    -0.200 F 
ATOM     95  F   UNL A   1      47.807  25.336  36.349  1.00  0.00    -0.200 F 
ENDBRANCH  62  85
ENDBRANCH  36  37
ENDBRANCH  28  31
ENDBRANCH  26  27
ENDBRANCH  25  26
ENDBRANCH   1  25
TORSDOF 15
ENDMDL
MODEL 2
REMARK VINA RESULT:     -11.6      1.863      3.602
REMARK SMILES COc1ncnc(N2CCSC[C@@H]2CC(=O)NCCCCNC(=O)c2ccc(-c3c4nc(c(-c5c(F)c(F)c(F)c(F)c5F)c5ccc([nH]5)c(-c5c(F)c(F)c(F)c(F)c5F)c5nc(c(-c6c(F)c(F)c(F)c(F)c6F)c6ccc3[nH]6)C=C5)C=C4)cc2)c1[N+](=O)[O-]
REMARK SMILES IDX 19 1 18 2 17 3 15 4 16 5 14 7 13 8 8 9 9 10 10 11 12 12
REMARK SMILES IDX 11 13 7 14 3 15 4 16 88 17 5 18 6 19 2 20 1 21 89 22 90 23
REMARK SMILES IDX 91 24 20 25 21 26 22 27 23 28 24 30 25 31 26 32 87 33 27 34
REMARK SMILES IDX 86 35 28 36 29 37 30 38 80 39 31 40 85 41 79 42 81 43 32 44
REMARK SMILES IDX 84 45 78 46 77 47 33 49 65 50 45 51 64 52 46 53 49 54 63 55
REMARK SMILES IDX 82 56 47 57 48 58 62 60 83 61 50 62 34 63 35 64 43 65 36 66
REMARK SMILES IDX 37 67 41 68 44 69 38 70 39 71 42 72 40 73 66 74 67 75 75 76
REMARK SMILES IDX 68 77 69 78 73 79 76 80 70 81 71 82 74 83 72 84 51 85 52 86
REMARK SMILES IDX 60 87 53 88 54 89 58 90 61 91 55 92 56 93 59 94 57 95
REMARK H PARENT 17 6 22 29 81 48 49 59
REMARK Flexibility Score: inf
ROOT
ATOM      1  C   UNL A   1      31.658  28.130  27.194  1.00  0.00     0.023 C 
ENDROOT
BRANCH   1   2
ATOM      2  C   UNL A   1      32.319  26.791  26.862  1.00  0.00     0.116 C 
BRANCH   2   3
ATOM      3  N   UNL A   1      31.425  25.653  26.955  1.00  0.00    -0.356 N 
ATOM      4  C   UNL A   1      31.672  24.317  26.889  1.00  0.00     0.222 C 
ATOM      5  O   UNL A   1      30.755  23.544  27.174  1.00  0.00    -0.275 OA
ATOM      6  H   UNL A   1      30.479  25.887  27.090  1.00  0.00     0.163 HD
BRANCH   4   7
ATOM      7  C   UNL A   1      33.030  23.783  26.499  1.00  0.00     0.126 C 
BRANCH   7   8
ATOM      8  C   UNL A   1      33.751  24.656  25.462  1.00  0.00     0.103 C 
ATOM      9  N   UNL A   1      33.121  24.568  24.123  1.00  0.00    -0.345 N 
ATOM     10  C   UNL A   1      33.274  23.319  23.360  1.00  0.00     0.129 C 
ATOM     11  C   UNL A   1      34.744  22.967  23.108  1.00  0.00     0.091 C 
ATOM     12  C   UNL A   1      35.265  24.365  25.402  1.00  0.00     0.095 C 
ATOM     13  S   UNL A   1      35.686  22.757  24.653  1.00  0.00    -0.158 SA
BRANCH   9  14
ATOM     14  C   UNL A   1      32.737  25.743  23.501  1.00  0.00     0.215 A 
ATOM     15  C   UNL A   1      31.188  27.385  22.762  1.00  0.00     0.299 A 
ATOM     16  N   UNL A   1      32.168  28.243  22.430  1.00  0.00    -0.196 NA
ATOM     17  C   UNL A   1      31.428  26.122  23.259  1.00  0.00     0.372 A 
ATOM     18  C   UNL A   1      33.406  27.795  22.646  1.00  0.00     0.228 A 
ATOM     19  N   UNL A   1      33.733  26.603  23.180  1.00  0.00    -0.212 NA
BRANCH  15  20
ATOM     20  O   UNL A   1      29.908  27.819  22.521  1.00  0.00    -0.476 OA
ATOM     21  C   UNL A   1      29.813  29.227  22.742  1.00  0.00     0.280 C 
ENDBRANCH  15  20
BRANCH  17  22
ATOM     22  N   UNL A   1      30.309  25.351  23.683  1.00  0.00     0.072 N 
ATOM     23  O   UNL A   1      30.081  24.303  23.063  1.00  0.00    -0.258 OA
ATOM     24  O   UNL A   1      29.695  25.750  24.683  1.00  0.00    -0.258 OA
ENDBRANCH  17  22
ENDBRANCH   9  14
ENDBRANCH   7   8
ENDBRANCH   4   7
ENDBRANCH   2   3
ENDBRANCH   1   2
BRANCH   1  25
ATOM     25  C   UNL A   1      31.661  29.170  26.073  1.00  0.00     0.023 C 
BRANCH  25  26
ATOM     26  C   UNL A   1      32.936  29.990  25.946  1.00  0.00     0.116 C 
BRANCH  26  27
ATOM     27  N   UNL A   1      32.738  31.366  26.364  1.00  0.00    -0.352 N 
ATOM     28  C   UNL A   1      33.404  32.129  27.288  1.00  0.00     0.251 C 
ATOM     29  H   UNL A   1      32.001  31.830  25.906  1.00  0.00     0.163 HD
ATOM     30  O   UNL A   1      32.933  33.221  27.598  1.00  0.00    -0.269 OA
BRANCH  28  31
ATOM     31  C   UNL A   1      34.665  31.673  27.925  1.00  0.00     0.039 A 
ATOM     32  C   UNL A   1      34.718  30.358  28.401  1.00  0.00     0.014 A 
ATOM     33  C   UNL A   1      35.753  32.524  28.141  1.00  0.00     0.014 A 
ATOM     34  C   UNL A   1      35.853  29.895  29.073  1.00  0.00     0.010 A 
ATOM     35  C   UNL A   1      36.914  32.042  28.748  1.00  0.00     0.010 A 
ATOM     36  C   UNL A   1      36.967  30.732  29.243  1.00  0.00    -0.014 A 
BRANCH  36  37
ATOM     37  C   UNL A   1      38.167  30.247  29.973  1.00  0.00     0.031 A 
ATOM     38  C   UNL A   1      38.425  30.684  31.390  1.00  0.00     0.074 A 
ATOM     39  C   UNL A   1      39.033  29.421  29.357  1.00  0.00     0.049 A 
ATOM     40  N   UNL A   1      39.403  30.348  32.195  1.00  0.00    -0.248 NA
ATOM     41  C   UNL A   1      37.474  31.644  31.973  1.00  0.00     0.031 C 
ATOM     42  C   UNL A   1      38.926  28.967  27.970  1.00  0.00     0.029 A 
ATOM     43  N   UNL A   1      40.173  28.813  29.820  1.00  0.00    -0.354 N 
ATOM     44  C   UNL A   1      39.193  31.063  33.367  1.00  0.00     0.074 A 
ATOM     45  C   UNL A   1      38.023  31.888  33.155  1.00  0.00     0.031 C 
ATOM     46  C   UNL A   1      39.939  28.128  27.704  1.00  0.00     0.029 A 
ATOM     47  C   UNL A   1      40.777  28.001  28.892  1.00  0.00     0.049 A 
ATOM     48  H   UNL A   1      40.525  28.947  30.730  1.00  0.00     0.167 HD
ATOM     49  C   UNL A   1      39.894  31.018  34.524  1.00  0.00     0.037 A 
ATOM     50  C   UNL A   1      41.877  27.229  28.995  1.00  0.00     0.037 A 
ATOM     51  C   UNL A   1      41.037  30.172  34.751  1.00  0.00     0.049 A 
ATOM     52  C   UNL A   1      42.612  27.164  30.305  1.00  0.00     0.074 A 
ATOM     53  C   UNL A   1      41.777  30.010  35.909  1.00  0.00     0.029 A 
ATOM     54  N   UNL A   1      41.602  29.340  33.796  1.00  0.00    -0.354 N 
ATOM     55  N   UNL A   1      42.360  27.790  31.428  1.00  0.00    -0.248 NA
ATOM     56  C   UNL A   1      43.778  26.271  30.363  1.00  0.00     0.031 C 
ATOM     57  C   UNL A   1      42.810  29.102  35.645  1.00  0.00     0.029 A 
ATOM     58  C   UNL A   1      42.689  28.671  34.334  1.00  0.00     0.049 A 
ATOM     59  H   UNL A   1      41.278  29.240  32.872  1.00  0.00     0.167 HD
ATOM     60  C   UNL A   1      43.319  27.353  32.331  1.00  0.00     0.074 A 
ATOM     61  C   UNL A   1      44.146  26.393  31.630  1.00  0.00     0.031 C 
ATOM     62  C   UNL A   1      43.500  27.717  33.624  1.00  0.00     0.037 A 
BRANCH  49  63
ATOM     63  C   UNL A   1      39.439  31.907  35.646  1.00  0.00     0.064 A 
ATOM     64  C   UNL A   1      38.482  31.479  36.578  1.00  0.00     0.173 A 
ATOM     65  C   UNL A   1      39.991  33.186  35.811  1.00  0.00     0.173 A 
ATOM     66  F   UNL A   1      37.915  30.270  36.456  1.00  0.00    -0.203 F 
ATOM     67  C   UNL A   1      38.074  32.310  37.619  1.00  0.00     0.198 A 
ATOM     68  C   UNL A   1      39.600  34.004  36.868  1.00  0.00     0.198 A 
ATOM     69  F   UNL A   1      40.914  33.642  34.950  1.00  0.00    -0.203 F 
ATOM     70  F   UNL A   1      37.125  31.896  38.471  1.00  0.00    -0.200 F 
ATOM     71  C   UNL A   1      38.639  33.567  37.768  1.00  0.00     0.200 A 
ATOM     72  F   UNL A   1      40.154  35.215  37.017  1.00  0.00    -0.200 F 
ATOM     73  F   UNL A   1      38.248  34.363  38.773  1.00  0.00    -0.200 F 
ENDBRANCH  49  63
BRANCH  50  74
ATOM     74  C   UNL A   1      42.317  26.417  27.833  1.00  0.00     0.064 A 
ATOM     75  C   UNL A   1      43.292  26.899  26.950  1.00  0.00     0.173 A 
ATOM     76  C   UNL A   1      41.777  25.147  27.584  1.00  0.00     0.173 A 
ATOM     77  F   UNL A   1      43.821  28.118  27.137  1.00  0.00    -0.203 F 
ATOM     78  C   UNL A   1      43.700  26.149  25.849  1.00  0.00     0.198 A 
ATOM     79  C   UNL A   1      42.203  24.387  26.496  1.00  0.00     0.198 A 
ATOM     80  F   UNL A   1      40.846  24.641  28.404  1.00  0.00    -0.203 F 
ATOM     81  F   UNL A   1      44.606  26.649  24.999  1.00  0.00    -0.200 F 
ATOM     82  C   UNL A   1      43.160  24.891  25.627  1.00  0.00     0.200 A 
ATOM     83  F   UNL A   1      41.688  23.168  26.292  1.00  0.00    -0.200 F 
ATOM     84  F   UNL A   1      43.555  24.167  24.571  1.00  0.00    -0.200 F 
ENDBRANCH  50  74
BRANCH  62  85
ATOM     85  C   UNL A   1      44.624  27.057  34.366  1.00  0.00     0.064 A 
ATOM     86  C   UNL A   1      45.904  27.626  34.414  1.00  0.00     0.173 A 
ATOM     87  C   UNL A   1      44.411  25.853  35.054  1.00  0.00     0.173 A 
ATOM     88  F   UNL A   1      46.159  28.770  33.759  1.00  0.00    -0.203 F 
ATOM     89  C   UNL A   1      46.940  26.998  35.098  1.00  0.00     0.198 A 
ATOM     90  C   UNL A   1      45.443  25.240  35.758  1.00  0.00     0.198 A 
ATOM     91  F   UNL A   1      43.202  25.272  35.044  1.00  0.00    -0.203 F 
ATOM     92  F   UNL A   1      48.169  27.534  35.089  1.00  0.00    -0.200 F 
ATOM     93  C   UNL A   1      46.709  25.808  35.773  1.00  0.00     0.200 A 
ATOM     94  F   UNL A   1      45.216  24.096  36.418  1.00  0.00    -0.200 F 
ATOM     95  F   UNL A   1      47.708  25.204  36.430  1.00  0.00    -0.200 F 
ENDBRANCH  62  85
ENDBRANCH  36  37
ENDBRANCH  28  31
ENDBRANCH  26  27
ENDBRANCH  25  26
ENDBRANCH   1  25
TORSDOF 15
ENDMDL
MODEL 3
REMARK VINA RESULT:     -11.6      1.477      2.263
REMARK SMILES COc1ncnc(N2CCSC[C@@H]2CC(=O)NCCCCNC(=O)c2ccc(-c3c4nc(c(-c5c(F)c(F)c(F)c(F)c5F)c5ccc([nH]5)c(-c5c(F)c(F)c(F)c(F)c5F)c5nc(c(-c6c(F)c(F)c(F)c(F)c6F)c6ccc3[nH]6)C=C5)C=C4)cc2)c1[N+](=O)[O-]
REMARK SMILES IDX 19 1 18 2 17 3 15 4 16 5 14 7 13 8 8 9 9 10 10 11 12 12
REMARK SMILES IDX 11 13 7 14 3 15 4 16 88 17 5 18 6 19 2 20 1 21 89 22 90 23
REMARK SMILES IDX 91 24 20 25 21 26 22 27 23 28 24 30 25 31 26 32 87 33 27 34
REMARK SMILES IDX 86 35 28 36 29 37 30 38 80 39 31 40 85 41 79 42 81 43 32 44
REMARK SMILES IDX 84 45 78 46 77 47 33 49 65 50 45 51 64 52 46 53 49 54 63 55
REMARK SMILES IDX 82 56 47 57 48 58 62 60 83 61 50 62 34 63 35 64 43 65 36 66
REMARK SMILES IDX 37 67 41 68 44 69 38 70 39 71 42 72 40 73 66 74 67 75 75 76
REMARK SMILES IDX 68 77 69 78 73 79 76 80 70 81 71 82 74 83 72 84 51 85 52 86
REMARK SMILES IDX 60 87 53 88 54 89 58 90 61 91 55 92 56 93 59 94 57 95
REMARK H PARENT 17 6 22 29 81 48 49 59
REMARK Flexibility Score: inf
ROOT
ATOM      1  C   UNL A   1      31.290  28.769  23.638  1.00  0.00     0.023 C 
ENDROOT
BRANCH   1   2
ATOM      2  C   UNL A   1      31.012  27.535  22.778  1.00  0.00     0.116 C 
BRANCH   2   3
ATOM      3  N   UNL A   1      32.177  27.029  22.079  1.00  0.00    -0.356 N 
ATOM      4  C   UNL A   1      32.723  25.783  22.038  1.00  0.00     0.222 C 
ATOM      5  O   UNL A   1      33.622  25.571  21.222  1.00  0.00    -0.275 OA
ATOM      6  H   UNL A   1      32.655  27.700  21.541  1.00  0.00     0.163 HD
BRANCH   4   7
ATOM      7  C   UNL A   1      32.237  24.679  22.947  1.00  0.00     0.126 C 
BRANCH   7   8
ATOM      8  C   UNL A   1      33.202  24.372  24.101  1.00  0.00     0.103 C 
ATOM      9  N   UNL A   1      32.870  23.097  24.783  1.00  0.00    -0.345 N 
ATOM     10  C   UNL A   1      31.659  23.046  25.617  1.00  0.00     0.129 C 
ATOM     11  C   UNL A   1      31.687  24.081  26.747  1.00  0.00     0.091 C 
ATOM     12  C   UNL A   1      33.311  25.542  25.100  1.00  0.00     0.095 C 
ATOM     13  S   UNL A   1      31.825  25.788  26.127  1.00  0.00    -0.158 SA
BRANCH   9  14
ATOM     14  C   UNL A   1      33.863  22.143  24.905  1.00  0.00     0.215 A 
ATOM     15  C   UNL A   1      34.814  19.978  24.677  1.00  0.00     0.299 A 
ATOM     16  N   UNL A   1      36.041  20.418  25.005  1.00  0.00    -0.196 NA
ATOM     17  C   UNL A   1      33.702  20.792  24.653  1.00  0.00     0.372 A 
ATOM     18  C   UNL A   1      36.116  21.722  25.281  1.00  0.00     0.228 A 
ATOM     19  N   UNL A   1      35.097  22.601  25.227  1.00  0.00    -0.212 NA
BRANCH  15  20
ATOM     20  O   UNL A   1      34.714  18.633  24.416  1.00  0.00    -0.476 OA
ATOM     21  C   UNL A   1      35.882  17.952  24.873  1.00  0.00     0.280 C 
ENDBRANCH  15  20
BRANCH  17  22
ATOM     22  N   UNL A   1      32.481  20.235  24.177  1.00  0.00     0.072 N 
ATOM     23  O   UNL A   1      31.777  19.637  25.002  1.00  0.00    -0.258 OA
ATOM     24  O   UNL A   1      32.185  20.454  22.994  1.00  0.00    -0.258 OA
ENDBRANCH  17  22
ENDBRANCH   9  14
ENDBRANCH   7   8
ENDBRANCH   4   7
ENDBRANCH   2   3
ENDBRANCH   1   2
BRANCH   1  25
ATOM     25  C   UNL A   1      32.764  29.107  23.859  1.00  0.00     0.023 C 
BRANCH  25  26
ATOM     26  C   UNL A   1      33.188  29.264  25.312  1.00  0.00     0.116 C 
BRANCH  26  27
ATOM     27  N   UNL A   1      32.756  30.534  25.867  1.00  0.00    -0.352 N 
ATOM     28  C   UNL A   1      33.254  31.275  26.908  1.00  0.00     0.251 C 
ATOM     29  H   UNL A   1      31.973  30.930  25.422  1.00  0.00     0.163 HD
ATOM     30  O   UNL A   1      32.603  32.237  27.309  1.00  0.00    -0.269 OA
BRANCH  28  31
ATOM     31  C   UNL A   1      34.545  30.946  27.562  1.00  0.00     0.039 A 
ATOM     32  C   UNL A   1      34.705  29.655  28.080  1.00  0.00     0.014 A 
ATOM     33  C   UNL A   1      35.557  31.891  27.756  1.00  0.00     0.014 A 
ATOM     34  C   UNL A   1      35.870  29.310  28.769  1.00  0.00     0.010 A 
ATOM     35  C   UNL A   1      36.751  31.527  28.381  1.00  0.00     0.010 A 
ATOM     36  C   UNL A   1      36.910  30.242  28.917  1.00  0.00    -0.014 A 
BRANCH  36  37
ATOM     37  C   UNL A   1      38.142  29.881  29.666  1.00  0.00     0.031 A 
ATOM     38  C   UNL A   1      38.366  30.403  31.060  1.00  0.00     0.074 A 
ATOM     39  C   UNL A   1      39.067  29.093  29.087  1.00  0.00     0.049 A 
ATOM     40  N   UNL A   1      39.366  30.179  31.877  1.00  0.00    -0.248 NA
ATOM     41  C   UNL A   1      37.347  31.317  31.599  1.00  0.00     0.031 C 
ATOM     42  C   UNL A   1      38.994  28.567  27.723  1.00  0.00     0.029 A 
ATOM     43  N   UNL A   1      40.248  28.593  29.575  1.00  0.00    -0.354 N 
ATOM     44  C   UNL A   1      39.103  30.931  33.014  1.00  0.00     0.074 A 
ATOM     45  C   UNL A   1      37.875  31.657  32.766  1.00  0.00     0.031 C 
ATOM     46  C   UNL A   1      40.067  27.793  27.494  1.00  0.00     0.029 A 
ATOM     47  C   UNL A   1      40.911  27.784  28.685  1.00  0.00     0.049 A 
ATOM     48  H   UNL A   1      40.588  28.796  30.476  1.00  0.00     0.167 HD
ATOM     49  C   UNL A   1      39.805  30.993  34.170  1.00  0.00     0.037 A 
ATOM     50  C   UNL A   1      42.064  27.102  28.821  1.00  0.00     0.037 A 
ATOM     51  C   UNL A   1      41.007  30.245  34.433  1.00  0.00     0.049 A 
ATOM     52  C   UNL A   1      42.801  27.153  30.130  1.00  0.00     0.074 A 
ATOM     53  C   UNL A   1      41.757  30.193  35.595  1.00  0.00     0.029 A 
ATOM     54  N   UNL A   1      41.632  29.412  33.517  1.00  0.00    -0.354 N 
ATOM     55  N   UNL A   1      42.504  27.811  31.223  1.00  0.00    -0.248 NA
ATOM     56  C   UNL A   1      44.030  26.352  30.227  1.00  0.00     0.031 C 
ATOM     57  C   UNL A   1      42.853  29.352  35.372  1.00  0.00     0.029 A 
ATOM     58  C   UNL A   1      42.765  28.851  34.083  1.00  0.00     0.049 A 
ATOM     59  H   UNL A   1      41.317  29.245  32.600  1.00  0.00     0.167 HD
ATOM     60  C   UNL A   1      43.491  27.490  32.143  1.00  0.00     0.074 A 
ATOM     61  C   UNL A   1      44.387  26.561  31.486  1.00  0.00     0.031 C 
ATOM     62  C   UNL A   1      43.644  27.926  33.416  1.00  0.00     0.037 A 
BRANCH  49  63
ATOM     63  C   UNL A   1      39.286  31.898  35.250  1.00  0.00     0.064 A 
ATOM     64  C   UNL A   1      39.568  33.272  35.254  1.00  0.00     0.173 A 
ATOM     65  C   UNL A   1      38.468  31.392  36.272  1.00  0.00     0.173 A 
ATOM     66  F   UNL A   1      40.355  33.802  34.305  1.00  0.00    -0.203 F 
ATOM     67  C   UNL A   1      39.073  34.103  36.256  1.00  0.00     0.198 A 
ATOM     68  C   UNL A   1      37.954  32.230  37.258  1.00  0.00     0.198 A 
ATOM     69  F   UNL A   1      38.164  30.086  36.312  1.00  0.00    -0.203 F 
ATOM     70  F   UNL A   1      39.393  35.404  36.264  1.00  0.00    -0.200 F 
ATOM     71  C   UNL A   1      38.261  33.583  37.252  1.00  0.00     0.200 A 
ATOM     72  F   UNL A   1      37.161  31.729  38.215  1.00  0.00    -0.200 F 
ATOM     73  F   UNL A   1      37.782  34.384  38.213  1.00  0.00    -0.200 F 
ENDBRANCH  49  63
BRANCH  50  74
ATOM     74  C   UNL A   1      42.563  26.270  27.697  1.00  0.00     0.064 A 
ATOM     75  C   UNL A   1      42.097  24.962  27.511  1.00  0.00     0.173 A 
ATOM     76  C   UNL A   1      43.511  26.763  26.789  1.00  0.00     0.173 A 
ATOM     77  F   UNL A   1      41.205  24.440  28.367  1.00  0.00    -0.203 F 
ATOM     78  C   UNL A   1      42.572  24.170  26.467  1.00  0.00     0.198 A 
ATOM     79  C   UNL A   1      43.967  25.979  25.731  1.00  0.00     0.198 A 
ATOM     80  F   UNL A   1      43.983  28.010  26.923  1.00  0.00    -0.203 F 
ATOM     81  F   UNL A   1      42.137  22.910  26.334  1.00  0.00    -0.200 F 
ATOM     82  C   UNL A   1      43.501  24.681  25.575  1.00  0.00     0.200 A 
ATOM     83  F   UNL A   1      44.857  26.481  24.864  1.00  0.00    -0.200 F 
ATOM     84  F   UNL A   1      43.955  23.922  24.569  1.00  0.00    -0.200 F 
ENDBRANCH  50  74
BRANCH  62  85
ATOM     85  C   UNL A   1      44.813  27.387  34.186  1.00  0.00     0.064 A 
ATOM     86  C   UNL A   1      46.056  28.037  34.182  1.00  0.00     0.173 A 
ATOM     87  C   UNL A   1      44.682  26.218  34.951  1.00  0.00     0.173 A 
ATOM     88  F   UNL A   1      46.233  29.150  33.453  1.00  0.00    -0.203 F 
ATOM     89  C   UNL A   1      47.135  27.520  34.892  1.00  0.00     0.198 A 
ATOM     90  C   UNL A   1      45.757  25.718  35.681  1.00  0.00     0.198 A 
ATOM     91  F   UNL A   1      43.512  25.564  34.992  1.00  0.00    -0.203 F 
ATOM     92  F   UNL A   1      48.327  28.129  34.835  1.00  0.00    -0.200 F 
ATOM     93  C   UNL A   1      46.984  26.363  35.645  1.00  0.00     0.200 A 
ATOM     94  F   UNL A   1      45.607  24.606  36.415  1.00  0.00    -0.200 F 
ATOM     95  F   UNL A   1      48.025  25.867  36.327  1.00  0.00    -0.200 F 
ENDBRANCH  62  85
ENDBRANCH  36  37
ENDBRANCH  28  31
ENDBRANCH  26  27
ENDBRANCH  25  26
ENDBRANCH   1  25
TORSDOF 15
ENDMDL
