MODEL 1
REMARK VINA RESULT:     -12.9      0.000      0.000
REMARK SMILES CS(=O)(=O)c1ccc(/C=C(/C(=O)NCCCCNC(=O)c2ccc(-c3c4nc(c(-c5c(F)c(F)c(F)c(F)c5F)c5ccc([nH]5)c(-c5c(F)c(F)c(F)c(F)c5F)c5nc(c(-c6c(F)c(F)c(F)c(F)c6F)c6ccc3[nH]6)C=C5)C=C4)cc2)c2ccccc2)cc1
REMARK SMILES IDX 15 1 14 2 13 3 11 4 12 5 10 7 9 8 8 9 5 10 6 11 91 12 7 13
REMARK SMILES IDX 90 14 2 15 1 16 3 17 4 18 84 19 85 20 89 21 86 22 88 23
REMARK SMILES IDX 87 24 16 25 17 26 18 27 19 28 20 30 21 31 22 32 83 33 23 34
REMARK SMILES IDX 82 35 24 36 25 37 26 38 76 39 27 40 81 41 75 42 77 43 28 44
REMARK SMILES IDX 80 45 74 46 73 47 29 49 61 50 41 51 60 52 42 53 45 54 59 55
REMARK SMILES IDX 78 56 43 57 44 58 58 60 79 61 46 62 30 63 31 64 39 65 32 66
REMARK SMILES IDX 33 67 37 68 40 69 34 70 35 71 38 72 36 73 62 74 63 75 71 76
REMARK SMILES IDX 64 77 65 78 69 79 72 80 66 81 67 82 70 83 68 84 47 85 48 86
REMARK SMILES IDX 56 87 49 88 50 89 54 90 57 91 51 92 52 93 55 94 53 95
REMARK H PARENT 13 6 18 29 77 48 45 59
REMARK Flexibility Score: inf
ROOT
ATOM      1  C   UNL A   1      34.788  23.768  24.491  1.00  0.00     0.023 C 
ENDROOT
BRANCH   1   2
ATOM      2  C   UNL A   1      33.448  23.035  24.387  1.00  0.00     0.116 C 
BRANCH   2   3
ATOM      3  N   UNL A   1      32.759  23.081  25.660  1.00  0.00    -0.352 N 
ATOM      4  C   UNL A   1      32.031  24.032  26.304  1.00  0.00     0.251 C 
ATOM      5  O   UNL A   1      31.646  23.731  27.437  1.00  0.00    -0.269 OA
ATOM      6  H   UNL A   1      32.834  22.243  26.169  1.00  0.00     0.163 HD
BRANCH   4   7
ATOM      7  C   UNL A   1      31.618  25.347  25.675  1.00  0.00     0.047 C 
ATOM      8  C   UNL A   1      30.909  25.406  24.524  1.00  0.00     0.022 C 
BRANCH   8   9
ATOM      9  C   UNL A   1      30.277  26.565  23.853  1.00  0.00    -0.025 A 
ATOM     10  C   UNL A   1      28.925  28.797  22.820  1.00  0.00     0.067 A 
ATOM     11  C   UNL A   1      30.313  28.711  22.706  1.00  0.00     0.021 A 
ATOM     12  C   UNL A   1      28.197  27.767  23.413  1.00  0.00     0.021 A 
ATOM     13  C   UNL A   1      30.978  27.580  23.191  1.00  0.00     0.009 A 
ATOM     14  C   UNL A   1      28.875  26.657  23.923  1.00  0.00     0.009 A 
BRANCH  10  15
ATOM     15  S   UNL A   1      28.079  30.254  22.258  1.00  0.00     0.175 S 
ATOM     16  C   UNL A   1      29.260  31.542  22.546  1.00  0.00     0.163 C 
ATOM     17  O   UNL A   1      26.947  30.475  23.133  1.00  0.00    -0.224 OA
ATOM     18  O   UNL A   1      27.897  30.118  20.822  1.00  0.00    -0.224 OA
ENDBRANCH  10  15
ENDBRANCH   8   9
BRANCH   7  19
ATOM     19  C   UNL A   1      32.184  26.580  26.281  1.00  0.00    -0.013 A 
ATOM     20  C   UNL A   1      33.511  26.923  25.969  1.00  0.00     0.009 A 
ATOM     21  C   UNL A   1      31.422  27.462  27.057  1.00  0.00     0.009 A 
ATOM     22  C   UNL A   1      34.055  28.136  26.386  1.00  0.00     0.001 A 
ATOM     23  C   UNL A   1      31.964  28.689  27.457  1.00  0.00     0.001 A 
ATOM     24  C   UNL A   1      33.275  29.027  27.114  1.00  0.00     0.000 A 
ENDBRANCH   7  19
ENDBRANCH   4   7
ENDBRANCH   2   3
ENDBRANCH   1   2
BRANCH   1  25
ATOM     25  C   UNL A   1      35.907  22.933  25.125  1.00  0.00     0.023 C 
BRANCH  25  26
ATOM     26  C   UNL A   1      37.215  23.682  25.345  1.00  0.00     0.116 C 
BRANCH  26  27
ATOM     27  N   UNL A   1      38.337  22.800  25.634  1.00  0.00    -0.352 N 
ATOM     28  C   UNL A   1      39.501  23.102  26.301  1.00  0.00     0.251 C 
ATOM     29  H   UNL A   1      38.252  21.873  25.313  1.00  0.00     0.163 HD
ATOM     30  O   UNL A   1      40.418  22.292  26.374  1.00  0.00    -0.269 OA
BRANCH  28  31
ATOM     31  C   UNL A   1      39.638  24.445  26.894  1.00  0.00     0.039 A 
ATOM     32  C   UNL A   1      39.198  24.659  28.202  1.00  0.00     0.014 A 
ATOM     33  C   UNL A   1      40.290  25.454  26.182  1.00  0.00     0.014 A 
ATOM     34  C   UNL A   1      39.487  25.872  28.829  1.00  0.00     0.010 A 
ATOM     35  C   UNL A   1      40.641  26.628  26.834  1.00  0.00     0.010 A 
ATOM     36  C   UNL A   1      40.251  26.845  28.165  1.00  0.00    -0.014 A 
BRANCH  36  37
ATOM     37  C   UNL A   1      40.666  28.105  28.833  1.00  0.00     0.031 A 
ATOM     38  C   UNL A   1      42.062  28.229  29.376  1.00  0.00     0.074 A 
ATOM     39  C   UNL A   1      39.765  29.083  29.042  1.00  0.00     0.049 A 
ATOM     40  N   UNL A   1      42.579  29.167  30.125  1.00  0.00    -0.248 NA
ATOM     41  C   UNL A   1      42.988  27.131  29.060  1.00  0.00     0.031 C 
ATOM     42  C   UNL A   1      38.373  29.065  28.594  1.00  0.00     0.029 A 
ATOM     43  N   UNL A   1      39.882  30.279  29.710  1.00  0.00    -0.354 N 
ATOM     44  C   UNL A   1      43.881  28.763  30.386  1.00  0.00     0.074 A 
ATOM     45  C   UNL A   1      44.058  27.470  29.763  1.00  0.00     0.031 C 
ATOM     46  C   UNL A   1      37.768  30.198  28.987  1.00  0.00     0.029 A 
ATOM     47  C   UNL A   1      38.713  30.999  29.759  1.00  0.00     0.049 A 
ATOM     48  H   UNL A   1      40.724  30.590  30.114  1.00  0.00     0.167 HD
ATOM     49  C   UNL A   1      44.848  29.421  31.068  1.00  0.00     0.037 A 
ATOM     50  C   UNL A   1      38.432  32.163  30.377  1.00  0.00     0.037 A 
ATOM     51  C   UNL A   1      44.670  30.717  31.667  1.00  0.00     0.049 A 
ATOM     52  C   UNL A   1      39.516  32.860  31.156  1.00  0.00     0.074 A 
ATOM     53  C   UNL A   1      45.602  31.495  32.332  1.00  0.00     0.029 A 
ATOM     54  N   UNL A   1      43.476  31.424  31.678  1.00  0.00    -0.354 N 
ATOM     55  N   UNL A   1      40.762  32.500  31.346  1.00  0.00    -0.248 NA
ATOM     56  C   UNL A   1      39.154  34.128  31.806  1.00  0.00     0.031 C 
ATOM     57  C   UNL A   1      44.959  32.647  32.793  1.00  0.00     0.029 A 
ATOM     58  C   UNL A   1      43.642  32.618  32.362  1.00  0.00     0.049 A 
ATOM     59  H   UNL A   1      42.636  31.124  31.263  1.00  0.00     0.167 HD
ATOM     60  C   UNL A   1      41.341  33.509  32.103  1.00  0.00     0.074 A 
ATOM     61  C   UNL A   1      40.313  34.501  32.333  1.00  0.00     0.031 C 
ATOM     62  C   UNL A   1      42.612  33.606  32.563  1.00  0.00     0.037 A 
BRANCH  49  63
ATOM     63  C   UNL A   1      46.183  28.749  31.207  1.00  0.00     0.064 A 
ATOM     64  C   UNL A   1      46.472  27.899  32.286  1.00  0.00     0.173 A 
ATOM     65  C   UNL A   1      47.175  28.930  30.232  1.00  0.00     0.173 A 
ATOM     66  F   UNL A   1      45.563  27.700  33.252  1.00  0.00    -0.203 F 
ATOM     67  C   UNL A   1      47.716  27.283  32.400  1.00  0.00     0.198 A 
ATOM     68  C   UNL A   1      48.405  28.284  30.331  1.00  0.00     0.198 A 
ATOM     69  F   UNL A   1      46.950  29.728  29.177  1.00  0.00    -0.203 F 
ATOM     70  F   UNL A   1      47.987  26.520  33.468  1.00  0.00    -0.200 F 
ATOM     71  C   UNL A   1      48.677  27.468  31.418  1.00  0.00     0.200 A 
ATOM     72  F   UNL A   1      49.328  28.452  29.374  1.00  0.00    -0.200 F 
ATOM     73  F   UNL A   1      49.870  26.868  31.525  1.00  0.00    -0.200 F 
ENDBRANCH  49  63
BRANCH  50  74
ATOM     74  C   UNL A   1      37.067  32.747  30.281  1.00  0.00     0.064 A 
ATOM     75  C   UNL A   1      36.122  32.538  31.296  1.00  0.00     0.173 A 
ATOM     76  C   UNL A   1      36.672  33.512  29.173  1.00  0.00     0.173 A 
ATOM     77  F   UNL A   1      36.443  31.797  32.366  1.00  0.00    -0.203 F 
ATOM     78  C   UNL A   1      34.830  33.051  31.195  1.00  0.00     0.198 A 
ATOM     79  C   UNL A   1      35.390  34.050  29.089  1.00  0.00     0.198 A 
ATOM     80  F   UNL A   1      37.538  33.746  28.176  1.00  0.00    -0.203 F 
ATOM     81  F   UNL A   1      33.932  32.791  32.156  1.00  0.00    -0.200 F 
ATOM     82  C   UNL A   1      34.466  33.811  30.094  1.00  0.00     0.200 A 
ATOM     83  F   UNL A   1      35.048  34.798  28.031  1.00  0.00    -0.200 F 
ATOM     84  F   UNL A   1      33.225  34.305  29.999  1.00  0.00    -0.200 F 
ENDBRANCH  50  74
BRANCH  62  85
ATOM     85  C   UNL A   1      42.988  34.848  33.317  1.00  0.00     0.064 A 
ATOM     86  C   UNL A   1      43.344  36.035  32.660  1.00  0.00     0.173 A 
ATOM     87  C   UNL A   1      42.919  34.869  34.719  1.00  0.00     0.173 A 
ATOM     88  F   UNL A   1      43.440  36.063  31.322  1.00  0.00    -0.203 F 
ATOM     89  C   UNL A   1      43.629  37.192  33.380  1.00  0.00     0.198 A 
ATOM     90  C   UNL A   1      43.173  36.036  35.434  1.00  0.00     0.198 A 
ATOM     91  F   UNL A   1      42.577  33.761  35.396  1.00  0.00    -0.203 F 
ATOM     92  F   UNL A   1      44.003  38.305  32.733  1.00  0.00    -0.200 F 
ATOM     93  C   UNL A   1      43.532  37.195  34.764  1.00  0.00     0.200 A 
ATOM     94  F   UNL A   1      43.062  36.040  36.768  1.00  0.00    -0.200 F 
ATOM     95  F   UNL A   1      43.787  38.316  35.453  1.00  0.00    -0.200 F 
ENDBRANCH  62  85
ENDBRANCH  36  37
ENDBRANCH  28  31
ENDBRANCH  26  27
ENDBRANCH  25  26
ENDBRANCH   1  25
TORSDOF 14
ENDMDL
MODEL 2
REMARK VINA RESULT:     -12.8      4.125      7.717
REMARK SMILES CS(=O)(=O)c1ccc(/C=C(/C(=O)NCCCCNC(=O)c2ccc(-c3c4nc(c(-c5c(F)c(F)c(F)c(F)c5F)c5ccc([nH]5)c(-c5c(F)c(F)c(F)c(F)c5F)c5nc(c(-c6c(F)c(F)c(F)c(F)c6F)c6ccc3[nH]6)C=C5)C=C4)cc2)c2ccccc2)cc1
REMARK SMILES IDX 15 1 14 2 13 3 11 4 12 5 10 7 9 8 8 9 5 10 6 11 91 12 7 13
REMARK SMILES IDX 90 14 2 15 1 16 3 17 4 18 84 19 85 20 89 21 86 22 88 23
REMARK SMILES IDX 87 24 16 25 17 26 18 27 19 28 20 30 21 31 22 32 83 33 23 34
REMARK SMILES IDX 82 35 24 36 25 37 26 38 76 39 27 40 81 41 75 42 77 43 28 44
REMARK SMILES IDX 80 45 74 46 73 47 29 49 61 50 41 51 60 52 42 53 45 54 59 55
REMARK SMILES IDX 78 56 43 57 44 58 58 60 79 61 46 62 30 63 31 64 39 65 32 66
REMARK SMILES IDX 33 67 37 68 40 69 34 70 35 71 38 72 36 73 62 74 63 75 71 76
REMARK SMILES IDX 64 77 65 78 69 79 72 80 66 81 67 82 70 83 68 84 47 85 48 86
REMARK SMILES IDX 56 87 49 88 50 89 54 90 57 91 51 92 52 93 55 94 53 95
REMARK H PARENT 13 6 18 29 77 48 45 59
REMARK Flexibility Score: inf
ROOT
ATOM      1  C   UNL A   1      32.443  27.016  26.474  1.00  0.00     0.023 C 
ENDROOT
BRANCH   1   2
ATOM      2  C   UNL A   1      31.751  25.757  25.943  1.00  0.00     0.116 C 
BRANCH   2   3
ATOM      3  N   UNL A   1      31.754  25.765  24.494  1.00  0.00    -0.352 N 
ATOM      4  C   UNL A   1      32.260  24.931  23.548  1.00  0.00     0.251 C 
ATOM      5  O   UNL A   1      32.126  25.307  22.381  1.00  0.00    -0.269 OA
ATOM      6  H   UNL A   1      31.288  26.543  24.113  1.00  0.00     0.163 HD
BRANCH   4   7
ATOM      7  C   UNL A   1      32.872  23.579  23.856  1.00  0.00     0.047 C 
ATOM      8  C   UNL A   1      32.117  22.477  24.067  1.00  0.00     0.022 C 
BRANCH   8   9
ATOM      9  C   UNL A   1      32.521  21.059  24.211  1.00  0.00    -0.025 A 
ATOM     10  C   UNL A   1      33.377  18.386  24.213  1.00  0.00     0.067 A 
ATOM     11  C   UNL A   1      33.724  19.228  25.270  1.00  0.00     0.021 A 
ATOM     12  C   UNL A   1      32.579  18.851  23.169  1.00  0.00     0.021 A 
ATOM     13  C   UNL A   1      33.265  20.548  25.282  1.00  0.00     0.009 A 
ATOM     14  C   UNL A   1      32.153  20.181  23.175  1.00  0.00     0.009 A 
BRANCH  10  15
ATOM     15  S   UNL A   1      34.002  16.724  24.162  1.00  0.00     0.175 S 
ATOM     16  C   UNL A   1      32.748  15.797  25.003  1.00  0.00     0.163 C 
ATOM     17  O   UNL A   1      35.208  16.678  24.960  1.00  0.00    -0.224 OA
ATOM     18  O   UNL A   1      34.013  16.312  22.768  1.00  0.00    -0.224 OA
ENDBRANCH  10  15
ENDBRANCH   8   9
BRANCH   7  19
ATOM     19  C   UNL A   1      34.337  23.552  24.098  1.00  0.00    -0.013 A 
ATOM     20  C   UNL A   1      34.806  23.926  25.371  1.00  0.00     0.009 A 
ATOM     21  C   UNL A   1      35.254  23.074  23.154  1.00  0.00     0.009 A 
ATOM     22  C   UNL A   1      36.150  23.786  25.709  1.00  0.00     0.001 A 
ATOM     23  C   UNL A   1      36.600  22.915  23.503  1.00  0.00     0.001 A 
ATOM     24  C   UNL A   1      37.044  23.264  24.780  1.00  0.00     0.000 A 
ENDBRANCH   7  19
ENDBRANCH   4   7
ENDBRANCH   2   3
ENDBRANCH   1   2
BRANCH   1  25
ATOM     25  C   UNL A   1      31.959  28.315  25.820  1.00  0.00     0.023 C 
BRANCH  25  26
ATOM     26  C   UNL A   1      33.014  29.409  25.718  1.00  0.00     0.116 C 
BRANCH  26  27
ATOM     27  N   UNL A   1      32.542  30.705  26.187  1.00  0.00    -0.352 N 
ATOM     28  C   UNL A   1      33.139  31.544  27.099  1.00  0.00     0.251 C 
ATOM     29  H   UNL A   1      31.691  31.019  25.804  1.00  0.00     0.163 HD
ATOM     30  O   UNL A   1      32.573  32.556  27.493  1.00  0.00    -0.269 OA
BRANCH  28  31
ATOM     31  C   UNL A   1      34.465  31.172  27.626  1.00  0.00     0.039 A 
ATOM     32  C   UNL A   1      35.456  32.151  27.725  1.00  0.00     0.014 A 
ATOM     33  C   UNL A   1      34.682  29.879  28.108  1.00  0.00     0.014 A 
ATOM     34  C   UNL A   1      36.648  31.851  28.386  1.00  0.00     0.010 A 
ATOM     35  C   UNL A   1      35.836  29.608  28.830  1.00  0.00     0.010 A 
ATOM     36  C   UNL A   1      36.826  30.593  28.984  1.00  0.00    -0.014 A 
BRANCH  36  37
ATOM     37  C   UNL A   1      38.035  30.269  29.783  1.00  0.00     0.031 A 
ATOM     38  C   UNL A   1      39.045  29.301  29.236  1.00  0.00     0.074 A 
ATOM     39  C   UNL A   1      38.169  30.760  31.029  1.00  0.00     0.049 A 
ATOM     40  N   UNL A   1      40.081  28.762  29.825  1.00  0.00    -0.248 NA
ATOM     41  C   UNL A   1      38.841  28.853  27.850  1.00  0.00     0.031 C 
ATOM     42  C   UNL A   1      37.239  31.681  31.683  1.00  0.00     0.029 A 
ATOM     43  N   UNL A   1      39.133  30.532  31.982  1.00  0.00    -0.354 N 
ATOM     44  C   UNL A   1      40.637  27.899  28.892  1.00  0.00     0.074 A 
ATOM     45  C   UNL A   1      39.794  27.943  27.717  1.00  0.00     0.031 C 
ATOM     46  C   UNL A   1      37.681  31.949  32.922  1.00  0.00     0.029 A 
ATOM     47  C   UNL A   1      38.897  31.180  33.170  1.00  0.00     0.049 A 
ATOM     48  H   UNL A   1      39.918  29.959  31.827  1.00  0.00     0.167 HD
ATOM     49  C   UNL A   1      41.761  27.152  28.998  1.00  0.00     0.037 A 
ATOM     50  C   UNL A   1      39.574  31.139  34.335  1.00  0.00     0.037 A 
ATOM     51  C   UNL A   1      42.606  27.131  30.162  1.00  0.00     0.049 A 
ATOM     52  C   UNL A   1      40.803  30.276  34.437  1.00  0.00     0.074 A 
ATOM     53  C   UNL A   1      43.796  26.452  30.351  1.00  0.00     0.029 A 
ATOM     54  N   UNL A   1      42.344  27.816  31.340  1.00  0.00    -0.354 N 
ATOM     55  N   UNL A   1      41.356  29.510  33.529  1.00  0.00    -0.248 NA
ATOM     56  C   UNL A   1      41.505  30.272  35.730  1.00  0.00     0.031 C 
ATOM     57  C   UNL A   1      44.227  26.681  31.660  1.00  0.00     0.029 A 
ATOM     58  C   UNL A   1      43.339  27.555  32.268  1.00  0.00     0.049 A 
ATOM     59  H   UNL A   1      41.568  28.402  31.494  1.00  0.00     0.167 HD
ATOM     60  C   UNL A   1      42.486  28.964  34.123  1.00  0.00     0.074 A 
ATOM     61  C   UNL A   1      42.545  29.491  35.470  1.00  0.00     0.031 C 
ATOM     62  C   UNL A   1      43.394  28.106  33.599  1.00  0.00     0.037 A 
BRANCH  49  63
ATOM     63  C   UNL A   1      42.140  26.294  27.826  1.00  0.00     0.064 A 
ATOM     64  C   UNL A   1      43.024  26.747  26.835  1.00  0.00     0.173 A 
ATOM     65  C   UNL A   1      41.639  24.988  27.709  1.00  0.00     0.173 A 
ATOM     66  F   UNL A   1      43.524  27.990  26.892  1.00  0.00    -0.203 F 
ATOM     67  C   UNL A   1      43.365  25.937  25.754  1.00  0.00     0.198 A 
ATOM     68  C   UNL A   1      42.010  24.169  26.646  1.00  0.00     0.198 A 
ATOM     69  F   UNL A   1      40.794  24.503  28.632  1.00  0.00    -0.203 F 
ATOM     70  F   UNL A   1      44.168  26.412  24.792  1.00  0.00    -0.200 F 
ATOM     71  C   UNL A   1      42.865  24.647  25.666  1.00  0.00     0.200 A 
ATOM     72  F   UNL A   1      41.538  22.917  26.570  1.00  0.00    -0.200 F 
ATOM     73  F   UNL A   1      43.202  23.867  24.630  1.00  0.00    -0.200 F 
ENDBRANCH  49  63
BRANCH  50  74
ATOM     74  C   UNL A   1      39.109  31.944  35.496  1.00  0.00     0.064 A 
ATOM     75  C   UNL A   1      38.310  31.369  36.495  1.00  0.00     0.173 A 
ATOM     76  C   UNL A   1      39.437  33.301  35.627  1.00  0.00     0.173 A 
ATOM     77  F   UNL A   1      37.951  30.080  36.406  1.00  0.00    -0.203 F 
ATOM     78  C   UNL A   1      37.840  32.126  37.567  1.00  0.00     0.198 A 
ATOM     79  C   UNL A   1      38.992  34.049  36.716  1.00  0.00     0.198 A 
ATOM     80  F   UNL A   1      40.202  33.900  34.703  1.00  0.00    -0.203 F 
ATOM     81  F   UNL A   1      37.036  31.563  38.480  1.00  0.00    -0.200 F 
ATOM     82  C   UNL A   1      38.185  33.464  37.680  1.00  0.00     0.200 A 
ATOM     83  F   UNL A   1      39.343  35.337  36.829  1.00  0.00    -0.200 F 
ATOM     84  F   UNL A   1      37.735  34.190  38.711  1.00  0.00    -0.200 F 
ENDBRANCH  50  74
BRANCH  62  85
ATOM     85  C   UNL A   1      44.564  27.718  34.456  1.00  0.00     0.064 A 
ATOM     86  C   UNL A   1      45.734  28.489  34.505  1.00  0.00     0.173 A 
ATOM     87  C   UNL A   1      44.479  26.596  35.296  1.00  0.00     0.173 A 
ATOM     88  F   UNL A   1      45.870  29.561  33.711  1.00  0.00    -0.203 F 
ATOM     89  C   UNL A   1      46.782  28.143  35.355  1.00  0.00     0.198 A 
ATOM     90  C   UNL A   1      45.515  26.272  36.168  1.00  0.00     0.198 A 
ATOM     91  F   UNL A   1      43.378  25.829  35.292  1.00  0.00    -0.203 F 
ATOM     92  F   UNL A   1      47.906  28.872  35.360  1.00  0.00    -0.200 F 
ATOM     93  C   UNL A   1      46.667  27.043  36.193  1.00  0.00     0.200 A 
ATOM     94  F   UNL A   1      45.394  25.220  36.988  1.00  0.00    -0.200 F 
ATOM     95  F   UNL A   1      47.669  26.724  37.024  1.00  0.00    -0.200 F 
ENDBRANCH  62  85
ENDBRANCH  36  37
ENDBRANCH  28  31
ENDBRANCH  26  27
ENDBRANCH  25  26
ENDBRANCH   1  25
TORSDOF 14
ENDMDL
MODEL 3
REMARK VINA RESULT:     -12.6      4.553      7.299
REMARK SMILES CS(=O)(=O)c1ccc(/C=C(/C(=O)NCCCCNC(=O)c2ccc(-c3c4nc(c(-c5c(F)c(F)c(F)c(F)c5F)c5ccc([nH]5)c(-c5c(F)c(F)c(F)c(F)c5F)c5nc(c(-c6c(F)c(F)c(F)c(F)c6F)c6ccc3[nH]6)C=C5)C=C4)cc2)c2ccccc2)cc1
REMARK SMILES IDX 15 1 14 2 13 3 11 4 12 5 10 7 9 8 8 9 5 10 6 11 91 12 7 13
REMARK SMILES IDX 90 14 2 15 1 16 3 17 4 18 84 19 85 20 89 21 86 22 88 23
REMARK SMILES IDX 87 24 16 25 17 26 18 27 19 28 20 30 21 31 22 32 83 33 23 34
REMARK SMILES IDX 82 35 24 36 25 37 26 38 76 39 27 40 81 41 75 42 77 43 28 44
REMARK SMILES IDX 80 45 74 46 73 47 29 49 61 50 41 51 60 52 42 53 45 54 59 55
REMARK SMILES IDX 78 56 43 57 44 58 58 60 79 61 46 62 30 63 31 64 39 65 32 66
REMARK SMILES IDX 33 67 37 68 40 69 34 70 35 71 38 72 36 73 62 74 63 75 71 76
REMARK SMILES IDX 64 77 65 78 69 79 72 80 66 81 67 82 70 83 68 84 47 85 48 86
REMARK SMILES IDX 56 87 49 88 50 89 54 90 57 91 51 92 52 93 55 94 53 95
REMARK H PARENT 13 6 18 29 77 48 45 59
REMARK Flexibility Score: inf
ROOT
ATOM      1  C   UNL A   1      42.278  20.290  26.173  1.00  0.00     0.023 C 
ENDROOT
BRANCH   1   2
ATOM      2  C   UNL A   1      42.833  21.478  25.382  1.00  0.00     0.116 C 
BRANCH   2   3
ATOM      3  N   UNL A   1      44.280  21.420  25.354  1.00  0.00    -0.352 N 
ATOM      4  C   UNL A   1      45.265  22.310  25.650  1.00  0.00     0.251 C 
ATOM      5  O   UNL A   1      46.415  21.920  25.434  1.00  0.00    -0.269 OA
ATOM      6  H   UNL A   1      44.625  20.549  25.056  1.00  0.00     0.163 HD
BRANCH   4   7
ATOM      7  C   UNL A   1      45.016  23.660  26.291  1.00  0.00     0.047 C 
ATOM      8  C   UNL A   1      45.449  24.814  25.733  1.00  0.00     0.022 C 
BRANCH   8   9
ATOM      9  C   UNL A   1      45.165  26.219  26.108  1.00  0.00    -0.025 A 
ATOM     10  C   UNL A   1      44.890  28.942  26.726  1.00  0.00     0.067 A 
ATOM     11  C   UNL A   1      43.878  28.282  26.029  1.00  0.00     0.021 A 
ATOM     12  C   UNL A   1      46.026  28.253  27.149  1.00  0.00     0.021 A 
ATOM     13  C   UNL A   1      44.004  26.917  25.755  1.00  0.00     0.009 A 
ATOM     14  C   UNL A   1      46.156  26.897  26.842  1.00  0.00     0.009 A 
BRANCH  10  15
ATOM     15  S   UNL A   1      44.765  30.688  27.029  1.00  0.00     0.175 S 
ATOM     16  C   UNL A   1      46.373  31.289  26.592  1.00  0.00     0.163 C 
ATOM     17  O   UNL A   1      44.583  30.879  28.452  1.00  0.00    -0.224 OA
ATOM     18  O   UNL A   1      43.806  31.222  26.076  1.00  0.00    -0.224 OA
ENDBRANCH  10  15
ENDBRANCH   8   9
BRANCH   7  19
ATOM     19  C   UNL A   1      44.432  23.651  27.656  1.00  0.00    -0.013 A 
ATOM     20  C   UNL A   1      43.031  23.632  27.778  1.00  0.00     0.009 A 
ATOM     21  C   UNL A   1      45.212  23.554  28.815  1.00  0.00     0.009 A 
ATOM     22  C   UNL A   1      42.421  23.478  29.021  1.00  0.00     0.001 A 
ATOM     23  C   UNL A   1      44.598  23.378  30.060  1.00  0.00     0.001 A 
ATOM     24  C   UNL A   1      43.206  23.333  30.160  1.00  0.00     0.000 A 
ENDBRANCH   7  19
ENDBRANCH   4   7
ENDBRANCH   2   3
ENDBRANCH   1   2
BRANCH   1  25
ATOM     25  C   UNL A   1      40.763  20.348  26.403  1.00  0.00     0.023 C 
BRANCH  25  26
ATOM     26  C   UNL A   1      40.241  21.702  26.870  1.00  0.00     0.116 C 
BRANCH  26  27
ATOM     27  N   UNL A   1      39.137  22.198  26.061  1.00  0.00    -0.352 N 
ATOM     28  C   UNL A   1      38.622  23.473  26.023  1.00  0.00     0.251 C 
ATOM     29  H   UNL A   1      38.706  21.542  25.468  1.00  0.00     0.163 HD
ATOM     30  O   UNL A   1      37.611  23.729  25.380  1.00  0.00    -0.269 OA
BRANCH  28  31
ATOM     31  C   UNL A   1      39.294  24.522  26.812  1.00  0.00     0.039 A 
ATOM     32  C   UNL A   1      40.152  25.414  26.166  1.00  0.00     0.014 A 
ATOM     33  C   UNL A   1      38.992  24.670  28.168  1.00  0.00     0.014 A 
ATOM     34  C   UNL A   1      40.648  26.514  26.869  1.00  0.00     0.010 A 
ATOM     35  C   UNL A   1      39.426  25.804  28.840  1.00  0.00     0.010 A 
ATOM     36  C   UNL A   1      40.250  26.741  28.196  1.00  0.00    -0.014 A 
BRANCH  36  37
ATOM     37  C   UNL A   1      40.674  27.951  28.944  1.00  0.00     0.031 A 
ATOM     38  C   UNL A   1      42.047  28.002  29.552  1.00  0.00     0.074 A 
ATOM     39  C   UNL A   1      39.796  28.949  29.162  1.00  0.00     0.049 A 
ATOM     40  N   UNL A   1      42.559  28.884  30.370  1.00  0.00    -0.248 NA
ATOM     41  C   UNL A   1      42.952  26.890  29.222  1.00  0.00     0.031 C 
ATOM     42  C   UNL A   1      38.426  28.999  28.653  1.00  0.00     0.029 A 
ATOM     43  N   UNL A   1      39.920  30.106  29.893  1.00  0.00    -0.354 N 
ATOM     44  C   UNL A   1      43.834  28.425  30.667  1.00  0.00     0.074 A 
ATOM     45  C   UNL A   1      43.999  27.158  29.987  1.00  0.00     0.031 C 
ATOM     46  C   UNL A   1      37.839  30.131  29.076  1.00  0.00     0.029 A 
ATOM     47  C   UNL A   1      38.773  30.861  29.928  1.00  0.00     0.049 A 
ATOM     48  H   UNL A   1      40.753  30.368  30.349  1.00  0.00     0.167 HD
ATOM     49  C   UNL A   1      44.790  29.016  31.423  1.00  0.00     0.037 A 
ATOM     50  C   UNL A   1      38.501  32.002  30.591  1.00  0.00     0.037 A 
ATOM     51  C   UNL A   1      44.626  30.286  32.078  1.00  0.00     0.049 A 
ATOM     52  C   UNL A   1      39.570  32.624  31.450  1.00  0.00     0.074 A 
ATOM     53  C   UNL A   1      45.550  30.999  32.821  1.00  0.00     0.029 A 
ATOM     54  N   UNL A   1      43.456  31.031  32.072  1.00  0.00    -0.354 N 
ATOM     55  N   UNL A   1      40.794  32.213  31.676  1.00  0.00    -0.248 NA
ATOM     56  C   UNL A   1      39.220  33.870  32.147  1.00  0.00     0.031 C 
ATOM     57  C   UNL A   1      44.924  32.147  33.311  1.00  0.00     0.029 A 
ATOM     58  C   UNL A   1      43.628  32.185  32.821  1.00  0.00     0.049 A 
ATOM     59  H   UNL A   1      42.626  30.780  31.606  1.00  0.00     0.167 HD
ATOM     60  C   UNL A   1      41.370  33.164  32.507  1.00  0.00     0.074 A 
ATOM     61  C   UNL A   1      40.364  34.178  32.741  1.00  0.00     0.031 C 
ATOM     62  C   UNL A   1      42.621  33.195  33.027  1.00  0.00     0.037 A 
BRANCH  49  63
ATOM     63  C   UNL A   1      46.095  28.293  31.586  1.00  0.00     0.064 A 
ATOM     64  C   UNL A   1      46.258  27.270  32.533  1.00  0.00     0.173 A 
ATOM     65  C   UNL A   1      47.188  28.604  30.763  1.00  0.00     0.173 A 
ATOM     66  F   UNL A   1      45.249  26.939  33.352  1.00  0.00    -0.203 F 
ATOM     67  C   UNL A   1      47.477  26.608  32.671  1.00  0.00     0.198 A 
ATOM     68  C   UNL A   1      48.394  27.916  30.880  1.00  0.00     0.198 A 
ATOM     69  F   UNL A   1      47.086  29.570  29.838  1.00  0.00    -0.203 F 
ATOM     70  F   UNL A   1      47.624  25.673  33.620  1.00  0.00    -0.200 F 
ATOM     71  C   UNL A   1      48.539  26.926  31.839  1.00  0.00     0.200 A 
ATOM     72  F   UNL A   1      49.415  28.214  30.066  1.00  0.00    -0.200 F 
ATOM     73  F   UNL A   1      49.707  26.283  31.968  1.00  0.00    -0.200 F 
ENDBRANCH  49  63
BRANCH  50  74
ATOM     74  C   UNL A   1      37.161  32.636  30.464  1.00  0.00     0.064 A 
ATOM     75  C   UNL A   1      36.162  32.402  31.420  1.00  0.00     0.173 A 
ATOM     76  C   UNL A   1      36.845  33.475  29.385  1.00  0.00     0.173 A 
ATOM     77  F   UNL A   1      36.408  31.592  32.460  1.00  0.00    -0.203 F 
ATOM     78  C   UNL A   1      34.893  32.962  31.289  1.00  0.00     0.198 A 
ATOM     79  C   UNL A   1      35.585  34.059  29.272  1.00  0.00     0.198 A 
ATOM     80  F   UNL A   1      37.764  33.736  28.445  1.00  0.00    -0.203 F 
ATOM     81  F   UNL A   1      33.942  32.680  32.190  1.00  0.00    -0.200 F 
ATOM     82  C   UNL A   1      34.606  33.795  30.218  1.00  0.00     0.200 A 
ATOM     83  F   UNL A   1      35.318  34.876  28.244  1.00  0.00    -0.200 F 
ATOM     84  F   UNL A   1      33.387  34.335  30.093  1.00  0.00    -0.200 F 
ENDBRANCH  50  74
BRANCH  62  85
ATOM     85  C   UNL A   1      43.002  34.386  33.858  1.00  0.00     0.064 A 
ATOM     86  C   UNL A   1      43.436  35.587  33.278  1.00  0.00     0.173 A 
ATOM     87  C   UNL A   1      42.858  34.345  35.254  1.00  0.00     0.173 A 
ATOM     88  F   UNL A   1      43.604  35.672  31.949  1.00  0.00    -0.203 F 
ATOM     89  C   UNL A   1      43.724  36.698  34.066  1.00  0.00     0.198 A 
ATOM     90  C   UNL A   1      43.116  35.467  36.036  1.00  0.00     0.198 A 
ATOM     91  F   UNL A   1      42.440  33.222  35.858  1.00  0.00    -0.203 F 
ATOM     92  F   UNL A   1      44.172  37.824  33.494  1.00  0.00    -0.200 F 
ATOM     93  C   UNL A   1      43.553  36.641  35.442  1.00  0.00     0.200 A 
ATOM     94  F   UNL A   1      42.934  35.414  37.362  1.00  0.00    -0.200 F 
ATOM     95  F   UNL A   1      43.812  37.718  36.196  1.00  0.00    -0.200 F 
ENDBRANCH  62  85
ENDBRANCH  36  37
ENDBRANCH  28  31
ENDBRANCH  26  27
ENDBRANCH  25  26
ENDBRANCH   1  25
TORSDOF 14
ENDMDL
