MODEL 1
REMARK VINA RESULT:     -13.0      0.000      0.000
REMARK SMILES O=C(NCCCCNC(=O)[C@H]1CC[C@H](CN2C(=O)c3cccnc3C2=O)O1)c1ccc(-c2c3nc(c(-c4c(F)c(F)c(F)c(F)c4F)c4ccc([nH]4)c(-c4c(F)c(F)c(F)c(F)c4F)c4nc(c(-c5c(F)c(F)c(F)c(F)c5F)c5ccc2[nH]5)C=C4)C=C3)cc1
REMARK SMILES IDX 5 1 4 2 3 3 1 4 2 5 28 7 29 8 90 9 30 10 89 11 31 12 32 13
REMARK SMILES IDX 33 14 83 15 34 16 88 17 82 18 84 19 35 20 87 21 81 22 80 23
REMARK SMILES IDX 36 25 68 26 48 27 67 28 49 29 52 30 66 31 85 32 50 33 51 34
REMARK SMILES IDX 65 36 86 37 53 38 37 39 38 40 46 41 39 42 40 43 44 44 47 45
REMARK SMILES IDX 41 46 42 47 45 48 43 49 69 50 70 51 78 52 71 53 72 54 76 55
REMARK SMILES IDX 79 56 73 57 74 58 77 59 75 60 54 61 55 62 63 63 56 64 57 65
REMARK SMILES IDX 61 66 64 67 58 68 59 69 62 70 60 71 6 72 7 73 8 74 9 75
REMARK SMILES IDX 10 77 11 78 12 79 27 80 13 81 14 82 15 83 16 84 17 85 25 86
REMARK SMILES IDX 18 87 19 88 24 89 26 90 20 91 23 92 21 93 22 94
REMARK H PARENT 3 6 84 24 52 35 8 76
REMARK Flexibility Score: inf
ROOT
ATOM      1  C   UNL A   1      31.553  32.070  26.747  1.00  0.00     0.023 C 
ENDROOT
BRANCH   1   2
ATOM      2  C   UNL A   1      32.760  32.847  27.254  1.00  0.00     0.116 C 
BRANCH   2   3
ATOM      3  N   UNL A   1      32.440  34.212  27.652  1.00  0.00    -0.352 N 
ATOM      4  O   UNL A   1      32.512  36.078  28.926  1.00  0.00    -0.269 OA
ATOM      5  C   UNL A   1      33.000  34.990  28.639  1.00  0.00     0.251 C 
ATOM      6  H   UNL A   1      31.718  34.640  27.139  1.00  0.00     0.163 HD
BRANCH   5   7
ATOM      7  C   UNL A   1      34.175  34.486  29.381  1.00  0.00     0.039 A 
ATOM      8  C   UNL A   1      35.456  34.641  28.854  1.00  0.00     0.014 A 
ATOM      9  C   UNL A   1      33.989  33.807  30.588  1.00  0.00     0.014 A 
ATOM     10  C   UNL A   1      36.514  33.937  29.410  1.00  0.00     0.010 A 
ATOM     11  C   UNL A   1      35.083  33.206  31.218  1.00  0.00     0.010 A 
ATOM     12  C   UNL A   1      36.347  33.223  30.608  1.00  0.00    -0.014 A 
BRANCH  12  13
ATOM     13  C   UNL A   1      37.526  32.549  31.212  1.00  0.00     0.031 A 
ATOM     14  C   UNL A   1      38.007  32.894  32.595  1.00  0.00     0.074 A 
ATOM     15  C   UNL A   1      38.137  31.576  30.509  1.00  0.00     0.049 A 
ATOM     16  N   UNL A   1      38.992  32.367  33.281  1.00  0.00    -0.248 NA
ATOM     17  C   UNL A   1      37.303  33.977  33.299  1.00  0.00     0.031 C 
ATOM     18  C   UNL A   1      37.764  31.156  29.156  1.00  0.00     0.029 A 
ATOM     19  N   UNL A   1      39.176  30.744  30.837  1.00  0.00    -0.354 N 
ATOM     20  C   UNL A   1      39.042  33.067  34.480  1.00  0.00     0.074 A 
ATOM     21  C   UNL A   1      38.006  34.078  34.418  1.00  0.00     0.031 C 
ATOM     22  C   UNL A   1      38.513  30.106  28.797  1.00  0.00     0.029 A 
ATOM     23  C   UNL A   1      39.474  29.831  29.857  1.00  0.00     0.049 A 
ATOM     24  H   UNL A   1      39.661  30.797  31.692  1.00  0.00     0.167 HD
ATOM     25  C   UNL A   1      39.871  32.878  35.537  1.00  0.00     0.037 A 
ATOM     26  C   UNL A   1      40.429  28.884  29.805  1.00  0.00     0.037 A 
ATOM     27  C   UNL A   1      40.890  31.859  35.594  1.00  0.00     0.049 A 
ATOM     28  C   UNL A   1      41.358  28.727  30.974  1.00  0.00     0.074 A 
ATOM     29  C   UNL A   1      41.751  31.556  36.635  1.00  0.00     0.029 A 
ATOM     30  N   UNL A   1      41.197  30.984  34.560  1.00  0.00    -0.354 N 
ATOM     31  N   UNL A   1      41.364  29.363  32.119  1.00  0.00    -0.248 NA
ATOM     32  C   UNL A   1      42.414  27.717  30.840  1.00  0.00     0.031 C 
ATOM     33  C   UNL A   1      42.622  30.549  36.207  1.00  0.00     0.029 A 
ATOM     34  C   UNL A   1      42.257  30.167  34.927  1.00  0.00     0.049 A 
ATOM     35  H   UNL A   1      40.731  30.949  33.694  1.00  0.00     0.167 HD
ATOM     36  C   UNL A   1      42.404  28.811  32.855  1.00  0.00     0.074 A 
ATOM     37  C   UNL A   1      42.990  27.774  32.031  1.00  0.00     0.031 C 
ATOM     38  C   UNL A   1      42.831  29.136  34.100  1.00  0.00     0.037 A 
BRANCH  25  39
ATOM     39  C   UNL A   1      39.740  33.813  36.708  1.00  0.00     0.064 A 
ATOM     40  C   UNL A   1      40.396  35.053  36.751  1.00  0.00     0.173 A 
ATOM     41  C   UNL A   1      38.913  33.477  37.793  1.00  0.00     0.173 A 
ATOM     42  F   UNL A   1      41.204  35.425  35.747  1.00  0.00    -0.203 F 
ATOM     43  C   UNL A   1      40.256  35.903  37.847  1.00  0.00     0.198 A 
ATOM     44  C   UNL A   1      38.747  34.345  38.870  1.00  0.00     0.198 A 
ATOM     45  F   UNL A   1      38.252  32.309  37.804  1.00  0.00    -0.203 F 
ATOM     46  F   UNL A   1      40.937  37.056  37.890  1.00  0.00    -0.200 F 
ATOM     47  C   UNL A   1      39.427  35.551  38.901  1.00  0.00     0.200 A 
ATOM     48  F   UNL A   1      37.931  34.010  39.879  1.00  0.00    -0.200 F 
ATOM     49  F   UNL A   1      39.289  36.373  39.952  1.00  0.00    -0.200 F 
ENDBRANCH  25  39
BRANCH  26  50
ATOM     50  C   UNL A   1      40.548  28.016  28.604  1.00  0.00     0.064 A 
ATOM     51  C   UNL A   1      41.320  28.412  27.505  1.00  0.00     0.173 A 
ATOM     52  C   UNL A   1      39.896  26.776  28.533  1.00  0.00     0.173 A 
ATOM     53  F   UNL A   1      41.950  29.596  27.519  1.00  0.00    -0.203 F 
ATOM     54  C   UNL A   1      41.417  27.612  26.368  1.00  0.00     0.198 A 
ATOM     55  C   UNL A   1      40.024  25.960  27.411  1.00  0.00     0.198 A 
ATOM     56  F   UNL A   1      39.152  26.345  29.562  1.00  0.00    -0.203 F 
ATOM     57  F   UNL A   1      42.119  28.037  25.310  1.00  0.00    -0.200 F 
ATOM     58  C   UNL A   1      40.775  26.383  26.326  1.00  0.00     0.200 A 
ATOM     59  F   UNL A   1      39.420  24.764  27.384  1.00  0.00    -0.200 F 
ATOM     60  F   UNL A   1      40.873  25.610  25.236  1.00  0.00    -0.200 F 
ENDBRANCH  26  50
BRANCH  38  61
ATOM     61  C   UNL A   1      43.960  28.320  34.667  1.00  0.00     0.064 A 
ATOM     62  C   UNL A   1      45.301  28.707  34.528  1.00  0.00     0.173 A 
ATOM     63  C   UNL A   1      43.691  27.136  35.371  1.00  0.00     0.173 A 
ATOM     64  F   UNL A   1      45.615  29.822  33.850  1.00  0.00    -0.203 F 
ATOM     65  C   UNL A   1      46.332  27.919  35.036  1.00  0.00     0.198 A 
ATOM     66  C   UNL A   1      44.720  26.371  35.912  1.00  0.00     0.198 A 
ATOM     67  F   UNL A   1      42.426  26.721  35.540  1.00  0.00    -0.203 F 
ATOM     68  F   UNL A   1      47.607  28.274  34.829  1.00  0.00    -0.200 F 
ATOM     69  C   UNL A   1      46.040  26.757  35.733  1.00  0.00     0.200 A 
ATOM     70  F   UNL A   1      44.436  25.257  36.600  1.00  0.00    -0.200 F 
ATOM     71  F   UNL A   1      47.032  26.001  36.223  1.00  0.00    -0.200 F 
ENDBRANCH  38  61
ENDBRANCH  12  13
ENDBRANCH   5   7
ENDBRANCH   2   3
ENDBRANCH   1   2
BRANCH   1  72
ATOM     72  C   UNL A   1      31.722  30.555  26.741  1.00  0.00     0.023 C 
BRANCH  72  73
ATOM     73  C   UNL A   1      33.164  30.074  26.690  1.00  0.00     0.116 C 
BRANCH  73  74
ATOM     74  N   UNL A   1      33.559  29.599  25.378  1.00  0.00    -0.354 N 
ATOM     75  C   UNL A   1      33.729  28.304  24.965  1.00  0.00     0.249 C 
ATOM     76  H   UNL A   1      33.725  30.294  24.701  1.00  0.00     0.163 HD
ATOM     77  O   UNL A   1      33.992  28.103  23.779  1.00  0.00    -0.272 OA
BRANCH  75  78
ATOM     78  C   UNL A   1      33.575  27.175  26.007  1.00  0.00     0.207 C 
ATOM     79  C   UNL A   1      32.121  26.741  26.126  1.00  0.00     0.045 C 
ATOM     80  O   UNL A   1      34.312  25.990  25.670  1.00  0.00    -0.363 OA
ATOM     81  C   UNL A   1      32.044  25.652  25.092  1.00  0.00     0.037 C 
ATOM     82  C   UNL A   1      33.391  24.962  25.252  1.00  0.00     0.139 C 
BRANCH  82  83
ATOM     83  C   UNL A   1      33.400  23.840  26.311  1.00  0.00     0.161 C 
BRANCH  83  84
ATOM     84  N   UNL A   1      33.436  22.516  25.719  1.00  0.00    -0.270 N 
ATOM     85  C   UNL A   1      34.586  21.824  25.454  1.00  0.00     0.263 C 
ATOM     86  C   UNL A   1      32.319  21.748  25.517  1.00  0.00     0.280 C 
ATOM     87  O   UNL A   1      35.742  22.170  25.588  1.00  0.00    -0.269 OA
ATOM     88  C   UNL A   1      34.181  20.487  25.041  1.00  0.00     0.071 A 
ATOM     89  C   UNL A   1      32.808  20.434  25.080  1.00  0.00     0.141 A 
ATOM     90  O   UNL A   1      31.158  22.056  25.715  1.00  0.00    -0.267 OA
ATOM     91  C   UNL A   1      34.909  19.356  24.740  1.00  0.00     0.018 A 
ATOM     92  N   UNL A   1      32.059  19.340  24.858  1.00  0.00    -0.250 NA
ATOM     93  C   UNL A   1      34.178  18.192  24.491  1.00  0.00     0.021 A 
ATOM     94  C   UNL A   1      32.779  18.231  24.562  1.00  0.00     0.112 A 
ENDBRANCH  83  84
ENDBRANCH  82  83
ENDBRANCH  75  78
ENDBRANCH  73  74
ENDBRANCH  72  73
ENDBRANCH   1  72
TORSDOF 13
ENDMDL
MODEL 2
REMARK VINA RESULT:     -13.0      1.828      2.791
REMARK SMILES O=C(NCCCCNC(=O)[C@H]1CC[C@H](CN2C(=O)c3cccnc3C2=O)O1)c1ccc(-c2c3nc(c(-c4c(F)c(F)c(F)c(F)c4F)c4ccc([nH]4)c(-c4c(F)c(F)c(F)c(F)c4F)c4nc(c(-c5c(F)c(F)c(F)c(F)c5F)c5ccc2[nH]5)C=C4)C=C3)cc1
REMARK SMILES IDX 5 1 4 2 3 3 1 4 2 5 28 7 29 8 90 9 30 10 89 11 31 12 32 13
REMARK SMILES IDX 33 14 83 15 34 16 88 17 82 18 84 19 35 20 87 21 81 22 80 23
REMARK SMILES IDX 36 25 68 26 48 27 67 28 49 29 52 30 66 31 85 32 50 33 51 34
REMARK SMILES IDX 65 36 86 37 53 38 37 39 38 40 46 41 39 42 40 43 44 44 47 45
REMARK SMILES IDX 41 46 42 47 45 48 43 49 69 50 70 51 78 52 71 53 72 54 76 55
REMARK SMILES IDX 79 56 73 57 74 58 77 59 75 60 54 61 55 62 63 63 56 64 57 65
REMARK SMILES IDX 61 66 64 67 58 68 59 69 62 70 60 71 6 72 7 73 8 74 9 75
REMARK SMILES IDX 10 77 11 78 12 79 27 80 13 81 14 82 15 83 16 84 17 85 25 86
REMARK SMILES IDX 18 87 19 88 24 89 26 90 20 91 23 92 21 93 22 94
REMARK H PARENT 3 6 84 24 52 35 8 76
REMARK Flexibility Score: inf
ROOT
ATOM      1  C   UNL A   1      31.875  28.610  25.207  1.00  0.00     0.023 C 
ENDROOT
BRANCH   1   2
ATOM      2  C   UNL A   1      33.018  29.559  25.539  1.00  0.00     0.116 C 
BRANCH   2   3
ATOM      3  N   UNL A   1      32.568  30.826  26.101  1.00  0.00    -0.352 N 
ATOM      4  O   UNL A   1      32.541  32.570  27.540  1.00  0.00    -0.269 OA
ATOM      5  C   UNL A   1      33.132  31.591  27.097  1.00  0.00     0.251 C 
ATOM      6  H   UNL A   1      31.741  31.189  25.711  1.00  0.00     0.163 HD
BRANCH   5   7
ATOM      7  C   UNL A   1      34.441  31.199  27.659  1.00  0.00     0.039 A 
ATOM      8  C   UNL A   1      34.645  29.899  28.120  1.00  0.00     0.014 A 
ATOM      9  C   UNL A   1      35.456  32.152  27.773  1.00  0.00     0.014 A 
ATOM     10  C   UNL A   1      35.766  29.613  28.885  1.00  0.00     0.010 A 
ATOM     11  C   UNL A   1      36.644  31.822  28.433  1.00  0.00     0.010 A 
ATOM     12  C   UNL A   1      36.788  30.564  29.039  1.00  0.00    -0.014 A 
BRANCH  12  13
ATOM     13  C   UNL A   1      38.010  30.189  29.800  1.00  0.00     0.031 A 
ATOM     14  C   UNL A   1      38.220  30.635  31.220  1.00  0.00     0.074 A 
ATOM     15  C   UNL A   1      38.916  29.392  29.202  1.00  0.00     0.049 A 
ATOM     16  N   UNL A   1      39.208  30.357  32.035  1.00  0.00    -0.248 NA
ATOM     17  C   UNL A   1      37.197  31.518  31.805  1.00  0.00     0.031 C 
ATOM     18  C   UNL A   1      38.824  28.899  27.825  1.00  0.00     0.029 A 
ATOM     19  N   UNL A   1      40.074  28.832  29.676  1.00  0.00    -0.354 N 
ATOM     20  C   UNL A   1      38.942  31.046  33.212  1.00  0.00     0.074 A 
ATOM     21  C   UNL A   1      37.712  31.780  32.998  1.00  0.00     0.031 C 
ATOM     22  C   UNL A   1      39.840  28.059  27.589  1.00  0.00     0.029 A 
ATOM     23  C   UNL A   1      40.700  28.018  28.764  1.00  0.00     0.049 A 
ATOM     24  H   UNL A   1      40.423  28.996  30.581  1.00  0.00     0.167 HD
ATOM     25  C   UNL A   1      39.655  31.056  34.366  1.00  0.00     0.037 A 
ATOM     26  C   UNL A   1      41.850  27.327  28.854  1.00  0.00     0.037 A 
ATOM     27  C   UNL A   1      40.872  30.310  34.573  1.00  0.00     0.049 A 
ATOM     28  C   UNL A   1      42.637  27.393  30.130  1.00  0.00     0.074 A 
ATOM     29  C   UNL A   1      41.643  30.218  35.719  1.00  0.00     0.029 A 
ATOM     30  N   UNL A   1      41.503  29.536  33.609  1.00  0.00    -0.354 N 
ATOM     31  N   UNL A   1      42.351  28.009  31.250  1.00  0.00    -0.248 NA
ATOM     32  C   UNL A   1      43.911  26.664  30.152  1.00  0.00     0.031 C 
ATOM     33  C   UNL A   1      42.774  29.450  35.427  1.00  0.00     0.029 A 
ATOM     34  C   UNL A   1      42.672  28.995  34.123  1.00  0.00     0.049 A 
ATOM     35  H   UNL A   1      41.169  29.393  32.693  1.00  0.00     0.167 HD
ATOM     36  C   UNL A   1      43.392  27.719  32.122  1.00  0.00     0.074 A 
ATOM     37  C   UNL A   1      44.305  26.854  31.402  1.00  0.00     0.031 C 
ATOM     38  C   UNL A   1      43.573  28.133  33.399  1.00  0.00     0.037 A 
BRANCH  25  39
ATOM     39  C   UNL A   1      39.162  31.931  35.488  1.00  0.00     0.064 A 
ATOM     40  C   UNL A   1      38.355  31.434  36.523  1.00  0.00     0.173 A 
ATOM     41  C   UNL A   1      39.535  33.284  35.545  1.00  0.00     0.173 A 
ATOM     42  F   UNL A   1      37.962  30.152  36.517  1.00  0.00    -0.203 F 
ATOM     43  C   UNL A   1      37.914  32.264  37.552  1.00  0.00     0.198 A 
ATOM     44  C   UNL A   1      39.121  34.102  36.594  1.00  0.00     0.198 A 
ATOM     45  F   UNL A   1      40.313  33.813  34.589  1.00  0.00    -0.203 F 
ATOM     46  F   UNL A   1      37.098  31.780  38.499  1.00  0.00    -0.200 F 
ATOM     47  C   UNL A   1      38.303  33.595  37.590  1.00  0.00     0.200 A 
ATOM     48  F   UNL A   1      39.515  35.383  36.638  1.00  0.00    -0.200 F 
ATOM     49  F   UNL A   1      37.882  34.391  38.584  1.00  0.00    -0.200 F 
ENDBRANCH  25  39
BRANCH  26  50
ATOM     50  C   UNL A   1      42.320  26.516  27.700  1.00  0.00     0.064 A 
ATOM     51  C   UNL A   1      43.267  27.025  26.802  1.00  0.00     0.173 A 
ATOM     52  C   UNL A   1      41.835  25.219  27.474  1.00  0.00     0.173 A 
ATOM     53  F   UNL A   1      43.749  28.265  26.966  1.00  0.00    -0.203 F 
ATOM     54  C   UNL A   1      43.693  26.276  25.706  1.00  0.00     0.198 A 
ATOM     55  C   UNL A   1      42.289  24.458  26.400  1.00  0.00     0.198 A 
ATOM     56  F   UNL A   1      40.934  24.681  28.309  1.00  0.00    -0.203 F 
ATOM     57  F   UNL A   1      44.560  26.806  24.833  1.00  0.00    -0.200 F 
ATOM     58  C   UNL A   1      43.210  24.991  25.511  1.00  0.00     0.200 A 
ATOM     59  F   UNL A   1      41.836  23.208  26.228  1.00  0.00    -0.200 F 
ATOM     60  F   UNL A   1      43.625  24.269  24.461  1.00  0.00    -0.200 F 
ENDBRANCH  26  50
BRANCH  38  61
ATOM     61  C   UNL A   1      44.783  27.608  34.121  1.00  0.00     0.064 A 
ATOM     62  C   UNL A   1      46.005  28.297  34.121  1.00  0.00     0.173 A 
ATOM     63  C   UNL A   1      44.713  26.400  34.833  1.00  0.00     0.173 A 
ATOM     64  F   UNL A   1      46.132  29.448  33.444  1.00  0.00    -0.203 F 
ATOM     65  C   UNL A   1      47.122  27.776  34.772  1.00  0.00     0.198 A 
ATOM     66  C   UNL A   1      45.819  25.902  35.515  1.00  0.00     0.198 A 
ATOM     67  F   UNL A   1      43.567  25.703  34.871  1.00  0.00    -0.203 F 
ATOM     68  F   UNL A   1      48.296  28.417  34.700  1.00  0.00    -0.200 F 
ATOM     69  C   UNL A   1      47.025  26.584  35.473  1.00  0.00     0.200 A 
ATOM     70  F   UNL A   1      45.720  24.759  36.206  1.00  0.00    -0.200 F 
ATOM     71  F   UNL A   1      48.100  26.085  36.100  1.00  0.00    -0.200 F 
ENDBRANCH  38  61
ENDBRANCH  12  13
ENDBRANCH   5   7
ENDBRANCH   2   3
ENDBRANCH   1   2
BRANCH   1  72
ATOM     72  C   UNL A   1      31.089  28.966  23.950  1.00  0.00     0.023 C 
BRANCH  72  73
ATOM     73  C   UNL A   1      30.848  27.804  22.998  1.00  0.00     0.116 C 
BRANCH  73  74
ATOM     74  N   UNL A   1      32.027  27.442  22.235  1.00  0.00    -0.354 N 
ATOM     75  C   UNL A   1      32.839  26.352  22.404  1.00  0.00     0.249 C 
ATOM     76  H   UNL A   1      32.273  28.056  21.506  1.00  0.00     0.163 HD
ATOM     77  O   UNL A   1      33.752  26.177  21.597  1.00  0.00    -0.272 OA
BRANCH  75  78
ATOM     78  C   UNL A   1      32.558  25.404  23.591  1.00  0.00     0.207 C 
ATOM     79  C   UNL A   1      31.837  24.148  23.123  1.00  0.00     0.045 C 
ATOM     80  O   UNL A   1      33.751  24.951  24.247  1.00  0.00    -0.363 OA
ATOM     81  C   UNL A   1      32.991  23.237  22.807  1.00  0.00     0.037 C 
ATOM     82  C   UNL A   1      33.973  23.563  23.922  1.00  0.00     0.139 C 
BRANCH  82  83
ATOM     83  C   UNL A   1      33.772  22.725  25.202  1.00  0.00     0.161 C 
BRANCH  83  84
ATOM     84  N   UNL A   1      33.701  21.302  24.930  1.00  0.00    -0.270 N 
ATOM     85  C   UNL A   1      34.790  20.505  24.714  1.00  0.00     0.263 C 
ATOM     86  C   UNL A   1      32.544  20.572  25.028  1.00  0.00     0.280 C 
ATOM     87  O   UNL A   1      35.965  20.809  24.645  1.00  0.00    -0.269 OA
ATOM     88  C   UNL A   1      34.301  19.135  24.665  1.00  0.00     0.071 A 
ATOM     89  C   UNL A   1      32.941  19.168  24.857  1.00  0.00     0.141 A 
ATOM     90  O   UNL A   1      31.423  20.981  25.269  1.00  0.00    -0.267 OA
ATOM     91  C   UNL A   1      34.956  17.927  24.559  1.00  0.00     0.018 A 
ATOM     92  N   UNL A   1      32.138  18.095  24.972  1.00  0.00    -0.250 NA
ATOM     93  C   UNL A   1      34.166  16.779  24.662  1.00  0.00     0.021 A 
ATOM     94  C   UNL A   1      32.786  16.910  24.867  1.00  0.00     0.112 A 
ENDBRANCH  83  84
ENDBRANCH  82  83
ENDBRANCH  75  78
ENDBRANCH  73  74
ENDBRANCH  72  73
ENDBRANCH   1  72
TORSDOF 13
ENDMDL
MODEL 3
REMARK VINA RESULT:     -12.9      1.543      2.433
REMARK SMILES O=C(NCCCCNC(=O)[C@H]1CC[C@H](CN2C(=O)c3cccnc3C2=O)O1)c1ccc(-c2c3nc(c(-c4c(F)c(F)c(F)c(F)c4F)c4ccc([nH]4)c(-c4c(F)c(F)c(F)c(F)c4F)c4nc(c(-c5c(F)c(F)c(F)c(F)c5F)c5ccc2[nH]5)C=C4)C=C3)cc1
REMARK SMILES IDX 5 1 4 2 3 3 1 4 2 5 28 7 29 8 90 9 30 10 89 11 31 12 32 13
REMARK SMILES IDX 33 14 83 15 34 16 88 17 82 18 84 19 35 20 87 21 81 22 80 23
REMARK SMILES IDX 36 25 68 26 48 27 67 28 49 29 52 30 66 31 85 32 50 33 51 34
REMARK SMILES IDX 65 36 86 37 53 38 37 39 38 40 46 41 39 42 40 43 44 44 47 45
REMARK SMILES IDX 41 46 42 47 45 48 43 49 69 50 70 51 78 52 71 53 72 54 76 55
REMARK SMILES IDX 79 56 73 57 74 58 77 59 75 60 54 61 55 62 63 63 56 64 57 65
REMARK SMILES IDX 61 66 64 67 58 68 59 69 62 70 60 71 6 72 7 73 8 74 9 75
REMARK SMILES IDX 10 77 11 78 12 79 27 80 13 81 14 82 15 83 16 84 17 85 25 86
REMARK SMILES IDX 18 87 19 88 24 89 26 90 20 91 23 92 21 93 22 94
REMARK H PARENT 3 6 84 24 52 35 8 76
REMARK Flexibility Score: inf
ROOT
ATOM      1  C   UNL A   1      31.521  32.102  26.556  1.00  0.00     0.023 C 
ENDROOT
BRANCH   1   2
ATOM      2  C   UNL A   1      32.663  32.784  27.298  1.00  0.00     0.116 C 
BRANCH   2   3
ATOM      3  N   UNL A   1      32.374  34.167  27.653  1.00  0.00    -0.352 N 
ATOM      4  O   UNL A   1      32.499  36.074  28.861  1.00  0.00    -0.269 OA
ATOM      5  C   UNL A   1      32.963  34.968  28.604  1.00  0.00     0.251 C 
ATOM      6  H   UNL A   1      31.652  34.591  27.136  1.00  0.00     0.163 HD
BRANCH   5   7
ATOM      7  C   UNL A   1      34.140  34.468  29.346  1.00  0.00     0.039 A 
ATOM      8  C   UNL A   1      35.419  34.612  28.810  1.00  0.00     0.014 A 
ATOM      9  C   UNL A   1      33.958  33.802  30.560  1.00  0.00     0.014 A 
ATOM     10  C   UNL A   1      36.477  33.911  29.368  1.00  0.00     0.010 A 
ATOM     11  C   UNL A   1      35.052  33.204  31.192  1.00  0.00     0.010 A 
ATOM     12  C   UNL A   1      36.313  33.210  30.575  1.00  0.00    -0.014 A 
BRANCH  12  13
ATOM     13  C   UNL A   1      37.493  32.538  31.181  1.00  0.00     0.031 A 
ATOM     14  C   UNL A   1      37.974  32.887  32.562  1.00  0.00     0.074 A 
ATOM     15  C   UNL A   1      38.104  31.563  30.480  1.00  0.00     0.049 A 
ATOM     16  N   UNL A   1      38.960  32.363  33.250  1.00  0.00    -0.248 NA
ATOM     17  C   UNL A   1      37.270  33.972  33.263  1.00  0.00     0.031 C 
ATOM     18  C   UNL A   1      37.730  31.139  29.128  1.00  0.00     0.029 A 
ATOM     19  N   UNL A   1      39.144  30.733  30.810  1.00  0.00    -0.354 N 
ATOM     20  C   UNL A   1      39.010  33.067  34.447  1.00  0.00     0.074 A 
ATOM     21  C   UNL A   1      37.974  34.076  34.382  1.00  0.00     0.031 C 
ATOM     22  C   UNL A   1      38.480  30.089  28.772  1.00  0.00     0.029 A 
ATOM     23  C   UNL A   1      39.442  29.817  29.832  1.00  0.00     0.049 A 
ATOM     24  H   UNL A   1      39.629  30.788  31.664  1.00  0.00     0.167 HD
ATOM     25  C   UNL A   1      39.840  32.880  35.504  1.00  0.00     0.037 A 
ATOM     26  C   UNL A   1      40.396  28.870  29.783  1.00  0.00     0.037 A 
ATOM     27  C   UNL A   1      40.860  31.862  35.563  1.00  0.00     0.049 A 
ATOM     28  C   UNL A   1      41.326  28.717  30.952  1.00  0.00     0.074 A 
ATOM     29  C   UNL A   1      41.721  31.563  36.605  1.00  0.00     0.029 A 
ATOM     30  N   UNL A   1      41.166  30.984  34.532  1.00  0.00    -0.354 N 
ATOM     31  N   UNL A   1      41.333  29.357  32.095  1.00  0.00    -0.248 NA
ATOM     32  C   UNL A   1      42.383  27.707  30.820  1.00  0.00     0.031 C 
ATOM     33  C   UNL A   1      42.592  30.555  36.179  1.00  0.00     0.029 A 
ATOM     34  C   UNL A   1      42.227  30.169  34.900  1.00  0.00     0.049 A 
ATOM     35  H   UNL A   1      40.699  30.946  33.665  1.00  0.00     0.167 HD
ATOM     36  C   UNL A   1      42.373  28.807  32.832  1.00  0.00     0.074 A 
ATOM     37  C   UNL A   1      42.960  27.768  32.011  1.00  0.00     0.031 C 
ATOM     38  C   UNL A   1      42.801  29.135  34.076  1.00  0.00     0.037 A 
BRANCH  25  39
ATOM     39  C   UNL A   1      39.709  33.819  36.672  1.00  0.00     0.064 A 
ATOM     40  C   UNL A   1      40.352  35.066  36.705  1.00  0.00     0.173 A 
ATOM     41  C   UNL A   1      38.895  33.478  37.765  1.00  0.00     0.173 A 
ATOM     42  F   UNL A   1      41.148  35.442  35.692  1.00  0.00    -0.203 F 
ATOM     43  C   UNL A   1      40.213  35.919  37.798  1.00  0.00     0.198 A 
ATOM     44  C   UNL A   1      38.729  34.349  38.840  1.00  0.00     0.198 A 
ATOM     45  F   UNL A   1      38.247  32.304  37.787  1.00  0.00    -0.203 F 
ATOM     46  F   UNL A   1      40.882  37.079  37.831  1.00  0.00    -0.200 F 
ATOM     47  C   UNL A   1      39.397  35.563  38.861  1.00  0.00     0.200 A 
ATOM     48  F   UNL A   1      37.925  34.009  39.858  1.00  0.00    -0.200 F 
ATOM     49  F   UNL A   1      39.259  36.387  39.910  1.00  0.00    -0.200 F 
ENDBRANCH  25  39
BRANCH  26  50
ATOM     50  C   UNL A   1      40.516  27.999  28.584  1.00  0.00     0.064 A 
ATOM     51  C   UNL A   1      39.867  26.758  28.530  1.00  0.00     0.173 A 
ATOM     52  C   UNL A   1      41.278  28.388  27.473  1.00  0.00     0.173 A 
ATOM     53  F   UNL A   1      39.140  26.335  29.574  1.00  0.00    -0.203 F 
ATOM     54  C   UNL A   1      39.995  25.929  27.418  1.00  0.00     0.198 A 
ATOM     55  C   UNL A   1      41.375  27.574  26.346  1.00  0.00     0.198 A 
ATOM     56  F   UNL A   1      41.912  29.570  27.470  1.00  0.00    -0.203 F 
ATOM     57  F   UNL A   1      39.407  24.725  27.412  1.00  0.00    -0.200 F 
ATOM     58  C   UNL A   1      40.742  26.341  26.325  1.00  0.00     0.200 A 
ATOM     59  F   UNL A   1      42.079  27.986  25.284  1.00  0.00    -0.200 F 
ATOM     60  F   UNL A   1      40.860  25.545  25.253  1.00  0.00    -0.200 F 
ENDBRANCH  26  50
BRANCH  38  61
ATOM     61  C   UNL A   1      43.930  28.322  34.645  1.00  0.00     0.064 A 
ATOM     62  C   UNL A   1      43.707  27.127  35.345  1.00  0.00     0.173 A 
ATOM     63  C   UNL A   1      45.259  28.742  34.476  1.00  0.00     0.173 A 
ATOM     64  F   UNL A   1      42.456  26.687  35.550  1.00  0.00    -0.203 F 
ATOM     65  C   UNL A   1      44.768  26.406  35.890  1.00  0.00     0.198 A 
ATOM     66  C   UNL A   1      46.319  27.999  34.987  1.00  0.00     0.198 A 
ATOM     67  F   UNL A   1      45.531  29.874  33.809  1.00  0.00    -0.203 F 
ATOM     68  F   UNL A   1      44.524  25.305  36.614  1.00  0.00    -0.200 F 
ATOM     69  C   UNL A   1      46.072  26.839  35.704  1.00  0.00     0.200 A 
ATOM     70  F   UNL A   1      47.579  28.410  34.792  1.00  0.00    -0.200 F 
ATOM     71  F   UNL A   1      47.090  26.143  36.226  1.00  0.00    -0.200 F 
ENDBRANCH  38  61
ENDBRANCH  12  13
ENDBRANCH   5   7
ENDBRANCH   2   3
ENDBRANCH   1   2
BRANCH   1  72
ATOM     72  C   UNL A   1      31.522  30.580  26.636  1.00  0.00     0.023 C 
BRANCH  72  73
ATOM     73  C   UNL A   1      32.358  29.886  25.571  1.00  0.00     0.116 C 
BRANCH  73  74
ATOM     74  N   UNL A   1      31.706  29.845  24.276  1.00  0.00    -0.354 N 
ATOM     75  C   UNL A   1      31.295  28.745  23.571  1.00  0.00     0.249 C 
ATOM     76  H   UNL A   1      31.540  30.718  23.850  1.00  0.00     0.163 HD
ATOM     77  O   UNL A   1      30.686  28.924  22.517  1.00  0.00    -0.272 OA
BRANCH  75  78
ATOM     78  C   UNL A   1      31.614  27.346  24.144  1.00  0.00     0.207 C 
ATOM     79  C   UNL A   1      30.430  26.799  24.929  1.00  0.00     0.045 C 
ATOM     80  O   UNL A   1      31.896  26.371  23.130  1.00  0.00    -0.363 OA
ATOM     81  C   UNL A   1      29.667  26.070  23.859  1.00  0.00     0.037 C 
ATOM     82  C   UNL A   1      30.785  25.457  23.028  1.00  0.00     0.139 C 
BRANCH  82  83
ATOM     83  C   UNL A   1      31.249  24.071  23.524  1.00  0.00     0.161 C 
BRANCH  83  84
ATOM     84  N   UNL A   1      32.678  24.015  23.762  1.00  0.00    -0.270 N 
ATOM     85  C   UNL A   1      33.258  24.148  24.993  1.00  0.00     0.263 C 
ATOM     86  C   UNL A   1      33.590  23.654  22.804  1.00  0.00     0.280 C 
ATOM     87  O   UNL A   1      32.741  24.388  26.066  1.00  0.00    -0.269 OA
ATOM     88  C   UNL A   1      34.673  23.849  24.822  1.00  0.00     0.071 A 
ATOM     89  C   UNL A   1      34.880  23.546  23.498  1.00  0.00     0.141 A 
ATOM     90  O   UNL A   1      33.380  23.408  21.631  1.00  0.00    -0.267 OA
ATOM     91  C   UNL A   1      35.708  23.745  25.726  1.00  0.00     0.018 A 
ATOM     92  N   UNL A   1      36.039  23.126  22.962  1.00  0.00    -0.250 NA
ATOM     93  C   UNL A   1      36.938  23.321  25.219  1.00  0.00     0.021 A 
ATOM     94  C   UNL A   1      37.054  23.025  23.854  1.00  0.00     0.112 A 
ENDBRANCH  83  84
ENDBRANCH  82  83
ENDBRANCH  75  78
ENDBRANCH  73  74
ENDBRANCH  72  73
ENDBRANCH   1  72
TORSDOF 13
ENDMDL
