MODEL 1
REMARK VINA RESULT:     -14.0      0.000      0.000
REMARK SMILES Cc1ccc(S(=O)(=O)n2cc(C(=O)C(=O)N[C@@H](Cc3c[nH]c4ccccc34)C(=O)NCC(=O)NCCCCNC(=O)c3ccc(-c4c5nc(c(-c6c(F)c(F)c(F)c(F)c6F)c6ccc([nH]6)c(-c6c(F)c(F)c(F)c(F)c6F)c6nc(c(-c7c(F)c(F)c(F)c(F)c7F)c7ccc4[nH]7)C=C6)C=C5)cc3)c3ccccc32)cc1
REMARK SMILES IDX 32 1 33 2 34 3 31 5 30 6 28 7 29 8 17 10 16 11 14 12 15 13
REMARK SMILES IDX 12 15 13 16 11 17 9 18 10 19 110 20 105 21 109 22 106 23
REMARK SMILES IDX 108 24 107 25 6 26 7 27 8 28 5 29 1 30 2 31 3 32 112 33 4 34
REMARK SMILES IDX 111 35 18 36 19 37 20 38 27 39 21 40 22 41 26 42 23 44 25 45
REMARK SMILES IDX 24 46 35 47 36 48 37 49 38 50 39 51 40 52 41 54 42 55 43 56
REMARK SMILES IDX 104 57 44 58 103 59 45 60 46 61 47 62 97 63 48 64 102 65
REMARK SMILES IDX 96 66 98 67 49 68 101 69 95 70 94 71 50 73 82 74 62 75 81 76
REMARK SMILES IDX 63 77 66 78 80 79 99 80 64 81 65 82 79 84 100 85 67 86 51 87
REMARK SMILES IDX 52 88 60 89 53 90 54 91 58 92 61 93 55 94 56 95 59 96 57 97
REMARK SMILES IDX 83 98 84 99 92 100 85 101 86 102 90 103 93 104 87 105 88 106
REMARK SMILES IDX 91 107 89 108 68 109 69 110 77 111 70 112 71 113 75 114
REMARK SMILES IDX 78 115 72 116 73 117 76 118 74 119
REMARK H PARENT 34 4 30 9 16 14 21 43 39 53 98 72 66 83
REMARK Flexibility Score: inf
ROOT
ATOM      1  C   UNL A   1      34.087  23.755  23.555  1.00  0.00     0.239 C 
ATOM      2  O   UNL A   1      34.410  24.693  22.824  1.00  0.00    -0.273 OA
ATOM      3  N   UNL A   1      34.885  22.648  23.593  1.00  0.00    -0.355 N 
ATOM      4  H   UNL A   1      35.686  22.663  23.021  1.00  0.00     0.163 HD
ENDROOT
BRANCH   1   5
ATOM      5  C   UNL A   1      32.960  23.877  24.582  1.00  0.00     0.216 C 
BRANCH   5   6
ATOM      6  N   UNL A   1      31.583  23.995  24.136  1.00  0.00    -0.345 N 
ATOM      7  C   UNL A   1      30.820  25.089  23.849  1.00  0.00     0.243 C 
ATOM      8  O   UNL A   1      29.804  24.849  23.184  1.00  0.00    -0.273 OA
ATOM      9  H   UNL A   1      31.120  23.134  24.019  1.00  0.00     0.164 HD
BRANCH   7  10
ATOM     10  C   UNL A   1      31.139  26.574  24.261  1.00  0.00     0.176 C 
BRANCH  10  11
ATOM     11  N   UNL A   1      32.406  27.153  23.739  1.00  0.00    -0.337 N 
ATOM     12  C   UNL A   1      33.485  27.779  24.383  1.00  0.00     0.293 C 
ATOM     13  O   UNL A   1      34.407  28.221  23.699  1.00  0.00    -0.265 OA
ATOM     14  H   UNL A   1      32.507  27.085  22.762  1.00  0.00     0.164 HD
BRANCH  12  15
ATOM     15  C   UNL A   1      33.573  27.867  25.926  1.00  0.00     0.252 C 
ATOM     16  O   UNL A   1      33.196  26.857  26.522  1.00  0.00    -0.283 OA
BRANCH  15  17
ATOM     17  C   UNL A   1      34.025  29.071  26.685  1.00  0.00     0.054 A 
ATOM     18  N   UNL A   1      35.215  30.634  27.881  1.00  0.00    -0.240 N 
ATOM     19  C   UNL A   1      35.159  29.300  27.476  1.00  0.00     0.117 A 
ATOM     20  C   UNL A   1      34.080  31.256  27.320  1.00  0.00     0.065 A 
ATOM     21  C   UNL A   1      33.231  30.242  26.880  1.00  0.00     0.012 A 
ATOM     22  C   UNL A   1      33.647  32.597  27.382  1.00  0.00     0.028 A 
ATOM     23  C   UNL A   1      31.866  30.548  26.703  1.00  0.00     0.011 A 
ATOM     24  C   UNL A   1      32.288  32.861  27.256  1.00  0.00     0.002 A 
ATOM     25  C   UNL A   1      31.399  31.839  26.968  1.00  0.00     0.001 A 
BRANCH  18  26
ATOM     26  S   UNL A   1      35.766  31.490  29.321  1.00  0.00     0.268 S 
ATOM     27  O   UNL A   1      36.752  32.378  28.713  1.00  0.00    -0.201 OA
ATOM     28  O   UNL A   1      36.185  30.363  30.148  1.00  0.00    -0.201 OA
BRANCH  26  29
ATOM     29  C   UNL A   1      35.111  32.538  30.600  1.00  0.00     0.088 A 
ATOM     30  C   UNL A   1      34.014  35.848  33.242  1.00  0.00     0.044 C 
ATOM     31  C   UNL A   1      34.366  34.696  32.343  1.00  0.00    -0.051 A 
ATOM     32  C   UNL A   1      34.839  34.963  31.067  1.00  0.00     0.005 A 
ATOM     33  C   UNL A   1      34.342  33.357  32.765  1.00  0.00     0.005 A 
ATOM     34  C   UNL A   1      35.172  33.906  30.217  1.00  0.00     0.022 A 
ATOM     35  C   UNL A   1      34.791  32.298  31.923  1.00  0.00     0.022 A 
ENDBRANCH  26  29
ENDBRANCH  18  26
ENDBRANCH  15  17
ENDBRANCH  12  15
ENDBRANCH  10  11
BRANCH  10  36
ATOM     36  C   UNL A   1      29.924  27.556  24.194  1.00  0.00     0.072 C 
BRANCH  36  37
ATOM     37  C   UNL A   1      29.920  28.677  23.183  1.00  0.00    -0.020 A 
ATOM     38  C   UNL A   1      30.889  28.876  22.210  1.00  0.00     0.087 A 
ATOM     39  C   UNL A   1      28.984  29.765  23.037  1.00  0.00     0.003 A 
ATOM     40  N   UNL A   1      30.652  30.076  21.590  1.00  0.00    -0.361 N 
ATOM     41  C   UNL A   1      29.561  30.687  22.157  1.00  0.00     0.046 A 
ATOM     42  C   UNL A   1      27.778  30.127  23.674  1.00  0.00     0.010 A 
ATOM     43  H   UNL A   1      31.184  30.443  20.847  1.00  0.00     0.166 HD
ATOM     44  C   UNL A   1      29.068  31.987  21.984  1.00  0.00     0.026 A 
ATOM     45  C   UNL A   1      27.282  31.429  23.526  1.00  0.00     0.001 A 
ATOM     46  C   UNL A   1      27.936  32.352  22.715  1.00  0.00     0.002 A 
ENDBRANCH  36  37
ENDBRANCH  10  36
ENDBRANCH   7  10
ENDBRANCH   5   6
ENDBRANCH   1   5
BRANCH   3  47
ATOM     47  C   UNL A   1      34.679  21.459  24.384  1.00  0.00     0.116 C 
BRANCH  47  48
ATOM     48  C   UNL A   1      35.760  21.290  25.450  1.00  0.00     0.023 C 
BRANCH  48  49
ATOM     49  C   UNL A   1      37.155  21.060  24.872  1.00  0.00     0.023 C 
BRANCH  49  50
ATOM     50  C   UNL A   1      38.201  21.977  25.473  1.00  0.00     0.116 C 
BRANCH  50  51
ATOM     51  N   UNL A   1      39.549  21.450  25.467  1.00  0.00    -0.352 N 
ATOM     52  C   UNL A   1      40.672  21.906  26.124  1.00  0.00     0.251 C 
ATOM     53  H   UNL A   1      39.683  20.647  24.912  1.00  0.00     0.163 HD
ATOM     54  O   UNL A   1      41.767  21.432  25.809  1.00  0.00    -0.269 OA
BRANCH  52  55
ATOM     55  C   UNL A   1      40.580  22.792  27.323  1.00  0.00     0.039 A 
ATOM     56  C   UNL A   1      39.712  23.887  27.237  1.00  0.00     0.014 A 
ATOM     57  C   UNL A   1      41.528  22.774  28.337  1.00  0.00     0.014 A 
ATOM     58  C   UNL A   1      40.030  25.061  27.908  1.00  0.00     0.010 A 
ATOM     59  C   UNL A   1      41.952  23.968  28.864  1.00  0.00     0.010 A 
ATOM     60  C   UNL A   1      41.252  25.129  28.560  1.00  0.00    -0.014 A 
BRANCH  60  61
ATOM     61  C   UNL A   1      41.885  26.353  29.000  1.00  0.00     0.031 A 
ATOM     62  C   UNL A   1      41.083  27.578  29.035  1.00  0.00     0.074 A 
ATOM     63  C   UNL A   1      43.136  26.282  29.504  1.00  0.00     0.049 A 
ATOM     64  N   UNL A   1      41.553  28.765  29.177  1.00  0.00    -0.248 NA
ATOM     65  C   UNL A   1      39.638  27.542  28.836  1.00  0.00     0.031 C 
ATOM     66  C   UNL A   1      43.879  27.291  30.257  1.00  0.00     0.029 A 
ATOM     67  N   UNL A   1      44.122  25.373  29.085  1.00  0.00    -0.354 N 
ATOM     68  C   UNL A   1      40.481  29.594  29.421  1.00  0.00     0.074 A 
ATOM     69  C   UNL A   1      39.325  28.820  29.052  1.00  0.00     0.031 C 
ATOM     70  C   UNL A   1      45.185  27.166  29.952  1.00  0.00     0.029 A 
ATOM     71  C   UNL A   1      45.237  26.210  28.855  1.00  0.00     0.049 A 
ATOM     72  H   UNL A   1      44.054  24.397  28.978  1.00  0.00     0.167 HD
ATOM     73  C   UNL A   1      40.717  30.760  30.086  1.00  0.00     0.037 A 
ATOM     74  C   UNL A   1      45.614  26.534  27.581  1.00  0.00     0.037 A 
ATOM     75  C   UNL A   1      42.153  31.037  30.118  1.00  0.00     0.049 A 
ATOM     76  C   UNL A   1      45.867  27.981  27.368  1.00  0.00     0.074 A 
ATOM     77  C   UNL A   1      43.130  30.847  31.082  1.00  0.00     0.029 A 
ATOM     78  N   UNL A   1      42.817  31.266  28.919  1.00  0.00    -0.354 N 
ATOM     79  N   UNL A   1      45.091  28.911  27.841  1.00  0.00    -0.248 NA
ATOM     80  C   UNL A   1      47.044  28.487  26.675  1.00  0.00     0.031 C 
ATOM     81  C   UNL A   1      44.393  30.899  30.437  1.00  0.00     0.029 A 
ATOM     82  C   UNL A   1      44.177  31.142  29.091  1.00  0.00     0.049 A 
ATOM     83  H   UNL A   1      42.376  31.487  28.066  1.00  0.00     0.167 HD
ATOM     84  C   UNL A   1      45.660  30.125  27.558  1.00  0.00     0.074 A 
ATOM     85  C   UNL A   1      46.869  29.811  26.820  1.00  0.00     0.031 C 
ATOM     86  C   UNL A   1      45.083  31.288  27.966  1.00  0.00     0.037 A 
BRANCH  73  87
ATOM     87  C   UNL A   1      39.712  31.474  30.971  1.00  0.00     0.064 A 
ATOM     88  C   UNL A   1      39.371  32.821  30.704  1.00  0.00     0.173 A 
ATOM     89  C   UNL A   1      39.131  30.958  32.147  1.00  0.00     0.173 A 
ATOM     90  F   UNL A   1      39.775  33.438  29.586  1.00  0.00    -0.203 F 
ATOM     91  C   UNL A   1      38.607  33.598  31.581  1.00  0.00     0.198 A 
ATOM     92  C   UNL A   1      38.385  31.739  33.034  1.00  0.00     0.198 A 
ATOM     93  F   UNL A   1      39.222  29.672  32.485  1.00  0.00    -0.203 F 
ATOM     94  F   UNL A   1      38.352  34.879  31.281  1.00  0.00    -0.200 F 
ATOM     95  C   UNL A   1      38.133  33.064  32.759  1.00  0.00     0.200 A 
ATOM     96  F   UNL A   1      37.916  31.189  34.163  1.00  0.00    -0.200 F 
ATOM     97  F   UNL A   1      37.424  33.812  33.614  1.00  0.00    -0.200 F 
ENDBRANCH  73  87
BRANCH  74  98
ATOM     98  C   UNL A   1      45.131  25.593  26.540  1.00  0.00     0.064 A 
ATOM     99  C   UNL A   1      45.962  24.500  26.302  1.00  0.00     0.173 A 
ATOM    100  C   UNL A   1      43.880  25.564  25.938  1.00  0.00     0.173 A 
ATOM    101  F   UNL A   1      47.246  24.665  26.636  1.00  0.00    -0.203 F 
ATOM    102  C   UNL A   1      45.557  23.354  25.628  1.00  0.00     0.198 A 
ATOM    103  C   UNL A   1      43.474  24.439  25.201  1.00  0.00     0.198 A 
ATOM    104  F   UNL A   1      43.024  26.579  26.100  1.00  0.00    -0.203 F 
ATOM    105  F   UNL A   1      46.409  22.332  25.471  1.00  0.00    -0.200 F 
ATOM    106  C   UNL A   1      44.293  23.320  25.084  1.00  0.00     0.200 A 
ATOM    107  F   UNL A   1      42.243  24.405  24.672  1.00  0.00    -0.200 F 
ATOM    108  F   UNL A   1      43.863  22.223  24.446  1.00  0.00    -0.200 F 
ENDBRANCH  74  98
BRANCH  86 109
ATOM    109  C   UNL A   1      45.349  32.657  27.398  1.00  0.00     0.064 A 
ATOM    110  C   UNL A   1      46.357  33.516  27.867  1.00  0.00     0.173 A 
ATOM    111  C   UNL A   1      44.709  33.066  26.203  1.00  0.00     0.173 A 
ATOM    112  F   UNL A   1      47.118  33.199  28.923  1.00  0.00    -0.203 F 
ATOM    113  C   UNL A   1      46.673  34.711  27.217  1.00  0.00     0.198 A 
ATOM    114  C   UNL A   1      45.071  34.227  25.523  1.00  0.00     0.198 A 
ATOM    115  F   UNL A   1      43.746  32.327  25.631  1.00  0.00    -0.203 F 
ATOM    116  F   UNL A   1      47.626  35.506  27.723  1.00  0.00    -0.200 F 
ATOM    117  C   UNL A   1      46.045  35.056  26.036  1.00  0.00     0.200 A 
ATOM    118  F   UNL A   1      44.491  34.518  24.349  1.00  0.00    -0.200 F 
ATOM    119  F   UNL A   1      46.398  36.169  25.382  1.00  0.00    -0.200 F 
ENDBRANCH  86 109
ENDBRANCH  60  61
ENDBRANCH  52  55
ENDBRANCH  50  51
ENDBRANCH  49  50
ENDBRANCH  48  49
ENDBRANCH  47  48
ENDBRANCH   3  47
TORSDOF 20
ENDMDL
MODEL 2
REMARK VINA RESULT:     -13.9      2.477      5.113
REMARK SMILES Cc1ccc(S(=O)(=O)n2cc(C(=O)C(=O)N[C@@H](Cc3c[nH]c4ccccc34)C(=O)NCC(=O)NCCCCNC(=O)c3ccc(-c4c5nc(c(-c6c(F)c(F)c(F)c(F)c6F)c6ccc([nH]6)c(-c6c(F)c(F)c(F)c(F)c6F)c6nc(c(-c7c(F)c(F)c(F)c(F)c7F)c7ccc4[nH]7)C=C6)C=C5)cc3)c3ccccc32)cc1
REMARK SMILES IDX 32 1 33 2 34 3 31 5 30 6 28 7 29 8 17 10 16 11 14 12 15 13
REMARK SMILES IDX 12 15 13 16 11 17 9 18 10 19 110 20 105 21 109 22 106 23
REMARK SMILES IDX 108 24 107 25 6 26 7 27 8 28 5 29 1 30 2 31 3 32 112 33 4 34
REMARK SMILES IDX 111 35 18 36 19 37 20 38 27 39 21 40 22 41 26 42 23 44 25 45
REMARK SMILES IDX 24 46 35 47 36 48 37 49 38 50 39 51 40 52 41 54 42 55 43 56
REMARK SMILES IDX 104 57 44 58 103 59 45 60 46 61 47 62 97 63 48 64 102 65
REMARK SMILES IDX 96 66 98 67 49 68 101 69 95 70 94 71 50 73 82 74 62 75 81 76
REMARK SMILES IDX 63 77 66 78 80 79 99 80 64 81 65 82 79 84 100 85 67 86 51 87
REMARK SMILES IDX 52 88 60 89 53 90 54 91 58 92 61 93 55 94 56 95 59 96 57 97
REMARK SMILES IDX 83 98 84 99 92 100 85 101 86 102 90 103 93 104 87 105 88 106
REMARK SMILES IDX 91 107 89 108 68 109 69 110 77 111 70 112 71 113 75 114
REMARK SMILES IDX 78 115 72 116 73 117 76 118 74 119
REMARK H PARENT 34 4 30 9 16 14 21 43 39 53 98 72 66 83
REMARK Flexibility Score: inf
ROOT
ATOM      1  C   UNL A   1      37.150  22.915  25.534  1.00  0.00     0.239 C 
ATOM      2  O   UNL A   1      36.763  24.051  25.253  1.00  0.00    -0.273 OA
ATOM      3  N   UNL A   1      38.490  22.655  25.519  1.00  0.00    -0.355 N 
ATOM      4  H   UNL A   1      39.080  23.405  25.276  1.00  0.00     0.163 HD
ENDROOT
BRANCH   1   5
ATOM      5  C   UNL A   1      36.209  21.858  26.116  1.00  0.00     0.216 C 
BRANCH   5   6
ATOM      6  N   UNL A   1      35.178  22.247  27.061  1.00  0.00    -0.345 N 
ATOM      7  C   UNL A   1      33.857  22.538  26.884  1.00  0.00     0.243 C 
ATOM      8  O   UNL A   1      33.179  22.510  27.920  1.00  0.00    -0.273 OA
ATOM      9  H   UNL A   1      35.487  22.311  27.994  1.00  0.00     0.164 HD
BRANCH   7  10
ATOM     10  C   UNL A   1      33.156  22.863  25.514  1.00  0.00     0.176 C 
BRANCH  10  11
ATOM     11  N   UNL A   1      34.046  23.236  24.381  1.00  0.00    -0.337 N 
ATOM     12  C   UNL A   1      33.884  24.142  23.321  1.00  0.00     0.293 C 
ATOM     13  O   UNL A   1      34.771  24.227  22.474  1.00  0.00    -0.265 OA
ATOM     14  H   UNL A   1      34.908  22.761  24.374  1.00  0.00     0.164 HD
BRANCH  12  15
ATOM     15  C   UNL A   1      32.653  25.076  23.230  1.00  0.00     0.252 C 
ATOM     16  O   UNL A   1      31.748  24.667  22.502  1.00  0.00    -0.283 OA
BRANCH  15  17
ATOM     17  C   UNL A   1      32.538  26.401  23.910  1.00  0.00     0.054 A 
ATOM     18  N   UNL A   1      32.889  28.309  25.146  1.00  0.00    -0.240 N 
ATOM     19  C   UNL A   1      33.306  26.996  24.922  1.00  0.00     0.117 A 
ATOM     20  C   UNL A   1      31.831  28.538  24.242  1.00  0.00     0.065 A 
ATOM     21  C   UNL A   1      31.440  27.297  23.743  1.00  0.00     0.012 A 
ATOM     22  C   UNL A   1      31.055  29.695  24.014  1.00  0.00     0.028 A 
ATOM     23  C   UNL A   1      30.146  27.179  23.192  1.00  0.00     0.011 A 
ATOM     24  C   UNL A   1      29.766  29.542  23.520  1.00  0.00     0.002 A 
ATOM     25  C   UNL A   1      29.298  28.289  23.158  1.00  0.00     0.001 A 
BRANCH  18  26
ATOM     26  S   UNL A   1      32.769  29.369  26.551  1.00  0.00     0.268 S 
ATOM     27  O   UNL A   1      33.935  28.910  27.300  1.00  0.00    -0.201 OA
ATOM     28  O   UNL A   1      31.419  29.049  27.002  1.00  0.00    -0.201 OA
BRANCH  26  29
ATOM     29  C   UNL A   1      32.781  31.105  26.935  1.00  0.00     0.088 A 
ATOM     30  C   UNL A   1      33.481  35.087  28.606  1.00  0.00     0.044 C 
ATOM     31  C   UNL A   1      33.233  33.731  28.006  1.00  0.00    -0.051 A 
ATOM     32  C   UNL A   1      34.139  32.712  28.257  1.00  0.00     0.005 A 
ATOM     33  C   UNL A   1      32.070  33.411  27.287  1.00  0.00     0.005 A 
ATOM     34  C   UNL A   1      33.925  31.446  27.709  1.00  0.00     0.022 A 
ATOM     35  C   UNL A   1      31.815  32.086  26.829  1.00  0.00     0.022 A 
ENDBRANCH  26  29
ENDBRANCH  18  26
ENDBRANCH  15  17
ENDBRANCH  12  15
ENDBRANCH  10  11
BRANCH  10  36
ATOM     36  C   UNL A   1      32.002  21.888  25.112  1.00  0.00     0.072 C 
BRANCH  36  37
ATOM     37  C   UNL A   1      32.196  20.928  23.963  1.00  0.00    -0.020 A 
ATOM     38  C   UNL A   1      31.706  21.113  22.679  1.00  0.00     0.087 A 
ATOM     39  C   UNL A   1      32.860  19.648  23.952  1.00  0.00     0.003 A 
ATOM     40  N   UNL A   1      31.927  19.971  21.953  1.00  0.00    -0.361 N 
ATOM     41  C   UNL A   1      32.528  19.023  22.746  1.00  0.00     0.046 A 
ATOM     42  C   UNL A   1      33.586  18.899  24.903  1.00  0.00     0.010 A 
ATOM     43  H   UNL A   1      31.691  19.849  21.004  1.00  0.00     0.166 HD
ATOM     44  C   UNL A   1      32.768  17.666  22.498  1.00  0.00     0.026 A 
ATOM     45  C   UNL A   1      33.817  17.536  24.680  1.00  0.00     0.001 A 
ATOM     46  C   UNL A   1      33.387  16.925  23.506  1.00  0.00     0.002 A 
ENDBRANCH  36  37
ENDBRANCH  10  36
ENDBRANCH   7  10
ENDBRANCH   5   6
ENDBRANCH   1   5
BRANCH   3  47
ATOM     47  C   UNL A   1      39.132  21.399  25.821  1.00  0.00     0.116 C 
BRANCH  47  48
ATOM     48  C   UNL A   1      40.045  21.506  27.041  1.00  0.00     0.023 C 
BRANCH  48  49
ATOM     49  C   UNL A   1      41.335  20.698  26.910  1.00  0.00     0.023 C 
BRANCH  49  50
ATOM     50  C   UNL A   1      42.564  21.475  27.340  1.00  0.00     0.116 C 
BRANCH  50  51
ATOM     51  N   UNL A   1      43.070  22.407  26.355  1.00  0.00    -0.352 N 
ATOM     52  C   UNL A   1      42.674  23.700  26.088  1.00  0.00     0.251 C 
ATOM     53  H   UNL A   1      43.805  22.068  25.794  1.00  0.00     0.163 HD
ATOM     54  O   UNL A   1      43.095  24.242  25.064  1.00  0.00    -0.269 OA
BRANCH  52  55
ATOM     55  C   UNL A   1      41.926  24.520  27.088  1.00  0.00     0.039 A 
ATOM     56  C   UNL A   1      41.120  25.549  26.589  1.00  0.00     0.014 A 
ATOM     57  C   UNL A   1      42.250  24.526  28.439  1.00  0.00     0.014 A 
ATOM     58  C   UNL A   1      40.960  26.711  27.333  1.00  0.00     0.010 A 
ATOM     59  C   UNL A   1      42.252  25.723  29.110  1.00  0.00     0.010 A 
ATOM     60  C   UNL A   1      41.692  26.841  28.504  1.00  0.00    -0.014 A 
BRANCH  60  61
ATOM     61  C   UNL A   1      41.915  28.087  29.204  1.00  0.00     0.031 A 
ATOM     62  C   UNL A   1      40.800  29.031  29.317  1.00  0.00     0.074 A 
ATOM     63  C   UNL A   1      43.087  28.257  29.852  1.00  0.00     0.049 A 
ATOM     64  N   UNL A   1      40.904  30.253  29.698  1.00  0.00    -0.248 NA
ATOM     65  C   UNL A   1      39.447  28.653  28.926  1.00  0.00     0.031 C 
ATOM     66  C   UNL A   1      43.449  29.271  30.840  1.00  0.00     0.029 A 
ATOM     67  N   UNL A   1      44.321  27.731  29.434  1.00  0.00    -0.354 N 
ATOM     68  C   UNL A   1      39.625  30.713  29.920  1.00  0.00     0.074 A 
ATOM     69  C   UNL A   1      38.769  29.742  29.289  1.00  0.00     0.031 C 
ATOM     70  C   UNL A   1      44.758  29.552  30.696  1.00  0.00     0.029 A 
ATOM     71  C   UNL A   1      45.171  28.859  29.483  1.00  0.00     0.049 A 
ATOM     72  H   UNL A   1      44.540  26.807  29.174  1.00  0.00     0.167 HD
ATOM     73  C   UNL A   1      39.466  31.759  30.779  1.00  0.00     0.037 A 
ATOM     74  C   UNL A   1      45.549  29.496  28.334  1.00  0.00     0.037 A 
ATOM     75  C   UNL A   1      40.757  32.393  31.042  1.00  0.00     0.049 A 
ATOM     76  C   UNL A   1      45.402  30.973  28.378  1.00  0.00     0.074 A 
ATOM     77  C   UNL A   1      41.662  32.295  32.087  1.00  0.00     0.029 A 
ATOM     78  N   UNL A   1      41.429  33.002  29.989  1.00  0.00    -0.354 N 
ATOM     79  N   UNL A   1      44.359  31.564  28.879  1.00  0.00    -0.248 NA
ATOM     80  C   UNL A   1      46.444  31.887  27.930  1.00  0.00     0.031 C 
ATOM     81  C   UNL A   1      42.909  32.793  31.630  1.00  0.00     0.029 A 
ATOM     82  C   UNL A   1      42.750  33.210  30.320  1.00  0.00     0.049 A 
ATOM     83  H   UNL A   1      41.019  33.251  29.129  1.00  0.00     0.167 HD
ATOM     84  C   UNL A   1      44.585  32.915  28.860  1.00  0.00     0.074 A 
ATOM     85  C   UNL A   1      45.892  33.069  28.250  1.00  0.00     0.031 C 
ATOM     86  C   UNL A   1      43.671  33.792  29.359  1.00  0.00     0.037 A 
BRANCH  73  87
ATOM     87  C   UNL A   1      38.228  32.010  31.621  1.00  0.00     0.064 A 
ATOM     88  C   UNL A   1      37.086  32.603  31.033  1.00  0.00     0.173 A 
ATOM     89  C   UNL A   1      38.117  31.810  33.012  1.00  0.00     0.173 A 
ATOM     90  F   UNL A   1      36.995  32.791  29.709  1.00  0.00    -0.203 F 
ATOM     91  C   UNL A   1      35.987  33.040  31.781  1.00  0.00     0.198 A 
ATOM     92  C   UNL A   1      37.029  32.263  33.763  1.00  0.00     0.198 A 
ATOM     93  F   UNL A   1      39.031  31.138  33.712  1.00  0.00    -0.203 F 
ATOM     94  F   UNL A   1      34.953  33.625  31.161  1.00  0.00    -0.200 F 
ATOM     95  C   UNL A   1      35.969  32.891  33.150  1.00  0.00     0.200 A 
ATOM     96  F   UNL A   1      37.026  32.086  35.092  1.00  0.00    -0.200 F 
ATOM     97  F   UNL A   1      34.931  33.331  33.873  1.00  0.00    -0.200 F 
ENDBRANCH  73  87
BRANCH  74  98
ATOM     98  C   UNL A   1      45.442  28.667  27.108  1.00  0.00     0.064 A 
ATOM     99  C   UNL A   1      46.546  27.857  26.845  1.00  0.00     0.173 A 
ATOM    100  C   UNL A   1      44.315  28.452  26.326  1.00  0.00     0.173 A 
ATOM    101  F   UNL A   1      47.699  28.256  27.390  1.00  0.00    -0.203 F 
ATOM    102  C   UNL A   1      46.524  26.786  25.961  1.00  0.00     0.198 A 
ATOM    103  C   UNL A   1      44.294  27.412  25.382  1.00  0.00     0.198 A 
ATOM    104  F   UNL A   1      43.215  29.194  26.500  1.00  0.00    -0.203 F 
ATOM    105  F   UNL A   1      47.621  26.035  25.790  1.00  0.00    -0.200 F 
ATOM    106  C   UNL A   1      45.379  26.553  25.232  1.00  0.00     0.200 A 
ATOM    107  F   UNL A   1      43.179  27.184  24.674  1.00  0.00    -0.200 F 
ATOM    108  F   UNL A   1      45.317  25.516  24.387  1.00  0.00    -0.200 F 
ENDBRANCH  74  98
BRANCH  86 109
ATOM    109  C   UNL A   1      43.589  35.262  29.045  1.00  0.00     0.064 A 
ATOM    110  C   UNL A   1      43.048  35.778  27.854  1.00  0.00     0.173 A 
ATOM    111  C   UNL A   1      43.877  36.220  30.047  1.00  0.00     0.173 A 
ATOM    112  F   UNL A   1      42.627  34.977  26.867  1.00  0.00    -0.203 F 
ATOM    113  C   UNL A   1      42.849  37.147  27.665  1.00  0.00     0.198 A 
ATOM    114  C   UNL A   1      43.618  37.578  29.876  1.00  0.00     0.198 A 
ATOM    115  F   UNL A   1      44.374  35.862  31.240  1.00  0.00    -0.203 F 
ATOM    116  F   UNL A   1      42.353  37.586  26.499  1.00  0.00    -0.200 F 
ATOM    117  C   UNL A   1      43.115  38.043  28.681  1.00  0.00     0.200 A 
ATOM    118  F   UNL A   1      43.828  38.427  30.893  1.00  0.00    -0.200 F 
ATOM    119  F   UNL A   1      42.859  39.347  28.517  1.00  0.00    -0.200 F 
ENDBRANCH  86 109
ENDBRANCH  60  61
ENDBRANCH  52  55
ENDBRANCH  50  51
ENDBRANCH  49  50
ENDBRANCH  48  49
ENDBRANCH  47  48
ENDBRANCH   3  47
TORSDOF 20
ENDMDL
MODEL 3
REMARK VINA RESULT:     -13.8      3.357     10.891
REMARK SMILES Cc1ccc(S(=O)(=O)n2cc(C(=O)C(=O)N[C@@H](Cc3c[nH]c4ccccc34)C(=O)NCC(=O)NCCCCNC(=O)c3ccc(-c4c5nc(c(-c6c(F)c(F)c(F)c(F)c6F)c6ccc([nH]6)c(-c6c(F)c(F)c(F)c(F)c6F)c6nc(c(-c7c(F)c(F)c(F)c(F)c7F)c7ccc4[nH]7)C=C6)C=C5)cc3)c3ccccc32)cc1
REMARK SMILES IDX 32 1 33 2 34 3 31 5 30 6 28 7 29 8 17 10 16 11 14 12 15 13
REMARK SMILES IDX 12 15 13 16 11 17 9 18 10 19 110 20 105 21 109 22 106 23
REMARK SMILES IDX 108 24 107 25 6 26 7 27 8 28 5 29 1 30 2 31 3 32 112 33 4 34
REMARK SMILES IDX 111 35 18 36 19 37 20 38 27 39 21 40 22 41 26 42 23 44 25 45
REMARK SMILES IDX 24 46 35 47 36 48 37 49 38 50 39 51 40 52 41 54 42 55 43 56
REMARK SMILES IDX 104 57 44 58 103 59 45 60 46 61 47 62 97 63 48 64 102 65
REMARK SMILES IDX 96 66 98 67 49 68 101 69 95 70 94 71 50 73 82 74 62 75 81 76
REMARK SMILES IDX 63 77 66 78 80 79 99 80 64 81 65 82 79 84 100 85 67 86 51 87
REMARK SMILES IDX 52 88 60 89 53 90 54 91 58 92 61 93 55 94 56 95 59 96 57 97
REMARK SMILES IDX 83 98 84 99 92 100 85 101 86 102 90 103 93 104 87 105 88 106
REMARK SMILES IDX 91 107 89 108 68 109 69 110 77 111 70 112 71 113 75 114
REMARK SMILES IDX 78 115 72 116 73 117 76 118 74 119
REMARK H PARENT 34 4 30 9 16 14 21 43 39 53 98 72 66 83
REMARK Flexibility Score: inf
ROOT
ATOM      1  C   UNL A   1      32.839  27.158  23.680  1.00  0.00     0.239 C 
ATOM      2  O   UNL A   1      32.367  26.676  22.649  1.00  0.00    -0.273 OA
ATOM      3  N   UNL A   1      32.520  28.444  24.010  1.00  0.00    -0.355 N 
ATOM      4  H   UNL A   1      31.922  28.921  23.390  1.00  0.00     0.163 HD
ENDROOT
BRANCH   1   5
ATOM      5  C   UNL A   1      33.578  26.303  24.712  1.00  0.00     0.216 C 
BRANCH   5   6
ATOM      6  N   UNL A   1      32.825  25.510  25.667  1.00  0.00    -0.345 N 
ATOM      7  C   UNL A   1      32.606  24.166  25.747  1.00  0.00     0.243 C 
ATOM      8  O   UNL A   1      32.205  23.773  26.851  1.00  0.00    -0.273 OA
ATOM      9  H   UNL A   1      32.400  26.034  26.383  1.00  0.00     0.164 HD
BRANCH   7  10
ATOM     10  C   UNL A   1      32.842  23.119  24.596  1.00  0.00     0.176 C 
BRANCH  10  11
ATOM     11  N   UNL A   1      34.005  23.364  23.700  1.00  0.00    -0.337 N 
ATOM     12  C   UNL A   1      35.383  23.435  23.952  1.00  0.00     0.293 C 
ATOM     13  O   UNL A   1      36.143  23.703  23.022  1.00  0.00    -0.265 OA
ATOM     14  H   UNL A   1      33.762  23.501  22.756  1.00  0.00     0.164 HD
BRANCH  12  15
ATOM     15  C   UNL A   1      35.973  23.120  25.348  1.00  0.00     0.252 C 
ATOM     16  O   UNL A   1      35.217  23.356  26.292  1.00  0.00    -0.283 OA
BRANCH  15  17
ATOM     17  C   UNL A   1      37.357  22.616  25.593  1.00  0.00     0.054 A 
ATOM     18  N   UNL A   1      39.330  21.434  25.593  1.00  0.00    -0.240 N 
ATOM     19  C   UNL A   1      37.973  21.397  25.272  1.00  0.00     0.117 A 
ATOM     20  C   UNL A   1      39.567  22.717  26.129  1.00  0.00     0.065 A 
ATOM     21  C   UNL A   1      38.323  23.283  26.405  1.00  0.00     0.012 A 
ATOM     22  C   UNL A   1      40.759  23.310  26.596  1.00  0.00     0.028 A 
ATOM     23  C   UNL A   1      38.265  24.336  27.342  1.00  0.00     0.011 A 
ATOM     24  C   UNL A   1      40.670  24.309  27.557  1.00  0.00     0.002 A 
ATOM     25  C   UNL A   1      39.434  24.785  27.962  1.00  0.00     0.001 A 
BRANCH  18  26
ATOM     26  S   UNL A   1      40.516  20.269  26.184  1.00  0.00     0.268 S 
ATOM     27  O   UNL A   1      39.874  19.031  25.753  1.00  0.00    -0.201 OA
ATOM     28  O   UNL A   1      40.558  20.635  27.595  1.00  0.00    -0.201 OA
BRANCH  26  29
ATOM     29  C   UNL A   1      42.231  19.857  25.957  1.00  0.00     0.088 A 
ATOM     30  C   UNL A   1      46.494  19.780  24.977  1.00  0.00     0.044 C 
ATOM     31  C   UNL A   1      45.034  19.787  25.336  1.00  0.00    -0.051 A 
ATOM     32  C   UNL A   1      44.363  20.999  25.387  1.00  0.00     0.005 A 
ATOM     33  C   UNL A   1      44.284  18.615  25.519  1.00  0.00     0.005 A 
ATOM     34  C   UNL A   1      43.006  21.025  25.717  1.00  0.00     0.022 A 
ATOM     35  C   UNL A   1      42.877  18.654  25.747  1.00  0.00     0.022 A 
ENDBRANCH  26  29
ENDBRANCH  18  26
ENDBRANCH  15  17
ENDBRANCH  12  15
ENDBRANCH  10  11
BRANCH  10  36
ATOM     36  C   UNL A   1      32.676  21.622  25.016  1.00  0.00     0.072 C 
BRANCH  36  37
ATOM     37  C   UNL A   1      32.699  20.540  23.963  1.00  0.00    -0.020 A 
ATOM     38  C   UNL A   1      31.936  20.540  22.805  1.00  0.00     0.087 A 
ATOM     39  C   UNL A   1      33.445  19.306  23.946  1.00  0.00     0.003 A 
ATOM     40  N   UNL A   1      32.089  19.331  22.176  1.00  0.00    -0.361 N 
ATOM     41  C   UNL A   1      32.916  18.521  22.916  1.00  0.00     0.046 A 
ATOM     42  C   UNL A   1      34.412  18.720  24.791  1.00  0.00     0.010 A 
ATOM     43  H   UNL A   1      31.669  19.081  21.321  1.00  0.00     0.166 HD
ATOM     44  C   UNL A   1      33.205  17.158  22.770  1.00  0.00     0.026 A 
ATOM     45  C   UNL A   1      34.697  17.353  24.671  1.00  0.00     0.001 A 
ATOM     46  C   UNL A   1      34.079  16.581  23.693  1.00  0.00     0.002 A 
ENDBRANCH  36  37
ENDBRANCH  10  36
ENDBRANCH   7  10
ENDBRANCH   5   6
ENDBRANCH   1   5
BRANCH   3  47
ATOM     47  C   UNL A   1      32.966  29.177  25.170  1.00  0.00     0.116 C 
BRANCH  47  48
ATOM     48  C   UNL A   1      31.800  29.577  26.072  1.00  0.00     0.023 C 
BRANCH  48  49
ATOM     49  C   UNL A   1      31.929  30.988  26.645  1.00  0.00     0.023 C 
BRANCH  49  50
ATOM     50  C   UNL A   1      33.289  31.255  27.258  1.00  0.00     0.116 C 
BRANCH  50  51
ATOM     51  N   UNL A   1      33.346  32.403  28.138  1.00  0.00    -0.352 N 
ATOM     52  C   UNL A   1      34.417  32.924  28.831  1.00  0.00     0.251 C 
ATOM     53  H   UNL A   1      32.494  32.882  28.258  1.00  0.00     0.163 HD
ATOM     54  O   UNL A   1      34.197  33.780  29.691  1.00  0.00    -0.269 OA
BRANCH  52  55
ATOM     55  C   UNL A   1      35.828  32.635  28.438  1.00  0.00     0.039 A 
ATOM     56  C   UNL A   1      36.141  31.305  28.128  1.00  0.00     0.014 A 
ATOM     57  C   UNL A   1      36.868  33.520  28.689  1.00  0.00     0.014 A 
ATOM     58  C   UNL A   1      37.409  30.819  28.418  1.00  0.00     0.010 A 
ATOM     59  C   UNL A   1      38.063  33.020  29.144  1.00  0.00     0.010 A 
ATOM     60  C   UNL A   1      38.285  31.649  29.099  1.00  0.00    -0.014 A 
BRANCH  60  61
ATOM     61  C   UNL A   1      39.485  31.207  29.776  1.00  0.00     0.031 A 
ATOM     62  C   UNL A   1      40.017  29.881  29.453  1.00  0.00     0.074 A 
ATOM     63  C   UNL A   1      40.144  32.091  30.555  1.00  0.00     0.049 A 
ATOM     64  N   UNL A   1      40.921  29.265  30.125  1.00  0.00    -0.248 NA
ATOM     65  C   UNL A   1      39.488  29.105  28.337  1.00  0.00     0.031 C 
ATOM     66  C   UNL A   1      41.492  31.993  31.113  1.00  0.00     0.029 A 
ATOM     67  N   UNL A   1      39.537  33.112  31.306  1.00  0.00    -0.354 N 
ATOM     68  C   UNL A   1      41.325  28.191  29.363  1.00  0.00     0.074 A 
ATOM     69  C   UNL A   1      40.311  28.056  28.350  1.00  0.00     0.031 C 
ATOM     70  C   UNL A   1      41.501  32.620  32.305  1.00  0.00     0.029 A 
ATOM     71  C   UNL A   1      40.107  32.936  32.586  1.00  0.00     0.049 A 
ATOM     72  H   UNL A   1      38.878  33.782  31.013  1.00  0.00     0.167 HD
ATOM     73  C   UNL A   1      42.570  27.684  29.588  1.00  0.00     0.037 A 
ATOM     74  C   UNL A   1      39.387  32.363  33.598  1.00  0.00     0.037 A 
ATOM     75  C   UNL A   1      43.104  28.204  30.846  1.00  0.00     0.049 A 
ATOM     76  C   UNL A   1      40.109  31.296  34.333  1.00  0.00     0.074 A 
ATOM     77  C   UNL A   1      43.989  29.227  31.145  1.00  0.00     0.029 A 
ATOM     78  N   UNL A   1      42.457  27.877  32.032  1.00  0.00    -0.354 N 
ATOM     79  N   UNL A   1      40.822  30.386  33.739  1.00  0.00    -0.248 NA
ATOM     80  C   UNL A   1      40.143  31.218  35.788  1.00  0.00     0.031 C 
ATOM     81  C   UNL A   1      43.822  29.560  32.514  1.00  0.00     0.029 A 
ATOM     82  C   UNL A   1      42.854  28.724  33.044  1.00  0.00     0.049 A 
ATOM     83  H   UNL A   1      41.809  27.144  32.134  1.00  0.00     0.167 HD
ATOM     84  C   UNL A   1      41.433  29.627  34.702  1.00  0.00     0.074 A 
ATOM     85  C   UNL A   1      40.970  30.176  35.963  1.00  0.00     0.031 C 
ATOM     86  C   UNL A   1      42.277  28.612  34.372  1.00  0.00     0.037 A 
BRANCH  73  87
ATOM     87  C   UNL A   1      43.426  26.991  28.543  1.00  0.00     0.064 A 
ATOM     88  C   UNL A   1      43.910  27.722  27.434  1.00  0.00     0.173 A 
ATOM     89  C   UNL A   1      43.719  25.613  28.493  1.00  0.00     0.173 A 
ATOM     90  F   UNL A   1      43.786  29.054  27.363  1.00  0.00    -0.203 F 
ATOM     91  C   UNL A   1      44.537  27.114  26.340  1.00  0.00     0.198 A 
ATOM     92  C   UNL A   1      44.326  25.002  27.392  1.00  0.00     0.198 A 
ATOM     93  F   UNL A   1      43.468  24.791  29.513  1.00  0.00    -0.203 F 
ATOM     94  F   UNL A   1      44.940  27.866  25.305  1.00  0.00    -0.200 F 
ATOM     95  C   UNL A   1      44.724  25.750  26.309  1.00  0.00     0.200 A 
ATOM     96  F   UNL A   1      44.516  23.675  27.397  1.00  0.00    -0.200 F 
ATOM     97  F   UNL A   1      45.299  25.162  25.251  1.00  0.00    -0.200 F 
ENDBRANCH  73  87
BRANCH  74  98
ATOM     98  C   UNL A   1      37.916  32.423  33.413  1.00  0.00     0.064 A 
ATOM     99  C   UNL A   1      37.298  33.550  33.953  1.00  0.00     0.173 A 
ATOM    100  C   UNL A   1      37.129  31.612  32.605  1.00  0.00     0.173 A 
ATOM    101  F   UNL A   1      37.961  34.154  34.943  1.00  0.00    -0.203 F 
ATOM    102  C   UNL A   1      36.015  33.962  33.618  1.00  0.00     0.198 A 
ATOM    103  C   UNL A   1      35.808  31.981  32.302  1.00  0.00     0.198 A 
ATOM    104  F   UNL A   1      37.636  30.502  32.057  1.00  0.00    -0.203 F 
ATOM    105  F   UNL A   1      35.506  35.078  34.158  1.00  0.00    -0.200 F 
ATOM    106  C   UNL A   1      35.267  33.174  32.771  1.00  0.00     0.200 A 
ATOM    107  F   UNL A   1      35.081  31.215  31.477  1.00  0.00    -0.200 F 
ATOM    108  F   UNL A   1      34.034  33.553  32.411  1.00  0.00    -0.200 F 
ENDBRANCH  74  98
BRANCH  86 109
ATOM    109  C   UNL A   1      42.680  27.467  35.264  1.00  0.00     0.064 A 
ATOM    110  C   UNL A   1      41.947  26.274  35.384  1.00  0.00     0.173 A 
ATOM    111  C   UNL A   1      43.953  27.463  35.883  1.00  0.00     0.173 A 
ATOM    112  F   UNL A   1      40.777  26.100  34.755  1.00  0.00    -0.203 F 
ATOM    113  C   UNL A   1      42.430  25.178  36.101  1.00  0.00     0.198 A 
ATOM    114  C   UNL A   1      44.457  26.346  36.544  1.00  0.00     0.198 A 
ATOM    115  F   UNL A   1      44.767  28.528  35.825  1.00  0.00    -0.203 F 
ATOM    116  F   UNL A   1      41.677  24.074  36.205  1.00  0.00    -0.200 F 
ATOM    117  C   UNL A   1      43.691  25.206  36.663  1.00  0.00     0.200 A 
ATOM    118  F   UNL A   1      45.705  26.370  37.034  1.00  0.00    -0.200 F 
ATOM    119  F   UNL A   1      44.176  24.128  37.292  1.00  0.00    -0.200 F 
ENDBRANCH  86 109
ENDBRANCH  60  61
ENDBRANCH  52  55
ENDBRANCH  50  51
ENDBRANCH  49  50
ENDBRANCH  48  49
ENDBRANCH  47  48
ENDBRANCH   3  47
TORSDOF 20
ENDMDL
