MODEL 1
REMARK VINA RESULT:     -12.5      0.000      0.000
REMARK SMILES C[C@@H](C(=O)NCCCCNC(=O)c1ccc(-c2c3nc(c(-c4c(F)c(F)c(F)c(F)c4F)c4ccc([nH]4)c(-c4c(F)c(F)c(F)c(F)c4F)c4nc(c(-c5c(F)c(F)c(F)c(F)c5F)c5ccc2[nH]5)C=C4)C=C3)cc1)c1ccc(C[C@@H]2CCC[C@@H]2O)cc1
REMARK SMILES IDX 6 1 5 2 3 3 4 4 2 6 1 7 76 8 77 9 88 10 78 11 87 12 79 13
REMARK SMILES IDX 80 14 81 15 82 16 85 17 83 18 84 19 86 20 7 22 8 23 9 24
REMARK SMILES IDX 10 25 11 26 12 28 13 29 14 30 75 31 15 32 74 33 16 34 17 35
REMARK SMILES IDX 18 36 68 37 19 38 73 39 67 40 69 41 20 42 72 43 66 44 65 45
REMARK SMILES IDX 21 47 53 48 33 49 52 50 34 51 37 52 51 53 70 54 35 55 36 56
REMARK SMILES IDX 50 58 71 59 38 60 22 61 23 62 31 63 24 64 25 65 29 66 32 67
REMARK SMILES IDX 26 68 27 69 30 70 28 71 54 72 55 73 63 74 56 75 57 76 61 77
REMARK SMILES IDX 64 78 58 79 59 80 62 81 60 82 39 83 40 84 48 85 41 86 42 87
REMARK SMILES IDX 46 88 49 89 43 90 44 91 47 92 45 93
REMARK H PARENT 5 5 86 21 10 27 69 46 37 57
REMARK Flexibility Score: inf
ROOT
ATOM      1  C   UNL A   1      32.902  30.097  26.400  1.00  0.00     0.116 C 
ENDROOT
BRANCH   1   2
ATOM      2  N   UNL A   1      32.423  29.202  27.431  1.00  0.00    -0.356 N 
ATOM      3  C   UNL A   1      31.853  27.965  27.325  1.00  0.00     0.227 C 
ATOM      4  O   UNL A   1      31.219  27.605  28.317  1.00  0.00    -0.274 OA
ATOM      5  H   UNL A   1      32.522  29.537  28.352  1.00  0.00     0.163 HD
BRANCH   3   6
ATOM      6  C   UNL A   1      32.033  27.142  26.034  1.00  0.00     0.105 C 
ATOM      7  C   UNL A   1      30.692  26.957  25.315  1.00  0.00     0.023 C 
BRANCH   6   8
ATOM      8  C   UNL A   1      32.720  25.777  26.150  1.00  0.00    -0.036 A 
ATOM      9  C   UNL A   1      34.059  25.533  25.824  1.00  0.00     0.005 A 
ATOM     10  C   UNL A   1      31.976  24.696  26.662  1.00  0.00     0.005 A 
ATOM     11  C   UNL A   1      34.629  24.269  25.986  1.00  0.00     0.004 A 
ATOM     12  C   UNL A   1      32.546  23.429  26.823  1.00  0.00     0.004 A 
ATOM     13  C   UNL A   1      33.874  23.196  26.461  1.00  0.00    -0.048 A 
BRANCH  13  14
ATOM     14  C   UNL A   1      34.467  21.815  26.552  1.00  0.00     0.041 C 
BRANCH  14  15
ATOM     15  C   UNL A   1      34.453  20.942  25.276  1.00  0.00     0.022 C 
ATOM     16  C   UNL A   1      34.179  21.702  23.972  1.00  0.00     0.007 C 
ATOM     17  C   UNL A   1      33.426  19.805  25.213  1.00  0.00     0.117 C 
ATOM     18  C   UNL A   1      32.699  21.485  23.638  1.00  0.00     0.003 C 
ATOM     19  C   UNL A   1      32.178  20.439  24.618  1.00  0.00     0.032 C 
BRANCH  17  20
ATOM     20  O   UNL A   1      33.172  19.186  26.456  1.00  0.00    -0.393 OA
ATOM     21  H   UNL A   1      32.901  19.857  27.102  1.00  0.00     0.210 HD
ENDBRANCH  17  20
ENDBRANCH  14  15
ENDBRANCH  13  14
ENDBRANCH   6   8
ENDBRANCH   3   6
ENDBRANCH   1   2
BRANCH   1  22
ATOM     22  C   UNL A   1      31.746  30.926  25.827  1.00  0.00     0.023 C 
BRANCH  22  23
ATOM     23  C   UNL A   1      31.407  32.191  26.617  1.00  0.00     0.023 C 
BRANCH  23  24
ATOM     24  C   UNL A   1      32.580  32.824  27.350  1.00  0.00     0.116 C 
BRANCH  24  25
ATOM     25  N   UNL A   1      32.352  34.227  27.657  1.00  0.00    -0.352 N 
ATOM     26  C   UNL A   1      32.975  35.019  28.589  1.00  0.00     0.251 C 
ATOM     27  H   UNL A   1      31.654  34.670  27.124  1.00  0.00     0.163 HD
ATOM     28  O   UNL A   1      32.551  36.146  28.827  1.00  0.00    -0.269 OA
BRANCH  26  29
ATOM     29  C   UNL A   1      34.143  34.496  29.326  1.00  0.00     0.039 A 
ATOM     30  C   UNL A   1      33.939  33.878  30.562  1.00  0.00     0.014 A 
ATOM     31  C   UNL A   1      35.430  34.600  28.792  1.00  0.00     0.014 A 
ATOM     32  C   UNL A   1      35.021  33.310  31.235  1.00  0.00     0.010 A 
ATOM     33  C   UNL A   1      36.492  33.964  29.425  1.00  0.00     0.010 A 
ATOM     34  C   UNL A   1      36.300  33.319  30.655  1.00  0.00    -0.014 A 
BRANCH  34  35
ATOM     35  C   UNL A   1      37.455  32.668  31.326  1.00  0.00     0.031 A 
ATOM     36  C   UNL A   1      38.161  31.521  30.657  1.00  0.00     0.074 A 
ATOM     37  C   UNL A   1      37.823  33.065  32.559  1.00  0.00     0.049 A 
ATOM     38  N   UNL A   1      39.134  30.772  31.109  1.00  0.00    -0.248 NA
ATOM     39  C   UNL A   1      37.689  31.148  29.314  1.00  0.00     0.031 C 
ATOM     40  C   UNL A   1      37.188  34.136  33.327  1.00  0.00     0.029 A 
ATOM     41  N   UNL A   1      38.816  32.604  33.387  1.00  0.00    -0.354 N 
ATOM     42  C   UNL A   1      39.380  29.834  30.114  1.00  0.00     0.074 A 
ATOM     43  C   UNL A   1      38.416  30.070  29.062  1.00  0.00     0.031 C 
ATOM     44  C   UNL A   1      37.819  34.265  34.505  1.00  0.00     0.029 A 
ATOM     45  C   UNL A   1      38.874  33.259  34.593  1.00  0.00     0.049 A 
ATOM     46  H   UNL A   1      39.427  31.874  33.141  1.00  0.00     0.167 HD
ATOM     47  C   UNL A   1      40.339  28.879  30.072  1.00  0.00     0.037 A 
ATOM     48  C   UNL A   1      39.680  33.062  35.653  1.00  0.00     0.037 A 
ATOM     49  C   UNL A   1      41.310  28.662  31.113  1.00  0.00     0.049 A 
ATOM     50  C   UNL A   1      40.727  31.982  35.588  1.00  0.00     0.074 A 
ATOM     51  C   UNL A   1      42.358  27.760  31.140  1.00  0.00     0.029 A 
ATOM     52  N   UNL A   1      41.345  29.354  32.315  1.00  0.00    -0.354 N 
ATOM     53  N   UNL A   1      40.995  31.146  34.615  1.00  0.00    -0.248 NA
ATOM     54  C   UNL A   1      41.585  31.821  36.769  1.00  0.00     0.031 C 
ATOM     55  C   UNL A   1      42.993  27.866  32.382  1.00  0.00     0.029 A 
ATOM     56  C   UNL A   1      42.382  28.880  33.103  1.00  0.00     0.049 A 
ATOM     57  H   UNL A   1      40.726  30.077  32.570  1.00  0.00     0.167 HD
ATOM     58  C   UNL A   1      42.072  30.385  35.050  1.00  0.00     0.074 A 
ATOM     59  C   UNL A   1      42.416  30.868  36.371  1.00  0.00     0.031 C 
ATOM     60  C   UNL A   1      42.718  29.377  34.413  1.00  0.00     0.037 A 
BRANCH  47  61
ATOM     61  C   UNL A   1      40.384  27.994  28.858  1.00  0.00     0.064 A 
ATOM     62  C   UNL A   1      41.131  28.339  27.721  1.00  0.00     0.173 A 
ATOM     63  C   UNL A   1      39.698  26.770  28.844  1.00  0.00     0.173 A 
ATOM     64  F   UNL A   1      41.798  29.502  27.677  1.00  0.00    -0.203 F 
ATOM     65  C   UNL A   1      41.161  27.509  26.602  1.00  0.00     0.198 A 
ATOM     66  C   UNL A   1      39.758  25.927  27.737  1.00  0.00     0.198 A 
ATOM     67  F   UNL A   1      38.974  26.387  29.906  1.00  0.00    -0.203 F 
ATOM     68  F   UNL A   1      41.835  27.887  25.508  1.00  0.00    -0.200 F 
ATOM     69  C   UNL A   1      40.482  26.301  26.614  1.00  0.00     0.200 A 
ATOM     70  F   UNL A   1      39.113  24.753  27.756  1.00  0.00    -0.200 F 
ATOM     71  F   UNL A   1      40.517  25.500  25.541  1.00  0.00    -0.200 F 
ENDBRANCH  47  61
BRANCH  48  72
ATOM     72  C   UNL A   1      39.544  33.919  36.861  1.00  0.00     0.064 A 
ATOM     73  C   UNL A   1      38.779  33.498  37.959  1.00  0.00     0.173 A 
ATOM     74  C   UNL A   1      40.166  35.173  36.942  1.00  0.00     0.173 A 
ATOM     75  F   UNL A   1      38.149  32.315  37.922  1.00  0.00    -0.203 F 
ATOM     76  C   UNL A   1      38.621  34.310  39.080  1.00  0.00     0.198 A 
ATOM     77  C   UNL A   1      40.033  35.970  38.077  1.00  0.00     0.198 A 
ATOM     78  F   UNL A   1      40.913  35.620  35.924  1.00  0.00    -0.203 F 
ATOM     79  F   UNL A   1      37.842  33.906  40.093  1.00  0.00    -0.200 F 
ATOM     80  C   UNL A   1      39.253  35.543  39.141  1.00  0.00     0.200 A 
ATOM     81  F   UNL A   1      40.658  37.154  38.140  1.00  0.00    -0.200 F 
ATOM     82  F   UNL A   1      39.103  36.322  40.221  1.00  0.00    -0.200 F 
ENDBRANCH  48  72
BRANCH  60  83
ATOM     83  C   UNL A   1      43.890  28.754  35.117  1.00  0.00     0.064 A 
ATOM     84  C   UNL A   1      43.743  27.635  35.950  1.00  0.00     0.173 A 
ATOM     85  C   UNL A   1      45.183  29.261  34.921  1.00  0.00     0.173 A 
ATOM     86  F   UNL A   1      42.526  27.120  36.181  1.00  0.00    -0.203 F 
ATOM     87  C   UNL A   1      44.845  27.063  36.581  1.00  0.00     0.198 A 
ATOM     88  C   UNL A   1      46.287  28.666  35.527  1.00  0.00     0.198 A 
ATOM     89  F   UNL A   1      45.380  30.326  34.129  1.00  0.00    -0.203 F 
ATOM     90  F   UNL A   1      44.675  26.026  37.413  1.00  0.00    -0.200 F 
ATOM     91  C   UNL A   1      46.115  27.574  36.363  1.00  0.00     0.200 A 
ATOM     92  F   UNL A   1      47.515  29.151  35.301  1.00  0.00    -0.200 F 
ATOM     93  F   UNL A   1      47.175  27.017  36.965  1.00  0.00    -0.200 F 
ENDBRANCH  60  83
ENDBRANCH  34  35
ENDBRANCH  26  29
ENDBRANCH  24  25
ENDBRANCH  23  24
ENDBRANCH  22  23
ENDBRANCH   1  22
TORSDOF 15
ENDMDL
MODEL 2
REMARK VINA RESULT:     -12.4      0.090      1.963
REMARK SMILES C[C@@H](C(=O)NCCCCNC(=O)c1ccc(-c2c3nc(c(-c4c(F)c(F)c(F)c(F)c4F)c4ccc([nH]4)c(-c4c(F)c(F)c(F)c(F)c4F)c4nc(c(-c5c(F)c(F)c(F)c(F)c5F)c5ccc2[nH]5)C=C4)C=C3)cc1)c1ccc(C[C@@H]2CCC[C@@H]2O)cc1
REMARK SMILES IDX 6 1 5 2 3 3 4 4 2 6 1 7 76 8 77 9 88 10 78 11 87 12 79 13
REMARK SMILES IDX 80 14 81 15 82 16 85 17 83 18 84 19 86 20 7 22 8 23 9 24
REMARK SMILES IDX 10 25 11 26 12 28 13 29 14 30 75 31 15 32 74 33 16 34 17 35
REMARK SMILES IDX 18 36 68 37 19 38 73 39 67 40 69 41 20 42 72 43 66 44 65 45
REMARK SMILES IDX 21 47 53 48 33 49 52 50 34 51 37 52 51 53 70 54 35 55 36 56
REMARK SMILES IDX 50 58 71 59 38 60 22 61 23 62 31 63 24 64 25 65 29 66 32 67
REMARK SMILES IDX 26 68 27 69 30 70 28 71 54 72 55 73 63 74 56 75 57 76 61 77
REMARK SMILES IDX 64 78 58 79 59 80 62 81 60 82 39 83 40 84 48 85 41 86 42 87
REMARK SMILES IDX 46 88 49 89 43 90 44 91 47 92 45 93
REMARK H PARENT 5 5 86 21 10 27 69 46 37 57
REMARK Flexibility Score: inf
ROOT
ATOM      1  C   UNL A   1      32.920  30.120  26.520  1.00  0.00     0.116 C 
ENDROOT
BRANCH   1   2
ATOM      2  N   UNL A   1      32.423  29.192  27.511  1.00  0.00    -0.356 N 
ATOM      3  C   UNL A   1      31.860  27.958  27.354  1.00  0.00     0.227 C 
ATOM      4  O   UNL A   1      31.206  27.564  28.321  1.00  0.00    -0.274 OA
ATOM      5  H   UNL A   1      32.502  29.498  28.445  1.00  0.00     0.163 HD
BRANCH   3   6
ATOM      6  C   UNL A   1      32.071  27.176  26.042  1.00  0.00     0.105 C 
ATOM      7  C   UNL A   1      30.744  27.002  25.294  1.00  0.00     0.023 C 
BRANCH   6   8
ATOM      8  C   UNL A   1      32.768  25.815  26.128  1.00  0.00    -0.036 A 
ATOM      9  C   UNL A   1      34.095  25.579  25.754  1.00  0.00     0.005 A 
ATOM     10  C   UNL A   1      32.048  24.728  26.662  1.00  0.00     0.005 A 
ATOM     11  C   UNL A   1      34.678  24.317  25.890  1.00  0.00     0.004 A 
ATOM     12  C   UNL A   1      32.630  23.464  26.798  1.00  0.00     0.004 A 
ATOM     13  C   UNL A   1      33.945  23.239  26.387  1.00  0.00    -0.048 A 
BRANCH  13  14
ATOM     14  C   UNL A   1      34.548  21.860  26.452  1.00  0.00     0.041 C 
BRANCH  14  15
ATOM     15  C   UNL A   1      34.455  20.976  25.187  1.00  0.00     0.022 C 
ATOM     16  C   UNL A   1      34.160  21.732  23.885  1.00  0.00     0.007 C 
ATOM     17  C   UNL A   1      33.385  19.877  25.175  1.00  0.00     0.117 C 
ATOM     18  C   UNL A   1      32.662  21.567  23.608  1.00  0.00     0.003 C 
ATOM     19  C   UNL A   1      32.139  20.551  24.619  1.00  0.00     0.032 C 
BRANCH  17  20
ATOM     20  O   UNL A   1      33.154  19.280  26.433  1.00  0.00    -0.393 OA
ATOM     21  H   UNL A   1      32.199  19.195  26.580  1.00  0.00     0.210 HD
ENDBRANCH  17  20
ENDBRANCH  14  15
ENDBRANCH  13  14
ENDBRANCH   6   8
ENDBRANCH   3   6
ENDBRANCH   1   2
BRANCH   1  22
ATOM     22  C   UNL A   1      31.763  30.900  25.884  1.00  0.00     0.023 C 
BRANCH  22  23
ATOM     23  C   UNL A   1      31.427  32.227  26.568  1.00  0.00     0.023 C 
BRANCH  23  24
ATOM     24  C   UNL A   1      32.564  32.841  27.370  1.00  0.00     0.116 C 
BRANCH  24  25
ATOM     25  N   UNL A   1      32.338  34.246  27.670  1.00  0.00    -0.352 N 
ATOM     26  C   UNL A   1      32.963  35.042  28.596  1.00  0.00     0.251 C 
ATOM     27  H   UNL A   1      31.640  34.687  27.135  1.00  0.00     0.163 HD
ATOM     28  O   UNL A   1      32.541  36.171  28.828  1.00  0.00    -0.269 OA
BRANCH  26  29
ATOM     29  C   UNL A   1      34.132  34.522  29.335  1.00  0.00     0.039 A 
ATOM     30  C   UNL A   1      33.929  33.912  30.575  1.00  0.00     0.014 A 
ATOM     31  C   UNL A   1      35.419  34.622  28.799  1.00  0.00     0.014 A 
ATOM     32  C   UNL A   1      35.011  33.347  31.249  1.00  0.00     0.010 A 
ATOM     33  C   UNL A   1      36.481  33.988  29.433  1.00  0.00     0.010 A 
ATOM     34  C   UNL A   1      36.290  33.351  30.668  1.00  0.00    -0.014 A 
BRANCH  34  35
ATOM     35  C   UNL A   1      37.445  32.703  31.340  1.00  0.00     0.031 A 
ATOM     36  C   UNL A   1      38.153  31.555  30.674  1.00  0.00     0.074 A 
ATOM     37  C   UNL A   1      37.811  33.102  32.572  1.00  0.00     0.049 A 
ATOM     38  N   UNL A   1      39.127  30.808  31.128  1.00  0.00    -0.248 NA
ATOM     39  C   UNL A   1      37.682  31.179  29.332  1.00  0.00     0.031 C 
ATOM     40  C   UNL A   1      37.175  34.174  33.339  1.00  0.00     0.029 A 
ATOM     41  N   UNL A   1      38.804  32.643  33.403  1.00  0.00    -0.354 N 
ATOM     42  C   UNL A   1      39.375  29.869  30.135  1.00  0.00     0.074 A 
ATOM     43  C   UNL A   1      38.411  30.101  29.081  1.00  0.00     0.031 C 
ATOM     44  C   UNL A   1      37.805  34.306  34.517  1.00  0.00     0.029 A 
ATOM     45  C   UNL A   1      38.861  33.301  34.608  1.00  0.00     0.049 A 
ATOM     46  H   UNL A   1      39.417  31.914  33.158  1.00  0.00     0.167 HD
ATOM     47  C   UNL A   1      40.335  28.914  30.095  1.00  0.00     0.037 A 
ATOM     48  C   UNL A   1      39.667  33.107  35.669  1.00  0.00     0.037 A 
ATOM     49  C   UNL A   1      41.305  28.701  31.137  1.00  0.00     0.049 A 
ATOM     50  C   UNL A   1      40.714  32.028  35.606  1.00  0.00     0.074 A 
ATOM     51  C   UNL A   1      42.354  27.799  31.167  1.00  0.00     0.029 A 
ATOM     52  N   UNL A   1      41.338  29.395  32.338  1.00  0.00    -0.354 N 
ATOM     53  N   UNL A   1      40.985  31.191  34.634  1.00  0.00    -0.248 NA
ATOM     54  C   UNL A   1      41.572  31.870  36.788  1.00  0.00     0.031 C 
ATOM     55  C   UNL A   1      42.988  27.909  32.409  1.00  0.00     0.029 A 
ATOM     56  C   UNL A   1      42.375  28.923  33.128  1.00  0.00     0.049 A 
ATOM     57  H   UNL A   1      40.718  30.117  32.592  1.00  0.00     0.167 HD
ATOM     58  C   UNL A   1      42.062  30.432  35.072  1.00  0.00     0.074 A 
ATOM     59  C   UNL A   1      42.404  30.917  36.393  1.00  0.00     0.031 C 
ATOM     60  C   UNL A   1      42.709  29.424  34.437  1.00  0.00     0.037 A 
BRANCH  47  61
ATOM     61  C   UNL A   1      40.382  28.027  28.883  1.00  0.00     0.064 A 
ATOM     62  C   UNL A   1      39.685  26.810  28.832  1.00  0.00     0.173 A 
ATOM     63  C   UNL A   1      41.107  28.414  27.746  1.00  0.00     0.173 A 
ATOM     64  F   UNL A   1      38.984  26.387  29.896  1.00  0.00    -0.203 F 
ATOM     65  C   UNL A   1      39.740  25.997  27.702  1.00  0.00     0.198 A 
ATOM     66  C   UNL A   1      41.132  27.615  26.605  1.00  0.00     0.198 A 
ATOM     67  F   UNL A   1      41.786  29.570  27.737  1.00  0.00    -0.203 F 
ATOM     68  F   UNL A   1      39.113  24.813  27.699  1.00  0.00    -0.200 F 
ATOM     69  C   UNL A   1      40.456  26.404  26.588  1.00  0.00     0.200 A 
ATOM     70  F   UNL A   1      41.812  28.016  25.523  1.00  0.00    -0.200 F 
ATOM     71  F   UNL A   1      40.503  25.625  25.499  1.00  0.00    -0.200 F 
ENDBRANCH  47  61
BRANCH  48  72
ATOM     72  C   UNL A   1      39.528  33.965  36.875  1.00  0.00     0.064 A 
ATOM     73  C   UNL A   1      40.154  35.219  36.942  1.00  0.00     0.173 A 
ATOM     74  C   UNL A   1      38.777  33.552  37.985  1.00  0.00     0.173 A 
ATOM     75  F   UNL A   1      40.899  35.650  35.914  1.00  0.00    -0.203 F 
ATOM     76  C   UNL A   1      40.055  36.014  38.082  1.00  0.00     0.198 A 
ATOM     77  C   UNL A   1      38.652  34.362  39.112  1.00  0.00     0.198 A 
ATOM     78  F   UNL A   1      38.154  32.366  37.970  1.00  0.00    -0.203 F 
ATOM     79  F   UNL A   1      40.705  37.184  38.139  1.00  0.00    -0.200 F 
ATOM     80  C   UNL A   1      39.299  35.588  39.163  1.00  0.00     0.200 A 
ATOM     81  F   UNL A   1      37.909  33.954  40.149  1.00  0.00    -0.200 F 
ATOM     82  F   UNL A   1      39.201  36.354  40.258  1.00  0.00    -0.200 F 
ENDBRANCH  48  72
BRANCH  60  83
ATOM     83  C   UNL A   1      43.882  28.803  35.143  1.00  0.00     0.064 A 
ATOM     84  C   UNL A   1      45.189  29.279  34.967  1.00  0.00     0.173 A 
ATOM     85  C   UNL A   1      43.685  27.741  36.039  1.00  0.00     0.173 A 
ATOM     86  F   UNL A   1      45.433  30.283  34.110  1.00  0.00    -0.203 F 
ATOM     87  C   UNL A   1      46.260  28.698  35.642  1.00  0.00     0.198 A 
ATOM     88  C   UNL A   1      44.753  27.185  36.739  1.00  0.00     0.198 A 
ATOM     89  F   UNL A   1      42.454  27.251  36.250  1.00  0.00    -0.203 F 
ATOM     90  F   UNL A   1      47.506  29.135  35.419  1.00  0.00    -0.200 F 
ATOM     91  C   UNL A   1      46.039  27.658  36.533  1.00  0.00     0.200 A 
ATOM     92  F   UNL A   1      44.535  26.192  37.611  1.00  0.00    -0.200 F 
ATOM     93  F   UNL A   1      47.070  27.106  37.188  1.00  0.00    -0.200 F 
ENDBRANCH  60  83
ENDBRANCH  34  35
ENDBRANCH  26  29
ENDBRANCH  24  25
ENDBRANCH  23  24
ENDBRANCH  22  23
ENDBRANCH   1  22
TORSDOF 15
ENDMDL
MODEL 3
REMARK VINA RESULT:     -12.4      1.278      2.246
REMARK SMILES C[C@@H](C(=O)NCCCCNC(=O)c1ccc(-c2c3nc(c(-c4c(F)c(F)c(F)c(F)c4F)c4ccc([nH]4)c(-c4c(F)c(F)c(F)c(F)c4F)c4nc(c(-c5c(F)c(F)c(F)c(F)c5F)c5ccc2[nH]5)C=C4)C=C3)cc1)c1ccc(C[C@@H]2CCC[C@@H]2O)cc1
REMARK SMILES IDX 6 1 5 2 3 3 4 4 2 6 1 7 76 8 77 9 88 10 78 11 87 12 79 13
REMARK SMILES IDX 80 14 81 15 82 16 85 17 83 18 84 19 86 20 7 22 8 23 9 24
REMARK SMILES IDX 10 25 11 26 12 28 13 29 14 30 75 31 15 32 74 33 16 34 17 35
REMARK SMILES IDX 18 36 68 37 19 38 73 39 67 40 69 41 20 42 72 43 66 44 65 45
REMARK SMILES IDX 21 47 53 48 33 49 52 50 34 51 37 52 51 53 70 54 35 55 36 56
REMARK SMILES IDX 50 58 71 59 38 60 22 61 23 62 31 63 24 64 25 65 29 66 32 67
REMARK SMILES IDX 26 68 27 69 30 70 28 71 54 72 55 73 63 74 56 75 57 76 61 77
REMARK SMILES IDX 64 78 58 79 59 80 62 81 60 82 39 83 40 84 48 85 41 86 42 87
REMARK SMILES IDX 46 88 49 89 43 90 44 91 47 92 45 93
REMARK H PARENT 5 5 86 21 10 27 69 46 37 57
REMARK Flexibility Score: inf
ROOT
ATOM      1  C   UNL A   1      32.437  30.098  25.591  1.00  0.00     0.116 C 
ENDROOT
BRANCH   1   2
ATOM      2  N   UNL A   1      31.633  29.475  24.563  1.00  0.00    -0.356 N 
ATOM      3  C   UNL A   1      32.014  28.765  23.460  1.00  0.00     0.227 C 
ATOM      4  O   UNL A   1      31.154  28.676  22.584  1.00  0.00    -0.274 OA
ATOM      5  H   UNL A   1      30.660  29.580  24.674  1.00  0.00     0.163 HD
BRANCH   3   6
ATOM      6  C   UNL A   1      33.427  28.151  23.389  1.00  0.00     0.105 C 
ATOM      7  C   UNL A   1      33.982  28.228  21.963  1.00  0.00     0.023 C 
BRANCH   6   8
ATOM      8  C   UNL A   1      33.609  26.721  23.911  1.00  0.00    -0.036 A 
ATOM      9  C   UNL A   1      33.831  25.604  23.099  1.00  0.00     0.005 A 
ATOM     10  C   UNL A   1      33.597  26.512  25.304  1.00  0.00     0.005 A 
ATOM     11  C   UNL A   1      34.020  24.333  23.646  1.00  0.00     0.004 A 
ATOM     12  C   UNL A   1      33.785  25.240  25.852  1.00  0.00     0.004 A 
ATOM     13  C   UNL A   1      33.973  24.130  25.026  1.00  0.00    -0.048 A 
BRANCH  13  14
ATOM     14  C   UNL A   1      34.090  22.746  25.607  1.00  0.00     0.041 C 
BRANCH  14  15
ATOM     15  C   UNL A   1      35.463  22.321  26.178  1.00  0.00     0.022 C 
ATOM     16  C   UNL A   1      36.562  23.388  26.091  1.00  0.00     0.007 C 
ATOM     17  C   UNL A   1      36.141  21.101  25.544  1.00  0.00     0.117 C 
ATOM     18  C   UNL A   1      37.423  23.035  24.874  1.00  0.00     0.003 C 
ATOM     19  C   UNL A   1      36.958  21.664  24.391  1.00  0.00     0.032 C 
BRANCH  17  20
ATOM     20  O   UNL A   1      35.245  20.094  25.123  1.00  0.00    -0.393 OA
ATOM     21  H   UNL A   1      35.685  19.231  25.169  1.00  0.00     0.210 HD
ENDBRANCH  17  20
ENDBRANCH  14  15
ENDBRANCH  13  14
ENDBRANCH   6   8
ENDBRANCH   3   6
ENDBRANCH   1   2
BRANCH   1  22
ATOM     22  C   UNL A   1      31.546  30.657  26.707  1.00  0.00     0.023 C 
BRANCH  22  23
ATOM     23  C   UNL A   1      31.447  32.183  26.750  1.00  0.00     0.023 C 
BRANCH  23  24
ATOM     24  C   UNL A   1      32.673  32.890  27.307  1.00  0.00     0.116 C 
BRANCH  24  25
ATOM     25  N   UNL A   1      32.402  34.273  27.665  1.00  0.00    -0.352 N 
ATOM     26  C   UNL A   1      32.983  35.040  28.644  1.00  0.00     0.251 C 
ATOM     27  H   UNL A   1      31.707  34.721  27.133  1.00  0.00     0.163 HD
ATOM     28  O   UNL A   1      32.525  36.146  28.917  1.00  0.00    -0.269 OA
BRANCH  26  29
ATOM     29  C   UNL A   1      34.145  34.515  29.389  1.00  0.00     0.039 A 
ATOM     30  C   UNL A   1      33.937  33.935  30.643  1.00  0.00     0.014 A 
ATOM     31  C   UNL A   1      35.431  34.579  28.846  1.00  0.00     0.014 A 
ATOM     32  C   UNL A   1      35.011  33.366  31.326  1.00  0.00     0.010 A 
ATOM     33  C   UNL A   1      36.484  33.941  29.490  1.00  0.00     0.010 A 
ATOM     34  C   UNL A   1      36.287  33.334  30.739  1.00  0.00    -0.014 A 
BRANCH  34  35
ATOM     35  C   UNL A   1      37.433  32.680  31.420  1.00  0.00     0.031 A 
ATOM     36  C   UNL A   1      38.121  31.509  30.775  1.00  0.00     0.074 A 
ATOM     37  C   UNL A   1      37.809  33.096  32.645  1.00  0.00     0.049 A 
ATOM     38  N   UNL A   1      39.084  30.755  31.240  1.00  0.00    -0.248 NA
ATOM     39  C   UNL A   1      37.641  31.116  29.440  1.00  0.00     0.031 C 
ATOM     40  C   UNL A   1      37.192  34.191  33.392  1.00  0.00     0.029 A 
ATOM     41  N   UNL A   1      38.796  32.636  33.481  1.00  0.00    -0.354 N 
ATOM     42  C   UNL A   1      39.314  29.794  30.264  1.00  0.00     0.074 A 
ATOM     43  C   UNL A   1      38.352  30.022  29.208  1.00  0.00     0.031 C 
ATOM     44  C   UNL A   1      37.826  34.335  34.567  1.00  0.00     0.029 A 
ATOM     45  C   UNL A   1      38.866  33.315  34.674  1.00  0.00     0.049 A 
ATOM     46  H   UNL A   1      39.397  31.892  33.248  1.00  0.00     0.167 HD
ATOM     47  C   UNL A   1      40.259  28.823  30.239  1.00  0.00     0.037 A 
ATOM     48  C   UNL A   1      39.671  33.127  35.736  1.00  0.00     0.037 A 
ATOM     49  C   UNL A   1      41.228  28.613  31.283  1.00  0.00     0.049 A 
ATOM     50  C   UNL A   1      40.702  32.030  35.691  1.00  0.00     0.074 A 
ATOM     51  C   UNL A   1      42.262  27.696  31.328  1.00  0.00     0.029 A 
ATOM     52  N   UNL A   1      41.275  29.329  32.471  1.00  0.00    -0.354 N 
ATOM     53  N   UNL A   1      40.956  31.172  34.734  1.00  0.00    -0.248 NA
ATOM     54  C   UNL A   1      41.560  31.881  36.874  1.00  0.00     0.031 C 
ATOM     55  C   UNL A   1      42.901  27.818  32.566  1.00  0.00     0.029 A 
ATOM     56  C   UNL A   1      42.306  28.855  33.267  1.00  0.00     0.049 A 
ATOM     57  H   UNL A   1      40.667  30.065  32.712  1.00  0.00     0.167 HD
ATOM     58  C   UNL A   1      42.022  30.404  35.183  1.00  0.00     0.074 A 
ATOM     59  C   UNL A   1      42.375  30.908  36.494  1.00  0.00     0.031 C 
ATOM     60  C   UNL A   1      42.652  29.374  34.566  1.00  0.00     0.037 A 
BRANCH  47  61
ATOM     61  C   UNL A   1      40.289  27.913  29.044  1.00  0.00     0.064 A 
ATOM     62  C   UNL A   1      41.033  28.227  27.896  1.00  0.00     0.173 A 
ATOM     63  C   UNL A   1      39.590  26.696  29.058  1.00  0.00     0.173 A 
ATOM     64  F   UNL A   1      41.710  29.383  27.825  1.00  0.00    -0.203 F 
ATOM     65  C   UNL A   1      41.048  27.375  26.794  1.00  0.00     0.198 A 
ATOM     66  C   UNL A   1      39.636  25.830  27.969  1.00  0.00     0.198 A 
ATOM     67  F   UNL A   1      38.868  26.342  30.132  1.00  0.00    -0.203 F 
ATOM     68  F   UNL A   1      41.720  27.724  25.689  1.00  0.00    -0.200 F 
ATOM     69  C   UNL A   1      40.357  26.175  26.835  1.00  0.00     0.200 A 
ATOM     70  F   UNL A   1      38.979  24.663  28.014  1.00  0.00    -0.200 F 
ATOM     71  F   UNL A   1      40.378  25.351  25.777  1.00  0.00    -0.200 F 
ENDBRANCH  47  61
BRANCH  48  72
ATOM     72  C   UNL A   1      39.550  34.010  36.927  1.00  0.00     0.064 A 
ATOM     73  C   UNL A   1      40.200  35.252  36.972  1.00  0.00     0.173 A 
ATOM     74  C   UNL A   1      38.790  33.632  38.043  1.00  0.00     0.173 A 
ATOM     75  F   UNL A   1      40.954  35.650  35.937  1.00  0.00    -0.203 F 
ATOM     76  C   UNL A   1      40.116  36.069  38.097  1.00  0.00     0.198 A 
ATOM     77  C   UNL A   1      38.681  34.464  39.156  1.00  0.00     0.198 A 
ATOM     78  F   UNL A   1      38.144  32.458  38.050  1.00  0.00    -0.203 F 
ATOM     79  F   UNL A   1      40.790  37.227  38.133  1.00  0.00    -0.200 F 
ATOM     80  C   UNL A   1      39.352  35.677  39.185  1.00  0.00     0.200 A 
ATOM     81  F   UNL A   1      37.930  34.090  40.200  1.00  0.00    -0.200 F 
ATOM     82  F   UNL A   1      39.269  36.465  40.266  1.00  0.00    -0.200 F 
ENDBRANCH  48  72
BRANCH  60  83
ATOM     83  C   UNL A   1      43.815  28.747  35.281  1.00  0.00     0.064 A 
ATOM     84  C   UNL A   1      45.126  29.218  35.116  1.00  0.00     0.173 A 
ATOM     85  C   UNL A   1      43.607  27.685  36.174  1.00  0.00     0.173 A 
ATOM     86  F   UNL A   1      45.381  30.222  34.263  1.00  0.00    -0.203 F 
ATOM     87  C   UNL A   1      46.189  28.632  35.800  1.00  0.00     0.198 A 
ATOM     88  C   UNL A   1      44.667  27.123  36.882  1.00  0.00     0.198 A 
ATOM     89  F   UNL A   1      42.372  27.200  36.374  1.00  0.00    -0.203 F 
ATOM     90  F   UNL A   1      47.439  29.064  35.588  1.00  0.00    -0.200 F 
ATOM     91  C   UNL A   1      45.957  27.591  36.687  1.00  0.00     0.200 A 
ATOM     92  F   UNL A   1      44.438  26.130  37.751  1.00  0.00    -0.200 F 
ATOM     93  F   UNL A   1      46.980  27.034  37.350  1.00  0.00    -0.200 F 
ENDBRANCH  60  83
ENDBRANCH  34  35
ENDBRANCH  26  29
ENDBRANCH  24  25
ENDBRANCH  23  24
ENDBRANCH  22  23
ENDBRANCH   1  22
TORSDOF 15
ENDMDL
