MODEL 1
REMARK VINA RESULT:     -13.0      0.000      0.000
REMARK SMILES COc1cc(/C=C2/C(=O)NN(c3ccc(Cl)c(Cl)c3)C2=O)ccc1OCC(=O)NCCCCNC(=O)c1ccc(-c2c3nc(c(-c4c(F)c(F)c(F)c(F)c4F)c4ccc([nH]4)c(-c4c(F)c(F)c(F)c(F)c4F)c4nc(c(-c5c(F)c(F)c(F)c(F)c5F)c5ccc2[nH]5)C=C4)C=C3)cc1
REMARK SMILES IDX 30 1 29 2 27 3 28 4 26 6 25 7 24 8 3 9 4 10 5 11 23 12 22 13
REMARK SMILES IDX 2 14 1 15 6 16 7 17 8 18 20 19 9 20 10 21 11 22 21 23 12 25
REMARK SMILES IDX 13 26 19 27 14 28 17 29 15 30 18 31 16 32 31 33 32 34 33 35
REMARK SMILES IDX 34 36 35 37 36 39 37 40 38 41 99 42 39 43 98 44 40 45 41 46
REMARK SMILES IDX 42 47 92 48 43 49 97 50 91 51 93 52 44 53 96 54 90 55 89 56
REMARK SMILES IDX 45 58 77 59 57 60 76 61 58 62 61 63 75 64 94 65 59 66 60 67
REMARK SMILES IDX 74 69 95 70 62 71 46 72 47 73 55 74 48 75 49 76 53 77 56 78
REMARK SMILES IDX 50 79 51 80 54 81 52 82 78 83 79 84 87 85 80 86 81 87 85 88
REMARK SMILES IDX 88 89 82 90 83 91 86 92 84 93 63 94 64 95 72 96 65 97 66 98
REMARK SMILES IDX 70 99 73 100 67 101 68 102 71 103 69 104
REMARK H PARENT 29 5 10 24 34 38 93 57 61 68
REMARK Flexibility Score: inf
ROOT
ATOM      1  C   UNL A   1      30.817  29.662  25.104  1.00  0.00     0.116 C 
ENDROOT
BRANCH   1   2
ATOM      2  N   UNL A   1      30.299  30.042  23.807  1.00  0.00    -0.353 N 
ATOM      3  C   UNL A   1      30.471  29.411  22.609  1.00  0.00     0.257 C 
ATOM      4  O   UNL A   1      29.724  29.737  21.683  1.00  0.00    -0.271 OA
ATOM      5  H   UNL A   1      29.752  30.861  23.787  1.00  0.00     0.163 HD
BRANCH   3   6
ATOM      6  C   UNL A   1      31.504  28.287  22.468  1.00  0.00     0.329 C 
BRANCH   6   7
ATOM      7  O   UNL A   1      31.150  27.016  22.978  1.00  0.00    -0.480 OA
BRANCH   7   8
ATOM      8  C   UNL A   1      32.103  26.148  23.429  1.00  0.00     0.161 A 
ATOM      9  C   UNL A   1      32.420  25.792  24.744  1.00  0.00     0.161 A 
ATOM     10  C   UNL A   1      33.514  24.945  25.004  1.00  0.00     0.058 A 
ATOM     11  C   UNL A   1      34.293  24.451  23.950  1.00  0.00    -0.021 A 
ATOM     12  C   UNL A   1      32.869  25.617  22.384  1.00  0.00     0.051 A 
ATOM     13  C   UNL A   1      33.946  24.769  22.635  1.00  0.00     0.012 A 
BRANCH   9  14
ATOM     14  O   UNL A   1      31.806  26.410  25.800  1.00  0.00    -0.493 OA
ATOM     15  C   UNL A   1      30.490  25.916  26.042  1.00  0.00     0.278 C 
ENDBRANCH   9  14
BRANCH  11  16
ATOM     16  C   UNL A   1      35.561  23.755  24.188  1.00  0.00     0.028 C 
ATOM     17  C   UNL A   1      35.608  22.436  24.434  1.00  0.00     0.109 C 
ATOM     18  C   UNL A   1      36.830  21.723  24.872  1.00  0.00     0.275 C 
ATOM     19  C   UNL A   1      34.489  21.455  24.403  1.00  0.00     0.282 C 
ATOM     20  O   UNL A   1      37.965  22.161  24.927  1.00  0.00    -0.267 OA
ATOM     21  N   UNL A   1      36.400  20.455  25.203  1.00  0.00    -0.256 N 
ATOM     22  N   UNL A   1      35.055  20.274  24.889  1.00  0.00    -0.217 N 
ATOM     23  O   UNL A   1      33.340  21.662  24.055  1.00  0.00    -0.267 OA
ATOM     24  H   UNL A   1      36.972  19.764  25.611  1.00  0.00     0.192 HD
BRANCH  22  25
ATOM     25  C   UNL A   1      34.386  19.042  25.014  1.00  0.00     0.068 A 
ATOM     26  C   UNL A   1      33.011  18.999  25.266  1.00  0.00     0.030 A 
ATOM     27  C   UNL A   1      35.094  17.841  24.875  1.00  0.00     0.050 A 
ATOM     28  C   UNL A   1      32.350  17.767  25.340  1.00  0.00     0.024 A 
ATOM     29  C   UNL A   1      34.445  16.610  25.003  1.00  0.00     0.061 A 
ATOM     30  C   UNL A   1      33.065  16.572  25.220  1.00  0.00     0.059 A 
ATOM     31  Cl  UNL A   1      35.410  15.180  24.908  1.00  0.00    -0.083 Cl
ATOM     32  Cl  UNL A   1      32.188  15.090  25.345  1.00  0.00    -0.083 Cl
ENDBRANCH  22  25
ENDBRANCH  11  16
ENDBRANCH   7   8
ENDBRANCH   6   7
ENDBRANCH   3   6
ENDBRANCH   1   2
BRANCH   1  33
ATOM     33  C   UNL A   1      31.948  30.565  25.588  1.00  0.00     0.023 C 
BRANCH  33  34
ATOM     34  C   UNL A   1      31.532  31.709  26.513  1.00  0.00     0.023 C 
BRANCH  34  35
ATOM     35  C   UNL A   1      32.668  32.407  27.248  1.00  0.00     0.116 C 
BRANCH  35  36
ATOM     36  N   UNL A   1      32.388  33.805  27.537  1.00  0.00    -0.352 N 
ATOM     37  C   UNL A   1      32.988  34.645  28.442  1.00  0.00     0.251 C 
ATOM     38  H   UNL A   1      31.662  34.206  27.007  1.00  0.00     0.163 HD
ATOM     39  O   UNL A   1      32.536  35.768  28.635  1.00  0.00    -0.269 OA
BRANCH  37  40
ATOM     40  C   UNL A   1      34.158  34.177  29.211  1.00  0.00     0.039 A 
ATOM     41  C   UNL A   1      33.943  33.460  30.391  1.00  0.00     0.014 A 
ATOM     42  C   UNL A   1      35.459  34.422  28.763  1.00  0.00     0.014 A 
ATOM     43  C   UNL A   1      35.032  32.928  31.082  1.00  0.00     0.010 A 
ATOM     44  C   UNL A   1      36.535  33.816  29.404  1.00  0.00     0.010 A 
ATOM     45  C   UNL A   1      36.334  33.066  30.572  1.00  0.00    -0.014 A 
BRANCH  45  46
ATOM     46  C   UNL A   1      37.494  32.432  31.247  1.00  0.00     0.031 A 
ATOM     47  C   UNL A   1      38.241  31.314  30.577  1.00  0.00     0.074 A 
ATOM     48  C   UNL A   1      37.839  32.825  32.489  1.00  0.00     0.049 A 
ATOM     49  N   UNL A   1      39.251  30.607  31.021  1.00  0.00    -0.248 NA
ATOM     50  C   UNL A   1      37.777  30.921  29.238  1.00  0.00     0.031 C 
ATOM     51  C   UNL A   1      37.169  33.872  33.261  1.00  0.00     0.029 A 
ATOM     52  N   UNL A   1      38.840  32.390  33.320  1.00  0.00    -0.354 N 
ATOM     53  C   UNL A   1      39.535  29.687  30.021  1.00  0.00     0.074 A 
ATOM     54  C   UNL A   1      38.547  29.875  28.981  1.00  0.00     0.031 C 
ATOM     55  C   UNL A   1      37.800  34.026  34.434  1.00  0.00     0.029 A 
ATOM     56  C   UNL A   1      38.891  33.058  34.519  1.00  0.00     0.049 A 
ATOM     57  H   UNL A   1      39.464  31.666  33.080  1.00  0.00     0.167 HD
ATOM     58  C   UNL A   1      40.546  28.787  29.960  1.00  0.00     0.037 A 
ATOM     59  C   UNL A   1      39.720  32.905  35.568  1.00  0.00     0.037 A 
ATOM     60  C   UNL A   1      41.526  28.603  30.999  1.00  0.00     0.049 A 
ATOM     61  C   UNL A   1      40.800  31.859  35.500  1.00  0.00     0.074 A 
ATOM     62  C   UNL A   1      42.611  27.745  31.022  1.00  0.00     0.029 A 
ATOM     63  N   UNL A   1      41.531  29.284  32.209  1.00  0.00    -0.354 N 
ATOM     64  N   UNL A   1      41.104  31.040  34.522  1.00  0.00    -0.248 NA
ATOM     65  C   UNL A   1      41.656  31.718  36.687  1.00  0.00     0.031 C 
ATOM     66  C   UNL A   1      43.235  27.860  32.268  1.00  0.00     0.029 A 
ATOM     67  C   UNL A   1      42.582  28.842  32.998  1.00  0.00     0.049 A 
ATOM     68  H   UNL A   1      40.884  29.978  32.469  1.00  0.00     0.167 HD
ATOM     69  C   UNL A   1      42.206  30.315  34.957  1.00  0.00     0.074 A 
ATOM     70  C   UNL A   1      42.524  30.802  36.285  1.00  0.00     0.031 C 
ATOM     71  C   UNL A   1      42.893  29.338  34.315  1.00  0.00     0.037 A 
BRANCH  58  72
ATOM     72  C   UNL A   1      40.629  27.929  28.727  1.00  0.00     0.064 A 
ATOM     73  C   UNL A   1      41.390  28.312  27.610  1.00  0.00     0.173 A 
ATOM     74  C   UNL A   1      39.943  26.707  28.659  1.00  0.00     0.173 A 
ATOM     75  F   UNL A   1      42.060  29.475  27.617  1.00  0.00    -0.203 F 
ATOM     76  C   UNL A   1      41.418  27.533  26.456  1.00  0.00     0.198 A 
ATOM     77  C   UNL A   1      40.005  25.910  27.518  1.00  0.00     0.198 A 
ATOM     78  F   UNL A   1      39.208  26.284  29.699  1.00  0.00    -0.203 F 
ATOM     79  F   UNL A   1      42.090  27.959  25.379  1.00  0.00    -0.200 F 
ATOM     80  C   UNL A   1      40.730  26.330  26.414  1.00  0.00     0.200 A 
ATOM     81  F   UNL A   1      39.354  24.739  27.485  1.00  0.00    -0.200 F 
ATOM     82  F   UNL A   1      40.756  25.581  25.302  1.00  0.00    -0.200 F 
ENDBRANCH  58  72
BRANCH  59  83
ATOM     83  C   UNL A   1      39.589  33.788  36.757  1.00  0.00     0.064 A 
ATOM     84  C   UNL A   1      40.220  35.041  36.789  1.00  0.00     0.173 A 
ATOM     85  C   UNL A   1      38.842  33.407  37.880  1.00  0.00     0.173 A 
ATOM     86  F   UNL A   1      40.962  35.444  35.748  1.00  0.00    -0.203 F 
ATOM     87  C   UNL A   1      40.125  35.866  37.908  1.00  0.00     0.198 A 
ATOM     88  C   UNL A   1      38.722  34.246  38.984  1.00  0.00     0.198 A 
ATOM     89  F   UNL A   1      38.215  32.221  37.898  1.00  0.00    -0.203 F 
ATOM     90  F   UNL A   1      40.778  37.037  37.930  1.00  0.00    -0.200 F 
ATOM     91  C   UNL A   1      39.372  35.471  39.002  1.00  0.00     0.200 A 
ATOM     92  F   UNL A   1      37.978  33.869  40.034  1.00  0.00    -0.200 F 
ATOM     93  F   UNL A   1      39.276  36.269  40.075  1.00  0.00    -0.200 F 
ENDBRANCH  59  83
BRANCH  71  94
ATOM     94  C   UNL A   1      44.090  28.760  35.018  1.00  0.00     0.064 A 
ATOM     95  C   UNL A   1      45.352  29.371  34.962  1.00  0.00     0.173 A 
ATOM     96  C   UNL A   1      43.962  27.593  35.787  1.00  0.00     0.173 A 
ATOM     97  F   UNL A   1      45.533  30.480  34.229  1.00  0.00    -0.203 F 
ATOM     98  C   UNL A   1      46.445  28.819  35.624  1.00  0.00     0.198 A 
ATOM     99  C   UNL A   1      45.049  27.064  36.478  1.00  0.00     0.198 A 
ATOM    100  F   UNL A   1      42.777  26.970  35.882  1.00  0.00    -0.203 F 
ATOM    101  F   UNL A   1      47.653  29.388  35.507  1.00  0.00    -0.200 F 
ATOM    102  C   UNL A   1      46.291  27.672  36.387  1.00  0.00     0.200 A 
ATOM    103  F   UNL A   1      44.893  25.965  37.230  1.00  0.00    -0.200 F 
ATOM    104  F   UNL A   1      47.343  27.146  37.031  1.00  0.00    -0.200 F 
ENDBRANCH  71  94
ENDBRANCH  45  46
ENDBRANCH  37  40
ENDBRANCH  35  36
ENDBRANCH  34  35
ENDBRANCH  33  34
ENDBRANCH   1  33
TORSDOF 16
ENDMDL
MODEL 2
REMARK VINA RESULT:     -12.9      5.556     10.492
REMARK SMILES COc1cc(/C=C2/C(=O)NN(c3ccc(Cl)c(Cl)c3)C2=O)ccc1OCC(=O)NCCCCNC(=O)c1ccc(-c2c3nc(c(-c4c(F)c(F)c(F)c(F)c4F)c4ccc([nH]4)c(-c4c(F)c(F)c(F)c(F)c4F)c4nc(c(-c5c(F)c(F)c(F)c(F)c5F)c5ccc2[nH]5)C=C4)C=C3)cc1
REMARK SMILES IDX 30 1 29 2 27 3 28 4 26 6 25 7 24 8 3 9 4 10 5 11 23 12 22 13
REMARK SMILES IDX 2 14 1 15 6 16 7 17 8 18 20 19 9 20 10 21 11 22 21 23 12 25
REMARK SMILES IDX 13 26 19 27 14 28 17 29 15 30 18 31 16 32 31 33 32 34 33 35
REMARK SMILES IDX 34 36 35 37 36 39 37 40 38 41 99 42 39 43 98 44 40 45 41 46
REMARK SMILES IDX 42 47 92 48 43 49 97 50 91 51 93 52 44 53 96 54 90 55 89 56
REMARK SMILES IDX 45 58 77 59 57 60 76 61 58 62 61 63 75 64 94 65 59 66 60 67
REMARK SMILES IDX 74 69 95 70 62 71 46 72 47 73 55 74 48 75 49 76 53 77 56 78
REMARK SMILES IDX 50 79 51 80 54 81 52 82 78 83 79 84 87 85 80 86 81 87 85 88
REMARK SMILES IDX 88 89 82 90 83 91 86 92 84 93 63 94 64 95 72 96 65 97 66 98
REMARK SMILES IDX 70 99 73 100 67 101 68 102 71 103 69 104
REMARK H PARENT 29 5 10 24 34 38 93 57 61 68
REMARK Flexibility Score: inf
ROOT
ATOM      1  C   UNL A   1      36.515  21.450  25.549  1.00  0.00     0.116 C 
ENDROOT
BRANCH   1   2
ATOM      2  N   UNL A   1      35.348  21.471  26.407  1.00  0.00    -0.353 N 
ATOM      3  C   UNL A   1      34.037  21.329  26.055  1.00  0.00     0.257 C 
ATOM      4  O   UNL A   1      33.229  21.100  26.959  1.00  0.00    -0.271 OA
ATOM      5  H   UNL A   1      35.524  21.606  27.366  1.00  0.00     0.163 HD
BRANCH   3   6
ATOM      6  C   UNL A   1      33.622  21.374  24.580  1.00  0.00     0.329 C 
BRANCH   6   7
ATOM      7  O   UNL A   1      33.082  22.590  24.097  1.00  0.00    -0.480 OA
BRANCH   7   8
ATOM      8  C   UNL A   1      32.936  23.670  24.918  1.00  0.00     0.161 A 
ATOM      9  C   UNL A   1      31.831  24.049  25.689  1.00  0.00     0.161 A 
ATOM     10  C   UNL A   1      31.847  25.265  26.399  1.00  0.00     0.058 A 
ATOM     11  C   UNL A   1      32.966  26.105  26.340  1.00  0.00    -0.021 A 
ATOM     12  C   UNL A   1      34.061  24.503  24.899  1.00  0.00     0.051 A 
ATOM     13  C   UNL A   1      34.087  25.702  25.609  1.00  0.00     0.012 A 
BRANCH   9  14
ATOM     14  O   UNL A   1      30.655  23.354  25.610  1.00  0.00    -0.493 OA
ATOM     15  C   UNL A   1      30.216  22.863  26.875  1.00  0.00     0.278 C 
ENDBRANCH   9  14
BRANCH  11  16
ATOM     16  C   UNL A   1      32.938  27.468  26.877  1.00  0.00     0.028 C 
ATOM     17  C   UNL A   1      32.292  28.463  26.248  1.00  0.00     0.109 C 
ATOM     18  C   UNL A   1      32.394  29.888  26.638  1.00  0.00     0.275 C 
ATOM     19  C   UNL A   1      31.434  28.379  25.034  1.00  0.00     0.282 C 
ATOM     20  O   UNL A   1      32.927  30.348  27.632  1.00  0.00    -0.267 OA
ATOM     21  N   UNL A   1      31.754  30.578  25.630  1.00  0.00    -0.256 N 
ATOM     22  N   UNL A   1      31.152  29.710  24.721  1.00  0.00    -0.217 N 
ATOM     23  O   UNL A   1      31.090  27.369  24.446  1.00  0.00    -0.267 OA
ATOM     24  H   UNL A   1      31.727  31.560  25.560  1.00  0.00     0.192 HD
BRANCH  22  25
ATOM     25  C   UNL A   1      30.337  30.141  23.658  1.00  0.00     0.068 A 
ATOM     26  C   UNL A   1      30.111  29.316  22.552  1.00  0.00     0.030 A 
ATOM     27  C   UNL A   1      29.731  31.404  23.704  1.00  0.00     0.050 A 
ATOM     28  C   UNL A   1      29.259  29.738  21.524  1.00  0.00     0.024 A 
ATOM     29  C   UNL A   1      28.924  31.848  22.654  1.00  0.00     0.061 A 
ATOM     30  C   UNL A   1      28.673  31.007  21.567  1.00  0.00     0.059 A 
ATOM     31  Cl  UNL A   1      28.292  33.453  22.751  1.00  0.00    -0.083 Cl
ATOM     32  Cl  UNL A   1      27.653  31.469  20.254  1.00  0.00    -0.083 Cl
ENDBRANCH  22  25
ENDBRANCH  11  16
ENDBRANCH   7   8
ENDBRANCH   6   7
ENDBRANCH   3   6
ENDBRANCH   1   2
BRANCH   1  33
ATOM     33  C   UNL A   1      36.831  20.061  25.001  1.00  0.00     0.023 C 
BRANCH  33  34
ATOM     34  C   UNL A   1      38.304  19.790  24.694  1.00  0.00     0.023 C 
BRANCH  34  35
ATOM     35  C   UNL A   1      39.272  20.033  25.844  1.00  0.00     0.116 C 
BRANCH  35  36
ATOM     36  N   UNL A   1      40.326  19.035  25.924  1.00  0.00    -0.352 N 
ATOM     37  C   UNL A   1      41.674  19.204  26.125  1.00  0.00     0.251 C 
ATOM     38  H   UNL A   1      40.031  18.102  25.817  1.00  0.00     0.163 HD
ATOM     39  O   UNL A   1      42.436  18.248  26.042  1.00  0.00    -0.269 OA
BRANCH  37  40
ATOM     40  C   UNL A   1      42.208  20.552  26.406  1.00  0.00     0.039 A 
ATOM     41  C   UNL A   1      42.563  21.370  25.330  1.00  0.00     0.014 A 
ATOM     42  C   UNL A   1      42.336  21.017  27.717  1.00  0.00     0.014 A 
ATOM     43  C   UNL A   1      42.980  22.680  25.569  1.00  0.00     0.010 A 
ATOM     44  C   UNL A   1      42.667  22.349  27.947  1.00  0.00     0.010 A 
ATOM     45  C   UNL A   1      42.995  23.194  26.877  1.00  0.00    -0.014 A 
BRANCH  45  46
ATOM     46  C   UNL A   1      43.352  24.610  27.141  1.00  0.00     0.031 A 
ATOM     47  C   UNL A   1      44.747  25.101  26.879  1.00  0.00     0.074 A 
ATOM     48  C   UNL A   1      42.433  25.442  27.669  1.00  0.00     0.049 A 
ATOM     49  N   UNL A   1      45.263  26.287  27.085  1.00  0.00    -0.248 NA
ATOM     50  C   UNL A   1      45.700  24.119  26.337  1.00  0.00     0.031 C 
ATOM     51  C   UNL A   1      41.056  25.077  28.003  1.00  0.00     0.029 A 
ATOM     52  N   UNL A   1      42.519  26.766  28.018  1.00  0.00    -0.354 N 
ATOM     53  C   UNL A   1      46.594  26.191  26.703  1.00  0.00     0.074 A 
ATOM     54  C   UNL A   1      46.827  24.813  26.325  1.00  0.00     0.031 C 
ATOM     55  C   UNL A   1      40.415  26.159  28.471  1.00  0.00     0.029 A 
ATOM     56  C   UNL A   1      41.347  27.283  28.514  1.00  0.00     0.049 A 
ATOM     57  H   UNL A   1      43.343  27.296  27.922  1.00  0.00     0.167 HD
ATOM     58  C   UNL A   1      47.532  27.167  26.644  1.00  0.00     0.037 A 
ATOM     59  C   UNL A   1      41.058  28.521  28.956  1.00  0.00     0.037 A 
ATOM     60  C   UNL A   1      47.296  28.536  27.025  1.00  0.00     0.049 A 
ATOM     61  C   UNL A   1      42.132  29.575  28.935  1.00  0.00     0.074 A 
ATOM     62  C   UNL A   1      48.166  29.611  26.970  1.00  0.00     0.029 A 
ATOM     63  N   UNL A   1      46.101  29.017  27.544  1.00  0.00    -0.354 N 
ATOM     64  N   UNL A   1      43.369  29.492  28.508  1.00  0.00    -0.248 NA
ATOM     65  C   UNL A   1      41.766  30.899  29.456  1.00  0.00     0.031 C 
ATOM     66  C   UNL A   1      47.519  30.726  27.513  1.00  0.00     0.029 A 
ATOM     67  C   UNL A   1      46.221  30.366  27.842  1.00  0.00     0.049 A 
ATOM     68  H   UNL A   1      45.288  28.479  27.679  1.00  0.00     0.167 HD
ATOM     69  C   UNL A   1      43.917  30.757  28.673  1.00  0.00     0.074 A 
ATOM     70  C   UNL A   1      42.871  31.593  29.228  1.00  0.00     0.031 C 
ATOM     71  C   UNL A   1      45.171  31.189  28.388  1.00  0.00     0.037 A 
BRANCH  58  72
ATOM     72  C   UNL A   1      48.901  26.778  26.159  1.00  0.00     0.064 A 
ATOM     73  C   UNL A   1      49.871  26.250  27.028  1.00  0.00     0.173 A 
ATOM     74  C   UNL A   1      49.251  26.930  24.808  1.00  0.00     0.173 A 
ATOM     75  F   UNL A   1      49.593  26.090  28.331  1.00  0.00    -0.203 F 
ATOM     76  C   UNL A   1      51.151  25.940  26.575  1.00  0.00     0.198 A 
ATOM     77  C   UNL A   1      50.520  26.582  24.351  1.00  0.00     0.198 A 
ATOM     78  F   UNL A   1      48.364  27.420  23.930  1.00  0.00    -0.203 F 
ATOM     79  F   UNL A   1      52.078  25.510  27.440  1.00  0.00    -0.200 F 
ATOM     80  C   UNL A   1      51.472  26.101  25.236  1.00  0.00     0.200 A 
ATOM     81  F   UNL A   1      50.824  26.721  23.053  1.00  0.00    -0.200 F 
ATOM     82  F   UNL A   1      52.705  25.804  24.802  1.00  0.00    -0.200 F 
ENDBRANCH  58  72
BRANCH  59  83
ATOM     83  C   UNL A   1      39.683  28.845  29.420  1.00  0.00     0.064 A 
ATOM     84  C   UNL A   1      39.309  28.631  30.755  1.00  0.00     0.173 A 
ATOM     85  C   UNL A   1      38.716  29.366  28.549  1.00  0.00     0.173 A 
ATOM     86  F   UNL A   1      40.192  28.115  31.623  1.00  0.00    -0.203 F 
ATOM     87  C   UNL A   1      38.016  28.907  31.194  1.00  0.00     0.198 A 
ATOM     88  C   UNL A   1      37.433  29.671  28.997  1.00  0.00     0.198 A 
ATOM     89  F   UNL A   1      39.022  29.593  27.263  1.00  0.00    -0.203 F 
ATOM     90  F   UNL A   1      37.674  28.648  32.464  1.00  0.00    -0.200 F 
ATOM     91  C   UNL A   1      37.081  29.432  30.317  1.00  0.00     0.200 A 
ATOM     92  F   UNL A   1      36.536  30.196  28.150  1.00  0.00    -0.200 F 
ATOM     93  F   UNL A   1      35.839  29.703  30.742  1.00  0.00    -0.200 F 
ENDBRANCH  59  83
BRANCH  71  94
ATOM     94  C   UNL A   1      45.472  32.642  28.626  1.00  0.00     0.064 A 
ATOM     95  C   UNL A   1      45.345  33.603  27.611  1.00  0.00     0.173 A 
ATOM     96  C   UNL A   1      45.861  33.085  29.900  1.00  0.00     0.173 A 
ATOM     97  F   UNL A   1      44.991  33.233  26.371  1.00  0.00    -0.203 F 
ATOM     98  C   UNL A   1      45.626  34.945  27.856  1.00  0.00     0.198 A 
ATOM     99  C   UNL A   1      46.105  34.431  30.151  1.00  0.00     0.198 A 
ATOM    100  F   UNL A   1      45.992  32.210  30.910  1.00  0.00    -0.203 F 
ATOM    101  F   UNL A   1      45.555  35.834  26.856  1.00  0.00    -0.200 F 
ATOM    102  C   UNL A   1      45.997  35.359  29.126  1.00  0.00     0.200 A 
ATOM    103  F   UNL A   1      46.446  34.832  31.384  1.00  0.00    -0.200 F 
ATOM    104  F   UNL A   1      46.259  36.652  29.361  1.00  0.00    -0.200 F 
ENDBRANCH  71  94
ENDBRANCH  45  46
ENDBRANCH  37  40
ENDBRANCH  35  36
ENDBRANCH  34  35
ENDBRANCH  33  34
ENDBRANCH   1  33
TORSDOF 16
ENDMDL
MODEL 3
REMARK VINA RESULT:     -12.8      2.300      3.487
REMARK SMILES COc1cc(/C=C2/C(=O)NN(c3ccc(Cl)c(Cl)c3)C2=O)ccc1OCC(=O)NCCCCNC(=O)c1ccc(-c2c3nc(c(-c4c(F)c(F)c(F)c(F)c4F)c4ccc([nH]4)c(-c4c(F)c(F)c(F)c(F)c4F)c4nc(c(-c5c(F)c(F)c(F)c(F)c5F)c5ccc2[nH]5)C=C4)C=C3)cc1
REMARK SMILES IDX 30 1 29 2 27 3 28 4 26 6 25 7 24 8 3 9 4 10 5 11 23 12 22 13
REMARK SMILES IDX 2 14 1 15 6 16 7 17 8 18 20 19 9 20 10 21 11 22 21 23 12 25
REMARK SMILES IDX 13 26 19 27 14 28 17 29 15 30 18 31 16 32 31 33 32 34 33 35
REMARK SMILES IDX 34 36 35 37 36 39 37 40 38 41 99 42 39 43 98 44 40 45 41 46
REMARK SMILES IDX 42 47 92 48 43 49 97 50 91 51 93 52 44 53 96 54 90 55 89 56
REMARK SMILES IDX 45 58 77 59 57 60 76 61 58 62 61 63 75 64 94 65 59 66 60 67
REMARK SMILES IDX 74 69 95 70 62 71 46 72 47 73 55 74 48 75 49 76 53 77 56 78
REMARK SMILES IDX 50 79 51 80 54 81 52 82 78 83 79 84 87 85 80 86 81 87 85 88
REMARK SMILES IDX 88 89 82 90 83 91 86 92 84 93 63 94 64 95 72 96 65 97 66 98
REMARK SMILES IDX 70 99 73 100 67 101 68 102 71 103 69 104
REMARK H PARENT 29 5 10 24 34 38 93 57 61 68
REMARK Flexibility Score: inf
ROOT
ATOM      1  C   UNL A   1      31.031  29.550  25.378  1.00  0.00     0.116 C 
ENDROOT
BRANCH   1   2
ATOM      2  N   UNL A   1      31.121  29.220  23.971  1.00  0.00    -0.353 N 
ATOM      3  C   UNL A   1      31.336  27.999  23.399  1.00  0.00     0.257 C 
ATOM      4  O   UNL A   1      31.102  27.887  22.194  1.00  0.00    -0.271 OA
ATOM      5  H   UNL A   1      31.014  29.974  23.346  1.00  0.00     0.163 HD
BRANCH   3   6
ATOM      6  C   UNL A   1      31.774  26.809  24.261  1.00  0.00     0.329 C 
BRANCH   6   7
ATOM      7  O   UNL A   1      33.134  26.754  24.645  1.00  0.00    -0.480 OA
BRANCH   7   8
ATOM      8  C   UNL A   1      33.857  25.603  24.515  1.00  0.00     0.161 A 
ATOM      9  C   UNL A   1      34.358  25.002  23.355  1.00  0.00     0.161 A 
ATOM     10  C   UNL A   1      35.000  23.751  23.426  1.00  0.00     0.058 A 
ATOM     11  C   UNL A   1      35.143  23.098  24.656  1.00  0.00    -0.021 A 
ATOM     12  C   UNL A   1      34.039  24.954  25.742  1.00  0.00     0.051 A 
ATOM     13  C   UNL A   1      34.684  23.721  25.820  1.00  0.00     0.012 A 
BRANCH   9  14
ATOM     14  O   UNL A   1      34.064  25.516  22.121  1.00  0.00    -0.493 OA
ATOM     15  C   UNL A   1      32.952  24.871  21.504  1.00  0.00     0.278 C 
ENDBRANCH   9  14
BRANCH  11  16
ATOM     16  C   UNL A   1      35.600  21.708  24.744  1.00  0.00     0.028 C 
ATOM     17  C   UNL A   1      36.837  21.396  25.163  1.00  0.00     0.109 C 
ATOM     18  C   UNL A   1      37.414  20.034  25.085  1.00  0.00     0.275 C 
ATOM     19  C   UNL A   1      37.883  22.309  25.700  1.00  0.00     0.282 C 
ATOM     20  O   UNL A   1      36.841  19.002  24.790  1.00  0.00    -0.267 OA
ATOM     21  N   UNL A   1      38.743  20.193  25.421  1.00  0.00    -0.256 N 
ATOM     22  N   UNL A   1      39.014  21.499  25.826  1.00  0.00    -0.217 N 
ATOM     23  O   UNL A   1      37.768  23.498  25.942  1.00  0.00    -0.267 OA
ATOM     24  H   UNL A   1      39.415  19.475  25.379  1.00  0.00     0.192 HD
BRANCH  22  25
ATOM     25  C   UNL A   1      40.260  21.912  26.332  1.00  0.00     0.068 A 
ATOM     26  C   UNL A   1      40.457  22.065  27.708  1.00  0.00     0.030 A 
ATOM     27  C   UNL A   1      41.325  22.165  25.456  1.00  0.00     0.050 A 
ATOM     28  C   UNL A   1      41.716  22.429  28.200  1.00  0.00     0.024 A 
ATOM     29  C   UNL A   1      42.566  22.582  25.943  1.00  0.00     0.061 A 
ATOM     30  C   UNL A   1      42.768  22.699  27.320  1.00  0.00     0.059 A 
ATOM     31  Cl  UNL A   1      43.795  22.959  24.789  1.00  0.00    -0.083 Cl
ATOM     32  Cl  UNL A   1      44.286  23.167  27.997  1.00  0.00    -0.083 Cl
ENDBRANCH  22  25
ENDBRANCH  11  16
ENDBRANCH   7   8
ENDBRANCH   6   7
ENDBRANCH   3   6
ENDBRANCH   1   2
BRANCH   1  33
ATOM     33  C   UNL A   1      32.183  30.424  25.865  1.00  0.00     0.023 C 
BRANCH  33  34
ATOM     34  C   UNL A   1      31.778  31.708  26.589  1.00  0.00     0.023 C 
BRANCH  34  35
ATOM     35  C   UNL A   1      32.920  32.502  27.211  1.00  0.00     0.116 C 
BRANCH  35  36
ATOM     36  N   UNL A   1      32.542  33.858  27.576  1.00  0.00    -0.352 N 
ATOM     37  C   UNL A   1      33.040  34.665  28.568  1.00  0.00     0.251 C 
ATOM     38  H   UNL A   1      31.823  34.254  27.032  1.00  0.00     0.163 HD
ATOM     39  O   UNL A   1      32.512  35.744  28.809  1.00  0.00    -0.269 OA
BRANCH  37  40
ATOM     40  C   UNL A   1      34.194  34.210  29.370  1.00  0.00     0.039 A 
ATOM     41  C   UNL A   1      33.952  33.511  30.555  1.00  0.00     0.014 A 
ATOM     42  C   UNL A   1      35.504  34.449  28.948  1.00  0.00     0.014 A 
ATOM     43  C   UNL A   1      35.026  32.991  31.280  1.00  0.00     0.010 A 
ATOM     44  C   UNL A   1      36.566  33.856  29.622  1.00  0.00     0.010 A 
ATOM     45  C   UNL A   1      36.339  33.123  30.797  1.00  0.00    -0.014 A 
BRANCH  45  46
ATOM     46  C   UNL A   1      37.484  32.501  31.508  1.00  0.00     0.031 A 
ATOM     47  C   UNL A   1      38.235  31.360  30.882  1.00  0.00     0.074 A 
ATOM     48  C   UNL A   1      37.813  32.928  32.743  1.00  0.00     0.049 A 
ATOM     49  N   UNL A   1      39.232  30.660  31.361  1.00  0.00    -0.248 NA
ATOM     50  C   UNL A   1      37.788  30.932  29.547  1.00  0.00     0.031 C 
ATOM     51  C   UNL A   1      37.138  34.001  33.474  1.00  0.00     0.029 A 
ATOM     52  N   UNL A   1      38.798  32.510  33.602  1.00  0.00    -0.354 N 
ATOM     53  C   UNL A   1      39.525  29.710  30.392  1.00  0.00     0.074 A 
ATOM     54  C   UNL A   1      38.554  29.874  29.332  1.00  0.00     0.031 C 
ATOM     55  C   UNL A   1      37.753  34.184  34.653  1.00  0.00     0.029 A 
ATOM     56  C   UNL A   1      38.835  33.212  34.782  1.00  0.00     0.049 A 
ATOM     57  H   UNL A   1      39.421  31.776  33.392  1.00  0.00     0.167 HD
ATOM     58  C   UNL A   1      40.531  28.802  30.372  1.00  0.00     0.037 A 
ATOM     59  C   UNL A   1      39.647  33.083  35.847  1.00  0.00     0.037 A 
ATOM     60  C   UNL A   1      41.493  28.641  31.432  1.00  0.00     0.049 A 
ATOM     61  C   UNL A   1      40.721  32.029  35.827  1.00  0.00     0.074 A 
ATOM     62  C   UNL A   1      42.572  27.777  31.496  1.00  0.00     0.029 A 
ATOM     63  N   UNL A   1      41.484  29.356  32.622  1.00  0.00    -0.354 N 
ATOM     64  N   UNL A   1      41.034  31.180  34.877  1.00  0.00    -0.248 NA
ATOM     65  C   UNL A   1      41.557  31.917  37.029  1.00  0.00     0.031 C 
ATOM     66  C   UNL A   1      43.177  27.924  32.748  1.00  0.00     0.029 A 
ATOM     67  C   UNL A   1      42.521  28.930  33.439  1.00  0.00     0.049 A 
ATOM     68  H   UNL A   1      40.838  30.062  32.851  1.00  0.00     0.167 HD
ATOM     69  C   UNL A   1      42.124  30.462  35.350  1.00  0.00     0.074 A 
ATOM     70  C   UNL A   1      42.425  30.984  36.668  1.00  0.00     0.031 C 
ATOM     71  C   UNL A   1      42.815  29.462  34.747  1.00  0.00     0.037 A 
BRANCH  58  72
ATOM     72  C   UNL A   1      40.627  27.908  29.166  1.00  0.00     0.064 A 
ATOM     73  C   UNL A   1      39.825  26.763  29.029  1.00  0.00     0.173 A 
ATOM     74  C   UNL A   1      41.530  28.198  28.131  1.00  0.00     0.173 A 
ATOM     75  F   UNL A   1      38.950  26.433  29.992  1.00  0.00    -0.203 F 
ATOM     76  C   UNL A   1      39.959  25.917  27.931  1.00  0.00     0.198 A 
ATOM     77  C   UNL A   1      41.633  27.371  27.015  1.00  0.00     0.198 A 
ATOM     78  F   UNL A   1      42.316  29.283  28.202  1.00  0.00    -0.203 F 
ATOM     79  F   UNL A   1      39.235  24.792  27.863  1.00  0.00    -0.200 F 
ATOM     80  C   UNL A   1      40.859  26.225  26.923  1.00  0.00     0.200 A 
ATOM     81  F   UNL A   1      42.491  27.680  26.033  1.00  0.00    -0.200 F 
ATOM     82  F   UNL A   1      40.989  25.409  25.867  1.00  0.00    -0.200 F 
ENDBRANCH  58  72
BRANCH  59  83
ATOM     83  C   UNL A   1      39.504  34.001  37.008  1.00  0.00     0.064 A 
ATOM     84  C   UNL A   1      40.143  35.250  37.015  1.00  0.00     0.173 A 
ATOM     85  C   UNL A   1      38.737  33.657  38.130  1.00  0.00     0.173 A 
ATOM     86  F   UNL A   1      40.905  35.618  35.975  1.00  0.00    -0.203 F 
ATOM     87  C   UNL A   1      40.037  36.108  38.108  1.00  0.00     0.198 A 
ATOM     88  C   UNL A   1      38.605  34.529  39.208  1.00  0.00     0.198 A 
ATOM     89  F   UNL A   1      38.101  32.476  38.172  1.00  0.00    -0.203 F 
ATOM     90  F   UNL A   1      40.698  37.274  38.107  1.00  0.00    -0.200 F 
ATOM     91  C   UNL A   1      39.264  35.749  39.201  1.00  0.00     0.200 A 
ATOM     92  F   UNL A   1      37.843  34.186  40.256  1.00  0.00    -0.200 F 
ATOM     93  F   UNL A   1      39.157  36.578  40.249  1.00  0.00    -0.200 F 
ENDBRANCH  59  83
BRANCH  71  94
ATOM     94  C   UNL A   1      43.996  28.896  35.484  1.00  0.00     0.064 A 
ATOM     95  C   UNL A   1      45.280  29.450  35.366  1.00  0.00     0.173 A 
ATOM     96  C   UNL A   1      43.833  27.803  36.348  1.00  0.00     0.173 A 
ATOM     97  F   UNL A   1      45.496  30.487  34.542  1.00  0.00    -0.203 F 
ATOM     98  C   UNL A   1      46.360  28.911  36.061  1.00  0.00     0.198 A 
ATOM     99  C   UNL A   1      44.906  27.289  37.070  1.00  0.00     0.198 A 
ATOM    100  F   UNL A   1      42.625  27.237  36.505  1.00  0.00    -0.203 F 
ATOM    101  F   UNL A   1      47.587  29.420  35.887  1.00  0.00    -0.200 F 
ATOM    102  C   UNL A   1      46.170  27.838  36.919  1.00  0.00     0.200 A 
ATOM    103  F   UNL A   1      44.717  26.264  37.912  1.00  0.00    -0.200 F 
ATOM    104  F   UNL A   1      47.209  27.326  37.594  1.00  0.00    -0.200 F 
ENDBRANCH  71  94
ENDBRANCH  45  46
ENDBRANCH  37  40
ENDBRANCH  35  36
ENDBRANCH  34  35
ENDBRANCH  33  34
ENDBRANCH   1  33
TORSDOF 16
ENDMDL
