MODEL 1
REMARK VINA RESULT:     -12.1      0.000      0.000
REMARK SMILES CCC(CC)([NH2+]CC(=O)Nc1ccc(C)cc1)C(=O)NCCCCNC(=O)c1ccc(-c2c3nc(c(-c4c(F)c(F)c(F)c(F)c4F)c4ccc([nH]4)c(-c4c(F)c(F)c(F)c(F)c4F)c4nc(c(-c5c(F)c(F)c(F)c(F)c5F)c5ccc2[nH]5)C=C4)C=C3)cc1
REMARK SMILES IDX 21 1 20 2 18 3 19 4 3 6 2 7 1 8 4 9 5 10 6 11 7 14 8 15 9 16
REMARK SMILES IDX 10 17 11 19 12 20 17 21 13 22 16 23 14 24 15 25 22 26 23 27
REMARK SMILES IDX 24 28 25 29 26 30 27 32 28 33 29 34 90 35 30 36 89 37 31 38
REMARK SMILES IDX 32 39 33 40 83 41 34 42 88 43 82 44 84 45 35 46 87 47 81 48
REMARK SMILES IDX 80 49 36 51 68 52 48 53 67 54 49 55 52 56 66 57 85 58 50 59
REMARK SMILES IDX 51 60 65 62 86 63 53 64 37 65 38 66 46 67 39 68 40 69 44 70
REMARK SMILES IDX 47 71 41 72 42 73 45 74 43 75 69 76 70 77 78 78 71 79 72 80
REMARK SMILES IDX 76 81 79 82 73 83 74 84 77 85 75 86 54 87 55 88 63 89 56 90
REMARK SMILES IDX 57 91 61 92 64 93 58 94 59 95 62 96 60 97
REMARK H PARENT 20 5 6 12 6 13 10 18 25 31 84 50 52 61
REMARK Flexibility Score: inf
ROOT
ATOM      1  C   UNL A   1      31.533  30.459  25.641  1.00  0.00     0.116 C 
ENDROOT
BRANCH   1   2
ATOM      2  N   UNL A   1      32.294  29.646  24.680  1.00  0.00    -0.351 N 
ATOM      3  C   UNL A   1      32.065  28.853  23.582  1.00  0.00     0.281 C 
ATOM      4  O   UNL A   1      32.972  29.008  22.744  1.00  0.00    -0.268 OA
ATOM      5  H   UNL A   1      33.256  29.680  24.884  1.00  0.00     0.163 HD
BRANCH   3   6
ATOM      6  C   UNL A   1      30.947  27.663  23.348  1.00  0.00     0.175 C 
BRANCH   6   7
ATOM      7  C   UNL A   1      29.918  28.431  22.396  1.00  0.00     0.076 C 
ATOM      8  C   UNL A   1      29.367  29.764  22.982  1.00  0.00     0.011 C 
ENDBRANCH   6   7
BRANCH   6   9
ATOM      9  C   UNL A   1      29.978  26.993  24.406  1.00  0.00     0.076 C 
ATOM     10  C   UNL A   1      28.720  26.295  23.851  1.00  0.00     0.011 C 
ENDBRANCH   6   9
BRANCH   6  11
ATOM     11  N   UNL A   1      31.637  26.568  22.671  1.00  0.00    -0.326 N 
ATOM     12  H   UNL A   1      32.313  26.995  22.038  1.00  0.00     0.347 HD
ATOM     13  H   UNL A   1      30.875  26.035  22.252  1.00  0.00     0.347 HD
BRANCH  11  14
ATOM     14  C   UNL A   1      32.368  25.556  23.460  1.00  0.00     0.363 C 
BRANCH  14  15
ATOM     15  C   UNL A   1      32.144  24.012  23.482  1.00  0.00     0.279 C 
ATOM     16  O   UNL A   1      30.975  23.630  23.279  1.00  0.00    -0.268 OA
ATOM     17  N   UNL A   1      33.069  22.997  23.393  1.00  0.00    -0.321 N 
ATOM     18  H   UNL A   1      32.758  22.318  22.751  1.00  0.00     0.170 HD
BRANCH  17  19
ATOM     19  C   UNL A   1      34.329  22.608  23.928  1.00  0.00     0.041 A 
ATOM     20  C   UNL A   1      34.559  21.581  24.823  1.00  0.00     0.026 A 
ATOM     21  C   UNL A   1      35.484  23.186  23.396  1.00  0.00     0.026 A 
ATOM     22  C   UNL A   1      35.823  21.249  25.327  1.00  0.00     0.005 A 
ATOM     23  C   UNL A   1      36.776  22.849  23.861  1.00  0.00     0.005 A 
ATOM     24  C   UNL A   1      36.950  21.910  24.876  1.00  0.00    -0.051 A 
ATOM     25  C   UNL A   1      38.289  21.532  25.426  1.00  0.00     0.044 C 
ENDBRANCH  17  19
ENDBRANCH  14  15
ENDBRANCH  11  14
ENDBRANCH   6  11
ENDBRANCH   3   6
ENDBRANCH   1   2
BRANCH   1  26
ATOM     26  C   UNL A   1      32.159  30.591  27.044  1.00  0.00     0.023 C 
BRANCH  26  27
ATOM     27  C   UNL A   1      33.677  30.815  27.045  1.00  0.00     0.023 C 
BRANCH  27  28
ATOM     28  C   UNL A   1      34.349  30.785  28.424  1.00  0.00     0.116 C 
BRANCH  28  29
ATOM     29  N   UNL A   1      35.374  31.806  28.638  1.00  0.00    -0.352 N 
ATOM     30  C   UNL A   1      36.750  31.677  28.818  1.00  0.00     0.251 C 
ATOM     31  H   UNL A   1      35.039  32.732  28.659  1.00  0.00     0.163 HD
ATOM     32  O   UNL A   1      37.441  32.665  28.996  1.00  0.00    -0.269 OA
BRANCH  30  33
ATOM     33  C   UNL A   1      37.395  30.348  28.653  1.00  0.00     0.039 A 
ATOM     34  C   UNL A   1      37.535  29.529  29.782  1.00  0.00     0.014 A 
ATOM     35  C   UNL A   1      38.024  30.000  27.466  1.00  0.00     0.014 A 
ATOM     36  C   UNL A   1      38.520  28.543  29.792  1.00  0.00     0.010 A 
ATOM     37  C   UNL A   1      39.080  29.116  27.509  1.00  0.00     0.010 A 
ATOM     38  C   UNL A   1      39.373  28.440  28.696  1.00  0.00    -0.014 A 
BRANCH  38  39
ATOM     39  C   UNL A   1      40.673  27.782  28.746  1.00  0.00     0.031 A 
ATOM     40  C   UNL A   1      40.814  26.344  28.450  1.00  0.00     0.074 A 
ATOM     41  C   UNL A   1      41.776  28.541  28.932  1.00  0.00     0.049 A 
ATOM     42  N   UNL A   1      41.833  25.636  28.799  1.00  0.00    -0.248 NA
ATOM     43  C   UNL A   1      39.791  25.574  27.756  1.00  0.00     0.031 C 
ATOM     44  C   UNL A   1      43.168  28.171  28.683  1.00  0.00     0.029 A 
ATOM     45  N   UNL A   1      41.855  29.782  29.575  1.00  0.00    -0.354 N 
ATOM     46  C   UNL A   1      41.742  24.420  28.164  1.00  0.00     0.074 A 
ATOM     47  C   UNL A   1      40.425  24.412  27.570  1.00  0.00     0.031 C 
ATOM     48  C   UNL A   1      43.969  28.999  29.371  1.00  0.00     0.029 A 
ATOM     49  C   UNL A   1      43.114  29.823  30.208  1.00  0.00     0.049 A 
ATOM     50  H   UNL A   1      41.167  30.487  29.584  1.00  0.00     0.167 HD
ATOM     51  C   UNL A   1      42.843  23.617  28.111  1.00  0.00     0.037 A 
ATOM     52  C   UNL A   1      43.212  29.908  31.566  1.00  0.00     0.037 A 
ATOM     53  C   UNL A   1      43.959  24.202  28.854  1.00  0.00     0.049 A 
ATOM     54  C   UNL A   1      43.940  28.744  32.197  1.00  0.00     0.074 A 
ATOM     55  C   UNL A   1      45.076  24.923  28.462  1.00  0.00     0.029 A 
ATOM     56  N   UNL A   1      43.862  24.352  30.234  1.00  0.00    -0.354 N 
ATOM     57  N   UNL A   1      44.091  27.581  31.626  1.00  0.00    -0.248 NA
ATOM     58  C   UNL A   1      44.529  28.793  33.529  1.00  0.00     0.031 C 
ATOM     59  C   UNL A   1      45.641  25.524  29.613  1.00  0.00     0.029 A 
ATOM     60  C   UNL A   1      44.877  25.159  30.707  1.00  0.00     0.049 A 
ATOM     61  H   UNL A   1      43.166  23.939  30.794  1.00  0.00     0.167 HD
ATOM     62  C   UNL A   1      44.761  26.736  32.475  1.00  0.00     0.074 A 
ATOM     63  C   UNL A   1      45.032  27.551  33.643  1.00  0.00     0.031 C 
ATOM     64  C   UNL A   1      45.018  25.436  32.131  1.00  0.00     0.037 A 
BRANCH  51  65
ATOM     65  C   UNL A   1      42.996  22.457  27.150  1.00  0.00     0.064 A 
ATOM     66  C   UNL A   1      42.220  21.285  27.293  1.00  0.00     0.173 A 
ATOM     67  C   UNL A   1      43.931  22.413  26.100  1.00  0.00     0.173 A 
ATOM     68  F   UNL A   1      41.206  21.216  28.164  1.00  0.00    -0.203 F 
ATOM     69  C   UNL A   1      42.456  20.129  26.545  1.00  0.00     0.198 A 
ATOM     70  C   UNL A   1      44.209  21.239  25.391  1.00  0.00     0.198 A 
ATOM     71  F   UNL A   1      44.563  23.518  25.688  1.00  0.00    -0.203 F 
ATOM     72  F   UNL A   1      41.694  19.043  26.739  1.00  0.00    -0.200 F 
ATOM     73  C   UNL A   1      43.482  20.092  25.624  1.00  0.00     0.200 A 
ATOM     74  F   UNL A   1      45.192  21.233  24.478  1.00  0.00    -0.200 F 
ATOM     75  F   UNL A   1      43.747  18.968  24.945  1.00  0.00    -0.200 F 
ENDBRANCH  51  65
BRANCH  52  76
ATOM     76  C   UNL A   1      42.072  30.638  32.185  1.00  0.00     0.064 A 
ATOM     77  C   UNL A   1      42.037  32.042  32.064  1.00  0.00     0.173 A 
ATOM     78  C   UNL A   1      40.879  29.988  32.519  1.00  0.00     0.173 A 
ATOM     79  F   UNL A   1      43.151  32.709  31.719  1.00  0.00    -0.203 F 
ATOM     80  C   UNL A   1      40.841  32.749  32.153  1.00  0.00     0.198 A 
ATOM     81  C   UNL A   1      39.684  30.704  32.624  1.00  0.00     0.198 A 
ATOM     82  F   UNL A   1      40.839  28.652  32.619  1.00  0.00    -0.203 F 
ATOM     83  F   UNL A   1      40.820  34.066  31.902  1.00  0.00    -0.200 F 
ATOM     84  C   UNL A   1      39.660  32.074  32.408  1.00  0.00     0.200 A 
ATOM     85  F   UNL A   1      38.532  30.047  32.829  1.00  0.00    -0.200 F 
ATOM     86  F   UNL A   1      38.493  32.733  32.391  1.00  0.00    -0.200 F 
ENDBRANCH  52  76
BRANCH  64  87
ATOM     87  C   UNL A   1      45.512  24.321  33.035  1.00  0.00     0.064 A 
ATOM     88  C   UNL A   1      46.774  24.289  33.651  1.00  0.00     0.173 A 
ATOM     89  C   UNL A   1      44.633  23.276  33.429  1.00  0.00     0.173 A 
ATOM     90  F   UNL A   1      47.665  25.273  33.479  1.00  0.00    -0.203 F 
ATOM     91  C   UNL A   1      47.149  23.268  34.533  1.00  0.00     0.198 A 
ATOM     92  C   UNL A   1      44.987  22.298  34.357  1.00  0.00     0.198 A 
ATOM     93  F   UNL A   1      43.383  23.185  32.951  1.00  0.00    -0.203 F 
ATOM     94  F   UNL A   1      48.384  23.267  35.055  1.00  0.00    -0.200 F 
ATOM     95  C   UNL A   1      46.253  22.283  34.897  1.00  0.00     0.200 A 
ATOM     96  F   UNL A   1      44.082  21.385  34.741  1.00  0.00    -0.200 F 
ATOM     97  F   UNL A   1      46.599  21.340  35.782  1.00  0.00    -0.200 F 
ENDBRANCH  64  87
ENDBRANCH  38  39
ENDBRANCH  30  33
ENDBRANCH  28  29
ENDBRANCH  27  28
ENDBRANCH  26  27
ENDBRANCH   1  26
TORSDOF 17
ENDMDL
MODEL 2
REMARK VINA RESULT:     -11.9      2.765      4.228
REMARK SMILES CCC(CC)([NH2+]CC(=O)Nc1ccc(C)cc1)C(=O)NCCCCNC(=O)c1ccc(-c2c3nc(c(-c4c(F)c(F)c(F)c(F)c4F)c4ccc([nH]4)c(-c4c(F)c(F)c(F)c(F)c4F)c4nc(c(-c5c(F)c(F)c(F)c(F)c5F)c5ccc2[nH]5)C=C4)C=C3)cc1
REMARK SMILES IDX 21 1 20 2 18 3 19 4 3 6 2 7 1 8 4 9 5 10 6 11 7 14 8 15 9 16
REMARK SMILES IDX 10 17 11 19 12 20 17 21 13 22 16 23 14 24 15 25 22 26 23 27
REMARK SMILES IDX 24 28 25 29 26 30 27 32 28 33 29 34 90 35 30 36 89 37 31 38
REMARK SMILES IDX 32 39 33 40 83 41 34 42 88 43 82 44 84 45 35 46 87 47 81 48
REMARK SMILES IDX 80 49 36 51 68 52 48 53 67 54 49 55 52 56 66 57 85 58 50 59
REMARK SMILES IDX 51 60 65 62 86 63 53 64 37 65 38 66 46 67 39 68 40 69 44 70
REMARK SMILES IDX 47 71 41 72 42 73 45 74 43 75 69 76 70 77 78 78 71 79 72 80
REMARK SMILES IDX 76 81 79 82 73 83 74 84 77 85 75 86 54 87 55 88 63 89 56 90
REMARK SMILES IDX 57 91 61 92 64 93 58 94 59 95 62 96 60 97
REMARK H PARENT 20 5 6 12 6 13 10 18 25 31 84 50 52 61
REMARK Flexibility Score: inf
ROOT
ATOM      1  C   UNL A   1      31.615  27.928  26.742  1.00  0.00     0.116 C 
ENDROOT
BRANCH   1   2
ATOM      2  N   UNL A   1      31.161  26.529  26.714  1.00  0.00    -0.351 N 
ATOM      3  C   UNL A   1      31.675  25.277  26.479  1.00  0.00     0.281 C 
ATOM      4  O   UNL A   1      31.159  24.449  27.253  1.00  0.00    -0.268 OA
ATOM      5  H   UNL A   1      30.202  26.473  26.927  1.00  0.00     0.163 HD
BRANCH   3   6
ATOM      6  C   UNL A   1      32.649  24.741  25.260  1.00  0.00     0.175 C 
BRANCH   6   7
ATOM      7  C   UNL A   1      33.942  24.323  26.101  1.00  0.00     0.076 C 
ATOM      8  C   UNL A   1      35.296  24.597  25.383  1.00  0.00     0.011 C 
ENDBRANCH   6   7
BRANCH   6   9
ATOM      9  C   UNL A   1      33.285  25.565  24.067  1.00  0.00     0.076 C 
ATOM     10  C   UNL A   1      32.312  26.361  23.175  1.00  0.00     0.011 C 
ENDBRANCH   6   9
BRANCH   6  11
ATOM     11  N   UNL A   1      31.971  23.598  24.656  1.00  0.00    -0.326 N 
ATOM     12  H   UNL A   1      31.988  23.745  23.647  1.00  0.00     0.347 HD
ATOM     13  H   UNL A   1      31.060  23.596  25.114  1.00  0.00     0.347 HD
BRANCH  11  14
ATOM     14  C   UNL A   1      32.475  22.230  24.896  1.00  0.00     0.363 C 
BRANCH  14  15
ATOM     15  C   UNL A   1      33.581  21.462  24.108  1.00  0.00     0.279 C 
ATOM     16  O   UNL A   1      34.267  22.151  23.326  1.00  0.00    -0.268 OA
ATOM     17  N   UNL A   1      34.119  20.218  24.349  1.00  0.00    -0.321 N 
ATOM     18  H   UNL A   1      35.100  20.262  24.284  1.00  0.00     0.170 HD
BRANCH  17  19
ATOM     19  C   UNL A   1      33.717  18.890  24.660  1.00  0.00     0.041 A 
ATOM     20  C   UNL A   1      32.871  18.506  25.684  1.00  0.00     0.026 A 
ATOM     21  C   UNL A   1      34.056  17.866  23.772  1.00  0.00     0.026 A 
ATOM     22  C   UNL A   1      32.519  17.178  25.952  1.00  0.00     0.005 A 
ATOM     23  C   UNL A   1      33.688  16.521  23.998  1.00  0.00     0.005 A 
ATOM     24  C   UNL A   1      32.957  16.159  25.129  1.00  0.00    -0.051 A 
ATOM     25  C   UNL A   1      32.561  14.748  25.435  1.00  0.00     0.044 C 
ENDBRANCH  17  19
ENDBRANCH  14  15
ENDBRANCH  11  14
ENDBRANCH   6  11
ENDBRANCH   3   6
ENDBRANCH   1   2
BRANCH   1  26
ATOM     26  C   UNL A   1      33.129  28.140  26.537  1.00  0.00     0.023 C 
BRANCH  26  27
ATOM     27  C   UNL A   1      33.839  28.837  27.705  1.00  0.00     0.023 C 
BRANCH  27  28
ATOM     28  C   UNL A   1      34.585  30.130  27.351  1.00  0.00     0.116 C 
BRANCH  28  29
ATOM     29  N   UNL A   1      33.843  31.364  27.602  1.00  0.00    -0.352 N 
ATOM     30  C   UNL A   1      34.141  32.442  28.435  1.00  0.00     0.251 C 
ATOM     31  H   UNL A   1      32.997  31.449  27.104  1.00  0.00     0.163 HD
ATOM     32  O   UNL A   1      33.376  33.386  28.514  1.00  0.00    -0.269 OA
BRANCH  30  33
ATOM     33  C   UNL A   1      35.459  32.503  29.117  1.00  0.00     0.039 A 
ATOM     34  C   UNL A   1      36.503  33.202  28.493  1.00  0.00     0.014 A 
ATOM     35  C   UNL A   1      35.723  31.730  30.239  1.00  0.00     0.014 A 
ATOM     36  C   UNL A   1      37.823  32.895  28.818  1.00  0.00     0.010 A 
ATOM     37  C   UNL A   1      37.020  31.329  30.479  1.00  0.00     0.010 A 
ATOM     38  C   UNL A   1      38.064  31.858  29.717  1.00  0.00    -0.014 A 
BRANCH  38  39
ATOM     39  C   UNL A   1      39.339  31.158  29.815  1.00  0.00     0.031 A 
ATOM     40  C   UNL A   1      39.512  29.803  29.261  1.00  0.00     0.074 A 
ATOM     41  C   UNL A   1      40.409  31.828  30.300  1.00  0.00     0.049 A 
ATOM     42  N   UNL A   1      40.466  29.005  29.601  1.00  0.00    -0.248 NA
ATOM     43  C   UNL A   1      38.593  29.220  28.293  1.00  0.00     0.031 C 
ATOM     44  C   UNL A   1      41.819  31.466  30.177  1.00  0.00     0.029 A 
ATOM     45  N   UNL A   1      40.403  32.915  31.181  1.00  0.00    -0.354 N 
ATOM     46  C   UNL A   1      40.458  27.941  28.730  1.00  0.00     0.074 A 
ATOM     47  C   UNL A   1      39.240  28.095  27.969  1.00  0.00     0.031 C 
ATOM     48  C   UNL A   1      42.520  32.115  31.121  1.00  0.00     0.029 A 
ATOM     49  C   UNL A   1      41.559  32.787  31.978  1.00  0.00     0.049 A 
ATOM     50  H   UNL A   1      39.726  33.628  31.234  1.00  0.00     0.167 HD
ATOM     51  C   UNL A   1      41.551  27.126  28.672  1.00  0.00     0.037 A 
ATOM     52  C   UNL A   1      41.462  32.602  33.326  1.00  0.00     0.037 A 
ATOM     53  C   UNL A   1      42.553  27.515  29.664  1.00  0.00     0.049 A 
ATOM     54  C   UNL A   1      42.085  31.312  33.808  1.00  0.00     0.074 A 
ATOM     55  C   UNL A   1      43.719  28.260  29.582  1.00  0.00     0.029 A 
ATOM     56  N   UNL A   1      42.260  27.395  31.019  1.00  0.00    -0.354 N 
ATOM     57  N   UNL A   1      42.309  30.279  33.043  1.00  0.00    -0.248 NA
ATOM     58  C   UNL A   1      42.478  31.079  35.192  1.00  0.00     0.031 C 
ATOM     59  C   UNL A   1      44.118  28.603  30.896  1.00  0.00     0.029 A 
ATOM     60  C   UNL A   1      43.203  28.058  31.780  1.00  0.00     0.049 A 
ATOM     61  H   UNL A   1      41.489  26.905  31.384  1.00  0.00     0.167 HD
ATOM     62  C   UNL A   1      42.845  29.261  33.792  1.00  0.00     0.074 A 
ATOM     63  C   UNL A   1      42.952  29.822  35.125  1.00  0.00     0.031 C 
ATOM     64  C   UNL A   1      43.140  28.046  33.235  1.00  0.00     0.037 A 
BRANCH  51  65
ATOM     65  C   UNL A   1      41.831  26.172  27.531  1.00  0.00     0.064 A 
ATOM     66  C   UNL A   1      41.221  24.900  27.476  1.00  0.00     0.173 A 
ATOM     67  C   UNL A   1      42.738  26.428  26.486  1.00  0.00     0.173 A 
ATOM     68  F   UNL A   1      40.246  24.551  28.325  1.00  0.00    -0.203 F 
ATOM     69  C   UNL A   1      41.589  23.925  26.545  1.00  0.00     0.198 A 
ATOM     70  C   UNL A   1      43.152  25.436  25.590  1.00  0.00     0.198 A 
ATOM     71  F   UNL A   1      43.209  27.661  26.263  1.00  0.00    -0.203 F 
ATOM     72  F   UNL A   1      40.982  22.730  26.556  1.00  0.00    -0.200 F 
ATOM     73  C   UNL A   1      42.588  24.179  25.629  1.00  0.00     0.200 A 
ATOM     74  F   UNL A   1      44.104  25.713  24.687  1.00  0.00    -0.200 F 
ATOM     75  F   UNL A   1      42.982  23.228  24.771  1.00  0.00    -0.200 F 
ENDBRANCH  51  65
BRANCH  52  76
ATOM     76  C   UNL A   1      40.250  33.236  33.913  1.00  0.00     0.064 A 
ATOM     77  C   UNL A   1      39.107  32.434  34.106  1.00  0.00     0.173 A 
ATOM     78  C   UNL A   1      40.324  34.440  34.622  1.00  0.00     0.173 A 
ATOM     79  F   UNL A   1      39.003  31.256  33.468  1.00  0.00    -0.203 F 
ATOM     80  C   UNL A   1      38.142  32.762  35.054  1.00  0.00     0.198 A 
ATOM     81  C   UNL A   1      39.343  34.774  35.560  1.00  0.00     0.198 A 
ATOM     82  F   UNL A   1      41.397  35.232  34.506  1.00  0.00    -0.203 F 
ATOM     83  F   UNL A   1      37.136  31.913  35.308  1.00  0.00    -0.200 F 
ATOM     84  C   UNL A   1      38.275  33.921  35.799  1.00  0.00     0.200 A 
ATOM     85  F   UNL A   1      39.492  35.873  36.313  1.00  0.00    -0.200 F 
ATOM     86  F   UNL A   1      37.407  34.189  36.784  1.00  0.00    -0.200 F 
ENDBRANCH  52  76
BRANCH  64  87
ATOM     87  C   UNL A   1      43.493  26.759  33.959  1.00  0.00     0.064 A 
ATOM     88  C   UNL A   1      44.785  26.215  34.043  1.00  0.00     0.173 A 
ATOM     89  C   UNL A   1      42.514  26.084  34.738  1.00  0.00     0.173 A 
ATOM     90  F   UNL A   1      45.837  26.812  33.469  1.00  0.00    -0.203 F 
ATOM     91  C   UNL A   1      45.063  25.061  34.786  1.00  0.00     0.198 A 
ATOM     92  C   UNL A   1      42.808  24.973  35.528  1.00  0.00     0.198 A 
ATOM     93  F   UNL A   1      41.239  26.498  34.786  1.00  0.00    -0.203 F 
ATOM     94  F   UNL A   1      46.308  24.563  34.791  1.00  0.00    -0.200 F 
ATOM     95  C   UNL A   1      44.081  24.450  35.538  1.00  0.00     0.200 A 
ATOM     96  F   UNL A   1      41.852  24.431  36.296  1.00  0.00    -0.200 F 
ATOM     97  F   UNL A   1      44.365  23.378  36.288  1.00  0.00    -0.200 F 
ENDBRANCH  64  87
ENDBRANCH  38  39
ENDBRANCH  30  33
ENDBRANCH  28  29
ENDBRANCH  27  28
ENDBRANCH  26  27
ENDBRANCH   1  26
TORSDOF 17
ENDMDL
MODEL 3
REMARK VINA RESULT:     -11.1      1.207      2.056
REMARK SMILES CCC(CC)([NH2+]CC(=O)Nc1ccc(C)cc1)C(=O)NCCCCNC(=O)c1ccc(-c2c3nc(c(-c4c(F)c(F)c(F)c(F)c4F)c4ccc([nH]4)c(-c4c(F)c(F)c(F)c(F)c4F)c4nc(c(-c5c(F)c(F)c(F)c(F)c5F)c5ccc2[nH]5)C=C4)C=C3)cc1
REMARK SMILES IDX 21 1 20 2 18 3 19 4 3 6 2 7 1 8 4 9 5 10 6 11 7 14 8 15 9 16
REMARK SMILES IDX 10 17 11 19 12 20 17 21 13 22 16 23 14 24 15 25 22 26 23 27
REMARK SMILES IDX 24 28 25 29 26 30 27 32 28 33 29 34 90 35 30 36 89 37 31 38
REMARK SMILES IDX 32 39 33 40 83 41 34 42 88 43 82 44 84 45 35 46 87 47 81 48
REMARK SMILES IDX 80 49 36 51 68 52 48 53 67 54 49 55 52 56 66 57 85 58 50 59
REMARK SMILES IDX 51 60 65 62 86 63 53 64 37 65 38 66 46 67 39 68 40 69 44 70
REMARK SMILES IDX 47 71 41 72 42 73 45 74 43 75 69 76 70 77 78 78 71 79 72 80
REMARK SMILES IDX 76 81 79 82 73 83 74 84 77 85 75 86 54 87 55 88 63 89 56 90
REMARK SMILES IDX 57 91 61 92 64 93 58 94 59 95 62 96 60 97
REMARK H PARENT 20 5 6 12 6 13 10 18 25 31 84 50 52 61
REMARK Flexibility Score: inf
ROOT
ATOM      1  C   UNL A   1      32.104  30.460  25.711  1.00  0.00     0.116 C 
ENDROOT
BRANCH   1   2
ATOM      2  N   UNL A   1      32.819  29.720  24.660  1.00  0.00    -0.351 N 
ATOM      3  C   UNL A   1      32.538  28.896  23.598  1.00  0.00     0.281 C 
ATOM      4  O   UNL A   1      33.311  29.136  22.651  1.00  0.00    -0.268 OA
ATOM      5  H   UNL A   1      33.791  29.858  24.741  1.00  0.00     0.163 HD
BRANCH   3   6
ATOM      6  C   UNL A   1      31.532  27.592  23.504  1.00  0.00     0.175 C 
BRANCH   6   7
ATOM      7  C   UNL A   1      30.120  28.316  23.703  1.00  0.00     0.076 C 
ATOM      8  C   UNL A   1      29.254  28.406  22.413  1.00  0.00     0.011 C 
ENDBRANCH   6   7
BRANCH   6   9
ATOM      9  C   UNL A   1      31.412  26.362  24.494  1.00  0.00     0.076 C 
ATOM     10  C   UNL A   1      31.609  26.655  25.995  1.00  0.00     0.011 C 
ENDBRANCH   6   9
BRANCH   6  11
ATOM     11  N   UNL A   1      31.698  27.031  22.167  1.00  0.00    -0.326 N 
ATOM     12  H   UNL A   1      31.608  27.805  21.510  1.00  0.00     0.347 HD
ATOM     13  H   UNL A   1      30.988  26.300  22.129  1.00  0.00     0.347 HD
BRANCH  11  14
ATOM     14  C   UNL A   1      32.942  26.314  21.816  1.00  0.00     0.363 C 
BRANCH  14  15
ATOM     15  C   UNL A   1      33.112  24.804  21.463  1.00  0.00     0.279 C 
ATOM     16  O   UNL A   1      32.938  24.504  20.265  1.00  0.00    -0.268 OA
ATOM     17  N   UNL A   1      33.709  23.801  22.191  1.00  0.00    -0.321 N 
ATOM     18  H   UNL A   1      34.302  23.273  21.608  1.00  0.00     0.170 HD
BRANCH  17  19
ATOM     19  C   UNL A   1      33.749  23.277  23.513  1.00  0.00     0.041 A 
ATOM     20  C   UNL A   1      33.375  22.005  23.904  1.00  0.00     0.026 A 
ATOM     21  C   UNL A   1      34.372  24.032  24.510  1.00  0.00     0.026 A 
ATOM     22  C   UNL A   1      33.424  21.546  25.226  1.00  0.00     0.005 A 
ATOM     23  C   UNL A   1      34.466  23.582  25.846  1.00  0.00     0.005 A 
ATOM     24  C   UNL A   1      33.939  22.349  26.226  1.00  0.00    -0.051 A 
ATOM     25  C   UNL A   1      33.985  21.831  27.629  1.00  0.00     0.044 C 
ENDBRANCH  17  19
ENDBRANCH  14  15
ENDBRANCH  11  14
ENDBRANCH   6  11
ENDBRANCH   3   6
ENDBRANCH   1   2
BRANCH   1  26
ATOM     26  C   UNL A   1      32.723  30.377  27.121  1.00  0.00     0.023 C 
BRANCH  26  27
ATOM     27  C   UNL A   1      34.009  31.195  27.301  1.00  0.00     0.023 C 
BRANCH  27  28
ATOM     28  C   UNL A   1      34.432  31.452  28.753  1.00  0.00     0.116 C 
BRANCH  28  29
ATOM     29  N   UNL A   1      35.509  32.425  28.923  1.00  0.00    -0.352 N 
ATOM     30  C   UNL A   1      36.875  32.231  29.123  1.00  0.00     0.251 C 
ATOM     31  H   UNL A   1      35.226  33.368  28.892  1.00  0.00     0.163 HD
ATOM     32  O   UNL A   1      37.618  33.188  29.255  1.00  0.00    -0.269 OA
BRANCH  30  33
ATOM     33  C   UNL A   1      37.447  30.863  29.033  1.00  0.00     0.039 A 
ATOM     34  C   UNL A   1      37.658  30.148  30.221  1.00  0.00     0.014 A 
ATOM     35  C   UNL A   1      37.950  30.373  27.835  1.00  0.00     0.014 A 
ATOM     36  C   UNL A   1      38.598  29.120  30.242  1.00  0.00     0.010 A 
ATOM     37  C   UNL A   1      38.969  29.446  27.873  1.00  0.00     0.010 A 
ATOM     38  C   UNL A   1      39.342  28.872  29.091  1.00  0.00    -0.014 A 
BRANCH  38  39
ATOM     39  C   UNL A   1      40.613  28.158  29.091  1.00  0.00     0.031 A 
ATOM     40  C   UNL A   1      40.681  26.717  28.785  1.00  0.00     0.074 A 
ATOM     41  C   UNL A   1      41.754  28.868  29.240  1.00  0.00     0.049 A 
ATOM     42  N   UNL A   1      41.680  25.964  29.095  1.00  0.00    -0.248 NA
ATOM     43  C   UNL A   1      39.601  25.995  28.126  1.00  0.00     0.031 C 
ATOM     44  C   UNL A   1      43.118  28.439  28.939  1.00  0.00     0.029 A 
ATOM     45  N   UNL A   1      41.909  30.101  29.883  1.00  0.00    -0.354 N 
ATOM     46  C   UNL A   1      41.513  24.756  28.460  1.00  0.00     0.074 A 
ATOM     47  C   UNL A   1      40.177  24.807  27.913  1.00  0.00     0.031 C 
ATOM     48  C   UNL A   1      43.979  29.228  29.600  1.00  0.00     0.029 A 
ATOM     49  C   UNL A   1      43.191  30.084  30.470  1.00  0.00     0.049 A 
ATOM     50  H   UNL A   1      41.254  30.835  29.919  1.00  0.00     0.167 HD
ATOM     51  C   UNL A   1      42.576  23.906  28.364  1.00  0.00     0.037 A 
ATOM     52  C   UNL A   1      43.342  30.158  31.824  1.00  0.00     0.037 A 
ATOM     53  C   UNL A   1      43.742  24.438  29.068  1.00  0.00     0.049 A 
ATOM     54  C   UNL A   1      44.041  28.960  32.424  1.00  0.00     0.074 A 
ATOM     55  C   UNL A   1      44.874  25.112  28.637  1.00  0.00     0.029 A 
ATOM     56  N   UNL A   1      43.702  24.586  30.451  1.00  0.00    -0.354 N 
ATOM     57  N   UNL A   1      44.121  27.796  31.844  1.00  0.00    -0.248 NA
ATOM     58  C   UNL A   1      44.680  28.978  33.734  1.00  0.00     0.031 C 
ATOM     59  C   UNL A   1      45.507  25.683  29.769  1.00  0.00     0.029 A 
ATOM     60  C   UNL A   1      44.768  25.346  30.889  1.00  0.00     0.049 A 
ATOM     61  H   UNL A   1      43.009  24.201  31.035  1.00  0.00     0.167 HD
ATOM     62  C   UNL A   1      44.784  26.918  32.666  1.00  0.00     0.074 A 
ATOM     63  C   UNL A   1      45.132  27.715  33.826  1.00  0.00     0.031 C 
ATOM     64  C   UNL A   1      44.972  25.610  32.308  1.00  0.00     0.037 A 
BRANCH  51  65
ATOM     65  C   UNL A   1      42.643  22.745  27.394  1.00  0.00     0.064 A 
ATOM     66  C   UNL A   1      41.753  21.654  27.500  1.00  0.00     0.173 A 
ATOM     67  C   UNL A   1      43.600  22.619  26.371  1.00  0.00     0.173 A 
ATOM     68  F   UNL A   1      40.711  21.676  28.341  1.00  0.00    -0.203 F 
ATOM     69  C   UNL A   1      41.897  20.487  26.746  1.00  0.00     0.198 A 
ATOM     70  C   UNL A   1      43.784  21.430  25.656  1.00  0.00     0.198 A 
ATOM     71  F   UNL A   1      44.350  23.661  25.991  1.00  0.00    -0.203 F 
ATOM     72  F   UNL A   1      41.027  19.479  26.905  1.00  0.00    -0.200 F 
ATOM     73  C   UNL A   1      42.941  20.357  25.855  1.00  0.00     0.200 A 
ATOM     74  F   UNL A   1      44.788  21.336  24.772  1.00  0.00    -0.200 F 
ATOM     75  F   UNL A   1      43.115  19.219  25.171  1.00  0.00    -0.200 F 
ENDBRANCH  51  65
BRANCH  52  76
ATOM     76  C   UNL A   1      42.258  30.934  32.486  1.00  0.00     0.064 A 
ATOM     77  C   UNL A   1      41.177  30.223  33.045  1.00  0.00     0.173 A 
ATOM     78  C   UNL A   1      42.455  32.252  32.912  1.00  0.00     0.173 A 
ATOM     79  F   UNL A   1      40.963  28.946  32.688  1.00  0.00    -0.203 F 
ATOM     80  C   UNL A   1      40.405  30.763  34.071  1.00  0.00     0.198 A 
ATOM     81  C   UNL A   1      41.666  32.797  33.929  1.00  0.00     0.198 A 
ATOM     82  F   UNL A   1      43.482  32.972  32.441  1.00  0.00    -0.203 F 
ATOM     83  F   UNL A   1      39.471  30.014  34.672  1.00  0.00    -0.200 F 
ATOM     84  C   UNL A   1      40.668  32.043  34.529  1.00  0.00     0.200 A 
ATOM     85  F   UNL A   1      41.947  34.019  34.404  1.00  0.00    -0.200 F 
ATOM     86  F   UNL A   1      40.000  32.529  35.583  1.00  0.00    -0.200 F 
ENDBRANCH  52  76
BRANCH  64  87
ATOM     87  C   UNL A   1      45.449  24.470  33.189  1.00  0.00     0.064 A 
ATOM     88  C   UNL A   1      44.670  23.361  33.556  1.00  0.00     0.173 A 
ATOM     89  C   UNL A   1      46.810  24.397  33.591  1.00  0.00     0.173 A 
ATOM     90  F   UNL A   1      43.405  23.223  33.142  1.00  0.00    -0.203 F 
ATOM     91  C   UNL A   1      45.187  22.302  34.314  1.00  0.00     0.198 A 
ATOM     92  C   UNL A   1      47.338  23.312  34.290  1.00  0.00     0.198 A 
ATOM     93  F   UNL A   1      47.690  25.365  33.292  1.00  0.00    -0.203 F 
ATOM     94  F   UNL A   1      44.381  21.292  34.672  1.00  0.00    -0.200 F 
ATOM     95  C   UNL A   1      46.520  22.270  34.668  1.00  0.00     0.200 A 
ATOM     96  F   UNL A   1      48.648  23.274  34.572  1.00  0.00    -0.200 F 
ATOM     97  F   UNL A   1      47.021  21.230  35.346  1.00  0.00    -0.200 F 
ENDBRANCH  64  87
ENDBRANCH  38  39
ENDBRANCH  30  33
ENDBRANCH  28  29
ENDBRANCH  27  28
ENDBRANCH  26  27
ENDBRANCH   1  26
TORSDOF 17
ENDMDL
