MODEL 1
REMARK VINA RESULT:     -12.7      0.000      0.000
REMARK SMILES CCN1C(=O)CC[C@H](C(=O)NCCCCNC(=O)c2ccc(-c3c4nc(c(-c5c(F)c(F)c(F)c(F)c5F)c5ccc([nH]5)c(-c5c(F)c(F)c(F)c(F)c5F)c5nc(c(-c6c(F)c(F)c(F)c(F)c6F)c6ccc3[nH]6)C=C5)C=C4)cc2)[C@@H]1c1ccc(OC)cc1
REMARK SMILES IDX 13 1 12 2 11 3 9 4 10 5 8 7 3 8 4 9 82 10 5 11 6 12 7 13
REMARK SMILES IDX 2 14 1 15 83 16 84 17 90 18 85 19 89 20 86 21 87 22 88 23
REMARK SMILES IDX 14 24 15 25 16 26 17 27 18 29 19 30 20 31 81 32 21 33 80 34
REMARK SMILES IDX 22 35 23 36 24 37 74 38 25 39 79 40 73 41 75 42 26 43 78 44
REMARK SMILES IDX 72 45 71 46 27 48 59 49 39 50 58 51 40 52 43 53 57 54 76 55
REMARK SMILES IDX 41 56 42 57 56 59 77 60 44 61 28 62 29 63 37 64 30 65 31 66
REMARK SMILES IDX 35 67 38 68 32 69 33 70 36 71 34 72 60 73 61 74 69 75 62 76
REMARK SMILES IDX 63 77 67 78 70 79 64 80 65 81 68 82 66 83 45 84 46 85 54 86
REMARK SMILES IDX 47 87 48 88 52 89 55 90 49 91 50 92 53 93 51 94
REMARK H PARENT 11 6 16 28 75 47 43 58
REMARK Flexibility Score: inf
ROOT
ATOM      1  C   UNL A   1      31.775  30.552  26.537  1.00  0.00     0.023 C 
ENDROOT
BRANCH   1   2
ATOM      2  C   UNL A   1      33.231  30.124  26.588  1.00  0.00     0.116 C 
BRANCH   2   3
ATOM      3  N   UNL A   1      33.768  29.694  25.313  1.00  0.00    -0.356 N 
ATOM      4  C   UNL A   1      33.134  29.146  24.238  1.00  0.00     0.225 C 
ATOM      5  O   UNL A   1      33.728  29.191  23.156  1.00  0.00    -0.275 OA
ATOM      6  H   UNL A   1      34.740  29.817  25.206  1.00  0.00     0.163 HD
BRANCH   4   7
ATOM      7  C   UNL A   1      31.756  28.491  24.320  1.00  0.00     0.106 C 
ATOM      8  N   UNL A   1      30.352  26.494  24.986  1.00  0.00    -0.335 N 
ATOM      9  C   UNL A   1      29.408  26.793  24.009  1.00  0.00     0.223 C 
ATOM     10  C   UNL A   1      31.689  27.140  25.072  1.00  0.00     0.128 C 
ATOM     11  O   UNL A   1      28.392  26.113  23.848  1.00  0.00    -0.275 OA
ATOM     12  C   UNL A   1      29.564  28.067  23.213  1.00  0.00     0.101 C 
ATOM     13  C   UNL A   1      30.986  28.523  23.007  1.00  0.00     0.026 C 
BRANCH   8  14
ATOM     14  C   UNL A   1      29.968  25.411  25.909  1.00  0.00     0.117 C 
ATOM     15  C   UNL A   1      30.528  24.013  25.707  1.00  0.00     0.027 C 
ENDBRANCH   8  14
BRANCH  10  16
ATOM     16  C   UNL A   1      32.816  26.156  24.770  1.00  0.00    -0.024 A 
ATOM     17  C   UNL A   1      33.774  25.792  25.730  1.00  0.00     0.010 A 
ATOM     18  C   UNL A   1      32.935  25.615  23.475  1.00  0.00     0.010 A 
ATOM     19  C   UNL A   1      34.800  24.898  25.408  1.00  0.00     0.047 A 
ATOM     20  C   UNL A   1      33.956  24.709  23.160  1.00  0.00     0.047 A 
ATOM     21  C   UNL A   1      34.878  24.336  24.134  1.00  0.00     0.118 A 
BRANCH  21  22
ATOM     22  O   UNL A   1      35.906  23.453  23.954  1.00  0.00    -0.497 OA
ATOM     23  C   UNL A   1      36.946  23.510  24.922  1.00  0.00     0.278 C 
ENDBRANCH  21  22
ENDBRANCH  10  16
ENDBRANCH   4   7
ENDBRANCH   2   3
ENDBRANCH   1   2
BRANCH   1  24
ATOM     24  C   UNL A   1      31.554  32.049  26.733  1.00  0.00     0.023 C 
BRANCH  24  25
ATOM     25  C   UNL A   1      32.734  32.825  27.316  1.00  0.00     0.116 C 
BRANCH  25  26
ATOM     26  N   UNL A   1      32.422  34.202  27.667  1.00  0.00    -0.352 N 
ATOM     27  C   UNL A   1      33.001  35.007  28.621  1.00  0.00     0.251 C 
ATOM     28  H   UNL A   1      31.695  34.616  27.148  1.00  0.00     0.163 HD
ATOM     29  O   UNL A   1      32.555  36.119  28.856  1.00  0.00    -0.269 OA
BRANCH  27  30
ATOM     30  C   UNL A   1      34.160  34.502  29.388  1.00  0.00     0.039 A 
ATOM     31  C   UNL A   1      33.934  33.916  30.636  1.00  0.00     0.014 A 
ATOM     32  C   UNL A   1      35.453  34.574  28.865  1.00  0.00     0.014 A 
ATOM     33  C   UNL A   1      34.996  33.323  31.319  1.00  0.00     0.010 A 
ATOM     34  C   UNL A   1      36.499  33.934  29.515  1.00  0.00     0.010 A 
ATOM     35  C   UNL A   1      36.275  33.289  30.739  1.00  0.00    -0.014 A 
BRANCH  35  36
ATOM     36  C   UNL A   1      37.382  32.528  31.360  1.00  0.00     0.031 A 
ATOM     37  C   UNL A   1      37.909  32.920  32.707  1.00  0.00     0.074 A 
ATOM     38  C   UNL A   1      37.972  31.551  30.646  1.00  0.00     0.049 A 
ATOM     39  N   UNL A   1      38.907  32.411  33.382  1.00  0.00    -0.248 NA
ATOM     40  C   UNL A   1      37.247  34.053  33.371  1.00  0.00     0.031 C 
ATOM     41  C   UNL A   1      37.586  31.145  29.293  1.00  0.00     0.029 A 
ATOM     42  N   UNL A   1      39.032  30.736  30.948  1.00  0.00    -0.354 N 
ATOM     43  C   UNL A   1      38.993  33.158  34.548  1.00  0.00     0.074 A 
ATOM     44  C   UNL A   1      37.987  34.195  34.461  1.00  0.00     0.031 C 
ATOM     45  C   UNL A   1      38.387  30.146  28.889  1.00  0.00     0.029 A 
ATOM     46  C   UNL A   1      39.358  29.865  29.940  1.00  0.00     0.049 A 
ATOM     47  H   UNL A   1      39.512  30.773  31.808  1.00  0.00     0.167 HD
ATOM     48  C   UNL A   1      39.823  32.978  35.603  1.00  0.00     0.037 A 
ATOM     49  C   UNL A   1      40.337  28.943  29.872  1.00  0.00     0.037 A 
ATOM     50  C   UNL A   1      40.817  31.938  35.673  1.00  0.00     0.049 A 
ATOM     51  C   UNL A   1      41.245  28.763  31.058  1.00  0.00     0.074 A 
ATOM     52  C   UNL A   1      41.668  31.625  36.718  1.00  0.00     0.029 A 
ATOM     53  N   UNL A   1      41.103  31.049  34.645  1.00  0.00    -0.354 N 
ATOM     54  N   UNL A   1      41.257  29.411  32.198  1.00  0.00    -0.248 NA
ATOM     55  C   UNL A   1      42.269  27.714  30.953  1.00  0.00     0.031 C 
ATOM     56  C   UNL A   1      42.502  30.582  36.304  1.00  0.00     0.029 A 
ATOM     57  C   UNL A   1      42.133  30.203  35.024  1.00  0.00     0.049 A 
ATOM     58  H   UNL A   1      40.640  31.022  33.777  1.00  0.00     0.167 HD
ATOM     59  C   UNL A   1      42.263  28.830  32.957  1.00  0.00     0.074 A 
ATOM     60  C   UNL A   1      42.829  27.767  32.153  1.00  0.00     0.031 C 
ATOM     61  C   UNL A   1      42.680  29.148  34.207  1.00  0.00     0.037 A 
BRANCH  48  62
ATOM     62  C   UNL A   1      39.687  33.919  36.766  1.00  0.00     0.064 A 
ATOM     63  C   UNL A   1      38.907  33.594  37.887  1.00  0.00     0.173 A 
ATOM     64  C   UNL A   1      40.374  35.142  36.780  1.00  0.00     0.173 A 
ATOM     65  F   UNL A   1      38.220  32.442  37.921  1.00  0.00    -0.203 F 
ATOM     66  C   UNL A   1      38.797  34.470  38.963  1.00  0.00     0.198 A 
ATOM     67  C   UNL A   1      40.288  36.001  37.873  1.00  0.00     0.198 A 
ATOM     68  F   UNL A   1      41.138  35.501  35.737  1.00  0.00    -0.203 F 
ATOM     69  F   UNL A   1      38.005  34.160  39.999  1.00  0.00    -0.200 F 
ATOM     70  C   UNL A   1      39.493  35.668  38.959  1.00  0.00     0.200 A 
ATOM     71  F   UNL A   1      40.972  37.153  37.873  1.00  0.00    -0.200 F 
ATOM     72  F   UNL A   1      39.393  36.507  40.000  1.00  0.00    -0.200 F 
ENDBRANCH  48  62
BRANCH  49  73
ATOM     73  C   UNL A   1      40.482  28.100  28.656  1.00  0.00     0.064 A 
ATOM     74  C   UNL A   1      39.827  26.865  28.557  1.00  0.00     0.173 A 
ATOM     75  C   UNL A   1      41.266  28.512  27.570  1.00  0.00     0.173 A 
ATOM     76  F   UNL A   1      39.077  26.421  29.576  1.00  0.00    -0.203 F 
ATOM     77  C   UNL A   1      39.971  26.063  27.427  1.00  0.00     0.198 A 
ATOM     78  C   UNL A   1      41.385  27.723  26.427  1.00  0.00     0.198 A 
ATOM     79  F   UNL A   1      41.905  29.691  27.610  1.00  0.00    -0.203 F 
ATOM     80  F   UNL A   1      39.371  24.865  27.379  1.00  0.00    -0.200 F 
ATOM     81  C   UNL A   1      40.745  26.495  26.361  1.00  0.00     0.200 A 
ATOM     82  F   UNL A   1      42.119  28.153  25.392  1.00  0.00    -0.200 F 
ATOM     83  F   UNL A   1      40.879  25.725  25.272  1.00  0.00    -0.200 F 
ENDBRANCH  49  73
BRANCH  61  84
ATOM     84  C   UNL A   1      43.781  28.312  34.795  1.00  0.00     0.064 A 
ATOM     85  C   UNL A   1      45.129  28.685  34.689  1.00  0.00     0.173 A 
ATOM     86  C   UNL A   1      43.478  27.138  35.500  1.00  0.00     0.173 A 
ATOM     87  F   UNL A   1      45.472  29.792  34.010  1.00  0.00    -0.203 F 
ATOM     88  C   UNL A   1      46.134  27.898  35.242  1.00  0.00     0.198 A 
ATOM     89  C   UNL A   1      44.484  26.371  36.082  1.00  0.00     0.198 A 
ATOM     90  F   UNL A   1      42.204  26.739  35.636  1.00  0.00    -0.203 F 
ATOM     91  F   UNL A   1      47.419  28.246  35.081  1.00  0.00    -0.200 F 
ATOM     92  C   UNL A   1      45.811  26.747  35.944  1.00  0.00     0.200 A 
ATOM     93  F   UNL A   1      44.168  25.267  36.772  1.00  0.00    -0.200 F 
ATOM     94  F   UNL A   1      46.780  25.994  36.482  1.00  0.00    -0.200 F 
ENDBRANCH  61  84
ENDBRANCH  35  36
ENDBRANCH  27  30
ENDBRANCH  25  26
ENDBRANCH  24  25
ENDBRANCH   1  24
TORSDOF 14
ENDMDL
MODEL 2
REMARK VINA RESULT:     -12.6      0.086      1.941
REMARK SMILES CCN1C(=O)CC[C@H](C(=O)NCCCCNC(=O)c2ccc(-c3c4nc(c(-c5c(F)c(F)c(F)c(F)c5F)c5ccc([nH]5)c(-c5c(F)c(F)c(F)c(F)c5F)c5nc(c(-c6c(F)c(F)c(F)c(F)c6F)c6ccc3[nH]6)C=C5)C=C4)cc2)[C@@H]1c1ccc(OC)cc1
REMARK SMILES IDX 13 1 12 2 11 3 9 4 10 5 8 7 3 8 4 9 82 10 5 11 6 12 7 13
REMARK SMILES IDX 2 14 1 15 83 16 84 17 90 18 85 19 89 20 86 21 87 22 88 23
REMARK SMILES IDX 14 24 15 25 16 26 17 27 18 29 19 30 20 31 81 32 21 33 80 34
REMARK SMILES IDX 22 35 23 36 24 37 74 38 25 39 79 40 73 41 75 42 26 43 78 44
REMARK SMILES IDX 72 45 71 46 27 48 59 49 39 50 58 51 40 52 43 53 57 54 76 55
REMARK SMILES IDX 41 56 42 57 56 59 77 60 44 61 28 62 29 63 37 64 30 65 31 66
REMARK SMILES IDX 35 67 38 68 32 69 33 70 36 71 34 72 60 73 61 74 69 75 62 76
REMARK SMILES IDX 63 77 67 78 70 79 64 80 65 81 68 82 66 83 45 84 46 85 54 86
REMARK SMILES IDX 47 87 48 88 52 89 55 90 49 91 50 92 53 93 51 94
REMARK H PARENT 11 6 16 28 75 47 43 58
REMARK Flexibility Score: inf
ROOT
ATOM      1  C   UNL A   1      31.784  30.519  26.680  1.00  0.00     0.023 C 
ENDROOT
BRANCH   1   2
ATOM      2  C   UNL A   1      33.231  30.055  26.678  1.00  0.00     0.116 C 
BRANCH   2   3
ATOM      3  N   UNL A   1      33.737  29.700  25.368  1.00  0.00    -0.356 N 
ATOM      4  C   UNL A   1      33.078  29.209  24.280  1.00  0.00     0.225 C 
ATOM      5  O   UNL A   1      33.645  29.317  23.188  1.00  0.00    -0.275 OA
ATOM      6  H   UNL A   1      34.705  29.832  25.244  1.00  0.00     0.163 HD
BRANCH   4   7
ATOM      7  C   UNL A   1      31.705  28.544  24.359  1.00  0.00     0.106 C 
ATOM      8  N   UNL A   1      30.316  26.532  25.009  1.00  0.00    -0.335 N 
ATOM      9  C   UNL A   1      29.367  26.834  24.038  1.00  0.00     0.223 C 
ATOM     10  C   UNL A   1      31.648  27.185  25.098  1.00  0.00     0.128 C 
ATOM     11  O   UNL A   1      28.355  26.148  23.873  1.00  0.00    -0.275 OA
ATOM     12  C   UNL A   1      29.512  28.116  23.253  1.00  0.00     0.101 C 
ATOM     13  C   UNL A   1      30.931  28.583  23.048  1.00  0.00     0.026 C 
BRANCH   8  14
ATOM     14  C   UNL A   1      29.941  25.438  25.924  1.00  0.00     0.117 C 
ATOM     15  C   UNL A   1      30.554  24.059  25.741  1.00  0.00     0.027 C 
ENDBRANCH   8  14
BRANCH  10  16
ATOM     16  C   UNL A   1      32.781  26.212  24.784  1.00  0.00    -0.024 A 
ATOM     17  C   UNL A   1      33.761  25.868  25.729  1.00  0.00     0.010 A 
ATOM     18  C   UNL A   1      32.882  25.660  23.492  1.00  0.00     0.010 A 
ATOM     19  C   UNL A   1      34.791  24.983  25.396  1.00  0.00     0.047 A 
ATOM     20  C   UNL A   1      33.908  24.764  23.166  1.00  0.00     0.047 A 
ATOM     21  C   UNL A   1      34.853  24.410  24.126  1.00  0.00     0.118 A 
BRANCH  21  22
ATOM     22  O   UNL A   1      35.887  23.538  23.935  1.00  0.00    -0.497 OA
ATOM     23  C   UNL A   1      36.763  23.366  25.042  1.00  0.00     0.278 C 
ENDBRANCH  21  22
ENDBRANCH  10  16
ENDBRANCH   4   7
ENDBRANCH   2   3
ENDBRANCH   1   2
BRANCH   1  24
ATOM     24  C   UNL A   1      31.611  32.035  26.703  1.00  0.00     0.023 C 
BRANCH  24  25
ATOM     25  C   UNL A   1      32.787  32.829  27.269  1.00  0.00     0.116 C 
BRANCH  25  26
ATOM     26  N   UNL A   1      32.452  34.193  27.650  1.00  0.00    -0.352 N 
ATOM     27  C   UNL A   1      33.009  34.981  28.631  1.00  0.00     0.251 C 
ATOM     28  H   UNL A   1      31.724  34.609  27.134  1.00  0.00     0.163 HD
ATOM     29  O   UNL A   1      32.544  36.081  28.888  1.00  0.00    -0.269 OA
BRANCH  27  30
ATOM     30  C   UNL A   1      34.167  34.474  29.398  1.00  0.00     0.039 A 
ATOM     31  C   UNL A   1      33.936  33.861  30.632  1.00  0.00     0.014 A 
ATOM     32  C   UNL A   1      35.464  34.570  28.888  1.00  0.00     0.014 A 
ATOM     33  C   UNL A   1      34.999  33.266  31.312  1.00  0.00     0.010 A 
ATOM     34  C   UNL A   1      36.511  33.929  29.534  1.00  0.00     0.010 A 
ATOM     35  C   UNL A   1      36.283  33.258  30.743  1.00  0.00    -0.014 A 
BRANCH  35  36
ATOM     36  C   UNL A   1      37.393  32.496  31.358  1.00  0.00     0.031 A 
ATOM     37  C   UNL A   1      37.920  32.882  32.707  1.00  0.00     0.074 A 
ATOM     38  C   UNL A   1      37.984  31.524  30.639  1.00  0.00     0.049 A 
ATOM     39  N   UNL A   1      38.920  32.372  33.378  1.00  0.00    -0.248 NA
ATOM     40  C   UNL A   1      37.256  34.009  33.378  1.00  0.00     0.031 C 
ATOM     41  C   UNL A   1      37.598  31.124  29.284  1.00  0.00     0.029 A 
ATOM     42  N   UNL A   1      39.047  30.711  30.935  1.00  0.00    -0.354 N 
ATOM     43  C   UNL A   1      39.006  33.114  34.548  1.00  0.00     0.074 A 
ATOM     44  C   UNL A   1      37.998  34.148  34.468  1.00  0.00     0.031 C 
ATOM     45  C   UNL A   1      38.401  30.129  28.874  1.00  0.00     0.029 A 
ATOM     46  C   UNL A   1      39.375  29.845  29.922  1.00  0.00     0.049 A 
ATOM     47  H   UNL A   1      39.528  30.744  31.794  1.00  0.00     0.167 HD
ATOM     48  C   UNL A   1      39.838  32.930  35.601  1.00  0.00     0.037 A 
ATOM     49  C   UNL A   1      40.356  28.927  29.848  1.00  0.00     0.037 A 
ATOM     50  C   UNL A   1      40.835  31.892  35.664  1.00  0.00     0.049 A 
ATOM     51  C   UNL A   1      41.266  28.743  31.032  1.00  0.00     0.074 A 
ATOM     52  C   UNL A   1      41.688  31.576  36.706  1.00  0.00     0.029 A 
ATOM     53  N   UNL A   1      41.122  31.009  34.631  1.00  0.00    -0.354 N 
ATOM     54  N   UNL A   1      41.277  29.385  32.175  1.00  0.00    -0.248 NA
ATOM     55  C   UNL A   1      42.292  27.697  30.920  1.00  0.00     0.031 C 
ATOM     56  C   UNL A   1      42.525  30.537  36.286  1.00  0.00     0.029 A 
ATOM     57  C   UNL A   1      42.155  30.165  35.004  1.00  0.00     0.049 A 
ATOM     58  H   UNL A   1      40.658  30.986  33.763  1.00  0.00     0.167 HD
ATOM     59  C   UNL A   1      42.285  28.803  32.930  1.00  0.00     0.074 A 
ATOM     60  C   UNL A   1      42.854  27.745  32.120  1.00  0.00     0.031 C 
ATOM     61  C   UNL A   1      42.704  29.115  34.182  1.00  0.00     0.037 A 
BRANCH  48  62
ATOM     62  C   UNL A   1      39.701  33.864  36.769  1.00  0.00     0.064 A 
ATOM     63  C   UNL A   1      40.339  35.115  36.789  1.00  0.00     0.173 A 
ATOM     64  C   UNL A   1      38.893  33.525  37.864  1.00  0.00     0.173 A 
ATOM     65  F   UNL A   1      41.132  35.485  35.772  1.00  0.00    -0.203 F 
ATOM     66  C   UNL A   1      40.196  35.976  37.873  1.00  0.00     0.198 A 
ATOM     67  C   UNL A   1      38.726  34.403  38.932  1.00  0.00     0.198 A 
ATOM     68  F   UNL A   1      38.257  32.344  37.896  1.00  0.00    -0.203 F 
ATOM     69  F   UNL A   1      40.856  37.143  37.892  1.00  0.00    -0.200 F 
ATOM     70  C   UNL A   1      39.384  35.624  38.940  1.00  0.00     0.200 A 
ATOM     71  F   UNL A   1      37.930  34.067  39.956  1.00  0.00    -0.200 F 
ATOM     72  F   UNL A   1      39.240  36.458  39.979  1.00  0.00    -0.200 F 
ENDBRANCH  48  62
BRANCH  49  73
ATOM     73  C   UNL A   1      40.501  28.091  28.628  1.00  0.00     0.064 A 
ATOM     74  C   UNL A   1      41.288  28.522  27.552  1.00  0.00     0.173 A 
ATOM     75  C   UNL A   1      39.867  26.845  28.515  1.00  0.00     0.173 A 
ATOM     76  F   UNL A   1      41.903  29.712  27.606  1.00  0.00    -0.203 F 
ATOM     77  C   UNL A   1      41.415  27.750  26.398  1.00  0.00     0.198 A 
ATOM     78  C   UNL A   1      40.020  26.060  27.374  1.00  0.00     0.198 A 
ATOM     79  F   UNL A   1      39.112  26.381  29.522  1.00  0.00    -0.203 F 
ATOM     80  F   UNL A   1      42.136  28.209  25.365  1.00  0.00    -0.200 F 
ATOM     81  C   UNL A   1      40.786  26.518  26.313  1.00  0.00     0.200 A 
ATOM     82  F   UNL A   1      39.424  24.862  27.303  1.00  0.00    -0.200 F 
ATOM     83  F   UNL A   1      40.913  25.774  25.206  1.00  0.00    -0.200 F 
ENDBRANCH  49  73
BRANCH  61  84
ATOM     84  C   UNL A   1      43.808  28.279  34.763  1.00  0.00     0.064 A 
ATOM     85  C   UNL A   1      43.545  27.090  35.459  1.00  0.00     0.173 A 
ATOM     86  C   UNL A   1      45.147  28.657  34.591  1.00  0.00     0.173 A 
ATOM     87  F   UNL A   1      42.279  26.693  35.664  1.00  0.00    -0.203 F 
ATOM     88  C   UNL A   1      44.581  26.327  35.988  1.00  0.00     0.198 A 
ATOM     89  C   UNL A   1      46.183  27.874  35.092  1.00  0.00     0.198 A 
ATOM     90  F   UNL A   1      45.453  29.782  33.927  1.00  0.00    -0.203 F 
ATOM     91  F   UNL A   1      44.304  25.224  36.698  1.00  0.00    -0.200 F 
ATOM     92  C   UNL A   1      45.900  26.715  35.798  1.00  0.00     0.200 A 
ATOM     93  F   UNL A   1      47.456  28.243  34.894  1.00  0.00    -0.200 F 
ATOM     94  F   UNL A   1      46.896  25.975  36.302  1.00  0.00    -0.200 F 
ENDBRANCH  61  84
ENDBRANCH  35  36
ENDBRANCH  27  30
ENDBRANCH  25  26
ENDBRANCH  24  25
ENDBRANCH   1  24
TORSDOF 14
ENDMDL
MODEL 3
REMARK VINA RESULT:     -12.5      0.482      7.384
REMARK SMILES CCN1C(=O)CC[C@H](C(=O)NCCCCNC(=O)c2ccc(-c3c4nc(c(-c5c(F)c(F)c(F)c(F)c5F)c5ccc([nH]5)c(-c5c(F)c(F)c(F)c(F)c5F)c5nc(c(-c6c(F)c(F)c(F)c(F)c6F)c6ccc3[nH]6)C=C5)C=C4)cc2)[C@@H]1c1ccc(OC)cc1
REMARK SMILES IDX 13 1 12 2 11 3 9 4 10 5 8 7 3 8 4 9 82 10 5 11 6 12 7 13
REMARK SMILES IDX 2 14 1 15 83 16 84 17 90 18 85 19 89 20 86 21 87 22 88 23
REMARK SMILES IDX 14 24 15 25 16 26 17 27 18 29 19 30 20 31 81 32 21 33 80 34
REMARK SMILES IDX 22 35 23 36 24 37 74 38 25 39 79 40 73 41 75 42 26 43 78 44
REMARK SMILES IDX 72 45 71 46 27 48 59 49 39 50 58 51 40 52 43 53 57 54 76 55
REMARK SMILES IDX 41 56 42 57 56 59 77 60 44 61 28 62 29 63 37 64 30 65 31 66
REMARK SMILES IDX 35 67 38 68 32 69 33 70 36 71 34 72 60 73 61 74 69 75 62 76
REMARK SMILES IDX 63 77 67 78 70 79 64 80 65 81 68 82 66 83 45 84 46 85 54 86
REMARK SMILES IDX 47 87 48 88 52 89 55 90 49 91 50 92 53 93 51 94
REMARK H PARENT 11 6 16 28 75 47 43 58
REMARK Flexibility Score: inf
ROOT
ATOM      1  C   UNL A   1      31.966  30.355  26.709  1.00  0.00     0.023 C 
ENDROOT
BRANCH   1   2
ATOM      2  C   UNL A   1      33.443  29.998  26.720  1.00  0.00     0.116 C 
BRANCH   2   3
ATOM      3  N   UNL A   1      33.956  29.561  25.438  1.00  0.00    -0.356 N 
ATOM      4  C   UNL A   1      33.298  29.036  24.366  1.00  0.00     0.225 C 
ATOM      5  O   UNL A   1      33.883  29.071  23.279  1.00  0.00    -0.275 OA
ATOM      6  H   UNL A   1      34.930  29.658  25.323  1.00  0.00     0.163 HD
BRANCH   4   7
ATOM      7  C   UNL A   1      31.904  28.418  24.457  1.00  0.00     0.106 C 
ATOM      8  N   UNL A   1      30.460  26.430  25.062  1.00  0.00    -0.335 N 
ATOM      9  C   UNL A   1      29.496  26.807  24.132  1.00  0.00     0.223 C 
ATOM     10  C   UNL A   1      31.817  27.032  25.140  1.00  0.00     0.128 C 
ATOM     11  O   UNL A   1      28.456  26.166  23.968  1.00  0.00    -0.275 OA
ATOM     12  C   UNL A   1      29.667  28.116  23.398  1.00  0.00     0.101 C 
ATOM     13  C   UNL A   1      31.096  28.541  23.172  1.00  0.00     0.026 C 
BRANCH   8  14
ATOM     14  C   UNL A   1      30.070  25.313  25.941  1.00  0.00     0.117 C 
ATOM     15  C   UNL A   1      30.581  23.911  25.650  1.00  0.00     0.027 C 
ENDBRANCH   8  14
BRANCH  10  16
ATOM     16  C   UNL A   1      32.905  26.033  24.753  1.00  0.00    -0.024 A 
ATOM     17  C   UNL A   1      33.900  25.618  25.652  1.00  0.00     0.010 A 
ATOM     18  C   UNL A   1      32.946  25.529  23.438  1.00  0.00     0.010 A 
ATOM     19  C   UNL A   1      34.887  24.712  25.253  1.00  0.00     0.047 A 
ATOM     20  C   UNL A   1      33.929  24.612  23.045  1.00  0.00     0.047 A 
ATOM     21  C   UNL A   1      34.889  24.188  23.961  1.00  0.00     0.118 A 
BRANCH  21  22
ATOM     22  O   UNL A   1      35.885  23.289  23.704  1.00  0.00    -0.497 OA
ATOM     23  C   UNL A   1      35.881  22.115  24.507  1.00  0.00     0.278 C 
ENDBRANCH  21  22
ENDBRANCH  10  16
ENDBRANCH   4   7
ENDBRANCH   2   3
ENDBRANCH   1   2
BRANCH   1  24
ATOM     24  C   UNL A   1      31.681  31.850  26.826  1.00  0.00     0.023 C 
BRANCH  24  25
ATOM     25  C   UNL A   1      32.825  32.704  27.371  1.00  0.00     0.116 C 
BRANCH  25  26
ATOM     26  N   UNL A   1      32.449  34.079  27.665  1.00  0.00    -0.352 N 
ATOM     27  C   UNL A   1      32.989  34.948  28.585  1.00  0.00     0.251 C 
ATOM     28  H   UNL A   1      31.705  34.437  27.129  1.00  0.00     0.163 HD
ATOM     29  O   UNL A   1      32.492  36.047  28.774  1.00  0.00    -0.269 OA
BRANCH  27  30
ATOM     30  C   UNL A   1      34.169  34.529  29.372  1.00  0.00     0.039 A 
ATOM     31  C   UNL A   1      33.967  33.986  30.644  1.00  0.00     0.014 A 
ATOM     32  C   UNL A   1      35.458  34.637  28.846  1.00  0.00     0.014 A 
ATOM     33  C   UNL A   1      35.054  33.471  31.350  1.00  0.00     0.010 A 
ATOM     34  C   UNL A   1      36.531  34.074  29.522  1.00  0.00     0.010 A 
ATOM     35  C   UNL A   1      36.334  33.471  30.772  1.00  0.00    -0.014 A 
BRANCH  35  36
ATOM     36  C   UNL A   1      37.474  32.788  31.423  1.00  0.00     0.031 A 
ATOM     37  C   UNL A   1      38.132  31.615  30.763  1.00  0.00     0.074 A 
ATOM     38  C   UNL A   1      37.835  33.174  32.662  1.00  0.00     0.049 A 
ATOM     39  N   UNL A   1      39.102  30.856  31.204  1.00  0.00    -0.248 NA
ATOM     40  C   UNL A   1      37.612  31.222  29.444  1.00  0.00     0.031 C 
ATOM     41  C   UNL A   1      37.206  34.253  33.426  1.00  0.00     0.029 A 
ATOM     42  N   UNL A   1      38.802  32.690  33.504  1.00  0.00    -0.354 N 
ATOM     43  C   UNL A   1      39.308  29.898  30.221  1.00  0.00     0.074 A 
ATOM     44  C   UNL A   1      38.322  30.133  29.188  1.00  0.00     0.031 C 
ATOM     45  C   UNL A   1      37.815  34.361  34.617  1.00  0.00     0.029 A 
ATOM     46  C   UNL A   1      38.853  33.341  34.711  1.00  0.00     0.049 A 
ATOM     47  H   UNL A   1      39.403  31.947  33.265  1.00  0.00     0.167 HD
ATOM     48  C   UNL A   1      40.252  28.928  30.179  1.00  0.00     0.037 A 
ATOM     49  C   UNL A   1      39.649  33.133  35.777  1.00  0.00     0.037 A 
ATOM     50  C   UNL A   1      41.227  28.711  31.216  1.00  0.00     0.049 A 
ATOM     51  C   UNL A   1      40.688  32.048  35.703  1.00  0.00     0.074 A 
ATOM     52  C   UNL A   1      42.266  27.799  31.247  1.00  0.00     0.029 A 
ATOM     53  N   UNL A   1      41.272  29.409  32.416  1.00  0.00    -0.354 N 
ATOM     54  N   UNL A   1      40.941  31.209  34.728  1.00  0.00    -0.248 NA
ATOM     55  C   UNL A   1      41.562  31.889  36.874  1.00  0.00     0.031 C 
ATOM     56  C   UNL A   1      42.907  27.909  32.485  1.00  0.00     0.029 A 
ATOM     57  C   UNL A   1      42.307  28.931  33.203  1.00  0.00     0.049 A 
ATOM     58  H   UNL A   1      40.661  30.138  32.668  1.00  0.00     0.167 HD
ATOM     59  C   UNL A   1      42.020  30.446  35.151  1.00  0.00     0.074 A 
ATOM     60  C   UNL A   1      42.383  30.932  36.466  1.00  0.00     0.031 C 
ATOM     61  C   UNL A   1      42.653  29.433  34.509  1.00  0.00     0.037 A 
BRANCH  48  62
ATOM     62  C   UNL A   1      40.278  28.034  28.972  1.00  0.00     0.064 A 
ATOM     63  C   UNL A   1      41.010  28.372  27.823  1.00  0.00     0.173 A 
ATOM     64  C   UNL A   1      39.597  26.807  28.976  1.00  0.00     0.173 A 
ATOM     65  F   UNL A   1      41.671  29.538  27.761  1.00  0.00    -0.203 F 
ATOM     66  C   UNL A   1      41.035  27.530  26.714  1.00  0.00     0.198 A 
ATOM     67  C   UNL A   1      39.651  25.953  27.877  1.00  0.00     0.198 A 
ATOM     68  F   UNL A   1      38.885  26.432  30.049  1.00  0.00    -0.203 F 
ATOM     69  F   UNL A   1      41.699  27.899  25.609  1.00  0.00    -0.200 F 
ATOM     70  C   UNL A   1      40.362  26.319  26.744  1.00  0.00     0.200 A 
ATOM     71  F   UNL A   1      39.011  24.776  27.914  1.00  0.00    -0.200 F 
ATOM     72  F   UNL A   1      40.394  25.505  25.680  1.00  0.00    -0.200 F 
ENDBRANCH  48  62
BRANCH  49  73
ATOM     73  C   UNL A   1      39.516  33.992  36.983  1.00  0.00     0.064 A 
ATOM     74  C   UNL A   1      40.155  35.237  37.050  1.00  0.00     0.173 A 
ATOM     75  C   UNL A   1      38.746  33.593  38.084  1.00  0.00     0.173 A 
ATOM     76  F   UNL A   1      40.914  35.657  36.028  1.00  0.00    -0.203 F 
ATOM     77  C   UNL A   1      40.048  36.041  38.183  1.00  0.00     0.198 A 
ATOM     78  C   UNL A   1      38.615  34.410  39.205  1.00  0.00     0.198 A 
ATOM     79  F   UNL A   1      38.106  32.415  38.066  1.00  0.00    -0.203 F 
ATOM     80  F   UNL A   1      40.707  37.206  38.239  1.00  0.00    -0.200 F 
ATOM     81  C   UNL A   1      39.274  35.629  39.258  1.00  0.00     0.200 A 
ATOM     82  F   UNL A   1      37.851  34.017  40.233  1.00  0.00    -0.200 F 
ATOM     83  F   UNL A   1      39.167  36.405  40.345  1.00  0.00    -0.200 F 
ENDBRANCH  49  73
BRANCH  61  84
ATOM     84  C   UNL A   1      43.827  28.808  35.208  1.00  0.00     0.064 A 
ATOM     85  C   UNL A   1      45.132  29.294  35.039  1.00  0.00     0.173 A 
ATOM     86  C   UNL A   1      43.636  27.728  36.083  1.00  0.00     0.173 A 
ATOM     87  F   UNL A   1      45.368  30.315  34.200  1.00  0.00    -0.203 F 
ATOM     88  C   UNL A   1      46.206  28.703  35.697  1.00  0.00     0.198 A 
ATOM     89  C   UNL A   1      44.709  27.161  36.766  1.00  0.00     0.198 A 
ATOM     90  F   UNL A   1      42.407  27.229  36.285  1.00  0.00    -0.203 F 
ATOM     91  F   UNL A   1      47.451  29.149  35.479  1.00  0.00    -0.200 F 
ATOM     92  C   UNL A   1      45.993  27.642  36.566  1.00  0.00     0.200 A 
ATOM     93  F   UNL A   1      44.498  26.147  37.616  1.00  0.00    -0.200 F 
ATOM     94  F   UNL A   1      47.027  27.080  37.204  1.00  0.00    -0.200 F 
ENDBRANCH  61  84
ENDBRANCH  35  36
ENDBRANCH  27  30
ENDBRANCH  25  26
ENDBRANCH  24  25
ENDBRANCH   1  24
TORSDOF 14
ENDMDL
