MODEL 1
REMARK VINA RESULT:     -14.0      0.000      0.000
REMARK SMILES O=C(NCCCCNC(=O)c1ccccc1Nc1cccc(S(F)(F)(F)(F)F)c1)c1ccc(-c2c3nc(c(-c4c(F)c(F)c(F)c(F)c4F)c4ccc([nH]4)c(-c4c(F)c(F)c(F)c(F)c4F)c4nc(c(-c5c(F)c(F)c(F)c(F)c5F)c5ccc2[nH]5)C=C4)C=C3)cc1
REMARK SMILES IDX 6 1 5 2 4 3 3 4 1 5 2 6 30 8 31 9 92 10 32 11 91 12 33 13
REMARK SMILES IDX 34 14 35 15 85 16 36 17 90 18 84 19 86 20 37 21 89 22 83 23
REMARK SMILES IDX 82 24 38 26 70 27 50 28 69 29 51 30 54 31 68 32 87 33 52 34
REMARK SMILES IDX 53 35 67 37 88 38 55 39 39 40 40 41 48 42 41 43 42 44 46 45
REMARK SMILES IDX 49 46 43 47 44 48 47 49 45 50 71 51 72 52 80 53 73 54 74 55
REMARK SMILES IDX 78 56 81 57 75 58 76 59 79 60 77 61 56 62 57 63 65 64 58 65
REMARK SMILES IDX 59 66 63 67 66 68 60 69 61 70 64 71 62 72 7 73 8 74 9 75
REMARK SMILES IDX 10 77 11 78 12 79 16 80 13 81 15 82 14 83 17 84 18 86 19 87
REMARK SMILES IDX 29 88 20 89 22 90 21 91 23 92 24 93 25 94 26 95 27 96 28 97
REMARK H PARENT 3 7 86 25 54 36 8 76 17 85
REMARK Flexibility Score: inf
ROOT
ATOM      1  C   UNL A   1      31.674  30.006  25.513  1.00  0.00     0.023 C 
ENDROOT
BRANCH   1   2
ATOM      2  C   UNL A   1      31.693  30.726  26.852  1.00  0.00     0.023 C 
BRANCH   2   3
ATOM      3  C   UNL A   1      32.888  31.663  26.907  1.00  0.00     0.116 C 
BRANCH   3   4
ATOM      4  N   UNL A   1      32.432  33.022  27.232  1.00  0.00    -0.352 N 
ATOM      5  O   UNL A   1      32.823  35.037  28.428  1.00  0.00    -0.269 OA
ATOM      6  C   UNL A   1      33.218  33.862  28.147  1.00  0.00     0.251 C 
ATOM      7  H   UNL A   1      31.599  33.369  26.837  1.00  0.00     0.163 HD
BRANCH   6   8
ATOM      8  C   UNL A   1      34.503  33.326  28.757  1.00  0.00     0.039 A 
ATOM      9  C   UNL A   1      34.352  32.361  29.739  1.00  0.00     0.014 A 
ATOM     10  C   UNL A   1      35.705  33.671  28.308  1.00  0.00     0.014 A 
ATOM     11  C   UNL A   1      35.558  32.020  30.397  1.00  0.00     0.010 A 
ATOM     12  C   UNL A   1      36.840  33.193  28.914  1.00  0.00     0.010 A 
ATOM     13  C   UNL A   1      36.765  32.282  29.930  1.00  0.00    -0.014 A 
BRANCH  13  14
ATOM     14  C   UNL A   1      38.005  31.605  30.494  1.00  0.00     0.031 A 
ATOM     15  C   UNL A   1      38.701  30.647  29.755  1.00  0.00     0.074 A 
ATOM     16  C   UNL A   1      38.280  31.915  31.815  1.00  0.00     0.049 A 
ATOM     17  N   UNL A   1      39.738  29.909  30.154  1.00  0.00    -0.248 NA
ATOM     18  C   UNL A   1      38.389  30.293  28.363  1.00  0.00     0.031 C 
ATOM     19  C   UNL A   1      37.587  32.886  32.564  1.00  0.00     0.029 A 
ATOM     20  N   UNL A   1      39.243  31.362  32.629  1.00  0.00    -0.354 N 
ATOM     21  C   UNL A   1      40.150  29.118  29.160  1.00  0.00     0.074 A 
ATOM     22  C   UNL A   1      39.283  29.349  27.997  1.00  0.00     0.031 C 
ATOM     23  C   UNL A   1      38.117  32.910  33.816  1.00  0.00     0.029 A 
ATOM     24  C   UNL A   1      39.150  31.956  33.869  1.00  0.00     0.049 A 
ATOM     25  H   UNL A   1      39.888  30.664  32.371  1.00  0.00     0.167 HD
ATOM     26  C   UNL A   1      41.213  28.215  29.180  1.00  0.00     0.037 A 
ATOM     27  C   UNL A   1      39.913  31.691  34.996  1.00  0.00     0.037 A 
ATOM     28  C   UNL A   1      42.004  27.981  30.294  1.00  0.00     0.049 A 
ATOM     29  C   UNL A   1      40.940  30.745  35.032  1.00  0.00     0.074 A 
ATOM     30  C   UNL A   1      43.084  27.079  30.328  1.00  0.00     0.029 A 
ATOM     31  N   UNL A   1      41.895  28.557  31.541  1.00  0.00    -0.354 N 
ATOM     32  N   UNL A   1      41.375  29.982  34.028  1.00  0.00    -0.248 NA
ATOM     33  C   UNL A   1      41.732  30.433  36.229  1.00  0.00     0.031 C 
ATOM     34  C   UNL A   1      43.615  27.103  31.579  1.00  0.00     0.029 A 
ATOM     35  C   UNL A   1      42.872  28.020  32.349  1.00  0.00     0.049 A 
ATOM     36  H   UNL A   1      41.233  29.234  31.807  1.00  0.00     0.167 HD
ATOM     37  C   UNL A   1      42.386  29.214  34.440  1.00  0.00     0.074 A 
ATOM     38  C   UNL A   1      42.626  29.488  35.863  1.00  0.00     0.031 C 
ATOM     39  C   UNL A   1      43.120  28.299  33.684  1.00  0.00     0.037 A 
BRANCH  26  40
ATOM     40  C   UNL A   1      41.521  27.443  27.907  1.00  0.00     0.064 A 
ATOM     41  C   UNL A   1      42.425  27.866  26.945  1.00  0.00     0.173 A 
ATOM     42  C   UNL A   1      40.944  26.250  27.831  1.00  0.00     0.173 A 
ATOM     43  F   UNL A   1      43.210  28.928  27.106  1.00  0.00    -0.203 F 
ATOM     44  C   UNL A   1      42.436  27.067  25.778  1.00  0.00     0.198 A 
ATOM     45  C   UNL A   1      41.109  25.462  26.717  1.00  0.00     0.198 A 
ATOM     46  F   UNL A   1      40.201  25.812  28.843  1.00  0.00    -0.203 F 
ATOM     47  F   UNL A   1      42.984  27.582  24.681  1.00  0.00    -0.200 F 
ATOM     48  C   UNL A   1      41.939  25.846  25.701  1.00  0.00     0.200 A 
ATOM     49  F   UNL A   1      40.448  24.311  26.624  1.00  0.00    -0.200 F 
ATOM     50  F   UNL A   1      42.233  25.032  24.692  1.00  0.00    -0.200 F 
ENDBRANCH  26  40
BRANCH  27  51
ATOM     51  C   UNL A   1      39.615  32.475  36.263  1.00  0.00     0.064 A 
ATOM     52  C   UNL A   1      38.529  32.166  37.066  1.00  0.00     0.173 A 
ATOM     53  C   UNL A   1      40.347  33.561  36.483  1.00  0.00     0.173 A 
ATOM     54  F   UNL A   1      37.928  30.980  37.048  1.00  0.00    -0.203 F 
ATOM     55  C   UNL A   1      38.117  33.227  37.907  1.00  0.00     0.198 A 
ATOM     56  C   UNL A   1      39.957  34.490  37.417  1.00  0.00     0.198 A 
ATOM     57  F   UNL A   1      41.468  33.751  35.793  1.00  0.00    -0.203 F 
ATOM     58  F   UNL A   1      36.899  33.161  38.436  1.00  0.00    -0.200 F 
ATOM     59  C   UNL A   1      38.860  34.277  38.205  1.00  0.00     0.200 A 
ATOM     60  F   UNL A   1      40.657  35.612  37.557  1.00  0.00    -0.200 F 
ATOM     61  F   UNL A   1      38.558  35.085  39.218  1.00  0.00    -0.200 F 
ENDBRANCH  27  51
BRANCH  39  62
ATOM     62  C   UNL A   1      44.262  27.562  34.367  1.00  0.00     0.064 A 
ATOM     63  C   UNL A   1      43.910  26.348  34.932  1.00  0.00     0.173 A 
ATOM     64  C   UNL A   1      45.528  27.959  34.321  1.00  0.00     0.173 A 
ATOM     65  F   UNL A   1      42.709  25.798  34.778  1.00  0.00    -0.203 F 
ATOM     66  C   UNL A   1      44.944  25.746  35.688  1.00  0.00     0.198 A 
ATOM     67  C   UNL A   1      46.508  27.247  34.969  1.00  0.00     0.198 A 
ATOM     68  F   UNL A   1      45.851  29.054  33.640  1.00  0.00    -0.203 F 
ATOM     69  F   UNL A   1      44.605  24.789  36.547  1.00  0.00    -0.200 F 
ATOM     70  C   UNL A   1      46.221  26.068  35.599  1.00  0.00     0.200 A 
ATOM     71  F   UNL A   1      47.755  27.712  34.984  1.00  0.00    -0.200 F 
ATOM     72  F   UNL A   1      47.177  25.288  36.097  1.00  0.00    -0.200 F 
ENDBRANCH  39  62
ENDBRANCH  13  14
ENDBRANCH   6   8
ENDBRANCH   3   4
ENDBRANCH   2   3
ENDBRANCH   1   2
BRANCH   1  73
ATOM     73  C   UNL A   1      32.888  29.098  25.410  1.00  0.00     0.116 C 
BRANCH  73  74
ATOM     74  N   UNL A   1      33.612  29.385  24.164  1.00  0.00    -0.352 N 
ATOM     75  C   UNL A   1      33.743  28.345  23.133  1.00  0.00     0.253 C 
ATOM     76  H   UNL A   1      34.009  30.274  24.019  1.00  0.00     0.163 HD
ATOM     77  O   UNL A   1      34.369  28.593  22.055  1.00  0.00    -0.269 OA
BRANCH  75  78
ATOM     78  C   UNL A   1      33.130  26.972  23.357  1.00  0.00     0.063 A 
ATOM     79  C   UNL A   1      33.807  26.102  24.195  1.00  0.00     0.016 A 
ATOM     80  C   UNL A   1      32.057  26.580  22.679  1.00  0.00     0.051 A 
ATOM     81  C   UNL A   1      33.443  24.744  24.028  1.00  0.00     0.001 A 
ATOM     82  C   UNL A   1      31.680  25.259  22.669  1.00  0.00     0.027 A 
ATOM     83  C   UNL A   1      32.340  24.333  23.427  1.00  0.00     0.002 A 
BRANCH  80  84
ATOM     84  N   UNL A   1      31.267  27.569  21.931  1.00  0.00    -0.355 N 
ATOM     85  H   UNL A   1      31.529  27.818  21.016  1.00  0.00     0.167 HD
BRANCH  84  86
ATOM     86  C   UNL A   1      30.087  28.187  22.552  1.00  0.00     0.040 A 
ATOM     87  C   UNL A   1      29.109  27.401  23.141  1.00  0.00     0.026 A 
ATOM     88  C   UNL A   1      29.969  29.508  22.502  1.00  0.00     0.050 A 
ATOM     89  C   UNL A   1      27.898  28.086  23.394  1.00  0.00     0.004 A 
ATOM     90  C   UNL A   1      28.804  30.123  22.893  1.00  0.00     0.109 A 
ATOM     91  C   UNL A   1      27.773  29.400  23.428  1.00  0.00     0.024 A 
BRANCH  90  92
ATOM     92  S   UNL A   1      28.629  31.914  22.696  1.00  0.00     0.310 S 
ATOM     93  F   UNL A   1      27.246  31.926  23.471  1.00  0.00    -0.094 F 
ATOM     94  F   UNL A   1      27.809  31.661  21.376  1.00  0.00    -0.094 F 
ATOM     95  F   UNL A   1      28.479  33.452  22.529  1.00  0.00    -0.094 F 
ATOM     96  F   UNL A   1      29.330  32.142  24.094  1.00  0.00    -0.094 F 
ATOM     97  F   UNL A   1      28.691  30.352  22.939  1.00  0.00    -0.094 F 
ENDBRANCH  90  92
ENDBRANCH  84  86
ENDBRANCH  80  84
ENDBRANCH  75  78
ENDBRANCH  73  74
ENDBRANCH   1  73
TORSDOF 14
ENDMDL
MODEL 2
REMARK VINA RESULT:     -13.8      6.140     11.149
REMARK SMILES O=C(NCCCCNC(=O)c1ccccc1Nc1cccc(S(F)(F)(F)(F)F)c1)c1ccc(-c2c3nc(c(-c4c(F)c(F)c(F)c(F)c4F)c4ccc([nH]4)c(-c4c(F)c(F)c(F)c(F)c4F)c4nc(c(-c5c(F)c(F)c(F)c(F)c5F)c5ccc2[nH]5)C=C4)C=C3)cc1
REMARK SMILES IDX 6 1 5 2 4 3 3 4 1 5 2 6 30 8 31 9 92 10 32 11 91 12 33 13
REMARK SMILES IDX 34 14 35 15 85 16 36 17 90 18 84 19 86 20 37 21 89 22 83 23
REMARK SMILES IDX 82 24 38 26 70 27 50 28 69 29 51 30 54 31 68 32 87 33 52 34
REMARK SMILES IDX 53 35 67 37 88 38 55 39 39 40 40 41 48 42 41 43 42 44 46 45
REMARK SMILES IDX 49 46 43 47 44 48 47 49 45 50 71 51 72 52 80 53 73 54 74 55
REMARK SMILES IDX 78 56 81 57 75 58 76 59 79 60 77 61 56 62 57 63 65 64 58 65
REMARK SMILES IDX 59 66 63 67 66 68 60 69 61 70 64 71 62 72 7 73 8 74 9 75
REMARK SMILES IDX 10 77 11 78 12 79 16 80 13 81 15 82 14 83 17 84 18 86 19 87
REMARK SMILES IDX 29 88 20 89 22 90 21 91 23 92 24 93 25 94 26 95 27 96 28 97
REMARK H PARENT 3 7 86 25 54 36 8 76 17 85
REMARK Flexibility Score: inf
ROOT
ATOM      1  C   UNL A   1      37.425  21.283  24.651  1.00  0.00     0.023 C 
ENDROOT
BRANCH   1   2
ATOM      2  C   UNL A   1      37.934  19.893  24.998  1.00  0.00     0.023 C 
BRANCH   2   3
ATOM      3  C   UNL A   1      39.073  20.005  25.998  1.00  0.00     0.116 C 
BRANCH   3   4
ATOM      4  N   UNL A   1      40.031  18.913  25.775  1.00  0.00    -0.352 N 
ATOM      5  O   UNL A   1      42.291  18.183  25.840  1.00  0.00    -0.269 OA
ATOM      6  C   UNL A   1      41.462  19.127  26.033  1.00  0.00     0.251 C 
ATOM      7  H   UNL A   1      39.714  18.039  25.452  1.00  0.00     0.163 HD
BRANCH   6   8
ATOM      8  C   UNL A   1      41.951  20.477  26.533  1.00  0.00     0.039 A 
ATOM      9  C   UNL A   1      42.232  21.419  25.556  1.00  0.00     0.014 A 
ATOM     10  C   UNL A   1      42.006  20.785  27.823  1.00  0.00     0.014 A 
ATOM     11  C   UNL A   1      42.846  22.593  26.053  1.00  0.00     0.010 A 
ATOM     12  C   UNL A   1      42.491  22.002  28.231  1.00  0.00     0.010 A 
ATOM     13  C   UNL A   1      42.843  22.960  27.322  1.00  0.00    -0.014 A 
BRANCH  13  14
ATOM     14  C   UNL A   1      43.212  24.373  27.747  1.00  0.00     0.031 A 
ATOM     15  C   UNL A   1      42.226  25.322  28.023  1.00  0.00     0.074 A 
ATOM     16  C   UNL A   1      44.566  24.656  27.696  1.00  0.00     0.049 A 
ATOM     17  N   UNL A   1      42.399  26.613  28.310  1.00  0.00    -0.248 NA
ATOM     18  C   UNL A   1      40.785  25.032  28.044  1.00  0.00     0.031 C 
ATOM     19  C   UNL A   1      45.566  23.701  27.426  1.00  0.00     0.029 A 
ATOM     20  N   UNL A   1      45.183  25.871  27.888  1.00  0.00    -0.354 N 
ATOM     21  C   UNL A   1      41.219  27.197  28.535  1.00  0.00     0.074 A 
ATOM     22  C   UNL A   1      40.164  26.189  28.361  1.00  0.00     0.031 C 
ATOM     23  C   UNL A   1      46.769  24.335  27.444  1.00  0.00     0.029 A 
ATOM     24  C   UNL A   1      46.540  25.695  27.726  1.00  0.00     0.049 A 
ATOM     25  H   UNL A   1      44.734  26.720  28.105  1.00  0.00     0.167 HD
ATOM     26  C   UNL A   1      40.983  28.528  28.880  1.00  0.00     0.037 A 
ATOM     27  C   UNL A   1      47.536  26.655  27.814  1.00  0.00     0.037 A 
ATOM     28  C   UNL A   1      41.983  29.478  29.010  1.00  0.00     0.049 A 
ATOM     29  C   UNL A   1      47.295  28.000  28.101  1.00  0.00     0.074 A 
ATOM     30  C   UNL A   1      41.763  30.823  29.363  1.00  0.00     0.029 A 
ATOM     31  N   UNL A   1      43.338  29.307  28.824  1.00  0.00    -0.354 N 
ATOM     32  N   UNL A   1      46.119  28.574  28.364  1.00  0.00    -0.248 NA
ATOM     33  C   UNL A   1      48.339  29.031  28.164  1.00  0.00     0.031 C 
ATOM     34  C   UNL A   1      42.965  31.457  29.382  1.00  0.00     0.029 A 
ATOM     35  C   UNL A   1      43.957  30.518  29.038  1.00  0.00     0.049 A 
ATOM     36  H   UNL A   1      43.785  28.465  28.579  1.00  0.00     0.167 HD
ATOM     37  C   UNL A   1      46.289  29.874  28.611  1.00  0.00     0.074 A 
ATOM     38  C   UNL A   1      47.718  30.188  28.479  1.00  0.00     0.031 C 
ATOM     39  C   UNL A   1      45.309  30.811  28.945  1.00  0.00     0.037 A 
BRANCH  26  40
ATOM     40  C   UNL A   1      39.546  28.961  29.126  1.00  0.00     0.064 A 
ATOM     41  C   UNL A   1      38.966  29.037  30.382  1.00  0.00     0.173 A 
ATOM     42  C   UNL A   1      38.905  29.387  28.044  1.00  0.00     0.173 A 
ATOM     43  F   UNL A   1      39.651  28.864  31.508  1.00  0.00    -0.203 F 
ATOM     44  C   UNL A   1      37.580  29.315  30.356  1.00  0.00     0.198 A 
ATOM     45  C   UNL A   1      37.589  29.772  28.118  1.00  0.00     0.198 A 
ATOM     46  F   UNL A   1      39.543  29.441  26.878  1.00  0.00    -0.203 F 
ATOM     47  F   UNL A   1      36.876  29.055  31.455  1.00  0.00    -0.200 F 
ATOM     48  C   UNL A   1      36.934  29.814  29.317  1.00  0.00     0.200 A 
ATOM     49  F   UNL A   1      36.940  30.109  27.006  1.00  0.00    -0.200 F 
ATOM     50  F   UNL A   1      35.714  30.331  29.432  1.00  0.00    -0.200 F 
ENDBRANCH  26  40
BRANCH  27  51
ATOM     51  C   UNL A   1      48.974  26.217  27.584  1.00  0.00     0.064 A 
ATOM     52  C   UNL A   1      49.790  25.834  28.635  1.00  0.00     0.173 A 
ATOM     53  C   UNL A   1      49.457  26.366  26.355  1.00  0.00     0.173 A 
ATOM     54  F   UNL A   1      49.318  25.430  29.810  1.00  0.00    -0.203 F 
ATOM     55  C   UNL A   1      51.174  25.911  28.345  1.00  0.00     0.198 A 
ATOM     56  C   UNL A   1      50.809  26.294  26.122  1.00  0.00     0.198 A 
ATOM     57  F   UNL A   1      48.624  26.587  25.342  1.00  0.00    -0.203 F 
ATOM     58  F   UNL A   1      52.022  25.916  29.369  1.00  0.00    -0.200 F 
ATOM     59  C   UNL A   1      51.680  25.978  27.127  1.00  0.00     0.200 A 
ATOM     60  F   UNL A   1      51.277  26.535  24.901  1.00  0.00    -0.200 F 
ATOM     61  F   UNL A   1      52.969  25.749  26.891  1.00  0.00    -0.200 F 
ENDBRANCH  27  51
BRANCH  39  62
ATOM     62  C   UNL A   1      45.752  32.239  29.222  1.00  0.00     0.064 A 
ATOM     63  C   UNL A   1      46.104  32.490  30.537  1.00  0.00     0.173 A 
ATOM     64  C   UNL A   1      45.928  33.153  28.275  1.00  0.00     0.173 A 
ATOM     65  F   UNL A   1      46.184  31.536  31.461  1.00  0.00    -0.203 F 
ATOM     66  C   UNL A   1      46.371  33.853  30.809  1.00  0.00     0.198 A 
ATOM     67  C   UNL A   1      46.322  34.429  28.599  1.00  0.00     0.198 A 
ATOM     68  F   UNL A   1      45.722  32.831  27.001  1.00  0.00    -0.203 F 
ATOM     69  F   UNL A   1      46.361  34.243  32.080  1.00  0.00    -0.200 F 
ATOM     70  C   UNL A   1      46.630  34.763  29.889  1.00  0.00     0.200 A 
ATOM     71  F   UNL A   1      46.406  35.351  27.645  1.00  0.00    -0.200 F 
ATOM     72  F   UNL A   1      47.160  35.943  30.199  1.00  0.00    -0.200 F 
ENDBRANCH  39  62
ENDBRANCH  13  14
ENDBRANCH   6   8
ENDBRANCH   3   4
ENDBRANCH   2   3
ENDBRANCH   1   2
BRANCH   1  73
ATOM     73  C   UNL A   1      35.914  21.322  24.813  1.00  0.00     0.116 C 
BRANCH  73  74
ATOM     74  N   UNL A   1      35.571  21.217  26.239  1.00  0.00    -0.352 N 
ATOM     75  C   UNL A   1      34.436  21.980  26.780  1.00  0.00     0.253 C 
ATOM     76  H   UNL A   1      36.100  20.636  26.831  1.00  0.00     0.163 HD
ATOM     77  O   UNL A   1      34.140  21.889  28.013  1.00  0.00    -0.269 OA
BRANCH  75  78
ATOM     78  C   UNL A   1      33.619  22.877  25.866  1.00  0.00     0.063 A 
ATOM     79  C   UNL A   1      34.117  24.142  25.604  1.00  0.00     0.016 A 
ATOM     80  C   UNL A   1      32.416  22.508  25.437  1.00  0.00     0.051 A 
ATOM     81  C   UNL A   1      33.145  25.054  25.127  1.00  0.00     0.001 A 
ATOM     82  C   UNL A   1      31.570  23.421  24.857  1.00  0.00     0.027 A 
ATOM     83  C   UNL A   1      31.974  24.705  24.622  1.00  0.00     0.002 A 
BRANCH  80  84
ATOM     84  N   UNL A   1      31.988  21.110  25.587  1.00  0.00    -0.355 N 
ATOM     85  H   UNL A   1      31.416  20.848  26.344  1.00  0.00     0.167 HD
BRANCH  84  86
ATOM     86  C   UNL A   1      32.415  20.102  24.606  1.00  0.00     0.040 A 
ATOM     87  C   UNL A   1      32.120  20.260  23.262  1.00  0.00     0.026 A 
ATOM     88  C   UNL A   1      33.056  19.027  25.047  1.00  0.00     0.050 A 
ATOM     89  C   UNL A   1      32.290  19.084  22.495  1.00  0.00     0.004 A 
ATOM     90  C   UNL A   1      33.309  17.968  24.209  1.00  0.00     0.109 A 
ATOM     91  C   UNL A   1      32.990  18.033  22.880  1.00  0.00     0.024 A 
BRANCH  90  92
ATOM     92  S   UNL A   1      34.074  16.467  24.870  1.00  0.00     0.310 S 
ATOM     93  F   UNL A   1      34.281  15.860  23.420  1.00  0.00    -0.094 F 
ATOM     94  F   UNL A   1      32.656  15.782  24.881  1.00  0.00    -0.094 F 
ATOM     95  F   UNL A   1      34.733  15.178  25.438  1.00  0.00    -0.094 F 
ATOM     96  F   UNL A   1      35.505  17.122  24.719  1.00  0.00    -0.094 F 
ATOM     97  F   UNL A   1      33.436  17.742  24.187  1.00  0.00    -0.094 F 
ENDBRANCH  90  92
ENDBRANCH  84  86
ENDBRANCH  80  84
ENDBRANCH  75  78
ENDBRANCH  73  74
ENDBRANCH   1  73
TORSDOF 14
ENDMDL
MODEL 3
REMARK VINA RESULT:     -13.7      1.089      7.167
REMARK SMILES O=C(NCCCCNC(=O)c1ccccc1Nc1cccc(S(F)(F)(F)(F)F)c1)c1ccc(-c2c3nc(c(-c4c(F)c(F)c(F)c(F)c4F)c4ccc([nH]4)c(-c4c(F)c(F)c(F)c(F)c4F)c4nc(c(-c5c(F)c(F)c(F)c(F)c5F)c5ccc2[nH]5)C=C4)C=C3)cc1
REMARK SMILES IDX 6 1 5 2 4 3 3 4 1 5 2 6 30 8 31 9 92 10 32 11 91 12 33 13
REMARK SMILES IDX 34 14 35 15 85 16 36 17 90 18 84 19 86 20 37 21 89 22 83 23
REMARK SMILES IDX 82 24 38 26 70 27 50 28 69 29 51 30 54 31 68 32 87 33 52 34
REMARK SMILES IDX 53 35 67 37 88 38 55 39 39 40 40 41 48 42 41 43 42 44 46 45
REMARK SMILES IDX 49 46 43 47 44 48 47 49 45 50 71 51 72 52 80 53 73 54 74 55
REMARK SMILES IDX 78 56 81 57 75 58 76 59 79 60 77 61 56 62 57 63 65 64 58 65
REMARK SMILES IDX 59 66 63 67 66 68 60 69 61 70 64 71 62 72 7 73 8 74 9 75
REMARK SMILES IDX 10 77 11 78 12 79 16 80 13 81 15 82 14 83 17 84 18 86 19 87
REMARK SMILES IDX 29 88 20 89 22 90 21 91 23 92 24 93 25 94 26 95 27 96 28 97
REMARK H PARENT 3 7 86 25 54 36 8 76 17 85
REMARK Flexibility Score: inf
ROOT
ATOM      1  C   UNL A   1      32.240  30.037  26.887  1.00  0.00     0.023 C 
ENDROOT
BRANCH   1   2
ATOM      2  C   UNL A   1      31.859  31.501  26.740  1.00  0.00     0.023 C 
BRANCH   2   3
ATOM      3  C   UNL A   1      33.003  32.374  27.230  1.00  0.00     0.116 C 
BRANCH   3   4
ATOM      4  N   UNL A   1      32.509  33.736  27.478  1.00  0.00    -0.352 N 
ATOM      5  O   UNL A   1      32.719  35.751  28.719  1.00  0.00    -0.269 OA
ATOM      6  C   UNL A   1      33.146  34.573  28.505  1.00  0.00     0.251 C 
ATOM      7  H   UNL A   1      31.752  34.087  26.956  1.00  0.00     0.163 HD
BRANCH   6   8
ATOM      8  C   UNL A   1      34.317  34.030  29.310  1.00  0.00     0.039 A 
ATOM      9  C   UNL A   1      33.992  33.179  30.353  1.00  0.00     0.014 A 
ATOM     10  C   UNL A   1      35.581  34.263  28.977  1.00  0.00     0.014 A 
ATOM     11  C   UNL A   1      35.090  32.839  31.178  1.00  0.00     0.010 A 
ATOM     12  C   UNL A   1      36.607  33.785  29.755  1.00  0.00     0.010 A 
ATOM     13  C   UNL A   1      36.357  32.986  30.835  1.00  0.00    -0.014 A 
BRANCH  13  14
ATOM     14  C   UNL A   1      37.478  32.302  31.602  1.00  0.00     0.031 A 
ATOM     15  C   UNL A   1      37.868  32.755  32.864  1.00  0.00     0.074 A 
ATOM     16  C   UNL A   1      38.143  31.315  30.895  1.00  0.00     0.049 A 
ATOM     17  N   UNL A   1      38.887  32.318  33.605  1.00  0.00    -0.248 NA
ATOM     18  C   UNL A   1      37.183  33.825  33.603  1.00  0.00     0.031 C 
ATOM     19  C   UNL A   1      37.750  30.847  29.625  1.00  0.00     0.029 A 
ATOM     20  N   UNL A   1      39.272  30.622  31.269  1.00  0.00    -0.354 N 
ATOM     21  C   UNL A   1      38.932  32.981  34.763  1.00  0.00     0.074 A 
ATOM     22  C   UNL A   1      37.840  33.964  34.775  1.00  0.00     0.031 C 
ATOM     23  C   UNL A   1      38.637  29.894  29.235  1.00  0.00     0.029 A 
ATOM     24  C   UNL A   1      39.597  29.749  30.253  1.00  0.00     0.049 A 
ATOM     25  H   UNL A   1      39.763  30.730  32.116  1.00  0.00     0.167 HD
ATOM     26  C   UNL A   1      39.839  32.803  35.809  1.00  0.00     0.037 A 
ATOM     27  C   UNL A   1      40.669  28.872  30.200  1.00  0.00     0.037 A 
ATOM     28  C   UNL A   1      40.884  31.894  35.773  1.00  0.00     0.049 A 
ATOM     29  C   UNL A   1      41.611  28.735  31.222  1.00  0.00     0.074 A 
ATOM     30  C   UNL A   1      41.803  31.697  36.822  1.00  0.00     0.029 A 
ATOM     31  N   UNL A   1      41.224  31.039  34.748  1.00  0.00    -0.354 N 
ATOM     32  N   UNL A   1      41.633  29.370  32.395  1.00  0.00    -0.248 NA
ATOM     33  C   UNL A   1      42.768  27.831  31.162  1.00  0.00     0.031 C 
ATOM     34  C   UNL A   1      42.690  30.743  36.432  1.00  0.00     0.029 A 
ATOM     35  C   UNL A   1      42.341  30.330  35.131  1.00  0.00     0.049 A 
ATOM     36  H   UNL A   1      40.751  30.951  33.889  1.00  0.00     0.167 HD
ATOM     37  C   UNL A   1      42.676  28.962  33.119  1.00  0.00     0.074 A 
ATOM     38  C   UNL A   1      43.426  27.972  32.334  1.00  0.00     0.031 C 
ATOM     39  C   UNL A   1      43.032  29.373  34.405  1.00  0.00     0.037 A 
BRANCH  26  40
ATOM     40  C   UNL A   1      39.670  33.654  37.057  1.00  0.00     0.064 A 
ATOM     41  C   UNL A   1      40.221  34.916  37.213  1.00  0.00     0.173 A 
ATOM     42  C   UNL A   1      38.841  33.148  37.962  1.00  0.00     0.173 A 
ATOM     43  F   UNL A   1      40.844  35.561  36.231  1.00  0.00    -0.203 F 
ATOM     44  C   UNL A   1      40.061  35.454  38.511  1.00  0.00     0.198 A 
ATOM     45  C   UNL A   1      38.627  33.797  39.154  1.00  0.00     0.198 A 
ATOM     46  F   UNL A   1      38.213  32.003  37.713  1.00  0.00    -0.203 F 
ATOM     47  F   UNL A   1      40.847  36.469  38.860  1.00  0.00    -0.200 F 
ATOM     48  C   UNL A   1      39.188  35.019  39.401  1.00  0.00     0.200 A 
ATOM     49  F   UNL A   1      37.864  33.226  40.083  1.00  0.00    -0.200 F 
ATOM     50  F   UNL A   1      38.869  35.732  40.477  1.00  0.00    -0.200 F 
ENDBRANCH  26  40
BRANCH  27  51
ATOM     51  C   UNL A   1      40.827  28.009  28.958  1.00  0.00     0.064 A 
ATOM     52  C   UNL A   1      41.609  28.416  27.890  1.00  0.00     0.173 A 
ATOM     53  C   UNL A   1      40.063  26.927  28.879  1.00  0.00     0.173 A 
ATOM     54  F   UNL A   1      42.570  29.330  28.001  1.00  0.00    -0.203 F 
ATOM     55  C   UNL A   1      41.295  27.771  26.670  1.00  0.00     0.198 A 
ATOM     56  C   UNL A   1      39.908  26.265  27.684  1.00  0.00     0.198 A 
ATOM     57  F   UNL A   1      39.441  26.477  29.965  1.00  0.00    -0.203 F 
ATOM     58  F   UNL A   1      41.724  28.333  25.544  1.00  0.00    -0.200 F 
ATOM     59  C   UNL A   1      40.605  26.649  26.573  1.00  0.00     0.200 A 
ATOM     60  F   UNL A   1      39.068  25.237  27.608  1.00  0.00    -0.200 F 
ATOM     61  F   UNL A   1      40.590  25.931  25.454  1.00  0.00    -0.200 F 
ENDBRANCH  27  51
BRANCH  39  62
ATOM     62  C   UNL A   1      44.252  28.733  35.047  1.00  0.00     0.064 A 
ATOM     63  C   UNL A   1      43.994  27.560  35.737  1.00  0.00     0.173 A 
ATOM     64  C   UNL A   1      45.495  29.164  34.862  1.00  0.00     0.173 A 
ATOM     65  F   UNL A   1      42.806  26.962  35.731  1.00  0.00    -0.203 F 
ATOM     66  C   UNL A   1      45.108  27.057  36.450  1.00  0.00     0.198 A 
ATOM     67  C   UNL A   1      46.551  28.540  35.481  1.00  0.00     0.198 A 
ATOM     68  F   UNL A   1      45.719  30.207  34.069  1.00  0.00    -0.203 F 
ATOM     69  F   UNL A   1      44.877  26.166  37.410  1.00  0.00    -0.200 F 
ATOM     70  C   UNL A   1      46.361  27.410  36.228  1.00  0.00     0.200 A 
ATOM     71  F   UNL A   1      47.776  29.042  35.353  1.00  0.00    -0.200 F 
ATOM     72  F   UNL A   1      47.383  26.705  36.705  1.00  0.00    -0.200 F 
ENDBRANCH  39  62
ENDBRANCH  13  14
ENDBRANCH   6   8
ENDBRANCH   3   4
ENDBRANCH   2   3
ENDBRANCH   1   2
BRANCH   1  73
ATOM     73  C   UNL A   1      31.952  29.307  25.585  1.00  0.00     0.116 C 
BRANCH  73  74
ATOM     74  N   UNL A   1      32.968  29.667  24.586  1.00  0.00    -0.352 N 
ATOM     75  C   UNL A   1      33.495  28.644  23.672  1.00  0.00     0.253 C 
ATOM     76  H   UNL A   1      33.295  30.593  24.528  1.00  0.00     0.163 HD
ATOM     77  O   UNL A   1      34.373  28.955  22.807  1.00  0.00    -0.269 OA
BRANCH  75  78
ATOM     78  C   UNL A   1      32.989  27.213  23.760  1.00  0.00     0.063 A 
ATOM     79  C   UNL A   1      33.617  26.371  24.662  1.00  0.00     0.016 A 
ATOM     80  C   UNL A   1      32.069  26.756  22.918  1.00  0.00     0.051 A 
ATOM     81  C   UNL A   1      33.412  24.995  24.402  1.00  0.00     0.001 A 
ATOM     82  C   UNL A   1      31.824  25.409  22.812  1.00  0.00     0.027 A 
ATOM     83  C   UNL A   1      32.453  24.513  23.632  1.00  0.00     0.002 A 
BRANCH  80  84
ATOM     84  N   UNL A   1      31.306  27.703  22.091  1.00  0.00    -0.355 N 
ATOM     85  H   UNL A   1      31.619  27.930  21.186  1.00  0.00     0.167 HD
BRANCH  84  86
ATOM     86  C   UNL A   1      30.075  28.310  22.617  1.00  0.00     0.040 A 
ATOM     87  C   UNL A   1      29.047  27.514  23.096  1.00  0.00     0.026 A 
ATOM     88  C   UNL A   1      29.964  29.632  22.588  1.00  0.00     0.050 A 
ATOM     89  C   UNL A   1      27.819  28.197  23.254  1.00  0.00     0.004 A 
ATOM     90  C   UNL A   1      28.769  30.242  22.886  1.00  0.00     0.109 A 
ATOM     91  C   UNL A   1      27.693  29.511  23.308  1.00  0.00     0.024 A 
BRANCH  90  92
ATOM     92  S   UNL A   1      28.616  32.038  22.717  1.00  0.00     0.310 S 
ATOM     93  F   UNL A   1      27.216  32.050  23.462  1.00  0.00    -0.094 F 
ATOM     94  F   UNL A   1      27.822  31.816  21.374  1.00  0.00    -0.094 F 
ATOM     95  F   UNL A   1      28.484  33.580  22.573  1.00  0.00    -0.094 F 
ATOM     96  F   UNL A   1      29.288  32.236  24.133  1.00  0.00    -0.094 F 
ATOM     97  F   UNL A   1      28.657  30.472  22.933  1.00  0.00    -0.094 F 
ENDBRANCH  90  92
ENDBRANCH  84  86
ENDBRANCH  80  84
ENDBRANCH  75  78
ENDBRANCH  73  74
ENDBRANCH   1  73
TORSDOF 14
ENDMDL
