MODEL 1
REMARK VINA RESULT:     -13.8      0.000      0.000
REMARK SMILES CC(=O)Nc1cccc(-c2cc(F)ccc2C(=O)NCCCCNC(=O)c2ccc(-c3c4nc(c(-c5c(F)c(F)c(F)c(F)c5F)c5ccc([nH]5)c(-c5c(F)c(F)c(F)c(F)c5F)c5nc(c(-c6c(F)c(F)c(F)c(F)c6F)c6ccc3[nH]6)C=C5)C=C4)cc2)c1
REMARK SMILES IDX 21 1 20 2 19 3 17 4 18 5 16 7 10 8 11 9 12 10 15 11 13 12
REMARK SMILES IDX 14 13 9 14 5 15 6 16 90 17 7 18 8 19 4 20 1 21 2 22 3 23
REMARK SMILES IDX 22 25 23 26 24 27 25 28 26 30 27 31 28 32 89 33 29 34 88 35
REMARK SMILES IDX 30 36 31 37 32 38 82 39 33 40 87 41 81 42 83 43 34 44 86 45
REMARK SMILES IDX 80 46 79 47 35 49 67 50 47 51 66 52 48 53 51 54 65 55 84 56
REMARK SMILES IDX 49 57 50 58 64 60 85 61 52 62 36 63 37 64 45 65 38 66 39 67
REMARK SMILES IDX 43 68 46 69 40 70 41 71 44 72 42 73 68 74 69 75 77 76 70 77
REMARK SMILES IDX 71 78 75 79 78 80 72 81 73 82 76 83 74 84 53 85 54 86 62 87
REMARK SMILES IDX 55 88 56 89 60 90 63 91 57 92 58 93 61 94 59 95
REMARK H PARENT 19 6 4 24 24 29 83 48 51 59
REMARK Flexibility Score: inf
ROOT
ATOM      1  C   UNL A   1      32.122  30.376  26.138  1.00  0.00     0.023 C 
ENDROOT
BRANCH   1   2
ATOM      2  C   UNL A   1      32.391  29.208  27.073  1.00  0.00     0.116 C 
BRANCH   2   3
ATOM      3  N   UNL A   1      31.390  28.179  27.148  1.00  0.00    -0.352 N 
ATOM      4  C   UNL A   1      31.112  27.138  26.292  1.00  0.00     0.251 C 
ATOM      5  O   UNL A   1      30.291  26.309  26.699  1.00  0.00    -0.269 OA
ATOM      6  H   UNL A   1      30.809  28.226  27.941  1.00  0.00     0.163 HD
BRANCH   4   7
ATOM      7  C   UNL A   1      31.635  26.961  24.888  1.00  0.00     0.047 A 
ATOM      8  C   UNL A   1      31.119  27.448  23.658  1.00  0.00    -0.003 A 
ATOM      9  C   UNL A   1      31.868  27.203  22.475  1.00  0.00     0.048 A 
ATOM     10  C   UNL A   1      33.073  26.514  22.495  1.00  0.00     0.123 A 
ATOM     11  C   UNL A   1      32.877  26.267  24.865  1.00  0.00     0.017 A 
ATOM     12  F   UNL A   1      33.739  26.313  21.351  1.00  0.00    -0.207 F 
ATOM     13  C   UNL A   1      33.587  26.041  23.684  1.00  0.00     0.040 A 
BRANCH   8  14
ATOM     14  C   UNL A   1      29.857  28.181  23.462  1.00  0.00    -0.015 A 
ATOM     15  C   UNL A   1      28.578  30.251  23.317  1.00  0.00     0.041 A 
ATOM     16  C   UNL A   1      27.391  29.506  23.318  1.00  0.00     0.026 A 
ATOM     17  C   UNL A   1      29.809  29.583  23.357  1.00  0.00     0.034 A 
ATOM     18  C   UNL A   1      27.420  28.116  23.351  1.00  0.00     0.003 A 
ATOM     19  C   UNL A   1      28.644  27.460  23.420  1.00  0.00     0.009 A 
BRANCH  15  20
ATOM     20  N   UNL A   1      28.431  31.641  23.454  1.00  0.00    -0.326 N 
ATOM     21  C   UNL A   1      28.155  32.387  21.098  1.00  0.00     0.114 C 
ATOM     22  C   UNL A   1      28.452  32.658  22.546  1.00  0.00     0.221 C 
ATOM     23  O   UNL A   1      28.668  33.806  22.943  1.00  0.00    -0.275 OA
ATOM     24  H   UNL A   1      28.285  31.938  24.381  1.00  0.00     0.169 HD
ENDBRANCH  15  20
ENDBRANCH   8  14
ENDBRANCH   4   7
ENDBRANCH   2   3
ENDBRANCH   1   2
BRANCH   1  25
ATOM     25  C   UNL A   1      31.697  31.707  26.761  1.00  0.00     0.023 C 
BRANCH  25  26
ATOM     26  C   UNL A   1      32.776  32.665  27.267  1.00  0.00     0.116 C 
BRANCH  26  27
ATOM     27  N   UNL A   1      32.311  33.971  27.707  1.00  0.00    -0.352 N 
ATOM     28  C   UNL A   1      32.934  34.890  28.525  1.00  0.00     0.251 C 
ATOM     29  H   UNL A   1      31.424  34.237  27.373  1.00  0.00     0.163 HD
ATOM     30  O   UNL A   1      32.449  36.012  28.661  1.00  0.00    -0.269 OA
BRANCH  28  31
ATOM     31  C   UNL A   1      34.145  34.513  29.289  1.00  0.00     0.039 A 
ATOM     32  C   UNL A   1      33.983  33.922  30.547  1.00  0.00     0.014 A 
ATOM     33  C   UNL A   1      35.423  34.669  28.752  1.00  0.00     0.014 A 
ATOM     34  C   UNL A   1      35.089  33.375  31.204  1.00  0.00     0.010 A 
ATOM     35  C   UNL A   1      36.510  34.050  29.367  1.00  0.00     0.010 A 
ATOM     36  C   UNL A   1      36.351  33.372  30.586  1.00  0.00    -0.014 A 
BRANCH  36  37
ATOM     37  C   UNL A   1      37.491  32.619  31.178  1.00  0.00     0.031 A 
ATOM     38  C   UNL A   1      38.019  32.970  32.541  1.00  0.00     0.074 A 
ATOM     39  C   UNL A   1      38.095  31.654  30.453  1.00  0.00     0.049 A 
ATOM     40  N   UNL A   1      39.024  32.449  33.199  1.00  0.00    -0.248 NA
ATOM     41  C   UNL A   1      37.346  34.071  33.248  1.00  0.00     0.031 C 
ATOM     42  C   UNL A   1      37.724  31.260  29.092  1.00  0.00     0.029 A 
ATOM     43  N   UNL A   1      39.149  30.828  30.757  1.00  0.00    -0.354 N 
ATOM     44  C   UNL A   1      39.103  33.156  34.392  1.00  0.00     0.074 A 
ATOM     45  C   UNL A   1      38.088  34.185  34.340  1.00  0.00     0.031 C 
ATOM     46  C   UNL A   1      38.511  30.248  28.693  1.00  0.00     0.029 A 
ATOM     47  C   UNL A   1      39.463  29.940  29.755  1.00  0.00     0.049 A 
ATOM     48  H   UNL A   1      39.635  30.867  31.612  1.00  0.00     0.167 HD
ATOM     49  C   UNL A   1      39.927  32.949  35.448  1.00  0.00     0.037 A 
ATOM     50  C   UNL A   1      40.408  28.982  29.702  1.00  0.00     0.037 A 
ATOM     51  C   UNL A   1      40.931  31.918  35.506  1.00  0.00     0.049 A 
ATOM     52  C   UNL A   1      41.304  28.769  30.892  1.00  0.00     0.074 A 
ATOM     53  C   UNL A   1      41.802  31.615  36.538  1.00  0.00     0.029 A 
ATOM     54  N   UNL A   1      41.195  31.018  34.484  1.00  0.00    -0.354 N 
ATOM     55  N   UNL A   1      41.324  29.405  32.038  1.00  0.00    -0.248 NA
ATOM     56  C   UNL A   1      42.302  27.695  30.784  1.00  0.00     0.031 C 
ATOM     57  C   UNL A   1      42.611  30.548  36.131  1.00  0.00     0.029 A 
ATOM     58  C   UNL A   1      42.217  30.161  34.861  1.00  0.00     0.049 A 
ATOM     59  H   UNL A   1      40.726  30.992  33.619  1.00  0.00     0.167 HD
ATOM     60  C   UNL A   1      42.308  28.789  32.797  1.00  0.00     0.074 A 
ATOM     61  C   UNL A   1      42.851  27.716  31.990  1.00  0.00     0.031 C 
ATOM     62  C   UNL A   1      42.730  29.087  34.051  1.00  0.00     0.037 A 
BRANCH  49  63
ATOM     63  C   UNL A   1      39.757  33.845  36.640  1.00  0.00     0.064 A 
ATOM     64  C   UNL A   1      40.415  35.084  36.717  1.00  0.00     0.173 A 
ATOM     65  C   UNL A   1      38.910  33.486  37.698  1.00  0.00     0.173 A 
ATOM     66  F   UNL A   1      41.244  35.469  35.735  1.00  0.00    -0.203 F 
ATOM     67  C   UNL A   1      40.255  35.914  37.822  1.00  0.00     0.198 A 
ATOM     68  C   UNL A   1      38.729  34.333  38.789  1.00  0.00     0.198 A 
ATOM     69  F   UNL A   1      38.251  32.318  37.671  1.00  0.00    -0.203 F 
ATOM     70  F   UNL A   1      40.930  37.069  37.893  1.00  0.00    -0.200 F 
ATOM     71  C   UNL A   1      39.406  35.541  38.854  1.00  0.00     0.200 A 
ATOM     72  F   UNL A   1      37.900  33.979  39.781  1.00  0.00    -0.200 F 
ATOM     73  F   UNL A   1      39.247  36.346  39.914  1.00  0.00    -0.200 F 
ENDBRANCH  49  63
BRANCH  50  74
ATOM     74  C   UNL A   1      40.533  28.113  28.500  1.00  0.00     0.064 A 
ATOM     75  C   UNL A   1      39.882  26.872  28.443  1.00  0.00     0.173 A 
ATOM     76  C   UNL A   1      41.323  28.484  27.404  1.00  0.00     0.173 A 
ATOM     77  F   UNL A   1      39.131  26.463  29.477  1.00  0.00    -0.203 F 
ATOM     78  C   UNL A   1      40.041  26.022  27.350  1.00  0.00     0.198 A 
ATOM     79  C   UNL A   1      41.459  27.646  26.298  1.00  0.00     0.198 A 
ATOM     80  F   UNL A   1      41.963  29.663  27.405  1.00  0.00    -0.203 F 
ATOM     81  F   UNL A   1      39.454  24.818  27.349  1.00  0.00    -0.200 F 
ATOM     82  C   UNL A   1      40.828  26.411  26.277  1.00  0.00     0.200 A 
ATOM     83  F   UNL A   1      42.211  28.031  25.256  1.00  0.00    -0.200 F 
ATOM     84  F   UNL A   1      40.986  25.593  25.229  1.00  0.00    -0.200 F 
ENDBRANCH  50  74
BRANCH  62  85
ATOM     85  C   UNL A   1      43.797  28.210  34.638  1.00  0.00     0.064 A 
ATOM     86  C   UNL A   1      43.484  27.031  35.329  1.00  0.00     0.173 A 
ATOM     87  C   UNL A   1      45.150  28.548  34.492  1.00  0.00     0.173 A 
ATOM     88  F   UNL A   1      42.203  26.674  35.510  1.00  0.00    -0.203 F 
ATOM     89  C   UNL A   1      44.486  26.239  35.883  1.00  0.00     0.198 A 
ATOM     90  C   UNL A   1      46.151  27.739  35.021  1.00  0.00     0.198 A 
ATOM     91  F   UNL A   1      45.502  29.664  33.835  1.00  0.00    -0.203 F 
ATOM     92  F   UNL A   1      44.162  25.147  36.587  1.00  0.00    -0.200 F 
ATOM     93  C   UNL A   1      45.819  26.591  35.723  1.00  0.00     0.200 A 
ATOM     94  F   UNL A   1      47.439  28.075  34.858  1.00  0.00    -0.200 F 
ATOM     95  F   UNL A   1      46.783  25.828  36.257  1.00  0.00    -0.200 F 
ENDBRANCH  62  85
ENDBRANCH  36  37
ENDBRANCH  28  31
ENDBRANCH  26  27
ENDBRANCH  25  26
ENDBRANCH   1  25
TORSDOF 13
ENDMDL
MODEL 2
REMARK VINA RESULT:     -13.7      0.133      1.589
REMARK SMILES CC(=O)Nc1cccc(-c2cc(F)ccc2C(=O)NCCCCNC(=O)c2ccc(-c3c4nc(c(-c5c(F)c(F)c(F)c(F)c5F)c5ccc([nH]5)c(-c5c(F)c(F)c(F)c(F)c5F)c5nc(c(-c6c(F)c(F)c(F)c(F)c6F)c6ccc3[nH]6)C=C5)C=C4)cc2)c1
REMARK SMILES IDX 21 1 20 2 19 3 17 4 18 5 16 7 10 8 11 9 12 10 15 11 13 12
REMARK SMILES IDX 14 13 9 14 5 15 6 16 90 17 7 18 8 19 4 20 1 21 2 22 3 23
REMARK SMILES IDX 22 25 23 26 24 27 25 28 26 30 27 31 28 32 89 33 29 34 88 35
REMARK SMILES IDX 30 36 31 37 32 38 82 39 33 40 87 41 81 42 83 43 34 44 86 45
REMARK SMILES IDX 80 46 79 47 35 49 67 50 47 51 66 52 48 53 51 54 65 55 84 56
REMARK SMILES IDX 49 57 50 58 64 60 85 61 52 62 36 63 37 64 45 65 38 66 39 67
REMARK SMILES IDX 43 68 46 69 40 70 41 71 44 72 42 73 68 74 69 75 77 76 70 77
REMARK SMILES IDX 71 78 75 79 78 80 72 81 73 82 76 83 74 84 53 85 54 86 62 87
REMARK SMILES IDX 55 88 56 89 60 90 63 91 57 92 58 93 61 94 59 95
REMARK H PARENT 19 6 4 24 24 29 83 48 51 59
REMARK Flexibility Score: inf
ROOT
ATOM      1  C   UNL A   1      32.201  30.198  26.194  1.00  0.00     0.023 C 
ENDROOT
BRANCH   1   2
ATOM      2  C   UNL A   1      32.382  29.026  27.146  1.00  0.00     0.116 C 
BRANCH   2   3
ATOM      3  N   UNL A   1      31.360  28.015  27.149  1.00  0.00    -0.352 N 
ATOM      4  C   UNL A   1      31.074  27.030  26.232  1.00  0.00     0.251 C 
ATOM      5  O   UNL A   1      30.231  26.197  26.581  1.00  0.00    -0.269 OA
ATOM      6  H   UNL A   1      30.767  28.030  27.936  1.00  0.00     0.163 HD
BRANCH   4   7
ATOM      7  C   UNL A   1      31.614  26.921  24.828  1.00  0.00     0.047 A 
ATOM      8  C   UNL A   1      31.119  27.474  23.618  1.00  0.00    -0.003 A 
ATOM      9  C   UNL A   1      31.883  27.284  22.434  1.00  0.00     0.048 A 
ATOM     10  C   UNL A   1      33.080  26.584  22.435  1.00  0.00     0.123 A 
ATOM     11  C   UNL A   1      32.850  26.217  24.785  1.00  0.00     0.017 A 
ATOM     12  F   UNL A   1      33.761  26.436  21.290  1.00  0.00    -0.207 F 
ATOM     13  C   UNL A   1      33.575  26.046  23.604  1.00  0.00     0.040 A 
BRANCH   8  14
ATOM     14  C   UNL A   1      29.866  28.229  23.444  1.00  0.00    -0.015 A 
ATOM     15  C   UNL A   1      28.618  30.319  23.328  1.00  0.00     0.041 A 
ATOM     16  C   UNL A   1      27.419  29.592  23.341  1.00  0.00     0.026 A 
ATOM     17  C   UNL A   1      29.839  29.631  23.348  1.00  0.00     0.034 A 
ATOM     18  C   UNL A   1      27.427  28.202  23.367  1.00  0.00     0.003 A 
ATOM     19  C   UNL A   1      28.642  27.527  23.415  1.00  0.00     0.009 A 
BRANCH  15  20
ATOM     20  N   UNL A   1      28.494  31.711  23.476  1.00  0.00    -0.326 N 
ATOM     21  C   UNL A   1      28.142  32.469  21.134  1.00  0.00     0.114 C 
ATOM     22  C   UNL A   1      28.495  32.730  22.570  1.00  0.00     0.221 C 
ATOM     23  O   UNL A   1      28.742  33.873  22.963  1.00  0.00    -0.275 OA
ATOM     24  H   UNL A   1      28.387  32.006  24.408  1.00  0.00     0.169 HD
ENDBRANCH  15  20
ENDBRANCH   8  14
ENDBRANCH   4   7
ENDBRANCH   2   3
ENDBRANCH   1   2
BRANCH   1  25
ATOM     25  C   UNL A   1      31.779  31.542  26.788  1.00  0.00     0.023 C 
BRANCH  25  26
ATOM     26  C   UNL A   1      32.860  32.514  27.263  1.00  0.00     0.116 C 
BRANCH  26  27
ATOM     27  N   UNL A   1      32.397  33.831  27.669  1.00  0.00    -0.352 N 
ATOM     28  C   UNL A   1      33.010  34.761  28.483  1.00  0.00     0.251 C 
ATOM     29  H   UNL A   1      31.519  34.099  27.311  1.00  0.00     0.163 HD
ATOM     30  O   UNL A   1      32.531  35.888  28.588  1.00  0.00    -0.269 OA
BRANCH  28  31
ATOM     31  C   UNL A   1      34.201  34.387  29.280  1.00  0.00     0.039 A 
ATOM     32  C   UNL A   1      34.008  33.735  30.503  1.00  0.00     0.014 A 
ATOM     33  C   UNL A   1      35.494  34.608  28.805  1.00  0.00     0.014 A 
ATOM     34  C   UNL A   1      35.104  33.195  31.181  1.00  0.00     0.010 A 
ATOM     35  C   UNL A   1      36.575  33.997  29.437  1.00  0.00     0.010 A 
ATOM     36  C   UNL A   1      36.389  33.259  30.618  1.00  0.00    -0.014 A 
BRANCH  36  37
ATOM     37  C   UNL A   1      37.529  32.517  31.223  1.00  0.00     0.031 A 
ATOM     38  C   UNL A   1      38.038  32.873  32.593  1.00  0.00     0.074 A 
ATOM     39  C   UNL A   1      38.150  31.557  30.506  1.00  0.00     0.049 A 
ATOM     40  N   UNL A   1      39.039  32.361  33.263  1.00  0.00    -0.248 NA
ATOM     41  C   UNL A   1      37.346  33.968  33.290  1.00  0.00     0.031 C 
ATOM     42  C   UNL A   1      37.799  31.160  29.140  1.00  0.00     0.029 A 
ATOM     43  N   UNL A   1      39.208  30.741  30.823  1.00  0.00    -0.354 N 
ATOM     44  C   UNL A   1      39.098  33.069  34.456  1.00  0.00     0.074 A 
ATOM     45  C   UNL A   1      38.074  34.089  34.392  1.00  0.00     0.031 C 
ATOM     46  C   UNL A   1      38.600  30.155  28.752  1.00  0.00     0.029 A 
ATOM     47  C   UNL A   1      39.542  29.856  29.824  1.00  0.00     0.049 A 
ATOM     48  H   UNL A   1      39.683  30.785  31.684  1.00  0.00     0.167 HD
ATOM     49  C   UNL A   1      39.910  32.870  35.522  1.00  0.00     0.037 A 
ATOM     50  C   UNL A   1      40.496  28.906  29.783  1.00  0.00     0.037 A 
ATOM     51  C   UNL A   1      40.923  31.848  35.592  1.00  0.00     0.049 A 
ATOM     52  C   UNL A   1      41.380  28.702  30.984  1.00  0.00     0.074 A 
ATOM     53  C   UNL A   1      41.785  31.553  36.635  1.00  0.00     0.029 A 
ATOM     54  N   UNL A   1      41.208  30.950  34.574  1.00  0.00    -0.354 N 
ATOM     55  N   UNL A   1      41.380  29.338  32.130  1.00  0.00    -0.248 NA
ATOM     56  C   UNL A   1      42.388  27.637  30.889  1.00  0.00     0.031 C 
ATOM     57  C   UNL A   1      42.608  30.493  36.238  1.00  0.00     0.029 A 
ATOM     58  C   UNL A   1      42.232  30.102  34.963  1.00  0.00     0.049 A 
ATOM     59  H   UNL A   1      40.749  30.920  33.703  1.00  0.00     0.167 HD
ATOM     60  C   UNL A   1      42.361  28.731  32.901  1.00  0.00     0.074 A 
ATOM     61  C   UNL A   1      42.923  27.663  32.101  1.00  0.00     0.031 C 
ATOM     62  C   UNL A   1      42.765  29.033  34.160  1.00  0.00     0.037 A 
BRANCH  49  63
ATOM     63  C   UNL A   1      39.718  33.765  36.711  1.00  0.00     0.064 A 
ATOM     64  C   UNL A   1      40.374  35.003  36.802  1.00  0.00     0.173 A 
ATOM     65  C   UNL A   1      38.852  33.404  37.753  1.00  0.00     0.173 A 
ATOM     66  F   UNL A   1      41.221  35.390  35.836  1.00  0.00    -0.203 F 
ATOM     67  C   UNL A   1      40.193  35.832  37.905  1.00  0.00     0.198 A 
ATOM     68  C   UNL A   1      38.650  34.250  38.842  1.00  0.00     0.198 A 
ATOM     69  F   UNL A   1      38.194  32.236  37.713  1.00  0.00    -0.203 F 
ATOM     70  F   UNL A   1      40.866  36.988  37.990  1.00  0.00    -0.200 F 
ATOM     71  C   UNL A   1      39.326  35.459  38.921  1.00  0.00     0.200 A 
ATOM     72  F   UNL A   1      37.803  33.894  39.817  1.00  0.00    -0.200 F 
ATOM     73  F   UNL A   1      39.147  36.262  39.979  1.00  0.00    -0.200 F 
ENDBRANCH  49  63
BRANCH  50  74
ATOM     74  C   UNL A   1      40.643  28.038  28.583  1.00  0.00     0.064 A 
ATOM     75  C   UNL A   1      41.428  28.449  27.495  1.00  0.00     0.173 A 
ATOM     76  C   UNL A   1      39.986  26.805  28.483  1.00  0.00     0.173 A 
ATOM     77  F   UNL A   1      42.060  29.631  27.534  1.00  0.00    -0.203 F 
ATOM     78  C   UNL A   1      41.522  27.674  26.340  1.00  0.00     0.198 A 
ATOM     79  C   UNL A   1      40.104  26.017  27.339  1.00  0.00     0.198 A 
ATOM     80  F   UNL A   1      39.228  26.363  29.497  1.00  0.00    -0.203 F 
ATOM     81  F   UNL A   1      42.232  28.118  25.294  1.00  0.00    -0.200 F 
ATOM     82  C   UNL A   1      40.863  26.457  26.264  1.00  0.00     0.200 A 
ATOM     83  F   UNL A   1      39.475  24.835  27.273  1.00  0.00    -0.200 F 
ATOM     84  F   UNL A   1      40.949  25.715  25.153  1.00  0.00    -0.200 F 
ENDBRANCH  50  74
BRANCH  62  85
ATOM     85  C   UNL A   1      43.832  28.166  34.760  1.00  0.00     0.064 A 
ATOM     86  C   UNL A   1      45.192  28.489  34.649  1.00  0.00     0.173 A 
ATOM     87  C   UNL A   1      43.487  27.006  35.469  1.00  0.00     0.173 A 
ATOM     88  F   UNL A   1      45.574  29.580  33.967  1.00  0.00    -0.203 F 
ATOM     89  C   UNL A   1      46.171  27.664  35.198  1.00  0.00     0.198 A 
ATOM     90  C   UNL A   1      44.466  26.198  36.041  1.00  0.00     0.198 A 
ATOM     91  F   UNL A   1      42.199  26.655  35.607  1.00  0.00    -0.203 F 
ATOM     92  F   UNL A   1      47.466  27.962  35.031  1.00  0.00    -0.200 F 
ATOM     93  C   UNL A   1      45.806  26.522  35.896  1.00  0.00     0.200 A 
ATOM     94  F   UNL A   1      44.112  25.101  36.724  1.00  0.00    -0.200 F 
ATOM     95  F   UNL A   1      46.749  25.728  36.423  1.00  0.00    -0.200 F 
ENDBRANCH  62  85
ENDBRANCH  36  37
ENDBRANCH  28  31
ENDBRANCH  26  27
ENDBRANCH  25  26
ENDBRANCH   1  25
TORSDOF 13
ENDMDL
MODEL 3
REMARK VINA RESULT:     -13.7      0.167      1.133
REMARK SMILES CC(=O)Nc1cccc(-c2cc(F)ccc2C(=O)NCCCCNC(=O)c2ccc(-c3c4nc(c(-c5c(F)c(F)c(F)c(F)c5F)c5ccc([nH]5)c(-c5c(F)c(F)c(F)c(F)c5F)c5nc(c(-c6c(F)c(F)c(F)c(F)c6F)c6ccc3[nH]6)C=C5)C=C4)cc2)c1
REMARK SMILES IDX 21 1 20 2 19 3 17 4 18 5 16 7 10 8 11 9 12 10 15 11 13 12
REMARK SMILES IDX 14 13 9 14 5 15 6 16 90 17 7 18 8 19 4 20 1 21 2 22 3 23
REMARK SMILES IDX 22 25 23 26 24 27 25 28 26 30 27 31 28 32 89 33 29 34 88 35
REMARK SMILES IDX 30 36 31 37 32 38 82 39 33 40 87 41 81 42 83 43 34 44 86 45
REMARK SMILES IDX 80 46 79 47 35 49 67 50 47 51 66 52 48 53 51 54 65 55 84 56
REMARK SMILES IDX 49 57 50 58 64 60 85 61 52 62 36 63 37 64 45 65 38 66 39 67
REMARK SMILES IDX 43 68 46 69 40 70 41 71 44 72 42 73 68 74 69 75 77 76 70 77
REMARK SMILES IDX 71 78 75 79 78 80 72 81 73 82 76 83 74 84 53 85 54 86 62 87
REMARK SMILES IDX 55 88 56 89 60 90 63 91 57 92 58 93 61 94 59 95
REMARK H PARENT 19 6 4 24 24 29 83 48 51 59
REMARK Flexibility Score: inf
ROOT
ATOM      1  C   UNL A   1      32.166  30.130  26.149  1.00  0.00     0.023 C 
ENDROOT
BRANCH   1   2
ATOM      2  C   UNL A   1      32.322  29.006  27.160  1.00  0.00     0.116 C 
BRANCH   2   3
ATOM      3  N   UNL A   1      31.320  27.974  27.159  1.00  0.00    -0.352 N 
ATOM      4  C   UNL A   1      31.056  26.986  26.238  1.00  0.00     0.251 C 
ATOM      5  O   UNL A   1      30.229  26.135  26.584  1.00  0.00    -0.269 OA
ATOM      6  H   UNL A   1      30.727  27.975  27.944  1.00  0.00     0.163 HD
BRANCH   4   7
ATOM      7  C   UNL A   1      31.600  26.893  24.834  1.00  0.00     0.047 A 
ATOM      8  C   UNL A   1      31.100  27.449  23.627  1.00  0.00    -0.003 A 
ATOM      9  C   UNL A   1      31.868  27.275  22.443  1.00  0.00     0.048 A 
ATOM     10  C   UNL A   1      33.074  26.589  22.441  1.00  0.00     0.123 A 
ATOM     11  C   UNL A   1      32.844  26.204  24.789  1.00  0.00     0.017 A 
ATOM     12  F   UNL A   1      33.758  26.457  21.297  1.00  0.00    -0.207 F 
ATOM     13  C   UNL A   1      33.572  26.049  23.608  1.00  0.00     0.040 A 
BRANCH   8  14
ATOM     14  C   UNL A   1      29.839  28.190  23.455  1.00  0.00    -0.015 A 
ATOM     15  C   UNL A   1      28.571  30.267  23.323  1.00  0.00     0.041 A 
ATOM     16  C   UNL A   1      27.379  29.530  23.360  1.00  0.00     0.026 A 
ATOM     17  C   UNL A   1      29.798  29.590  23.339  1.00  0.00     0.034 A 
ATOM     18  C   UNL A   1      27.400  28.141  23.405  1.00  0.00     0.003 A 
ATOM     19  C   UNL A   1      28.621  27.477  23.450  1.00  0.00     0.009 A 
BRANCH  15  20
ATOM     20  N   UNL A   1      28.437  31.660  23.452  1.00  0.00    -0.326 N 
ATOM     21  C   UNL A   1      28.156  32.392  21.092  1.00  0.00     0.114 C 
ATOM     22  C   UNL A   1      28.462  32.670  22.536  1.00  0.00     0.221 C 
ATOM     23  O   UNL A   1      28.691  33.818  22.924  1.00  0.00    -0.275 OA
ATOM     24  H   UNL A   1      28.299  31.964  24.378  1.00  0.00     0.169 HD
ENDBRANCH  15  20
ENDBRANCH   8  14
ENDBRANCH   4   7
ENDBRANCH   2   3
ENDBRANCH   1   2
BRANCH   1  25
ATOM     25  C   UNL A   1      31.745  31.505  26.669  1.00  0.00     0.023 C 
BRANCH  25  26
ATOM     26  C   UNL A   1      32.816  32.450  27.215  1.00  0.00     0.116 C 
BRANCH  26  27
ATOM     27  N   UNL A   1      32.352  33.762  27.635  1.00  0.00    -0.352 N 
ATOM     28  C   UNL A   1      32.974  34.694  28.440  1.00  0.00     0.251 C 
ATOM     29  H   UNL A   1      31.466  34.025  27.295  1.00  0.00     0.163 HD
ATOM     30  O   UNL A   1      32.490  35.817  28.559  1.00  0.00    -0.269 OA
BRANCH  28  31
ATOM     31  C   UNL A   1      34.183  34.326  29.212  1.00  0.00     0.039 A 
ATOM     32  C   UNL A   1      34.018  33.697  30.451  1.00  0.00     0.014 A 
ATOM     33  C   UNL A   1      35.465  34.529  28.700  1.00  0.00     0.014 A 
ATOM     34  C   UNL A   1      35.129  33.160  31.110  1.00  0.00     0.010 A 
ATOM     35  C   UNL A   1      36.558  33.921  29.314  1.00  0.00     0.010 A 
ATOM     36  C   UNL A   1      36.399  33.206  30.512  1.00  0.00    -0.014 A 
BRANCH  36  37
ATOM     37  C   UNL A   1      37.549  32.467  31.100  1.00  0.00     0.031 A 
ATOM     38  C   UNL A   1      38.077  32.824  32.461  1.00  0.00     0.074 A 
ATOM     39  C   UNL A   1      38.162  31.508  30.373  1.00  0.00     0.049 A 
ATOM     40  N   UNL A   1      39.090  32.314  33.117  1.00  0.00    -0.248 NA
ATOM     41  C   UNL A   1      37.394  33.917  33.170  1.00  0.00     0.031 C 
ATOM     42  C   UNL A   1      37.792  31.110  29.013  1.00  0.00     0.029 A 
ATOM     43  N   UNL A   1      39.226  30.694  30.674  1.00  0.00    -0.354 N 
ATOM     44  C   UNL A   1      39.165  33.022  34.309  1.00  0.00     0.074 A 
ATOM     45  C   UNL A   1      38.137  34.040  34.260  1.00  0.00     0.031 C 
ATOM     46  C   UNL A   1      38.589  30.107  28.612  1.00  0.00     0.029 A 
ATOM     47  C   UNL A   1      39.547  29.810  29.671  1.00  0.00     0.049 A 
ATOM     48  H   UNL A   1      39.714  30.739  31.528  1.00  0.00     0.167 HD
ATOM     49  C   UNL A   1      39.994  32.824  35.363  1.00  0.00     0.037 A 
ATOM     50  C   UNL A   1      40.503  28.863  29.615  1.00  0.00     0.037 A 
ATOM     51  C   UNL A   1      41.010  31.805  35.418  1.00  0.00     0.049 A 
ATOM     52  C   UNL A   1      41.405  28.661  30.803  1.00  0.00     0.074 A 
ATOM     53  C   UNL A   1      41.888  31.513  36.447  1.00  0.00     0.029 A 
ATOM     54  N   UNL A   1      41.281  30.908  34.395  1.00  0.00    -0.354 N 
ATOM     55  N   UNL A   1      41.421  29.297  31.949  1.00  0.00    -0.248 NA
ATOM     56  C   UNL A   1      42.415  27.598  30.692  1.00  0.00     0.031 C 
ATOM     57  C   UNL A   1      42.707  30.454  36.038  1.00  0.00     0.029 A 
ATOM     58  C   UNL A   1      42.314  30.063  34.769  1.00  0.00     0.049 A 
ATOM     59  H   UNL A   1      40.810  30.877  33.531  1.00  0.00     0.167 HD
ATOM     60  C   UNL A   1      42.415  28.692  32.705  1.00  0.00     0.074 A 
ATOM     61  C   UNL A   1      42.968  27.626  31.896  1.00  0.00     0.031 C 
ATOM     62  C   UNL A   1      42.837  28.995  33.958  1.00  0.00     0.037 A 
BRANCH  49  63
ATOM     63  C   UNL A   1      39.817  33.719  36.555  1.00  0.00     0.064 A 
ATOM     64  C   UNL A   1      40.500  34.942  36.653  1.00  0.00     0.173 A 
ATOM     65  C   UNL A   1      38.939  33.374  37.592  1.00  0.00     0.173 A 
ATOM     66  F   UNL A   1      41.359  35.314  35.691  1.00  0.00    -0.203 F 
ATOM     67  C   UNL A   1      40.333  35.771  37.758  1.00  0.00     0.198 A 
ATOM     68  C   UNL A   1      38.753  34.219  38.684  1.00  0.00     0.198 A 
ATOM     69  F   UNL A   1      38.256  32.220  37.546  1.00  0.00    -0.203 F 
ATOM     70  F   UNL A   1      41.031  36.911  37.850  1.00  0.00    -0.200 F 
ATOM     71  C   UNL A   1      39.455  35.412  38.770  1.00  0.00     0.200 A 
ATOM     72  F   UNL A   1      37.894  33.879  39.655  1.00  0.00    -0.200 F 
ATOM     73  F   UNL A   1      39.289  36.215  39.830  1.00  0.00    -0.200 F 
ENDBRANCH  49  63
BRANCH  50  74
ATOM     74  C   UNL A   1      40.635  27.996  28.413  1.00  0.00     0.064 A 
ATOM     75  C   UNL A   1      39.999  26.746  28.359  1.00  0.00     0.173 A 
ATOM     76  C   UNL A   1      41.415  28.377  27.314  1.00  0.00     0.173 A 
ATOM     77  F   UNL A   1      39.258  26.327  29.396  1.00  0.00    -0.203 F 
ATOM     78  C   UNL A   1      40.165  25.898  27.266  1.00  0.00     0.198 A 
ATOM     79  C   UNL A   1      41.558  27.540  26.208  1.00  0.00     0.198 A 
ATOM     80  F   UNL A   1      42.040  29.563  27.312  1.00  0.00    -0.203 F 
ATOM     81  F   UNL A   1      39.593  24.687  27.267  1.00  0.00    -0.200 F 
ATOM     82  C   UNL A   1      40.943  26.297  26.189  1.00  0.00     0.200 A 
ATOM     83  F   UNL A   1      42.300  27.934  25.163  1.00  0.00    -0.200 F 
ATOM     84  F   UNL A   1      41.107  25.481  25.141  1.00  0.00    -0.200 F 
ENDBRANCH  50  74
BRANCH  62  85
ATOM     85  C   UNL A   1      43.915  28.130  34.541  1.00  0.00     0.064 A 
ATOM     86  C   UNL A   1      45.271  28.471  34.434  1.00  0.00     0.173 A 
ATOM     87  C   UNL A   1      43.584  26.954  35.231  1.00  0.00     0.173 A 
ATOM     88  F   UNL A   1      45.639  29.577  33.769  1.00  0.00    -0.203 F 
ATOM     89  C   UNL A   1      46.260  27.648  34.967  1.00  0.00     0.198 A 
ATOM     90  C   UNL A   1      44.573  26.149  35.788  1.00  0.00     0.198 A 
ATOM     91  F   UNL A   1      42.301  26.587  35.366  1.00  0.00    -0.203 F 
ATOM     92  F   UNL A   1      47.551  27.964  34.804  1.00  0.00    -0.200 F 
ATOM     93  C   UNL A   1      45.909  26.491  35.647  1.00  0.00     0.200 A 
ATOM     94  F   UNL A   1      44.233  25.036  36.454  1.00  0.00    -0.200 F 
ATOM     95  F   UNL A   1      46.863  25.699  36.160  1.00  0.00    -0.200 F 
ENDBRANCH  62  85
ENDBRANCH  36  37
ENDBRANCH  28  31
ENDBRANCH  26  27
ENDBRANCH  25  26
ENDBRANCH   1  25
TORSDOF 13
ENDMDL
