MODEL 1
REMARK VINA RESULT:     -12.3      0.000      0.000
REMARK SMILES Cc1csc(C[N@H+]2CCC[C@@H](CC(=O)NCCCCNC(=O)c3ccc(-c4c5nc(c(-c6c(F)c(F)c(F)c(F)c6F)c6ccc([nH]6)c(-c6c(F)c(F)c(F)c(F)c6F)c6nc(c(-c7c(F)c(F)c(F)c(F)c7F)c7ccc4[nH]7)C=C6)C=C5)cc3)C2)n1
REMARK SMILES IDX 17 1 16 2 15 3 13 4 14 5 12 7 11 8 7 9 8 10 86 11 9 13 10 14
REMARK SMILES IDX 6 15 5 16 1 17 2 18 3 19 87 20 4 21 18 22 19 23 20 24 21 25
REMARK SMILES IDX 22 27 23 28 24 29 85 30 25 31 84 32 26 33 27 34 28 35 78 36
REMARK SMILES IDX 29 37 83 38 77 39 79 40 30 41 82 42 76 43 75 44 31 46 63 47
REMARK SMILES IDX 43 48 62 49 44 50 47 51 61 52 80 53 45 54 46 55 60 57 81 58
REMARK SMILES IDX 48 59 32 60 33 61 41 62 34 63 35 64 39 65 42 66 36 67 37 68
REMARK SMILES IDX 40 69 38 70 64 71 65 72 73 73 66 74 67 75 71 76 74 77 68 78
REMARK SMILES IDX 69 79 72 80 70 81 49 82 50 83 58 84 51 85 52 86 56 87 59 88
REMARK SMILES IDX 53 89 54 90 57 91 55 92
REMARK H PARENT 15 6 7 12 20 26 79 45 47 56
REMARK Flexibility Score: inf
ROOT
ATOM      1  C   UNL A   1      31.832  30.461  26.575  1.00  0.00     0.023 C 
ENDROOT
BRANCH   1   2
ATOM      2  C   UNL A   1      33.313  30.085  26.458  1.00  0.00     0.116 C 
BRANCH   2   3
ATOM      3  N   UNL A   1      33.690  29.613  25.138  1.00  0.00    -0.356 N 
ATOM      4  C   UNL A   1      33.906  28.343  24.694  1.00  0.00     0.220 C 
ATOM      5  O   UNL A   1      34.186  28.176  23.507  1.00  0.00    -0.275 OA
ATOM      6  H   UNL A   1      33.810  30.318  24.461  1.00  0.00     0.163 HD
BRANCH   4   7
ATOM      7  C   UNL A   1      33.801  27.174  25.648  1.00  0.00     0.109 C 
BRANCH   7   8
ATOM      8  C   UNL A   1      32.564  26.273  25.468  1.00  0.00     0.054 C 
ATOM      9  N   UNL A   1      31.721  23.905  25.925  1.00  0.00    -0.329 N 
ATOM     10  C   UNL A   1      30.399  24.462  26.250  1.00  0.00     0.262 C 
ATOM     11  C   UNL A   1      32.855  24.850  25.994  1.00  0.00     0.266 C 
ATOM     12  H   UNL A   1      31.666  23.655  24.937  1.00  0.00     0.348 HD
ATOM     13  C   UNL A   1      30.159  25.865  25.715  1.00  0.00     0.062 C 
ATOM     14  C   UNL A   1      31.298  26.758  26.180  1.00  0.00     0.016 C 
BRANCH   9  15
ATOM     15  C   UNL A   1      31.986  22.692  26.763  1.00  0.00     0.331 C 
BRANCH  15  16
ATOM     16  C   UNL A   1      32.664  21.546  26.024  1.00  0.00     0.147 A 
ATOM     17  C   UNL A   1      32.374  19.155  23.363  1.00  0.00     0.067 C 
ATOM     18  C   UNL A   1      32.923  20.000  24.454  1.00  0.00     0.049 A 
ATOM     19  C   UNL A   1      34.251  20.224  24.758  1.00  0.00     0.090 A 
ATOM     20  N   UNL A   1      32.029  20.692  25.244  1.00  0.00    -0.240 NA
ATOM     21  S   UNL A   1      34.378  21.354  26.045  1.00  0.00    -0.121 S 
ENDBRANCH  15  16
ENDBRANCH   9  15
ENDBRANCH   7   8
ENDBRANCH   4   7
ENDBRANCH   2   3
ENDBRANCH   1   2
BRANCH   1  22
ATOM     22  C   UNL A   1      31.564  31.937  26.879  1.00  0.00     0.023 C 
BRANCH  22  23
ATOM     23  C   UNL A   1      32.770  32.666  27.457  1.00  0.00     0.116 C 
BRANCH  23  24
ATOM     24  N   UNL A   1      32.499  34.086  27.648  1.00  0.00    -0.352 N 
ATOM     25  C   UNL A   1      33.012  34.953  28.578  1.00  0.00     0.251 C 
ATOM     26  H   UNL A   1      31.854  34.480  27.017  1.00  0.00     0.163 HD
ATOM     27  O   UNL A   1      32.496  36.051  28.761  1.00  0.00    -0.269 OA
BRANCH  25  28
ATOM     28  C   UNL A   1      34.187  34.544  29.368  1.00  0.00     0.039 A 
ATOM     29  C   UNL A   1      34.003  33.999  30.641  1.00  0.00     0.014 A 
ATOM     30  C   UNL A   1      35.467  34.670  28.826  1.00  0.00     0.014 A 
ATOM     31  C   UNL A   1      35.103  33.494  31.334  1.00  0.00     0.010 A 
ATOM     32  C   UNL A   1      36.546  34.089  29.477  1.00  0.00     0.010 A 
ATOM     33  C   UNL A   1      36.372  33.489  30.734  1.00  0.00    -0.014 A 
BRANCH  33  34
ATOM     34  C   UNL A   1      37.537  32.836  31.378  1.00  0.00     0.031 A 
ATOM     35  C   UNL A   1      38.190  31.655  30.721  1.00  0.00     0.074 A 
ATOM     36  C   UNL A   1      37.928  33.242  32.601  1.00  0.00     0.049 A 
ATOM     37  N   UNL A   1      39.128  30.867  31.179  1.00  0.00    -0.248 NA
ATOM     38  C   UNL A   1      37.701  31.290  29.381  1.00  0.00     0.031 C 
ATOM     39  C   UNL A   1      37.329  34.342  33.359  1.00  0.00     0.029 A 
ATOM     40  N   UNL A   1      38.908  32.761  33.434  1.00  0.00    -0.354 N 
ATOM     41  C   UNL A   1      39.325  29.906  30.197  1.00  0.00     0.074 A 
ATOM     42  C   UNL A   1      38.375  30.175  29.141  1.00  0.00     0.031 C 
ATOM     43  C   UNL A   1      37.964  34.463  34.537  1.00  0.00     0.029 A 
ATOM     44  C   UNL A   1      38.979  33.420  34.636  1.00  0.00     0.049 A 
ATOM     45  H   UNL A   1      39.503  32.015  33.191  1.00  0.00     0.167 HD
ATOM     46  C   UNL A   1      40.234  28.903  30.172  1.00  0.00     0.037 A 
ATOM     47  C   UNL A   1      39.762  33.193  35.708  1.00  0.00     0.037 A 
ATOM     48  C   UNL A   1      41.193  28.662  31.217  1.00  0.00     0.049 A 
ATOM     49  C   UNL A   1      40.752  32.061  35.661  1.00  0.00     0.074 A 
ATOM     50  C   UNL A   1      42.212  27.727  31.253  1.00  0.00     0.029 A 
ATOM     51  N   UNL A   1      41.246  29.360  32.415  1.00  0.00    -0.354 N 
ATOM     52  N   UNL A   1      40.989  31.210  34.692  1.00  0.00    -0.248 NA
ATOM     53  C   UNL A   1      41.581  31.854  36.856  1.00  0.00     0.031 C 
ATOM     54  C   UNL A   1      42.847  27.822  32.494  1.00  0.00     0.029 A 
ATOM     55  C   UNL A   1      42.259  28.850  33.213  1.00  0.00     0.049 A 
ATOM     56  H   UNL A   1      40.654  30.106  32.662  1.00  0.00     0.167 HD
ATOM     57  C   UNL A   1      42.002  30.381  35.150  1.00  0.00     0.074 A 
ATOM     58  C   UNL A   1      42.352  30.845  36.477  1.00  0.00     0.031 C 
ATOM     59  C   UNL A   1      42.588  29.327  34.531  1.00  0.00     0.037 A 
BRANCH  46  60
ATOM     60  C   UNL A   1      40.239  27.995  28.977  1.00  0.00     0.064 A 
ATOM     61  C   UNL A   1      40.956  28.314  27.813  1.00  0.00     0.173 A 
ATOM     62  C   UNL A   1      39.556  26.771  29.010  1.00  0.00     0.173 A 
ATOM     63  F   UNL A   1      41.618  29.479  27.725  1.00  0.00    -0.203 F 
ATOM     64  C   UNL A   1      40.964  27.455  26.718  1.00  0.00     0.198 A 
ATOM     65  C   UNL A   1      39.592  25.900  27.924  1.00  0.00     0.198 A 
ATOM     66  F   UNL A   1      38.858  26.415  30.099  1.00  0.00    -0.203 F 
ATOM     67  F   UNL A   1      41.616  27.804  25.600  1.00  0.00    -0.200 F 
ATOM     68  C   UNL A   1      40.290  26.246  26.777  1.00  0.00     0.200 A 
ATOM     69  F   UNL A   1      38.949  24.725  27.988  1.00  0.00    -0.200 F 
ATOM     70  F   UNL A   1      40.307  25.415  25.726  1.00  0.00    -0.200 F 
ENDBRANCH  46  60
BRANCH  47  71
ATOM     71  C   UNL A   1      39.645  34.056  36.912  1.00  0.00     0.064 A 
ATOM     72  C   UNL A   1      38.854  33.667  38.002  1.00  0.00     0.173 A 
ATOM     73  C   UNL A   1      40.316  35.286  37.001  1.00  0.00     0.173 A 
ATOM     74  F   UNL A   1      38.177  32.511  37.957  1.00  0.00    -0.203 F 
ATOM     75  C   UNL A   1      38.720  34.483  39.124  1.00  0.00     0.198 A 
ATOM     76  C   UNL A   1      40.206  36.087  38.136  1.00  0.00     0.198 A 
ATOM     77  F   UNL A   1      41.091  35.702  35.989  1.00  0.00    -0.203 F 
ATOM     78  F   UNL A   1      37.919  34.108  40.130  1.00  0.00    -0.200 F 
ATOM     79  C   UNL A   1      39.400  35.690  39.193  1.00  0.00     0.200 A 
ATOM     80  F   UNL A   1      40.878  37.244  38.205  1.00  0.00    -0.200 F 
ATOM     81  F   UNL A   1      39.274  36.471  40.273  1.00  0.00    -0.200 F 
ENDBRANCH  47  71
BRANCH  59  82
ATOM     82  C   UNL A   1      43.675  28.610  35.277  1.00  0.00     0.064 A 
ATOM     83  C   UNL A   1      43.392  27.521  36.113  1.00  0.00     0.173 A 
ATOM     84  C   UNL A   1      45.018  28.978  35.107  1.00  0.00     0.173 A 
ATOM     85  F   UNL A   1      42.123  27.141  36.321  1.00  0.00    -0.203 F 
ATOM     86  C   UNL A   1      44.415  26.837  36.765  1.00  0.00     0.198 A 
ATOM     87  C   UNL A   1      46.040  28.274  35.736  1.00  0.00     0.198 A 
ATOM     88  F   UNL A   1      45.341  30.010  34.312  1.00  0.00    -0.203 F 
ATOM     89  F   UNL A   1      44.119  25.824  37.593  1.00  0.00    -0.200 F 
ATOM     90  C   UNL A   1      45.736  27.207  36.569  1.00  0.00     0.200 A 
ATOM     91  F   UNL A   1      47.317  28.623  35.533  1.00  0.00    -0.200 F 
ATOM     92  F   UNL A   1      46.720  26.539  37.187  1.00  0.00    -0.200 F 
ENDBRANCH  59  82
ENDBRANCH  33  34
ENDBRANCH  25  28
ENDBRANCH  23  24
ENDBRANCH  22  23
ENDBRANCH   1  22
TORSDOF 14
ENDMDL
MODEL 2
REMARK VINA RESULT:     -12.2      2.266      3.945
REMARK SMILES Cc1csc(C[N@H+]2CCC[C@@H](CC(=O)NCCCCNC(=O)c3ccc(-c4c5nc(c(-c6c(F)c(F)c(F)c(F)c6F)c6ccc([nH]6)c(-c6c(F)c(F)c(F)c(F)c6F)c6nc(c(-c7c(F)c(F)c(F)c(F)c7F)c7ccc4[nH]7)C=C6)C=C5)cc3)C2)n1
REMARK SMILES IDX 17 1 16 2 15 3 13 4 14 5 12 7 11 8 7 9 8 10 86 11 9 13 10 14
REMARK SMILES IDX 6 15 5 16 1 17 2 18 3 19 87 20 4 21 18 22 19 23 20 24 21 25
REMARK SMILES IDX 22 27 23 28 24 29 85 30 25 31 84 32 26 33 27 34 28 35 78 36
REMARK SMILES IDX 29 37 83 38 77 39 79 40 30 41 82 42 76 43 75 44 31 46 63 47
REMARK SMILES IDX 43 48 62 49 44 50 47 51 61 52 80 53 45 54 46 55 60 57 81 58
REMARK SMILES IDX 48 59 32 60 33 61 41 62 34 63 35 64 39 65 42 66 36 67 37 68
REMARK SMILES IDX 40 69 38 70 64 71 65 72 73 73 66 74 67 75 71 76 74 77 68 78
REMARK SMILES IDX 69 79 72 80 70 81 49 82 50 83 58 84 51 85 52 86 56 87 59 88
REMARK SMILES IDX 53 89 54 90 57 91 55 92
REMARK H PARENT 15 6 7 12 20 26 79 45 47 56
REMARK Flexibility Score: inf
ROOT
ATOM      1  C   UNL A   1      31.838  30.433  26.873  1.00  0.00     0.023 C 
ENDROOT
BRANCH   1   2
ATOM      2  C   UNL A   1      33.263  29.892  27.032  1.00  0.00     0.116 C 
BRANCH   2   3
ATOM      3  N   UNL A   1      33.872  29.481  25.780  1.00  0.00    -0.356 N 
ATOM      4  C   UNL A   1      33.731  28.321  25.081  1.00  0.00     0.220 C 
ATOM      5  O   UNL A   1      34.327  28.206  24.009  1.00  0.00    -0.275 OA
ATOM      6  H   UNL A   1      34.481  30.142  25.376  1.00  0.00     0.163 HD
BRANCH   4   7
ATOM      7  C   UNL A   1      32.861  27.207  25.619  1.00  0.00     0.109 C 
BRANCH   7   8
ATOM      8  C   UNL A   1      31.372  27.274  25.230  1.00  0.00     0.054 C 
ATOM      9  N   UNL A   1      29.784  28.346  23.539  1.00  0.00    -0.329 N 
ATOM     10  C   UNL A   1      29.016  27.091  23.500  1.00  0.00     0.262 C 
ATOM     11  C   UNL A   1      31.170  28.239  24.040  1.00  0.00     0.266 C 
ATOM     12  H   UNL A   1      29.312  28.921  24.237  1.00  0.00     0.348 HD
ATOM     13  C   UNL A   1      29.249  26.173  24.689  1.00  0.00     0.062 C 
ATOM     14  C   UNL A   1      30.744  25.937  24.828  1.00  0.00     0.016 C 
BRANCH   9  15
ATOM     15  C   UNL A   1      29.752  29.009  22.197  1.00  0.00     0.331 C 
BRANCH  15  16
ATOM     16  C   UNL A   1      29.065  30.368  22.176  1.00  0.00     0.147 A 
ATOM     17  C   UNL A   1      29.153  33.748  23.379  1.00  0.00     0.067 C 
ATOM     18  C   UNL A   1      28.804  32.528  22.607  1.00  0.00     0.049 A 
ATOM     19  C   UNL A   1      28.080  32.453  21.434  1.00  0.00     0.090 A 
ATOM     20  N   UNL A   1      29.282  31.318  23.064  1.00  0.00    -0.240 NA
ATOM     21  S   UNL A   1      28.028  30.829  20.877  1.00  0.00    -0.121 S 
ENDBRANCH  15  16
ENDBRANCH   9  15
ENDBRANCH   7   8
ENDBRANCH   4   7
ENDBRANCH   2   3
ENDBRANCH   1   2
BRANCH   1  22
ATOM     22  C   UNL A   1      31.735  31.955  26.764  1.00  0.00     0.023 C 
BRANCH  22  23
ATOM     23  C   UNL A   1      32.908  32.690  27.400  1.00  0.00     0.116 C 
BRANCH  23  24
ATOM     24  N   UNL A   1      32.602  34.098  27.626  1.00  0.00    -0.352 N 
ATOM     25  C   UNL A   1      33.072  34.947  28.595  1.00  0.00     0.251 C 
ATOM     26  H   UNL A   1      31.964  34.497  26.991  1.00  0.00     0.163 HD
ATOM     27  O   UNL A   1      32.529  36.028  28.796  1.00  0.00    -0.269 OA
BRANCH  25  28
ATOM     28  C   UNL A   1      34.236  34.539  29.402  1.00  0.00     0.039 A 
ATOM     29  C   UNL A   1      34.033  33.985  30.668  1.00  0.00     0.014 A 
ATOM     30  C   UNL A   1      35.525  34.674  28.881  1.00  0.00     0.014 A 
ATOM     31  C   UNL A   1      35.124  33.481  31.376  1.00  0.00     0.010 A 
ATOM     32  C   UNL A   1      36.595  34.094  29.547  1.00  0.00     0.010 A 
ATOM     33  C   UNL A   1      36.404  33.485  30.797  1.00  0.00    -0.014 A 
BRANCH  33  34
ATOM     34  C   UNL A   1      37.560  32.834  31.457  1.00  0.00     0.031 A 
ATOM     35  C   UNL A   1      38.237  31.668  30.799  1.00  0.00     0.074 A 
ATOM     36  C   UNL A   1      37.923  33.228  32.693  1.00  0.00     0.049 A 
ATOM     37  N   UNL A   1      39.172  30.881  31.266  1.00  0.00    -0.248 NA
ATOM     38  C   UNL A   1      37.778  31.315  29.444  1.00  0.00     0.031 C 
ATOM     39  C   UNL A   1      37.300  34.313  33.452  1.00  0.00     0.029 A 
ATOM     40  N   UNL A   1      38.890  32.745  33.539  1.00  0.00    -0.354 N 
ATOM     41  C   UNL A   1      39.397  29.935  30.277  1.00  0.00     0.074 A 
ATOM     42  C   UNL A   1      38.466  30.209  29.204  1.00  0.00     0.031 C 
ATOM     43  C   UNL A   1      37.909  34.425  34.643  1.00  0.00     0.029 A 
ATOM     44  C   UNL A   1      38.930  33.389  34.751  1.00  0.00     0.049 A 
ATOM     45  H   UNL A   1      39.496  32.007  33.300  1.00  0.00     0.167 HD
ATOM     46  C   UNL A   1      40.315  28.940  30.258  1.00  0.00     0.037 A 
ATOM     47  C   UNL A   1      39.694  33.156  35.836  1.00  0.00     0.037 A 
ATOM     48  C   UNL A   1      41.255  28.693  31.318  1.00  0.00     0.049 A 
ATOM     49  C   UNL A   1      40.694  32.033  35.795  1.00  0.00     0.074 A 
ATOM     50  C   UNL A   1      42.281  27.767  31.364  1.00  0.00     0.029 A 
ATOM     51  N   UNL A   1      41.277  29.377  32.526  1.00  0.00    -0.354 N 
ATOM     52  N   UNL A   1      40.958  31.196  34.820  1.00  0.00    -0.248 NA
ATOM     53  C   UNL A   1      41.500  31.818  37.004  1.00  0.00     0.031 C 
ATOM     54  C   UNL A   1      42.890  27.851  32.619  1.00  0.00     0.029 A 
ATOM     55  C   UNL A   1      42.278  28.865  33.338  1.00  0.00     0.049 A 
ATOM     56  H   UNL A   1      40.674  30.114  32.770  1.00  0.00     0.167 HD
ATOM     57  C   UNL A   1      41.969  30.369  35.289  1.00  0.00     0.074 A 
ATOM     58  C   UNL A   1      42.288  30.819  36.628  1.00  0.00     0.031 C 
ATOM     59  C   UNL A   1      42.576  29.328  34.669  1.00  0.00     0.037 A 
BRANCH  46  60
ATOM     60  C   UNL A   1      40.352  28.047  29.052  1.00  0.00     0.064 A 
ATOM     61  C   UNL A   1      39.620  26.851  28.999  1.00  0.00     0.173 A 
ATOM     62  C   UNL A   1      41.094  28.411  27.919  1.00  0.00     0.173 A 
ATOM     63  F   UNL A   1      38.903  26.450  30.060  1.00  0.00    -0.203 F 
ATOM     64  C   UNL A   1      39.653  26.040  27.868  1.00  0.00     0.198 A 
ATOM     65  C   UNL A   1      41.100  27.613  26.778  1.00  0.00     0.198 A 
ATOM     66  F   UNL A   1      41.809  29.546  27.915  1.00  0.00    -0.203 F 
ATOM     67  F   UNL A   1      38.984  24.878  27.859  1.00  0.00    -0.200 F 
ATOM     68  C   UNL A   1      40.385  26.425  26.756  1.00  0.00     0.200 A 
ATOM     69  F   UNL A   1      41.798  27.994  25.699  1.00  0.00    -0.200 F 
ATOM     70  F   UNL A   1      40.407  25.649  25.664  1.00  0.00    -0.200 F 
ENDBRANCH  46  60
BRANCH  47  71
ATOM     71  C   UNL A   1      39.545  34.003  37.048  1.00  0.00     0.064 A 
ATOM     72  C   UNL A   1      38.752  33.584  38.125  1.00  0.00     0.173 A 
ATOM     73  C   UNL A   1      40.187  35.246  37.157  1.00  0.00     0.173 A 
ATOM     74  F   UNL A   1      38.102  32.413  38.061  1.00  0.00    -0.203 F 
ATOM     75  C   UNL A   1      38.588  34.384  39.254  1.00  0.00     0.198 A 
ATOM     76  C   UNL A   1      40.047  36.032  38.299  1.00  0.00     0.198 A 
ATOM     77  F   UNL A   1      40.963  35.691  36.157  1.00  0.00    -0.203 F 
ATOM     78  F   UNL A   1      37.785  33.980  40.248  1.00  0.00    -0.200 F 
ATOM     79  C   UNL A   1      39.240  35.605  39.343  1.00  0.00     0.200 A 
ATOM     80  F   UNL A   1      40.692  37.203  38.388  1.00  0.00    -0.200 F 
ATOM     81  F   UNL A   1      39.086  36.372  40.430  1.00  0.00    -0.200 F 
ENDBRANCH  47  71
BRANCH  59  82
ATOM     82  C   UNL A   1      43.654  28.611  35.427  1.00  0.00     0.064 A 
ATOM     83  C   UNL A   1      45.007  28.942  35.265  1.00  0.00     0.173 A 
ATOM     84  C   UNL A   1      43.326  27.624  36.368  1.00  0.00     0.173 A 
ATOM     85  F   UNL A   1      45.372  29.868  34.365  1.00  0.00    -0.203 F 
ATOM     86  C   UNL A   1      45.994  28.298  36.006  1.00  0.00     0.198 A 
ATOM     87  C   UNL A   1      44.312  27.004  37.129  1.00  0.00     0.198 A 
ATOM     88  F   UNL A   1      42.045  27.276  36.565  1.00  0.00    -0.203 F 
ATOM     89  F   UNL A   1      47.284  28.601  35.806  1.00  0.00    -0.200 F 
ATOM     90  C   UNL A   1      45.645  27.338  36.944  1.00  0.00     0.200 A 
ATOM     91  F   UNL A   1      43.972  26.087  38.046  1.00  0.00    -0.200 F 
ATOM     92  F   UNL A   1      46.596  26.729  37.666  1.00  0.00    -0.200 F 
ENDBRANCH  59  82
ENDBRANCH  33  34
ENDBRANCH  25  28
ENDBRANCH  23  24
ENDBRANCH  22  23
ENDBRANCH   1  22
TORSDOF 14
ENDMDL
MODEL 3
REMARK VINA RESULT:     -12.1      0.257      1.989
REMARK SMILES Cc1csc(C[N@H+]2CCC[C@@H](CC(=O)NCCCCNC(=O)c3ccc(-c4c5nc(c(-c6c(F)c(F)c(F)c(F)c6F)c6ccc([nH]6)c(-c6c(F)c(F)c(F)c(F)c6F)c6nc(c(-c7c(F)c(F)c(F)c(F)c7F)c7ccc4[nH]7)C=C6)C=C5)cc3)C2)n1
REMARK SMILES IDX 17 1 16 2 15 3 13 4 14 5 12 7 11 8 7 9 8 10 86 11 9 13 10 14
REMARK SMILES IDX 6 15 5 16 1 17 2 18 3 19 87 20 4 21 18 22 19 23 20 24 21 25
REMARK SMILES IDX 22 27 23 28 24 29 85 30 25 31 84 32 26 33 27 34 28 35 78 36
REMARK SMILES IDX 29 37 83 38 77 39 79 40 30 41 82 42 76 43 75 44 31 46 63 47
REMARK SMILES IDX 43 48 62 49 44 50 47 51 61 52 80 53 45 54 46 55 60 57 81 58
REMARK SMILES IDX 48 59 32 60 33 61 41 62 34 63 35 64 39 65 42 66 36 67 37 68
REMARK SMILES IDX 40 69 38 70 64 71 65 72 73 73 66 74 67 75 71 76 74 77 68 78
REMARK SMILES IDX 69 79 72 80 70 81 49 82 50 83 58 84 51 85 52 86 56 87 59 88
REMARK SMILES IDX 53 89 54 90 57 91 55 92
REMARK H PARENT 15 6 7 12 20 26 79 45 47 56
REMARK Flexibility Score: inf
ROOT
ATOM      1  C   UNL A   1      31.881  30.374  26.635  1.00  0.00     0.023 C 
ENDROOT
BRANCH   1   2
ATOM      2  C   UNL A   1      33.275  30.004  26.117  1.00  0.00     0.116 C 
BRANCH   2   3
ATOM      3  N   UNL A   1      33.310  29.718  24.694  1.00  0.00    -0.356 N 
ATOM      4  C   UNL A   1      33.446  28.528  24.047  1.00  0.00     0.220 C 
ATOM      5  O   UNL A   1      33.411  28.522  22.815  1.00  0.00    -0.275 OA
ATOM      6  H   UNL A   1      33.223  30.505  24.108  1.00  0.00     0.163 HD
BRANCH   4   7
ATOM      7  C   UNL A   1      33.635  27.249  24.832  1.00  0.00     0.109 C 
BRANCH   7   8
ATOM      8  C   UNL A   1      32.414  26.312  24.889  1.00  0.00     0.054 C 
ATOM      9  N   UNL A   1      31.687  24.008  25.721  1.00  0.00    -0.329 N 
ATOM     10  C   UNL A   1      30.385  24.581  26.099  1.00  0.00     0.262 C 
ATOM     11  C   UNL A   1      32.794  24.973  25.560  1.00  0.00     0.266 C 
ATOM     12  H   UNL A   1      31.547  23.633  24.783  1.00  0.00     0.348 HD
ATOM     13  C   UNL A   1      30.055  25.898  25.417  1.00  0.00     0.062 C 
ATOM     14  C   UNL A   1      31.206  26.863  25.652  1.00  0.00     0.016 C 
BRANCH   9  15
ATOM     15  C   UNL A   1      32.065  22.919  26.677  1.00  0.00     0.331 C 
BRANCH  15  16
ATOM     16  C   UNL A   1      32.719  21.705  26.030  1.00  0.00     0.147 A 
ATOM     17  C   UNL A   1      32.402  19.153  23.527  1.00  0.00     0.067 C 
ATOM     18  C   UNL A   1      32.958  20.052  24.570  1.00  0.00     0.049 A 
ATOM     19  C   UNL A   1      34.286  20.255  24.887  1.00  0.00     0.090 A 
ATOM     20  N   UNL A   1      32.072  20.822  25.294  1.00  0.00    -0.240 NA
ATOM     21  S   UNL A   1      34.425  21.463  26.099  1.00  0.00    -0.121 S 
ENDBRANCH  15  16
ENDBRANCH   9  15
ENDBRANCH   7   8
ENDBRANCH   4   7
ENDBRANCH   2   3
ENDBRANCH   1   2
BRANCH   1  22
ATOM     22  C   UNL A   1      31.639  31.873  26.818  1.00  0.00     0.023 C 
BRANCH  22  23
ATOM     23  C   UNL A   1      32.815  32.605  27.450  1.00  0.00     0.116 C 
BRANCH  23  24
ATOM     24  N   UNL A   1      32.530  34.024  27.634  1.00  0.00    -0.352 N 
ATOM     25  C   UNL A   1      33.030  34.900  28.564  1.00  0.00     0.251 C 
ATOM     26  H   UNL A   1      31.884  34.409  26.999  1.00  0.00     0.163 HD
ATOM     27  O   UNL A   1      32.503  35.993  28.739  1.00  0.00    -0.269 OA
BRANCH  25  28
ATOM     28  C   UNL A   1      34.205  34.505  29.361  1.00  0.00     0.039 A 
ATOM     29  C   UNL A   1      34.022  33.999  30.650  1.00  0.00     0.014 A 
ATOM     30  C   UNL A   1      35.484  34.604  28.810  1.00  0.00     0.014 A 
ATOM     31  C   UNL A   1      35.121  33.506  31.353  1.00  0.00     0.010 A 
ATOM     32  C   UNL A   1      36.561  34.034  29.473  1.00  0.00     0.010 A 
ATOM     33  C   UNL A   1      36.388  33.473  30.748  1.00  0.00    -0.014 A 
BRANCH  33  34
ATOM     34  C   UNL A   1      37.550  32.830  31.407  1.00  0.00     0.031 A 
ATOM     35  C   UNL A   1      38.222  31.655  30.758  1.00  0.00     0.074 A 
ATOM     36  C   UNL A   1      37.923  33.240  32.634  1.00  0.00     0.049 A 
ATOM     37  N   UNL A   1      39.160  30.875  31.228  1.00  0.00    -0.248 NA
ATOM     38  C   UNL A   1      37.751  31.285  29.413  1.00  0.00     0.031 C 
ATOM     39  C   UNL A   1      37.306  34.335  33.385  1.00  0.00     0.029 A 
ATOM     40  N   UNL A   1      38.897  32.768  33.479  1.00  0.00    -0.354 N 
ATOM     41  C   UNL A   1      39.377  29.915  30.249  1.00  0.00     0.074 A 
ATOM     42  C   UNL A   1      38.438  30.176  29.181  1.00  0.00     0.031 C 
ATOM     43  C   UNL A   1      37.925  34.462  34.570  1.00  0.00     0.029 A 
ATOM     44  C   UNL A   1      38.947  33.428  34.682  1.00  0.00     0.049 A 
ATOM     45  H   UNL A   1      39.501  32.027  33.244  1.00  0.00     0.167 HD
ATOM     46  C   UNL A   1      40.295  28.920  30.236  1.00  0.00     0.037 A 
ATOM     47  C   UNL A   1      39.720  33.209  35.764  1.00  0.00     0.037 A 
ATOM     48  C   UNL A   1      41.243  28.687  31.292  1.00  0.00     0.049 A 
ATOM     49  C   UNL A   1      40.719  32.085  35.729  1.00  0.00     0.074 A 
ATOM     50  C   UNL A   1      42.270  27.761  31.341  1.00  0.00     0.029 A 
ATOM     51  N   UNL A   1      41.276  29.386  32.491  1.00  0.00    -0.354 N 
ATOM     52  N   UNL A   1      40.975  31.235  34.763  1.00  0.00    -0.248 NA
ATOM     53  C   UNL A   1      41.536  31.885  36.934  1.00  0.00     0.031 C 
ATOM     54  C   UNL A   1      42.889  27.862  32.590  1.00  0.00     0.029 A 
ATOM     55  C   UNL A   1      42.283  28.885  33.301  1.00  0.00     0.049 A 
ATOM     56  H   UNL A   1      40.674  30.127  32.730  1.00  0.00     0.167 HD
ATOM     57  C   UNL A   1      41.990  30.415  35.234  1.00  0.00     0.074 A 
ATOM     58  C   UNL A   1      42.320  30.882  36.565  1.00  0.00     0.031 C 
ATOM     59  C   UNL A   1      42.592  29.366  34.623  1.00  0.00     0.037 A 
BRANCH  46  60
ATOM     60  C   UNL A   1      40.322  28.012  29.042  1.00  0.00     0.064 A 
ATOM     61  C   UNL A   1      39.598  26.809  29.014  1.00  0.00     0.173 A 
ATOM     62  C   UNL A   1      41.046  28.366  27.894  1.00  0.00     0.173 A 
ATOM     63  F   UNL A   1      38.899  26.417  30.090  1.00  0.00    -0.203 F 
ATOM     64  C   UNL A   1      39.621  25.984  27.894  1.00  0.00     0.198 A 
ATOM     65  C   UNL A   1      41.042  27.553  26.763  1.00  0.00     0.198 A 
ATOM     66  F   UNL A   1      41.753  29.506  27.865  1.00  0.00    -0.203 F 
ATOM     67  F   UNL A   1      38.962  24.817  27.910  1.00  0.00    -0.200 F 
ATOM     68  C   UNL A   1      40.336  26.360  26.767  1.00  0.00     0.200 A 
ATOM     69  F   UNL A   1      41.723  27.925  25.670  1.00  0.00    -0.200 F 
ATOM     70  F   UNL A   1      40.349  25.569  25.685  1.00  0.00    -0.200 F 
ENDBRANCH  46  60
BRANCH  47  71
ATOM     71  C   UNL A   1      39.581  34.071  36.966  1.00  0.00     0.064 A 
ATOM     72  C   UNL A   1      40.240  35.306  37.045  1.00  0.00     0.173 A 
ATOM     73  C   UNL A   1      38.793  33.682  38.060  1.00  0.00     0.173 A 
ATOM     74  F   UNL A   1      41.021  35.713  36.034  1.00  0.00    -0.203 F 
ATOM     75  C   UNL A   1      40.134  36.108  38.180  1.00  0.00     0.198 A 
ATOM     76  C   UNL A   1      38.663  34.499  39.181  1.00  0.00     0.198 A 
ATOM     77  F   UNL A   1      38.136  32.513  38.033  1.00  0.00    -0.203 F 
ATOM     78  F   UNL A   1      40.813  37.261  38.248  1.00  0.00    -0.200 F 
ATOM     79  C   UNL A   1      39.341  35.707  39.245  1.00  0.00     0.200 A 
ATOM     80  F   UNL A   1      37.883  34.115  40.201  1.00  0.00    -0.200 F 
ATOM     81  F   UNL A   1      39.236  36.481  40.333  1.00  0.00    -0.200 F 
ENDBRANCH  47  71
BRANCH  59  82
ATOM     82  C   UNL A   1      43.677  28.658  35.382  1.00  0.00     0.064 A 
ATOM     83  C   UNL A   1      45.018  29.049  35.275  1.00  0.00     0.173 A 
ATOM     84  C   UNL A   1      43.362  27.617  36.269  1.00  0.00     0.173 A 
ATOM     85  F   UNL A   1      45.371  30.028  34.429  1.00  0.00    -0.203 F 
ATOM     86  C   UNL A   1      46.009  28.412  36.018  1.00  0.00     0.198 A 
ATOM     87  C   UNL A   1      44.350  27.003  37.032  1.00  0.00     0.198 A 
ATOM     88  F   UNL A   1      42.091  27.211  36.410  1.00  0.00    -0.203 F 
ATOM     89  F   UNL A   1      47.291  28.774  35.870  1.00  0.00    -0.200 F 
ATOM     90  C   UNL A   1      45.673  27.397  36.901  1.00  0.00     0.200 A 
ATOM     91  F   UNL A   1      44.022  26.033  37.896  1.00  0.00    -0.200 F 
ATOM     92  F   UNL A   1      46.626  26.795  37.625  1.00  0.00    -0.200 F 
ENDBRANCH  59  82
ENDBRANCH  33  34
ENDBRANCH  25  28
ENDBRANCH  23  24
ENDBRANCH  22  23
ENDBRANCH   1  22
TORSDOF 14
ENDMDL
