MODEL 1
REMARK VINA RESULT:     -13.7      0.000      0.000
REMARK SMILES CCC(=O)Nc1cc(NC(=O)/C=C/C(=O)NCCCCNC(=O)c2ccc(-c3c4nc(c(-c5c(F)c(F)c(F)c(F)c5F)c5ccc([nH]5)c(-c5c(F)c(F)c(F)c(F)c5F)c5nc(c(-c6c(F)c(F)c(F)c(F)c6F)c6ccc3[nH]6)C=C5)C=C4)cc2)ccc1C
REMARK SMILES IDX 17 1 16 2 14 3 15 4 13 6 12 7 10 8 9 9 11 11 8 12 6 13 7 14
REMARK SMILES IDX 89 15 88 16 90 17 87 18 5 19 3 20 4 21 2 23 1 24 18 25 19 26
REMARK SMILES IDX 20 27 21 28 22 29 23 31 24 32 25 33 86 34 26 35 85 36 27 37
REMARK SMILES IDX 28 38 29 39 79 40 30 41 84 42 78 43 80 44 31 45 83 46 77 47
REMARK SMILES IDX 76 48 32 50 64 51 44 52 63 53 45 54 48 55 62 56 81 57 46 58
REMARK SMILES IDX 47 59 61 61 82 62 49 63 33 64 34 65 42 66 35 67 36 68 40 69
REMARK SMILES IDX 43 70 37 71 38 72 41 73 39 74 65 75 66 76 74 77 67 78 68 79
REMARK SMILES IDX 72 80 75 81 69 82 70 83 73 84 71 85 50 86 51 87 59 88 52 89
REMARK SMILES IDX 53 90 57 91 60 92 54 93 55 94 58 95 56 96
REMARK H PARENT 16 5 9 10 5 22 21 30 80 49 48 60
REMARK Flexibility Score: inf
ROOT
ATOM      1  C   UNL A   1      32.307  29.419  24.872  1.00  0.00     0.116 C 
ENDROOT
BRANCH   1   2
ATOM      2  N   UNL A   1      31.213  29.294  23.925  1.00  0.00    -0.353 N 
ATOM      3  C   UNL A   1      31.159  28.558  22.785  1.00  0.00     0.244 C 
ATOM      4  O   UNL A   1      30.242  28.705  21.980  1.00  0.00    -0.270 OA
ATOM      5  H   UNL A   1      30.403  29.812  24.137  1.00  0.00     0.163 HD
BRANCH   3   6
ATOM      6  C   UNL A   1      32.197  27.546  22.523  1.00  0.00     0.077 C 
ATOM      7  C   UNL A   1      31.793  26.343  22.087  1.00  0.00     0.077 C 
BRANCH   7   8
ATOM      8  C   UNL A   1      32.745  25.410  21.463  1.00  0.00     0.248 C 
ATOM      9  N   UNL A   1      33.307  24.399  22.195  1.00  0.00    -0.322 N 
ATOM     10  H   UNL A   1      33.937  23.840  21.686  1.00  0.00     0.170 HD
ATOM     11  O   UNL A   1      33.025  25.555  20.275  1.00  0.00    -0.270 OA
BRANCH   9  12
ATOM     12  C   UNL A   1      33.152  24.010  23.542  1.00  0.00     0.043 A 
ATOM     13  C   UNL A   1      32.586  22.380  25.262  1.00  0.00     0.046 A 
ATOM     14  C   UNL A   1      32.459  22.877  23.961  1.00  0.00     0.052 A 
ATOM     15  C   UNL A   1      33.393  23.055  26.185  1.00  0.00    -0.027 A 
ATOM     16  C   UNL A   1      33.934  24.298  25.815  1.00  0.00     0.008 A 
ATOM     17  C   UNL A   1      33.858  22.455  27.482  1.00  0.00     0.046 C 
ATOM     18  C   UNL A   1      33.813  24.772  24.505  1.00  0.00     0.026 A 
BRANCH  13  19
ATOM     19  N   UNL A   1      32.103  21.083  25.480  1.00  0.00    -0.326 N 
ATOM     20  C   UNL A   1      32.668  19.882  25.159  1.00  0.00     0.224 C 
ATOM     21  O   UNL A   1      32.003  18.849  25.276  1.00  0.00    -0.275 OA
ATOM     22  H   UNL A   1      31.229  21.029  25.930  1.00  0.00     0.169 HD
BRANCH  20  23
ATOM     23  C   UNL A   1      34.143  19.808  24.807  1.00  0.00     0.097 C 
ATOM     24  C   UNL A   1      34.678  18.424  24.522  1.00  0.00     0.014 C 
ENDBRANCH  20  23
ENDBRANCH  13  19
ENDBRANCH   9  12
ENDBRANCH   7   8
ENDBRANCH   3   6
ENDBRANCH   1   2
BRANCH   1  25
ATOM     25  C   UNL A   1      31.916  30.244  26.103  1.00  0.00     0.023 C 
BRANCH  25  26
ATOM     26  C   UNL A   1      32.740  29.949  27.361  1.00  0.00     0.023 C 
BRANCH  26  27
ATOM     27  C   UNL A   1      34.204  30.351  27.256  1.00  0.00     0.116 C 
BRANCH  27  28
ATOM     28  N   UNL A   1      34.676  31.208  28.336  1.00  0.00    -0.352 N 
ATOM     29  C   UNL A   1      35.731  31.010  29.209  1.00  0.00     0.251 C 
ATOM     30  H   UNL A   1      34.176  32.046  28.461  1.00  0.00     0.163 HD
ATOM     31  O   UNL A   1      35.955  31.816  30.109  1.00  0.00    -0.269 OA
BRANCH  29  32
ATOM     32  C   UNL A   1      36.669  29.888  28.971  1.00  0.00     0.039 A 
ATOM     33  C   UNL A   1      36.958  29.031  30.039  1.00  0.00     0.014 A 
ATOM     34  C   UNL A   1      37.414  29.821  27.797  1.00  0.00     0.014 A 
ATOM     35  C   UNL A   1      38.144  28.302  30.026  1.00  0.00     0.010 A 
ATOM     36  C   UNL A   1      38.637  29.177  27.822  1.00  0.00     0.010 A 
ATOM     37  C   UNL A   1      39.038  28.484  28.970  1.00  0.00    -0.014 A 
BRANCH  37  38
ATOM     38  C   UNL A   1      40.453  28.125  29.054  1.00  0.00     0.031 A 
ATOM     39  C   UNL A   1      40.950  26.833  28.538  1.00  0.00     0.074 A 
ATOM     40  C   UNL A   1      41.333  29.039  29.520  1.00  0.00     0.049 A 
ATOM     41  N   UNL A   1      42.082  26.303  28.860  1.00  0.00    -0.248 NA
ATOM     42  C   UNL A   1      40.166  26.005  27.634  1.00  0.00     0.031 C 
ATOM     43  C   UNL A   1      42.790  29.000  29.425  1.00  0.00     0.029 A 
ATOM     44  N   UNL A   1      41.072  30.110  30.393  1.00  0.00    -0.354 N 
ATOM     45  C   UNL A   1      42.303  25.229  28.026  1.00  0.00     0.074 A 
ATOM     46  C   UNL A   1      41.048  25.049  27.331  1.00  0.00     0.031 C 
ATOM     47  C   UNL A   1      43.304  29.745  30.416  1.00  0.00     0.029 A 
ATOM     48  C   UNL A   1      42.196  30.168  31.253  1.00  0.00     0.049 A 
ATOM     49  H   UNL A   1      40.279  30.693  30.404  1.00  0.00     0.167 HD
ATOM     50  C   UNL A   1      43.561  24.699  27.941  1.00  0.00     0.037 A 
ATOM     51  C   UNL A   1      42.069  29.909  32.587  1.00  0.00     0.037 A 
ATOM     52  C   UNL A   1      44.457  25.284  28.942  1.00  0.00     0.049 A 
ATOM     53  C   UNL A   1      42.878  28.731  33.087  1.00  0.00     0.074 A 
ATOM     54  C   UNL A   1      45.447  26.254  28.913  1.00  0.00     0.029 A 
ATOM     55  N   UNL A   1      44.199  25.046  30.281  1.00  0.00    -0.354 N 
ATOM     56  N   UNL A   1      43.567  27.932  32.321  1.00  0.00    -0.248 NA
ATOM     57  C   UNL A   1      42.879  28.298  34.487  1.00  0.00     0.031 C 
ATOM     58  C   UNL A   1      45.756  26.617  30.256  1.00  0.00     0.029 A 
ATOM     59  C   UNL A   1      44.952  25.869  31.096  1.00  0.00     0.049 A 
ATOM     60  H   UNL A   1      43.559  24.375  30.611  1.00  0.00     0.167 HD
ATOM     61  C   UNL A   1      44.038  26.888  33.068  1.00  0.00     0.074 A 
ATOM     62  C   UNL A   1      43.588  27.159  34.419  1.00  0.00     0.031 C 
ATOM     63  C   UNL A   1      44.728  25.846  32.529  1.00  0.00     0.037 A 
BRANCH  50  64
ATOM     64  C   UNL A   1      44.055  23.827  26.800  1.00  0.00     0.064 A 
ATOM     65  C   UNL A   1      43.609  22.491  26.669  1.00  0.00     0.173 A 
ATOM     66  C   UNL A   1      45.014  24.208  25.843  1.00  0.00     0.173 A 
ATOM     67  F   UNL A   1      42.607  22.010  27.416  1.00  0.00    -0.203 F 
ATOM     68  C   UNL A   1      44.172  21.591  25.758  1.00  0.00     0.198 A 
ATOM     69  C   UNL A   1      45.618  23.296  24.970  1.00  0.00     0.198 A 
ATOM     70  F   UNL A   1      45.350  25.488  25.658  1.00  0.00    -0.203 F 
ATOM     71  F   UNL A   1      43.708  20.335  25.694  1.00  0.00    -0.200 F 
ATOM     72  C   UNL A   1      45.207  21.982  24.938  1.00  0.00     0.200 A 
ATOM     73  F   UNL A   1      46.597  23.710  24.153  1.00  0.00    -0.200 F 
ATOM     74  F   UNL A   1      45.779  21.110  24.098  1.00  0.00    -0.200 F 
ENDBRANCH  50  64
BRANCH  51  75
ATOM     75  C   UNL A   1      40.751  30.322  33.138  1.00  0.00     0.064 A 
ATOM     76  C   UNL A   1      40.476  31.698  33.267  1.00  0.00     0.173 A 
ATOM     77  C   UNL A   1      39.671  29.437  33.203  1.00  0.00     0.173 A 
ATOM     78  F   UNL A   1      41.478  32.591  33.202  1.00  0.00    -0.203 F 
ATOM     79  C   UNL A   1      39.170  32.171  33.341  1.00  0.00     0.198 A 
ATOM     80  C   UNL A   1      38.363  29.915  33.298  1.00  0.00     0.198 A 
ATOM     81  F   UNL A   1      39.861  28.118  33.056  1.00  0.00    -0.203 F 
ATOM     82  F   UNL A   1      38.936  33.491  33.338  1.00  0.00    -0.200 F 
ATOM     83  C   UNL A   1      38.112  31.279  33.332  1.00  0.00     0.200 A 
ATOM     84  F   UNL A   1      37.337  29.052  33.256  1.00  0.00    -0.200 F 
ATOM     85  F   UNL A   1      36.852  31.732  33.310  1.00  0.00    -0.200 F 
ENDBRANCH  51  75
BRANCH  63  86
ATOM     86  C   UNL A   1      45.253  24.718  33.354  1.00  0.00     0.064 A 
ATOM     87  C   UNL A   1      46.570  24.709  33.836  1.00  0.00     0.173 A 
ATOM     88  C   UNL A   1      44.485  23.561  33.580  1.00  0.00     0.173 A 
ATOM     89  F   UNL A   1      47.377  25.762  33.636  1.00  0.00    -0.203 F 
ATOM     90  C   UNL A   1      47.083  23.610  34.525  1.00  0.00     0.198 A 
ATOM     91  C   UNL A   1      45.013  22.449  34.231  1.00  0.00     0.198 A 
ATOM     92  F   UNL A   1      43.202  23.497  33.192  1.00  0.00    -0.203 F 
ATOM     93  F   UNL A   1      48.334  23.650  35.006  1.00  0.00    -0.200 F 
ATOM     94  C   UNL A   1      46.310  22.476  34.709  1.00  0.00     0.200 A 
ATOM     95  F   UNL A   1      44.258  21.353  34.394  1.00  0.00    -0.200 F 
ATOM     96  F   UNL A   1      46.812  21.412  35.350  1.00  0.00    -0.200 F 
ENDBRANCH  63  86
ENDBRANCH  37  38
ENDBRANCH  29  32
ENDBRANCH  27  28
ENDBRANCH  26  27
ENDBRANCH  25  26
ENDBRANCH   1  25
TORSDOF 15
ENDMDL
MODEL 2
REMARK VINA RESULT:     -13.7      3.994     10.393
REMARK SMILES CCC(=O)Nc1cc(NC(=O)/C=C/C(=O)NCCCCNC(=O)c2ccc(-c3c4nc(c(-c5c(F)c(F)c(F)c(F)c5F)c5ccc([nH]5)c(-c5c(F)c(F)c(F)c(F)c5F)c5nc(c(-c6c(F)c(F)c(F)c(F)c6F)c6ccc3[nH]6)C=C5)C=C4)cc2)ccc1C
REMARK SMILES IDX 17 1 16 2 14 3 15 4 13 6 12 7 10 8 9 9 11 11 8 12 6 13 7 14
REMARK SMILES IDX 89 15 88 16 90 17 87 18 5 19 3 20 4 21 2 23 1 24 18 25 19 26
REMARK SMILES IDX 20 27 21 28 22 29 23 31 24 32 25 33 86 34 26 35 85 36 27 37
REMARK SMILES IDX 28 38 29 39 79 40 30 41 84 42 78 43 80 44 31 45 83 46 77 47
REMARK SMILES IDX 76 48 32 50 64 51 44 52 63 53 45 54 48 55 62 56 81 57 46 58
REMARK SMILES IDX 47 59 61 61 82 62 49 63 33 64 34 65 42 66 35 67 36 68 40 69
REMARK SMILES IDX 43 70 37 71 38 72 41 73 39 74 65 75 66 76 74 77 67 78 68 79
REMARK SMILES IDX 72 80 75 81 69 82 70 83 73 84 71 85 50 86 51 87 59 88 52 89
REMARK SMILES IDX 53 90 57 91 60 92 54 93 55 94 58 95 56 96
REMARK H PARENT 16 5 9 10 5 22 21 30 80 49 48 60
REMARK Flexibility Score: inf
ROOT
ATOM      1  C   UNL A   1      36.170  22.450  25.229  1.00  0.00     0.116 C 
ENDROOT
BRANCH   1   2
ATOM      2  N   UNL A   1      35.808  23.386  24.179  1.00  0.00    -0.353 N 
ATOM      3  C   UNL A   1      34.574  23.822  23.820  1.00  0.00     0.244 C 
ATOM      4  O   UNL A   1      34.405  24.461  22.783  1.00  0.00    -0.270 OA
ATOM      5  H   UNL A   1      36.559  23.754  23.658  1.00  0.00     0.163 HD
BRANCH   3   6
ATOM      6  C   UNL A   1      33.423  23.552  24.700  1.00  0.00     0.077 C 
ATOM      7  C   UNL A   1      33.126  24.472  25.629  1.00  0.00     0.077 C 
BRANCH   7   8
ATOM      8  C   UNL A   1      31.813  24.473  26.295  1.00  0.00     0.248 C 
ATOM      9  N   UNL A   1      31.171  25.651  26.560  1.00  0.00    -0.322 N 
ATOM     10  H   UNL A   1      30.306  25.542  27.018  1.00  0.00     0.170 HD
ATOM     11  O   UNL A   1      31.306  23.398  26.608  1.00  0.00    -0.270 OA
BRANCH   9  12
ATOM     12  C   UNL A   1      31.517  26.995  26.302  1.00  0.00     0.043 A 
ATOM     13  C   UNL A   1      31.644  28.945  24.846  1.00  0.00     0.046 A 
ATOM     14  C   UNL A   1      31.590  27.560  25.031  1.00  0.00     0.052 A 
ATOM     15  C   UNL A   1      31.668  29.790  25.962  1.00  0.00    -0.027 A 
ATOM     16  C   UNL A   1      31.788  29.211  27.237  1.00  0.00     0.008 A 
ATOM     17  C   UNL A   1      31.400  31.269  25.894  1.00  0.00     0.046 C 
ATOM     18  C   UNL A   1      31.714  27.825  27.405  1.00  0.00     0.026 A 
BRANCH  13  19
ATOM     19  N   UNL A   1      31.402  29.407  23.547  1.00  0.00    -0.326 N 
ATOM     20  C   UNL A   1      30.247  29.380  22.818  1.00  0.00     0.224 C 
ATOM     21  O   UNL A   1      30.279  29.678  21.621  1.00  0.00    -0.275 OA
ATOM     22  H   UNL A   1      32.176  29.810  23.092  1.00  0.00     0.169 HD
BRANCH  20  23
ATOM     23  C   UNL A   1      28.919  29.133  23.511  1.00  0.00     0.097 C 
ATOM     24  C   UNL A   1      28.405  27.712  23.453  1.00  0.00     0.014 C 
ENDBRANCH  20  23
ENDBRANCH  13  19
ENDBRANCH   9  12
ENDBRANCH   7   8
ENDBRANCH   3   6
ENDBRANCH   1   2
BRANCH   1  25
ATOM     25  C   UNL A   1      37.243  21.455  24.774  1.00  0.00     0.023 C 
BRANCH  25  26
ATOM     26  C   UNL A   1      38.524  21.463  25.618  1.00  0.00     0.023 C 
BRANCH  26  27
ATOM     27  C   UNL A   1      38.919  22.838  26.137  1.00  0.00     0.116 C 
BRANCH  27  28
ATOM     28  N   UNL A   1      40.335  22.984  26.450  1.00  0.00    -0.352 N 
ATOM     29  C   UNL A   1      41.044  24.127  26.771  1.00  0.00     0.251 C 
ATOM     30  H   UNL A   1      40.861  22.152  26.430  1.00  0.00     0.163 HD
ATOM     31  O   UNL A   1      42.258  24.078  26.949  1.00  0.00    -0.269 OA
BRANCH  29  32
ATOM     32  C   UNL A   1      40.308  25.387  27.031  1.00  0.00     0.039 A 
ATOM     33  C   UNL A   1      40.708  26.538  26.341  1.00  0.00     0.014 A 
ATOM     34  C   UNL A   1      39.406  25.480  28.087  1.00  0.00     0.014 A 
ATOM     35  C   UNL A   1      40.410  27.790  26.874  1.00  0.00     0.010 A 
ATOM     36  C   UNL A   1      39.192  26.714  28.671  1.00  0.00     0.010 A 
ATOM     37  C   UNL A   1      39.764  27.862  28.109  1.00  0.00    -0.014 A 
BRANCH  37  38
ATOM     38  C   UNL A   1      39.784  29.058  28.950  1.00  0.00     0.031 A 
ATOM     39  C   UNL A   1      38.758  30.111  28.813  1.00  0.00     0.074 A 
ATOM     40  C   UNL A   1      40.702  29.148  29.938  1.00  0.00     0.049 A 
ATOM     41  N   UNL A   1      38.880  31.316  29.259  1.00  0.00    -0.248 NA
ATOM     42  C   UNL A   1      37.505  29.887  28.106  1.00  0.00     0.031 C 
ATOM     43  C   UNL A   1      40.723  30.095  31.050  1.00  0.00     0.029 A 
ATOM     44  N   UNL A   1      41.956  28.513  30.001  1.00  0.00    -0.354 N 
ATOM     45  C   UNL A   1      37.656  31.940  29.150  1.00  0.00     0.074 A 
ATOM     46  C   UNL A   1      36.857  31.027  28.363  1.00  0.00     0.031 C 
ATOM     47  C   UNL A   1      41.989  30.227  31.476  1.00  0.00     0.029 A 
ATOM     48  C   UNL A   1      42.830  29.476  30.562  1.00  0.00     0.049 A 
ATOM     49  H   UNL A   1      42.178  27.597  29.716  1.00  0.00     0.167 HD
ATOM     50  C   UNL A   1      37.435  33.098  29.842  1.00  0.00     0.037 A 
ATOM     51  C   UNL A   1      43.861  29.992  29.832  1.00  0.00     0.037 A 
ATOM     52  C   UNL A   1      38.664  33.593  30.465  1.00  0.00     0.049 A 
ATOM     53  C   UNL A   1      43.804  31.490  29.617  1.00  0.00     0.074 A 
ATOM     54  C   UNL A   1      39.186  33.560  31.749  1.00  0.00     0.029 A 
ATOM     55  N   UNL A   1      39.701  34.011  29.646  1.00  0.00    -0.354 N 
ATOM     56  N   UNL A   1      42.810  32.248  29.985  1.00  0.00    -0.248 NA
ATOM     57  C   UNL A   1      44.821  32.230  28.866  1.00  0.00     0.031 C 
ATOM     58  C   UNL A   1      40.559  33.934  31.684  1.00  0.00     0.029 A 
ATOM     59  C   UNL A   1      40.869  34.190  30.361  1.00  0.00     0.049 A 
ATOM     60  H   UNL A   1      39.615  34.160  28.678  1.00  0.00     0.167 HD
ATOM     61  C   UNL A   1      43.003  33.511  29.497  1.00  0.00     0.074 A 
ATOM     62  C   UNL A   1      44.276  33.456  28.805  1.00  0.00     0.031 C 
ATOM     63  C   UNL A   1      42.092  34.510  29.649  1.00  0.00     0.037 A 
BRANCH  50  64
ATOM     64  C   UNL A   1      36.061  33.663  30.161  1.00  0.00     0.064 A 
ATOM     65  C   UNL A   1      35.245  34.194  29.136  1.00  0.00     0.173 A 
ATOM     66  C   UNL A   1      35.512  33.780  31.451  1.00  0.00     0.173 A 
ATOM     67  F   UNL A   1      35.560  34.049  27.843  1.00  0.00    -0.203 F 
ATOM     68  C   UNL A   1      34.062  34.895  29.397  1.00  0.00     0.198 A 
ATOM     69  C   UNL A   1      34.361  34.528  31.721  1.00  0.00     0.198 A 
ATOM     70  F   UNL A   1      36.018  33.113  32.493  1.00  0.00    -0.203 F 
ATOM     71  F   UNL A   1      33.341  35.382  28.378  1.00  0.00    -0.200 F 
ATOM     72  C   UNL A   1      33.643  35.100  30.693  1.00  0.00     0.200 A 
ATOM     73  F   UNL A   1      33.950  34.681  32.988  1.00  0.00    -0.200 F 
ATOM     74  F   UNL A   1      32.537  35.810  30.948  1.00  0.00    -0.200 F 
ENDBRANCH  50  64
BRANCH  51  75
ATOM     75  C   UNL A   1      44.430  29.021  28.860  1.00  0.00     0.064 A 
ATOM     76  C   UNL A   1      45.228  27.967  29.349  1.00  0.00     0.173 A 
ATOM     77  C   UNL A   1      43.934  28.908  27.558  1.00  0.00     0.173 A 
ATOM     78  F   UNL A   1      45.721  28.022  30.597  1.00  0.00    -0.203 F 
ATOM     79  C   UNL A   1      45.422  26.804  28.609  1.00  0.00     0.198 A 
ATOM     80  C   UNL A   1      44.149  27.749  26.812  1.00  0.00     0.198 A 
ATOM     81  F   UNL A   1      43.144  29.862  27.045  1.00  0.00    -0.203 F 
ATOM     82  F   UNL A   1      46.081  25.771  29.152  1.00  0.00    -0.200 F 
ATOM     83  C   UNL A   1      44.861  26.687  27.350  1.00  0.00     0.200 A 
ATOM     84  F   UNL A   1      43.579  27.622  25.605  1.00  0.00    -0.200 F 
ATOM     85  F   UNL A   1      44.967  25.536  26.672  1.00  0.00    -0.200 F 
ENDBRANCH  51  75
BRANCH  63  86
ATOM     86  C   UNL A   1      42.318  35.891  29.128  1.00  0.00     0.064 A 
ATOM     87  C   UNL A   1      41.788  36.310  27.899  1.00  0.00     0.173 A 
ATOM     88  C   UNL A   1      43.173  36.790  29.792  1.00  0.00     0.173 A 
ATOM     89  F   UNL A   1      40.988  35.501  27.189  1.00  0.00    -0.203 F 
ATOM     90  C   UNL A   1      42.082  37.568  27.374  1.00  0.00     0.198 A 
ATOM     91  C   UNL A   1      43.497  38.029  29.246  1.00  0.00     0.198 A 
ATOM     92  F   UNL A   1      43.691  36.491  30.993  1.00  0.00    -0.203 F 
ATOM     93  F   UNL A   1      41.528  37.952  26.215  1.00  0.00    -0.200 F 
ATOM     94  C   UNL A   1      42.947  38.421  28.039  1.00  0.00     0.200 A 
ATOM     95  F   UNL A   1      44.345  38.841  29.894  1.00  0.00    -0.200 F 
ATOM     96  F   UNL A   1      43.247  39.619  27.521  1.00  0.00    -0.200 F 
ENDBRANCH  63  86
ENDBRANCH  37  38
ENDBRANCH  29  32
ENDBRANCH  27  28
ENDBRANCH  26  27
ENDBRANCH  25  26
ENDBRANCH   1  25
TORSDOF 15
ENDMDL
MODEL 3
REMARK VINA RESULT:     -13.5      3.886     10.240
REMARK SMILES CCC(=O)Nc1cc(NC(=O)/C=C/C(=O)NCCCCNC(=O)c2ccc(-c3c4nc(c(-c5c(F)c(F)c(F)c(F)c5F)c5ccc([nH]5)c(-c5c(F)c(F)c(F)c(F)c5F)c5nc(c(-c6c(F)c(F)c(F)c(F)c6F)c6ccc3[nH]6)C=C5)C=C4)cc2)ccc1C
REMARK SMILES IDX 17 1 16 2 14 3 15 4 13 6 12 7 10 8 9 9 11 11 8 12 6 13 7 14
REMARK SMILES IDX 89 15 88 16 90 17 87 18 5 19 3 20 4 21 2 23 1 24 18 25 19 26
REMARK SMILES IDX 20 27 21 28 22 29 23 31 24 32 25 33 86 34 26 35 85 36 27 37
REMARK SMILES IDX 28 38 29 39 79 40 30 41 84 42 78 43 80 44 31 45 83 46 77 47
REMARK SMILES IDX 76 48 32 50 64 51 44 52 63 53 45 54 48 55 62 56 81 57 46 58
REMARK SMILES IDX 47 59 61 61 82 62 49 63 33 64 34 65 42 66 35 67 36 68 40 69
REMARK SMILES IDX 43 70 37 71 38 72 41 73 39 74 65 75 66 76 74 77 67 78 68 79
REMARK SMILES IDX 72 80 75 81 69 82 70 83 73 84 71 85 50 86 51 87 59 88 52 89
REMARK SMILES IDX 53 90 57 91 60 92 54 93 55 94 58 95 56 96
REMARK H PARENT 16 5 9 10 5 22 21 30 80 49 48 60
REMARK Flexibility Score: inf
ROOT
ATOM      1  C   UNL A   1      36.333  20.512  24.965  1.00  0.00     0.116 C 
ENDROOT
BRANCH   1   2
ATOM      2  N   UNL A   1      35.313  20.760  25.969  1.00  0.00    -0.353 N 
ATOM      3  C   UNL A   1      33.993  21.025  25.790  1.00  0.00     0.244 C 
ATOM      4  O   UNL A   1      33.293  21.411  26.723  1.00  0.00    -0.270 OA
ATOM      5  H   UNL A   1      35.619  20.732  26.905  1.00  0.00     0.163 HD
BRANCH   3   6
ATOM      6  C   UNL A   1      33.385  20.821  24.464  1.00  0.00     0.077 C 
ATOM      7  C   UNL A   1      32.626  21.811  23.971  1.00  0.00     0.077 C 
BRANCH   7   8
ATOM      8  C   UNL A   1      32.284  21.858  22.540  1.00  0.00     0.248 C 
ATOM      9  N   UNL A   1      32.428  23.020  21.831  1.00  0.00    -0.322 N 
ATOM     10  H   UNL A   1      32.161  22.947  20.886  1.00  0.00     0.170 HD
ATOM     11  O   UNL A   1      31.867  20.838  21.996  1.00  0.00    -0.270 OA
BRANCH   9  12
ATOM     12  C   UNL A   1      32.886  24.302  22.201  1.00  0.00     0.043 A 
ATOM     13  C   UNL A   1      32.632  26.720  22.349  1.00  0.00     0.046 A 
ATOM     14  C   UNL A   1      32.344  25.498  21.735  1.00  0.00     0.052 A 
ATOM     15  C   UNL A   1      33.518  26.759  23.432  1.00  0.00    -0.027 A 
ATOM     16  C   UNL A   1      34.207  25.583  23.773  1.00  0.00     0.008 A 
ATOM     17  C   UNL A   1      33.649  27.934  24.361  1.00  0.00     0.046 C 
ATOM     18  C   UNL A   1      33.895  24.365  23.162  1.00  0.00     0.026 A 
BRANCH  13  19
ATOM     19  N   UNL A   1      31.804  27.796  22.005  1.00  0.00    -0.326 N 
ATOM     20  C   UNL A   1      30.602  28.170  22.537  1.00  0.00     0.224 C 
ATOM     21  O   UNL A   1      29.939  29.048  21.978  1.00  0.00    -0.275 OA
ATOM     22  H   UNL A   1      32.135  28.367  21.275  1.00  0.00     0.169 HD
BRANCH  20  23
ATOM     23  C   UNL A   1      30.162  27.616  23.880  1.00  0.00     0.097 C 
ATOM     24  C   UNL A   1      29.341  26.348  23.828  1.00  0.00     0.014 C 
ENDBRANCH  20  23
ENDBRANCH  13  19
ENDBRANCH   9  12
ENDBRANCH   7   8
ENDBRANCH   3   6
ENDBRANCH   1   2
BRANCH   1  25
ATOM     25  C   UNL A   1      37.341  21.661  24.867  1.00  0.00     0.023 C 
BRANCH  25  26
ATOM     26  C   UNL A   1      38.626  21.458  25.679  1.00  0.00     0.023 C 
BRANCH  26  27
ATOM     27  C   UNL A   1      39.067  22.683  26.466  1.00  0.00     0.116 C 
BRANCH  27  28
ATOM     28  N   UNL A   1      40.503  22.930  26.450  1.00  0.00    -0.352 N 
ATOM     29  C   UNL A   1      41.182  24.133  26.525  1.00  0.00     0.251 C 
ATOM     30  H   UNL A   1      41.070  22.129  26.377  1.00  0.00     0.163 HD
ATOM     31  O   UNL A   1      42.406  24.164  26.436  1.00  0.00    -0.269 OA
BRANCH  29  32
ATOM     32  C   UNL A   1      40.433  25.370  26.846  1.00  0.00     0.039 A 
ATOM     33  C   UNL A   1      40.777  26.545  26.168  1.00  0.00     0.014 A 
ATOM     34  C   UNL A   1      39.576  25.419  27.943  1.00  0.00     0.014 A 
ATOM     35  C   UNL A   1      40.476  27.777  26.743  1.00  0.00     0.010 A 
ATOM     36  C   UNL A   1      39.362  26.634  28.565  1.00  0.00     0.010 A 
ATOM     37  C   UNL A   1      39.885  27.807  28.006  1.00  0.00    -0.014 A 
BRANCH  37  38
ATOM     38  C   UNL A   1      39.917  28.983  28.873  1.00  0.00     0.031 A 
ATOM     39  C   UNL A   1      38.896  30.045  28.766  1.00  0.00     0.074 A 
ATOM     40  C   UNL A   1      40.841  29.045  29.858  1.00  0.00     0.049 A 
ATOM     41  N   UNL A   1      39.028  31.240  29.239  1.00  0.00    -0.248 NA
ATOM     42  C   UNL A   1      37.638  29.845  28.061  1.00  0.00     0.031 C 
ATOM     43  C   UNL A   1      40.874  29.967  30.991  1.00  0.00     0.029 A 
ATOM     44  N   UNL A   1      42.091  28.402  29.899  1.00  0.00    -0.354 N 
ATOM     45  C   UNL A   1      37.808  31.872  29.151  1.00  0.00     0.074 A 
ATOM     46  C   UNL A   1      36.999  30.982  28.348  1.00  0.00     0.031 C 
ATOM     47  C   UNL A   1      42.143  30.082  31.413  1.00  0.00     0.029 A 
ATOM     48  C   UNL A   1      42.973  29.347  30.477  1.00  0.00     0.049 A 
ATOM     49  H   UNL A   1      42.305  27.491  29.593  1.00  0.00     0.167 HD
ATOM     50  C   UNL A   1      37.597  33.016  29.869  1.00  0.00     0.037 A 
ATOM     51  C   UNL A   1      44.004  29.873  29.754  1.00  0.00     0.037 A 
ATOM     52  C   UNL A   1      38.833  33.489  30.497  1.00  0.00     0.049 A 
ATOM     53  C   UNL A   1      43.955  31.376  29.573  1.00  0.00     0.074 A 
ATOM     54  C   UNL A   1      39.362  33.425  31.777  1.00  0.00     0.029 A 
ATOM     55  N   UNL A   1      39.867  33.920  29.682  1.00  0.00    -0.354 N 
ATOM     56  N   UNL A   1      42.967  32.131  29.964  1.00  0.00    -0.248 NA
ATOM     57  C   UNL A   1      44.972  32.126  28.832  1.00  0.00     0.031 C 
ATOM     58  C   UNL A   1      40.737  33.792  31.712  1.00  0.00     0.029 A 
ATOM     59  C   UNL A   1      41.041  34.075  30.394  1.00  0.00     0.049 A 
ATOM     60  H   UNL A   1      39.777  34.091  28.717  1.00  0.00     0.167 HD
ATOM     61  C   UNL A   1      43.166  33.404  29.503  1.00  0.00     0.074 A 
ATOM     62  C   UNL A   1      44.435  33.357  28.803  1.00  0.00     0.031 C 
ATOM     63  C   UNL A   1      42.262  34.405  29.683  1.00  0.00     0.037 A 
BRANCH  50  64
ATOM     64  C   UNL A   1      36.229  33.582  30.210  1.00  0.00     0.064 A 
ATOM     65  C   UNL A   1      35.391  34.100  29.195  1.00  0.00     0.173 A 
ATOM     66  C   UNL A   1      35.704  33.712  31.509  1.00  0.00     0.173 A 
ATOM     67  F   UNL A   1      35.681  33.942  27.897  1.00  0.00    -0.203 F 
ATOM     68  C   UNL A   1      34.213  34.802  29.471  1.00  0.00     0.198 A 
ATOM     69  C   UNL A   1      34.557  34.461  31.792  1.00  0.00     0.198 A 
ATOM     70  F   UNL A   1      36.232  33.058  32.547  1.00  0.00    -0.203 F 
ATOM     71  F   UNL A   1      33.471  35.276  28.460  1.00  0.00    -0.200 F 
ATOM     72  C   UNL A   1      33.818  35.021  30.773  1.00  0.00     0.200 A 
ATOM     73  F   UNL A   1      34.170  34.627  33.065  1.00  0.00    -0.200 F 
ATOM     74  F   UNL A   1      32.715  35.731  31.041  1.00  0.00    -0.200 F 
ENDBRANCH  50  64
BRANCH  51  75
ATOM     75  C   UNL A   1      44.562  28.921  28.757  1.00  0.00     0.064 A 
ATOM     76  C   UNL A   1      45.391  27.876  29.212  1.00  0.00     0.173 A 
ATOM     77  C   UNL A   1      44.031  28.811  27.468  1.00  0.00     0.173 A 
ATOM     78  F   UNL A   1      45.918  27.928  30.447  1.00  0.00    -0.203 F 
ATOM     79  C   UNL A   1      45.584  26.724  28.457  1.00  0.00     0.198 A 
ATOM     80  C   UNL A   1      44.245  27.663  26.705  1.00  0.00     0.198 A 
ATOM     81  F   UNL A   1      43.211  29.756  26.986  1.00  0.00    -0.203 F 
ATOM     82  F   UNL A   1      46.275  25.697  28.970  1.00  0.00    -0.200 F 
ATOM     83  C   UNL A   1      44.990  26.608  27.212  1.00  0.00     0.200 A 
ATOM     84  F   UNL A   1      43.643  27.537  25.513  1.00  0.00    -0.200 F 
ATOM     85  F   UNL A   1      45.096  25.466  26.521  1.00  0.00    -0.200 F 
ENDBRANCH  51  75
BRANCH  63  86
ATOM     86  C   UNL A   1      42.493  35.795  29.191  1.00  0.00     0.064 A 
ATOM     87  C   UNL A   1      43.213  36.733  29.945  1.00  0.00     0.173 A 
ATOM     88  C   UNL A   1      41.897  36.257  28.004  1.00  0.00     0.173 A 
ATOM     89  F   UNL A   1      43.789  36.380  31.105  1.00  0.00    -0.203 F 
ATOM     90  C   UNL A   1      43.345  38.056  29.524  1.00  0.00     0.198 A 
ATOM     91  C   UNL A   1      41.994  37.588  27.606  1.00  0.00     0.198 A 
ATOM     92  F   UNL A   1      41.225  35.421  27.197  1.00  0.00    -0.203 F 
ATOM     93  F   UNL A   1      44.072  38.917  30.250  1.00  0.00    -0.200 F 
ATOM     94  C   UNL A   1      42.724  38.487  28.364  1.00  0.00     0.200 A 
ATOM     95  F   UNL A   1      41.379  37.996  26.487  1.00  0.00    -0.200 F 
ATOM     96  F   UNL A   1      42.831  39.763  27.972  1.00  0.00    -0.200 F 
ENDBRANCH  63  86
ENDBRANCH  37  38
ENDBRANCH  29  32
ENDBRANCH  27  28
ENDBRANCH  26  27
ENDBRANCH  25  26
ENDBRANCH   1  25
TORSDOF 15
ENDMDL
