MODEL 1
REMARK VINA RESULT:     -12.4      0.000      0.000
REMARK SMILES CC(C)(C)[C@@H]1CC(C(=O)NCCCCNC(=O)c2ccc(-c3c4nc(c(-c5c(F)c(F)c(F)c(F)c5F)c5ccc([nH]5)c(-c5c(F)c(F)c(F)c(F)c5F)c5nc(c(-c6c(F)c(F)c(F)c(F)c6F)c6ccc3[nH]6)C=C5)C=C4)cc2)C[C@@H](C(C)(C)C)C1
REMARK SMILES IDX 13 1 12 2 11 3 10 4 8 5 9 6 7 8 5 9 6 10 87 11 82 12 81 13
REMARK SMILES IDX 2 14 1 15 3 16 4 17 83 18 84 19 85 20 86 21 14 22 15 23
REMARK SMILES IDX 16 24 17 26 18 27 19 28 80 29 20 30 79 31 21 32 22 33 23 34
REMARK SMILES IDX 73 35 24 36 78 37 72 38 74 39 25 40 77 41 71 42 70 43 26 45
REMARK SMILES IDX 58 46 38 47 57 48 39 49 42 50 56 51 75 52 40 53 41 54 55 56
REMARK SMILES IDX 76 57 43 58 27 59 28 60 36 61 29 62 30 63 34 64 37 65 31 66
REMARK SMILES IDX 32 67 35 68 33 69 59 70 60 71 68 72 61 73 62 74 66 75 69 76
REMARK SMILES IDX 63 77 64 78 67 79 65 80 44 81 45 82 53 83 46 84 47 85 51 86
REMARK SMILES IDX 54 87 48 88 49 89 52 90 50 91
REMARK H PARENT 10 7 15 25 74 44 42 55
REMARK Flexibility Score: inf
ROOT
ATOM      1  C   UNL A   1      32.132  31.575  26.760  1.00  0.00     0.023 C 
ENDROOT
BRANCH   1   2
ATOM      2  C   UNL A   1      32.190  30.102  27.155  1.00  0.00     0.023 C 
BRANCH   2   3
ATOM      3  C   UNL A   1      33.554  29.434  26.970  1.00  0.00     0.116 C 
BRANCH   3   4
ATOM      4  N   UNL A   1      34.040  29.549  25.607  1.00  0.00    -0.356 N 
ATOM      5  C   UNL A   1      33.486  29.168  24.422  1.00  0.00     0.223 C 
ATOM      6  O   UNL A   1      34.143  29.375  23.398  1.00  0.00    -0.275 OA
ATOM      7  H   UNL A   1      34.924  29.975  25.525  1.00  0.00     0.163 HD
BRANCH   5   8
ATOM      8  C   UNL A   1      32.092  28.545  24.339  1.00  0.00     0.079 C 
ATOM      9  C   UNL A   1      29.672  29.080  23.495  1.00  0.00    -0.005 C 
ATOM     10  C   UNL A   1      31.013  29.597  24.050  1.00  0.00     0.017 C 
ATOM     11  C   UNL A   1      29.915  27.964  22.469  1.00  0.00     0.008 C 
ATOM     12  C   UNL A   1      30.747  26.779  22.993  1.00  0.00    -0.005 C 
ATOM     13  C   UNL A   1      32.123  27.300  23.439  1.00  0.00     0.017 C 
BRANCH   9  14
ATOM     14  C   UNL A   1      28.748  30.240  22.940  1.00  0.00    -0.035 C 
ATOM     15  C   UNL A   1      28.934  31.527  23.774  1.00  0.00     0.011 C 
ATOM     16  C   UNL A   1      27.263  29.832  23.050  1.00  0.00     0.011 C 
ATOM     17  C   UNL A   1      29.032  30.585  21.463  1.00  0.00     0.011 C 
ENDBRANCH   9  14
BRANCH  12  18
ATOM     18  C   UNL A   1      30.046  25.776  23.991  1.00  0.00    -0.035 C 
ATOM     19  C   UNL A   1      28.518  25.980  24.023  1.00  0.00     0.011 C 
ATOM     20  C   UNL A   1      30.300  24.332  23.485  1.00  0.00     0.011 C 
ATOM     21  C   UNL A   1      30.565  25.834  25.439  1.00  0.00     0.011 C 
ENDBRANCH  12  18
ENDBRANCH   5   8
ENDBRANCH   3   4
ENDBRANCH   2   3
ENDBRANCH   1   2
BRANCH   1  22
ATOM     22  C   UNL A   1      33.115  32.474  27.493  1.00  0.00     0.116 C 
BRANCH  22  23
ATOM     23  N   UNL A   1      32.614  33.823  27.708  1.00  0.00    -0.352 N 
ATOM     24  C   UNL A   1      33.088  34.767  28.589  1.00  0.00     0.251 C 
ATOM     25  H   UNL A   1      31.843  34.092  27.157  1.00  0.00     0.163 HD
ATOM     26  O   UNL A   1      32.519  35.843  28.738  1.00  0.00    -0.269 OA
BRANCH  24  27
ATOM     27  C   UNL A   1      34.281  34.436  29.390  1.00  0.00     0.039 A 
ATOM     28  C   UNL A   1      34.112  33.843  30.643  1.00  0.00     0.014 A 
ATOM     29  C   UNL A   1      35.554  34.617  28.845  1.00  0.00     0.014 A 
ATOM     30  C   UNL A   1      35.227  33.351  31.321  1.00  0.00     0.010 A 
ATOM     31  C   UNL A   1      36.653  34.068  29.491  1.00  0.00     0.010 A 
ATOM     32  C   UNL A   1      36.498  33.421  30.729  1.00  0.00    -0.014 A 
BRANCH  32  33
ATOM     33  C   UNL A   1      37.695  32.824  31.367  1.00  0.00     0.031 A 
ATOM     34  C   UNL A   1      38.391  31.677  30.697  1.00  0.00     0.074 A 
ATOM     35  C   UNL A   1      38.068  33.222  32.598  1.00  0.00     0.049 A 
ATOM     36  N   UNL A   1      39.322  30.885  31.162  1.00  0.00    -0.248 NA
ATOM     37  C   UNL A   1      37.947  31.352  29.333  1.00  0.00     0.031 C 
ATOM     38  C   UNL A   1      37.434  34.290  33.371  1.00  0.00     0.029 A 
ATOM     39  N   UNL A   1      39.051  32.746  33.428  1.00  0.00    -0.354 N 
ATOM     40  C   UNL A   1      39.540  29.942  30.169  1.00  0.00     0.074 A 
ATOM     41  C   UNL A   1      38.626  30.243  29.087  1.00  0.00     0.031 C 
ATOM     42  C   UNL A   1      38.042  34.387  34.565  1.00  0.00     0.029 A 
ATOM     43  C   UNL A   1      39.081  33.365  34.654  1.00  0.00     0.049 A 
ATOM     44  H   UNL A   1      39.675  32.030  33.170  1.00  0.00     0.167 HD
ATOM     45  C   UNL A   1      40.432  28.924  30.157  1.00  0.00     0.037 A 
ATOM     46  C   UNL A   1      39.847  33.120  35.733  1.00  0.00     0.037 A 
ATOM     47  C   UNL A   1      41.372  28.662  31.213  1.00  0.00     0.049 A 
ATOM     48  C   UNL A   1      40.868  32.018  35.678  1.00  0.00     0.074 A 
ATOM     49  C   UNL A   1      42.377  27.712  31.260  1.00  0.00     0.029 A 
ATOM     50  N   UNL A   1      41.422  29.359  32.412  1.00  0.00    -0.354 N 
ATOM     51  N   UNL A   1      41.111  31.168  34.710  1.00  0.00    -0.248 NA
ATOM     52  C   UNL A   1      41.722  31.843  36.860  1.00  0.00     0.031 C 
ATOM     53  C   UNL A   1      43.018  27.817  32.499  1.00  0.00     0.029 A 
ATOM     54  C   UNL A   1      42.434  28.854  33.211  1.00  0.00     0.049 A 
ATOM     55  H   UNL A   1      40.827  30.104  32.658  1.00  0.00     0.167 HD
ATOM     56  C   UNL A   1      42.158  30.374  35.154  1.00  0.00     0.074 A 
ATOM     57  C   UNL A   1      42.510  30.847  36.478  1.00  0.00     0.031 C 
ATOM     58  C   UNL A   1      42.774  29.346  34.520  1.00  0.00     0.037 A 
BRANCH  45  59
ATOM     59  C   UNL A   1      40.421  28.015  28.964  1.00  0.00     0.064 A 
ATOM     60  C   UNL A   1      39.658  26.837  28.940  1.00  0.00     0.173 A 
ATOM     61  C   UNL A   1      41.185  28.326  27.830  1.00  0.00     0.173 A 
ATOM     62  F   UNL A   1      38.923  26.488  30.007  1.00  0.00    -0.203 F 
ATOM     63  C   UNL A   1      39.690  25.986  27.840  1.00  0.00     0.198 A 
ATOM     64  C   UNL A   1      41.192  27.487  26.719  1.00  0.00     0.198 A 
ATOM     65  F   UNL A   1      41.929  29.441  27.801  1.00  0.00    -0.203 F 
ATOM     66  F   UNL A   1      38.999  24.837  27.863  1.00  0.00    -0.200 F 
ATOM     67  C   UNL A   1      40.453  26.314  26.729  1.00  0.00     0.200 A 
ATOM     68  F   UNL A   1      41.923  27.808  25.642  1.00  0.00    -0.200 F 
ATOM     69  F   UNL A   1      40.485  25.490  25.671  1.00  0.00    -0.200 F 
ENDBRANCH  45  59
BRANCH  46  70
ATOM     70  C   UNL A   1      39.683  33.955  36.949  1.00  0.00     0.064 A 
ATOM     71  C   UNL A   1      40.312  35.203  37.052  1.00  0.00     0.173 A 
ATOM     72  C   UNL A   1      38.871  33.541  38.014  1.00  0.00     0.173 A 
ATOM     73  F   UNL A   1      41.113  35.631  36.064  1.00  0.00    -0.203 F 
ATOM     74  C   UNL A   1      40.138  36.005  38.178  1.00  0.00     0.198 A 
ATOM     75  C   UNL A   1      38.682  34.353  39.131  1.00  0.00     0.198 A 
ATOM     76  F   UNL A   1      38.243  32.357  37.960  1.00  0.00    -0.203 F 
ATOM     77  F   UNL A   1      40.770  37.184  38.260  1.00  0.00    -0.200 F 
ATOM     78  C   UNL A   1      39.319  35.583  39.214  1.00  0.00     0.200 A 
ATOM     79  F   UNL A   1      37.879  33.948  40.125  1.00  0.00    -0.200 F 
ATOM     80  F   UNL A   1      39.143  36.360  40.290  1.00  0.00    -0.200 F 
ENDBRANCH  46  70
BRANCH  58  81
ATOM     81  C   UNL A   1      43.914  28.683  35.232  1.00  0.00     0.064 A 
ATOM     82  C   UNL A   1      45.236  29.119  35.063  1.00  0.00     0.173 A 
ATOM     83  C   UNL A   1      43.671  27.642  36.142  1.00  0.00     0.173 A 
ATOM     84  F   UNL A   1      45.517  30.100  34.194  1.00  0.00    -0.203 F 
ATOM     85  C   UNL A   1      46.277  28.527  35.773  1.00  0.00     0.198 A 
ATOM     86  C   UNL A   1      44.712  27.069  36.866  1.00  0.00     0.198 A 
ATOM     87  F   UNL A   1      42.422  27.196  36.339  1.00  0.00    -0.203 F 
ATOM     88  F   UNL A   1      47.537  28.938  35.578  1.00  0.00    -0.200 F 
ATOM     89  C   UNL A   1      46.013  27.509  36.679  1.00  0.00     0.200 A 
ATOM     90  F   UNL A   1      44.455  26.093  37.747  1.00  0.00    -0.200 F 
ATOM     91  F   UNL A   1      47.016  26.950  37.370  1.00  0.00    -0.200 F 
ENDBRANCH  58  81
ENDBRANCH  32  33
ENDBRANCH  24  27
ENDBRANCH  22  23
ENDBRANCH   1  22
TORSDOF 13
ENDMDL
MODEL 2
REMARK VINA RESULT:     -12.4      2.480      3.835
REMARK SMILES CC(C)(C)[C@@H]1CC(C(=O)NCCCCNC(=O)c2ccc(-c3c4nc(c(-c5c(F)c(F)c(F)c(F)c5F)c5ccc([nH]5)c(-c5c(F)c(F)c(F)c(F)c5F)c5nc(c(-c6c(F)c(F)c(F)c(F)c6F)c6ccc3[nH]6)C=C5)C=C4)cc2)C[C@@H](C(C)(C)C)C1
REMARK SMILES IDX 13 1 12 2 11 3 10 4 8 5 9 6 7 8 5 9 6 10 87 11 82 12 81 13
REMARK SMILES IDX 2 14 1 15 3 16 4 17 83 18 84 19 85 20 86 21 14 22 15 23
REMARK SMILES IDX 16 24 17 26 18 27 19 28 80 29 20 30 79 31 21 32 22 33 23 34
REMARK SMILES IDX 73 35 24 36 78 37 72 38 74 39 25 40 77 41 71 42 70 43 26 45
REMARK SMILES IDX 58 46 38 47 57 48 39 49 42 50 56 51 75 52 40 53 41 54 55 56
REMARK SMILES IDX 76 57 43 58 27 59 28 60 36 61 29 62 30 63 34 64 37 65 31 66
REMARK SMILES IDX 32 67 35 68 33 69 59 70 60 71 68 72 61 73 62 74 66 75 69 76
REMARK SMILES IDX 63 77 64 78 67 79 65 80 44 81 45 82 53 83 46 84 47 85 51 86
REMARK SMILES IDX 54 87 48 88 49 89 52 90 50 91
REMARK H PARENT 10 7 15 25 74 44 42 55
REMARK Flexibility Score: inf
ROOT
ATOM      1  C   UNL A   1      32.458  28.167  25.198  1.00  0.00     0.023 C 
ENDROOT
BRANCH   1   2
ATOM      2  C   UNL A   1      31.732  27.440  26.326  1.00  0.00     0.023 C 
BRANCH   2   3
ATOM      3  C   UNL A   1      30.553  26.571  25.884  1.00  0.00     0.116 C 
BRANCH   3   4
ATOM      4  N   UNL A   1      30.444  25.355  26.670  1.00  0.00    -0.356 N 
ATOM      5  C   UNL A   1      31.075  24.153  26.555  1.00  0.00     0.223 C 
ATOM      6  O   UNL A   1      30.768  23.273  27.365  1.00  0.00    -0.275 OA
ATOM      7  H   UNL A   1      29.802  25.408  27.414  1.00  0.00     0.163 HD
BRANCH   5   8
ATOM      8  C   UNL A   1      32.150  23.896  25.499  1.00  0.00     0.079 C 
ATOM      9  C   UNL A   1      33.018  24.828  23.210  1.00  0.00    -0.005 C 
ATOM     10  C   UNL A   1      31.840  24.618  24.180  1.00  0.00     0.017 C 
ATOM     11  C   UNL A   1      34.284  25.214  23.987  1.00  0.00     0.008 C 
ATOM     12  C   UNL A   1      34.693  24.216  25.087  1.00  0.00    -0.005 C 
ATOM     13  C   UNL A   1      33.546  24.104  26.105  1.00  0.00     0.017 C 
BRANCH   9  14
ATOM     14  C   UNL A   1      32.678  25.840  22.041  1.00  0.00    -0.035 C 
ATOM     15  C   UNL A   1      31.229  26.358  22.176  1.00  0.00     0.011 C 
ATOM     16  C   UNL A   1      32.785  25.126  20.676  1.00  0.00     0.011 C 
ATOM     17  C   UNL A   1      33.620  27.063  22.006  1.00  0.00     0.011 C 
ENDBRANCH   9  14
BRANCH  12  18
ATOM     18  C   UNL A   1      35.331  22.845  24.631  1.00  0.00    -0.035 C 
ATOM     19  C   UNL A   1      34.252  21.823  24.222  1.00  0.00     0.011 C 
ATOM     20  C   UNL A   1      36.202  23.110  23.375  1.00  0.00     0.011 C 
ATOM     21  C   UNL A   1      36.249  22.180  25.672  1.00  0.00     0.011 C 
ENDBRANCH  12  18
ENDBRANCH   5   8
ENDBRANCH   3   4
ENDBRANCH   2   3
ENDBRANCH   1   2
BRANCH   1  22
ATOM     22  C   UNL A   1      33.465  29.211  25.652  1.00  0.00     0.116 C 
BRANCH  22  23
ATOM     23  N   UNL A   1      32.847  30.405  26.210  1.00  0.00    -0.352 N 
ATOM     24  C   UNL A   1      33.364  31.256  27.159  1.00  0.00     0.251 C 
ATOM     25  H   UNL A   1      31.951  30.630  25.868  1.00  0.00     0.163 HD
ATOM     26  O   UNL A   1      32.703  32.183  27.612  1.00  0.00    -0.269 OA
BRANCH  24  27
ATOM     27  C   UNL A   1      34.729  30.999  27.655  1.00  0.00     0.039 A 
ATOM     28  C   UNL A   1      35.606  32.074  27.813  1.00  0.00     0.014 A 
ATOM     29  C   UNL A   1      35.088  29.711  28.059  1.00  0.00     0.014 A 
ATOM     30  C   UNL A   1      36.825  31.871  28.460  1.00  0.00     0.010 A 
ATOM     31  C   UNL A   1      36.272  29.526  28.761  1.00  0.00     0.010 A 
ATOM     32  C   UNL A   1      37.145  30.606  28.977  1.00  0.00    -0.014 A 
BRANCH  32  33
ATOM     33  C   UNL A   1      38.382  30.367  29.756  1.00  0.00     0.031 A 
ATOM     34  C   UNL A   1      39.432  29.448  29.207  1.00  0.00     0.074 A 
ATOM     35  C   UNL A   1      38.497  30.865  31.002  1.00  0.00     0.049 A 
ATOM     36  N   UNL A   1      40.487  28.946  29.796  1.00  0.00    -0.248 NA
ATOM     37  C   UNL A   1      39.244  28.998  27.819  1.00  0.00     0.031 C 
ATOM     38  C   UNL A   1      37.516  31.726  31.663  1.00  0.00     0.029 A 
ATOM     39  N   UNL A   1      39.476  30.686  31.946  1.00  0.00    -0.354 N 
ATOM     40  C   UNL A   1      41.060  28.089  28.869  1.00  0.00     0.074 A 
ATOM     41  C   UNL A   1      40.222  28.116  27.688  1.00  0.00     0.031 C 
ATOM     42  C   UNL A   1      37.942  31.999  32.908  1.00  0.00     0.029 A 
ATOM     43  C   UNL A   1      39.203  31.303  33.142  1.00  0.00     0.049 A 
ATOM     44  H   UNL A   1      40.295  30.166  31.782  1.00  0.00     0.167 HD
ATOM     45  C   UNL A   1      42.190  27.354  28.989  1.00  0.00     0.037 A 
ATOM     46  C   UNL A   1      39.884  31.289  34.303  1.00  0.00     0.037 A 
ATOM     47  C   UNL A   1      43.046  27.372  30.145  1.00  0.00     0.049 A 
ATOM     48  C   UNL A   1      41.166  30.509  34.397  1.00  0.00     0.074 A 
ATOM     49  C   UNL A   1      44.259  26.735  30.331  1.00  0.00     0.029 A 
ATOM     50  N   UNL A   1      42.774  28.070  31.313  1.00  0.00    -0.354 N 
ATOM     51  N   UNL A   1      41.735  29.748  33.493  1.00  0.00    -0.248 NA
ATOM     52  C   UNL A   1      41.902  30.588  35.666  1.00  0.00     0.031 C 
ATOM     53  C   UNL A   1      44.709  27.025  31.624  1.00  0.00     0.029 A 
ATOM     54  C   UNL A   1      43.792  27.870  32.230  1.00  0.00     0.049 A 
ATOM     55  H   UNL A   1      41.975  28.625  31.467  1.00  0.00     0.167 HD
ATOM     56  C   UNL A   1      42.904  29.277  34.073  1.00  0.00     0.074 A 
ATOM     57  C   UNL A   1      42.967  29.842  35.406  1.00  0.00     0.031 C 
ATOM     58  C   UNL A   1      43.841  28.450  33.547  1.00  0.00     0.037 A 
BRANCH  45  59
ATOM     59  C   UNL A   1      42.557  26.464  27.838  1.00  0.00     0.064 A 
ATOM     60  C   UNL A   1      42.031  25.169  27.710  1.00  0.00     0.173 A 
ATOM     61  C   UNL A   1      43.446  26.913  26.851  1.00  0.00     0.173 A 
ATOM     62  F   UNL A   1      41.189  24.688  28.637  1.00  0.00    -0.203 F 
ATOM     63  C   UNL A   1      42.413  24.343  26.657  1.00  0.00     0.198 A 
ATOM     64  C   UNL A   1      43.802  26.095  25.783  1.00  0.00     0.198 A 
ATOM     65  F   UNL A   1      43.974  28.144  26.925  1.00  0.00    -0.203 F 
ATOM     66  F   UNL A   1      41.943  23.090  26.588  1.00  0.00    -0.200 F 
ATOM     67  C   UNL A   1      43.294  24.808  25.692  1.00  0.00     0.200 A 
ATOM     68  F   UNL A   1      44.647  26.548  24.846  1.00  0.00    -0.200 F 
ATOM     69  F   UNL A   1      43.662  24.010  24.680  1.00  0.00    -0.200 F 
ENDBRANCH  45  59
BRANCH  46  70
ATOM     70  C   UNL A   1      39.369  32.060  35.462  1.00  0.00     0.064 A 
ATOM     71  C   UNL A   1      38.503  31.466  36.390  1.00  0.00     0.173 A 
ATOM     72  C   UNL A   1      39.755  33.389  35.684  1.00  0.00     0.173 A 
ATOM     73  F   UNL A   1      38.093  30.202  36.207  1.00  0.00    -0.203 F 
ATOM     74  C   UNL A   1      38.039  32.175  37.496  1.00  0.00     0.198 A 
ATOM     75  C   UNL A   1      39.306  34.091  36.801  1.00  0.00     0.198 A 
ATOM     76  F   UNL A   1      40.587  33.999  34.826  1.00  0.00    -0.203 F 
ATOM     77  F   UNL A   1      37.193  31.590  38.356  1.00  0.00    -0.200 F 
ATOM     78  C   UNL A   1      38.446  33.484  37.705  1.00  0.00     0.200 A 
ATOM     79  F   UNL A   1      39.712  35.351  37.007  1.00  0.00    -0.200 F 
ATOM     80  F   UNL A   1      38.009  34.161  38.775  1.00  0.00    -0.200 F 
ENDBRANCH  46  70
BRANCH  58  81
ATOM     81  C   UNL A   1      45.034  28.133  34.397  1.00  0.00     0.064 A 
ATOM     82  C   UNL A   1      46.167  28.958  34.404  1.00  0.00     0.173 A 
ATOM     83  C   UNL A   1      45.013  27.028  35.261  1.00  0.00     0.173 A 
ATOM     84  F   UNL A   1      46.237  30.017  33.585  1.00  0.00    -0.203 F 
ATOM     85  C   UNL A   1      47.246  28.679  35.241  1.00  0.00     0.198 A 
ATOM     86  C   UNL A   1      46.083  26.765  36.111  1.00  0.00     0.198 A 
ATOM     87  F   UNL A   1      43.947  26.214  35.291  1.00  0.00    -0.203 F 
ATOM     88  F   UNL A   1      48.332  29.462  35.214  1.00  0.00    -0.200 F 
ATOM     89  C   UNL A   1      47.199  27.589  36.098  1.00  0.00     0.200 A 
ATOM     90  F   UNL A   1      46.033  25.718  36.945  1.00  0.00    -0.200 F 
ATOM     91  F   UNL A   1      48.233  27.329  36.910  1.00  0.00    -0.200 F 
ENDBRANCH  58  81
ENDBRANCH  32  33
ENDBRANCH  24  27
ENDBRANCH  22  23
ENDBRANCH   1  22
TORSDOF 13
ENDMDL
MODEL 3
REMARK VINA RESULT:     -12.4      0.128      1.615
REMARK SMILES CC(C)(C)[C@@H]1CC(C(=O)NCCCCNC(=O)c2ccc(-c3c4nc(c(-c5c(F)c(F)c(F)c(F)c5F)c5ccc([nH]5)c(-c5c(F)c(F)c(F)c(F)c5F)c5nc(c(-c6c(F)c(F)c(F)c(F)c6F)c6ccc3[nH]6)C=C5)C=C4)cc2)C[C@@H](C(C)(C)C)C1
REMARK SMILES IDX 13 1 12 2 11 3 10 4 8 5 9 6 7 8 5 9 6 10 87 11 82 12 81 13
REMARK SMILES IDX 2 14 1 15 3 16 4 17 83 18 84 19 85 20 86 21 14 22 15 23
REMARK SMILES IDX 16 24 17 26 18 27 19 28 80 29 20 30 79 31 21 32 22 33 23 34
REMARK SMILES IDX 73 35 24 36 78 37 72 38 74 39 25 40 77 41 71 42 70 43 26 45
REMARK SMILES IDX 58 46 38 47 57 48 39 49 42 50 56 51 75 52 40 53 41 54 55 56
REMARK SMILES IDX 76 57 43 58 27 59 28 60 36 61 29 62 30 63 34 64 37 65 31 66
REMARK SMILES IDX 32 67 35 68 33 69 59 70 60 71 68 72 61 73 62 74 66 75 69 76
REMARK SMILES IDX 63 77 64 78 67 79 65 80 44 81 45 82 53 83 46 84 47 85 51 86
REMARK SMILES IDX 54 87 48 88 49 89 52 90 50 91
REMARK H PARENT 10 7 15 25 74 44 42 55
REMARK Flexibility Score: inf
ROOT
ATOM      1  C   UNL A   1      32.222  31.513  26.747  1.00  0.00     0.023 C 
ENDROOT
BRANCH   1   2
ATOM      2  C   UNL A   1      32.265  30.058  27.206  1.00  0.00     0.023 C 
BRANCH   2   3
ATOM      3  C   UNL A   1      33.595  29.342  26.966  1.00  0.00     0.116 C 
BRANCH   3   4
ATOM      4  N   UNL A   1      34.063  29.498  25.601  1.00  0.00    -0.356 N 
ATOM      5  C   UNL A   1      33.493  29.155  24.413  1.00  0.00     0.223 C 
ATOM      6  O   UNL A   1      34.137  29.392  23.386  1.00  0.00    -0.275 OA
ATOM      7  H   UNL A   1      34.947  29.926  25.521  1.00  0.00     0.163 HD
BRANCH   5   8
ATOM      8  C   UNL A   1      32.097  28.535  24.329  1.00  0.00     0.079 C 
ATOM      9  C   UNL A   1      29.676  29.082  23.494  1.00  0.00    -0.005 C 
ATOM     10  C   UNL A   1      31.020  29.592  24.049  1.00  0.00     0.017 C 
ATOM     11  C   UNL A   1      29.914  27.972  22.461  1.00  0.00     0.008 C 
ATOM     12  C   UNL A   1      30.745  26.781  22.975  1.00  0.00    -0.005 C 
ATOM     13  C   UNL A   1      32.123  27.296  23.421  1.00  0.00     0.017 C 
BRANCH   9  14
ATOM     14  C   UNL A   1      28.755  30.247  22.948  1.00  0.00    -0.035 C 
ATOM     15  C   UNL A   1      28.951  31.531  23.785  1.00  0.00     0.011 C 
ATOM     16  C   UNL A   1      27.268  29.846  23.066  1.00  0.00     0.011 C 
ATOM     17  C   UNL A   1      29.031  30.596  21.470  1.00  0.00     0.011 C 
ENDBRANCH   9  14
BRANCH  12  18
ATOM     18  C   UNL A   1      30.043  25.774  23.968  1.00  0.00    -0.035 C 
ATOM     19  C   UNL A   1      28.520  26.003  24.030  1.00  0.00     0.011 C 
ATOM     20  C   UNL A   1      30.263  24.335  23.435  1.00  0.00     0.011 C 
ATOM     21  C   UNL A   1      30.587  25.799  25.409  1.00  0.00     0.011 C 
ENDBRANCH  12  18
ENDBRANCH   5   8
ENDBRANCH   3   4
ENDBRANCH   2   3
ENDBRANCH   1   2
BRANCH   1  22
ATOM     22  C   UNL A   1      33.199  32.438  27.454  1.00  0.00     0.116 C 
BRANCH  22  23
ATOM     23  N   UNL A   1      32.671  33.776  27.674  1.00  0.00    -0.352 N 
ATOM     24  C   UNL A   1      33.111  34.717  28.575  1.00  0.00     0.251 C 
ATOM     25  H   UNL A   1      31.907  34.039  27.111  1.00  0.00     0.163 HD
ATOM     26  O   UNL A   1      32.521  35.781  28.725  1.00  0.00    -0.269 OA
BRANCH  24  27
ATOM     27  C   UNL A   1      34.293  34.396  29.396  1.00  0.00     0.039 A 
ATOM     28  C   UNL A   1      34.111  33.771  30.631  1.00  0.00     0.014 A 
ATOM     29  C   UNL A   1      35.573  34.620  28.885  1.00  0.00     0.014 A 
ATOM     30  C   UNL A   1      35.222  33.291  31.324  1.00  0.00     0.010 A 
ATOM     31  C   UNL A   1      36.671  34.083  29.544  1.00  0.00     0.010 A 
ATOM     32  C   UNL A   1      36.504  33.405  30.763  1.00  0.00    -0.014 A 
BRANCH  32  33
ATOM     33  C   UNL A   1      37.700  32.822  31.415  1.00  0.00     0.031 A 
ATOM     34  C   UNL A   1      38.400  31.664  30.769  1.00  0.00     0.074 A 
ATOM     35  C   UNL A   1      38.070  33.244  32.639  1.00  0.00     0.049 A 
ATOM     36  N   UNL A   1      39.331  30.882  31.251  1.00  0.00    -0.248 NA
ATOM     37  C   UNL A   1      37.959  31.312  29.410  1.00  0.00     0.031 C 
ATOM     38  C   UNL A   1      37.432  34.326  33.390  1.00  0.00     0.029 A 
ATOM     39  N   UNL A   1      39.052  32.786  33.480  1.00  0.00    -0.354 N 
ATOM     40  C   UNL A   1      39.553  29.921  30.276  1.00  0.00     0.074 A 
ATOM     41  C   UNL A   1      38.641  30.199  29.187  1.00  0.00     0.031 C 
ATOM     42  C   UNL A   1      38.038  34.447  34.583  1.00  0.00     0.029 A 
ATOM     43  C   UNL A   1      39.078  33.428  34.694  1.00  0.00     0.049 A 
ATOM     44  H   UNL A   1      39.678  32.066  33.238  1.00  0.00     0.167 HD
ATOM     45  C   UNL A   1      40.447  28.904  30.287  1.00  0.00     0.037 A 
ATOM     46  C   UNL A   1      39.841  33.205  35.780  1.00  0.00     0.037 A 
ATOM     47  C   UNL A   1      41.385  28.664  31.350  1.00  0.00     0.049 A 
ATOM     48  C   UNL A   1      40.865  32.104  35.748  1.00  0.00     0.074 A 
ATOM     49  C   UNL A   1      42.391  27.718  31.416  1.00  0.00     0.029 A 
ATOM     50  N   UNL A   1      41.431  29.385  32.535  1.00  0.00    -0.354 N 
ATOM     51  N   UNL A   1      41.112  31.236  34.797  1.00  0.00    -0.248 NA
ATOM     52  C   UNL A   1      41.717  31.954  36.935  1.00  0.00     0.031 C 
ATOM     53  C   UNL A   1      43.029  27.847  32.655  1.00  0.00     0.029 A 
ATOM     54  C   UNL A   1      42.442  28.897  33.345  1.00  0.00     0.049 A 
ATOM     55  H   UNL A   1      40.834  30.133  32.765  1.00  0.00     0.167 HD
ATOM     56  C   UNL A   1      42.159  30.453  35.258  1.00  0.00     0.074 A 
ATOM     57  C   UNL A   1      42.506  30.952  36.574  1.00  0.00     0.031 C 
ATOM     58  C   UNL A   1      42.778  29.414  34.646  1.00  0.00     0.037 A 
BRANCH  45  59
ATOM     59  C   UNL A   1      40.440  27.973  29.111  1.00  0.00     0.064 A 
ATOM     60  C   UNL A   1      41.205  28.228  27.962  1.00  0.00     0.173 A 
ATOM     61  C   UNL A   1      39.656  26.809  29.134  1.00  0.00     0.173 A 
ATOM     62  F   UNL A   1      41.958  29.336  27.886  1.00  0.00    -0.203 F 
ATOM     63  C   UNL A   1      41.155  27.373  26.866  1.00  0.00     0.198 A 
ATOM     64  C   UNL A   1      39.633  25.941  28.046  1.00  0.00     0.198 A 
ATOM     65  F   UNL A   1      38.909  26.518  30.209  1.00  0.00    -0.203 F 
ATOM     66  F   UNL A   1      41.849  27.668  25.757  1.00  0.00    -0.200 F 
ATOM     67  C   UNL A   1      40.373  26.228  26.910  1.00  0.00     0.200 A 
ATOM     68  F   UNL A   1      38.883  24.830  28.093  1.00  0.00    -0.200 F 
ATOM     69  F   UNL A   1      40.325  25.407  25.851  1.00  0.00    -0.200 F 
ENDBRANCH  45  59
BRANCH  46  70
ATOM     70  C   UNL A   1      39.673  34.063  36.979  1.00  0.00     0.064 A 
ATOM     71  C   UNL A   1      38.862  33.653  38.046  1.00  0.00     0.173 A 
ATOM     72  C   UNL A   1      40.344  35.289  37.099  1.00  0.00     0.173 A 
ATOM     73  F   UNL A   1      38.188  32.497  37.966  1.00  0.00    -0.203 F 
ATOM     74  C   UNL A   1      38.724  34.440  39.187  1.00  0.00     0.198 A 
ATOM     75  C   UNL A   1      40.221  36.065  38.250  1.00  0.00     0.198 A 
ATOM     76  F   UNL A   1      41.137  35.720  36.107  1.00  0.00    -0.203 F 
ATOM     77  F   UNL A   1      37.923  34.036  40.183  1.00  0.00    -0.200 F 
ATOM     78  C   UNL A   1      39.408  35.642  39.292  1.00  0.00     0.200 A 
ATOM     79  F   UNL A   1      40.893  37.219  38.353  1.00  0.00    -0.200 F 
ATOM     80  F   UNL A   1      39.284  36.392  40.395  1.00  0.00    -0.200 F 
ENDBRANCH  46  70
BRANCH  58  81
ATOM     81  C   UNL A   1      43.917  28.767  35.373  1.00  0.00     0.064 A 
ATOM     82  C   UNL A   1      45.239  29.200  35.197  1.00  0.00     0.173 A 
ATOM     83  C   UNL A   1      43.674  27.745  36.304  1.00  0.00     0.173 A 
ATOM     84  F   UNL A   1      45.521  30.163  34.308  1.00  0.00    -0.203 F 
ATOM     85  C   UNL A   1      46.280  28.624  35.921  1.00  0.00     0.198 A 
ATOM     86  C   UNL A   1      44.714  27.188  37.041  1.00  0.00     0.198 A 
ATOM     87  F   UNL A   1      42.425  27.302  36.509  1.00  0.00    -0.203 F 
ATOM     88  F   UNL A   1      47.540  29.032  35.719  1.00  0.00    -0.200 F 
ATOM     89  C   UNL A   1      46.016  27.625  36.847  1.00  0.00     0.200 A 
ATOM     90  F   UNL A   1      44.456  26.230  37.942  1.00  0.00    -0.200 F 
ATOM     91  F   UNL A   1      47.018  27.081  37.551  1.00  0.00    -0.200 F 
ENDBRANCH  58  81
ENDBRANCH  32  33
ENDBRANCH  24  27
ENDBRANCH  22  23
ENDBRANCH   1  22
TORSDOF 13
ENDMDL
