MODEL 1
REMARK VINA RESULT:     -14.1      0.000      0.000
REMARK SMILES COc1ccc2[nH]cc([C@H](C(=O)NCCCCNC(=O)c3ccc(-c4c5nc(c(-c6c(F)c(F)c(F)c(F)c6F)c6ccc([nH]6)c(-c6c(F)c(F)c(F)c(F)c6F)c6nc(c(-c7c(F)c(F)c(F)c(F)c7F)c7ccc4[nH]7)C=C6)C=C5)cc3)[NH+]3CC[NH+](Cc4cccc5ccccc45)CC3)c2c1
REMARK SMILES IDX 15 1 14 2 13 3 11 4 12 5 10 7 9 8 3 9 4 10 102 11 5 12
REMARK SMILES IDX 101 13 6 14 7 15 8 16 2 18 1 19 84 20 85 21 100 22 86 24
REMARK SMILES IDX 99 25 87 26 88 28 89 29 90 30 98 31 91 32 93 33 97 34 92 35
REMARK SMILES IDX 94 36 96 37 95 38 16 39 17 40 18 41 19 42 20 44 21 45 22 46
REMARK SMILES IDX 83 47 23 48 82 49 24 50 25 51 26 52 76 53 27 54 81 55 75 56
REMARK SMILES IDX 77 57 28 58 80 59 74 60 73 61 29 63 61 64 41 65 60 66 42 67
REMARK SMILES IDX 45 68 59 69 78 70 43 71 44 72 58 74 79 75 46 76 30 77 31 78
REMARK SMILES IDX 39 79 32 80 33 81 37 82 40 83 34 84 35 85 38 86 36 87 62 88
REMARK SMILES IDX 63 89 71 90 64 91 65 92 69 93 72 94 66 95 67 96 70 97 68 98
REMARK SMILES IDX 47 99 48 100 56 101 49 102 50 103 54 104 57 105 51 106
REMARK SMILES IDX 52 107 55 108 53 109
REMARK H PARENT 13 6 7 17 84 23 87 27 18 43 77 62 45 73
REMARK Flexibility Score: inf
ROOT
ATOM      1  C   UNL A   1      36.861  20.883  24.679  1.00  0.00     0.023 C 
ENDROOT
BRANCH   1   2
ATOM      2  C   UNL A   1      36.628  21.958  25.771  1.00  0.00     0.116 C 
BRANCH   2   3
ATOM      3  N   UNL A   1      35.367  21.920  26.519  1.00  0.00    -0.351 N 
ATOM      4  C   UNL A   1      34.032  21.776  26.182  1.00  0.00     0.283 C 
ATOM      5  O   UNL A   1      33.391  21.225  27.084  1.00  0.00    -0.268 OA
ATOM      6  H   UNL A   1      35.502  22.021  27.488  1.00  0.00     0.163 HD
BRANCH   4   7
ATOM      7  C   UNL A   1      33.394  22.225  24.808  1.00  0.00     0.308 C 
BRANCH   7   8
ATOM      8  C   UNL A   1      33.019  21.169  23.783  1.00  0.00     0.045 A 
ATOM      9  C   UNL A   1      33.753  17.445  24.392  1.00  0.00     0.119 A 
ATOM     10  C   UNL A   1      33.001  16.958  23.332  1.00  0.00     0.048 A 
ATOM     11  C   UNL A   1      33.802  18.811  24.672  1.00  0.00     0.057 A 
ATOM     12  C   UNL A   1      32.323  17.838  22.487  1.00  0.00     0.030 A 
ATOM     13  C   UNL A   1      33.178  19.735  23.807  1.00  0.00     0.013 A 
ATOM     14  C   UNL A   1      32.445  19.213  22.736  1.00  0.00     0.046 A 
ATOM     15  N   UNL A   1      31.879  20.272  22.071  1.00  0.00    -0.361 N 
ATOM     16  C   UNL A   1      32.228  21.446  22.672  1.00  0.00     0.094 A 
ATOM     17  H   UNL A   1      31.304  20.195  21.275  1.00  0.00     0.166 HD
BRANCH   9  18
ATOM     18  O   UNL A   1      34.426  16.605  25.241  1.00  0.00    -0.497 OA
ATOM     19  C   UNL A   1      33.749  15.353  25.350  1.00  0.00     0.278 C 
ENDBRANCH   9  18
ENDBRANCH   7   8
BRANCH   7  20
ATOM     20  N   UNL A   1      32.245  23.142  24.918  1.00  0.00    -0.312 N 
ATOM     21  C   UNL A   1      30.953  22.897  25.560  1.00  0.00     0.325 C 
ATOM     22  C   UNL A   1      32.596  24.517  24.977  1.00  0.00     0.325 C 
ATOM     23  H   UNL A   1      31.930  22.749  24.031  1.00  0.00     0.349 HD
ATOM     24  C   UNL A   1      30.453  23.913  26.672  1.00  0.00     0.324 C 
ATOM     25  C   UNL A   1      32.532  25.037  26.421  1.00  0.00     0.324 C 
ATOM     26  N   UNL A   1      31.160  25.190  26.878  1.00  0.00    -0.322 N 
ATOM     27  H   UNL A   1      31.096  25.336  27.886  1.00  0.00     0.348 HD
BRANCH  26  28
ATOM     28  C   UNL A   1      30.543  26.475  26.467  1.00  0.00     0.300 C 
BRANCH  28  29
ATOM     29  C   UNL A   1      31.459  27.696  26.337  1.00  0.00     0.014 A 
ATOM     30  C   UNL A   1      32.084  28.213  27.497  1.00  0.00     0.010 A 
ATOM     31  C   UNL A   1      31.894  28.141  25.064  1.00  0.00    -0.010 A 
ATOM     32  C   UNL A   1      33.226  29.010  27.396  1.00  0.00     0.001 A 
ATOM     33  C   UNL A   1      33.119  28.851  24.971  1.00  0.00    -0.018 A 
ATOM     34  C   UNL A   1      31.204  27.845  23.875  1.00  0.00     0.009 A 
ATOM     35  C   UNL A   1      33.773  29.273  26.141  1.00  0.00     0.009 A 
ATOM     36  C   UNL A   1      33.687  29.074  23.708  1.00  0.00     0.009 A 
ATOM     37  C   UNL A   1      31.748  28.137  22.628  1.00  0.00     0.001 A 
ATOM     38  C   UNL A   1      33.009  28.710  22.544  1.00  0.00     0.001 A 
ENDBRANCH  28  29
ENDBRANCH  26  28
ENDBRANCH   7  20
ENDBRANCH   4   7
ENDBRANCH   2   3
ENDBRANCH   1   2
BRANCH   1  39
ATOM     39  C   UNL A   1      37.862  19.772  24.995  1.00  0.00     0.023 C 
BRANCH  39  40
ATOM     40  C   UNL A   1      39.077  20.292  25.707  1.00  0.00     0.116 C 
BRANCH  40  41
ATOM     41  N   UNL A   1      40.089  19.253  25.866  1.00  0.00    -0.352 N 
ATOM     42  C   UNL A   1      41.428  19.391  26.131  1.00  0.00     0.251 C 
ATOM     43  H   UNL A   1      39.768  18.328  25.771  1.00  0.00     0.163 HD
ATOM     44  O   UNL A   1      42.173  18.425  26.099  1.00  0.00    -0.269 OA
BRANCH  42  45
ATOM     45  C   UNL A   1      41.951  20.741  26.416  1.00  0.00     0.039 A 
ATOM     46  C   UNL A   1      42.298  21.072  27.725  1.00  0.00     0.014 A 
ATOM     47  C   UNL A   1      42.129  21.656  25.379  1.00  0.00     0.014 A 
ATOM     48  C   UNL A   1      42.833  22.330  27.980  1.00  0.00     0.010 A 
ATOM     49  C   UNL A   1      42.821  22.826  25.603  1.00  0.00     0.010 A 
ATOM     50  C   UNL A   1      43.102  23.207  26.917  1.00  0.00    -0.014 A 
BRANCH  50  51
ATOM     51  C   UNL A   1      43.555  24.590  27.154  1.00  0.00     0.031 A 
ATOM     52  C   UNL A   1      42.567  25.594  27.685  1.00  0.00     0.074 A 
ATOM     53  C   UNL A   1      44.819  24.931  26.855  1.00  0.00     0.049 A 
ATOM     54  N   UNL A   1      42.730  26.868  27.928  1.00  0.00    -0.248 NA
ATOM     55  C   UNL A   1      41.192  25.117  27.930  1.00  0.00     0.031 C 
ATOM     56  C   UNL A   1      45.823  24.040  26.272  1.00  0.00     0.029 A 
ATOM     57  N   UNL A   1      45.476  26.121  27.009  1.00  0.00    -0.354 N 
ATOM     58  C   UNL A   1      41.482  27.335  28.325  1.00  0.00     0.074 A 
ATOM     59  C   UNL A   1      40.552  26.241  28.199  1.00  0.00     0.031 C 
ATOM     60  C   UNL A   1      46.986  24.700  26.165  1.00  0.00     0.029 A 
ATOM     61  C   UNL A   1      46.795  26.068  26.635  1.00  0.00     0.049 A 
ATOM     62  H   UNL A   1      45.045  26.935  27.354  1.00  0.00     0.167 HD
ATOM     63  C   UNL A   1      41.156  28.557  28.801  1.00  0.00     0.037 A 
ATOM     64  C   UNL A   1      47.737  27.026  26.683  1.00  0.00     0.037 A 
ATOM     65  C   UNL A   1      42.112  29.615  28.963  1.00  0.00     0.049 A 
ATOM     66  C   UNL A   1      47.356  28.370  27.244  1.00  0.00     0.074 A 
ATOM     67  C   UNL A   1      41.924  30.881  29.483  1.00  0.00     0.029 A 
ATOM     68  N   UNL A   1      43.452  29.517  28.606  1.00  0.00    -0.354 N 
ATOM     69  N   UNL A   1      46.191  28.785  27.684  1.00  0.00    -0.248 NA
ATOM     70  C   UNL A   1      48.423  29.371  27.331  1.00  0.00     0.031 C 
ATOM     71  C   UNL A   1      43.139  31.567  29.392  1.00  0.00     0.029 A 
ATOM     72  C   UNL A   1      44.100  30.707  28.882  1.00  0.00     0.049 A 
ATOM     73  H   UNL A   1      43.876  28.719  28.215  1.00  0.00     0.167 HD
ATOM     74  C   UNL A   1      46.393  30.081  28.136  1.00  0.00     0.074 A 
ATOM     75  C   UNL A   1      47.799  30.374  27.929  1.00  0.00     0.031 C 
ATOM     76  C   UNL A   1      45.505  30.953  28.676  1.00  0.00     0.037 A 
BRANCH  63  77
ATOM     77  C   UNL A   1      39.723  28.796  29.184  1.00  0.00     0.064 A 
ATOM     78  C   UNL A   1      38.782  29.295  28.268  1.00  0.00     0.173 A 
ATOM     79  C   UNL A   1      39.279  28.520  30.486  1.00  0.00     0.173 A 
ATOM     80  F   UNL A   1      39.153  29.597  27.014  1.00  0.00    -0.203 F 
ATOM     81  C   UNL A   1      37.465  29.544  28.650  1.00  0.00     0.198 A 
ATOM     82  C   UNL A   1      37.953  28.733  30.854  1.00  0.00     0.198 A 
ATOM     83  F   UNL A   1      40.132  28.045  31.406  1.00  0.00    -0.203 F 
ATOM     84  F   UNL A   1      36.606  30.084  27.775  1.00  0.00    -0.200 F 
ATOM     85  C   UNL A   1      37.050  29.254  29.940  1.00  0.00     0.200 A 
ATOM     86  F   UNL A   1      37.549  28.442  32.098  1.00  0.00    -0.200 F 
ATOM     87  F   UNL A   1      35.782  29.487  30.306  1.00  0.00    -0.200 F 
ENDBRANCH  63  77
BRANCH  64  88
ATOM     88  C   UNL A   1      49.124  26.728  26.243  1.00  0.00     0.064 A 
ATOM     89  C   UNL A   1      49.537  26.990  24.929  1.00  0.00     0.173 A 
ATOM     90  C   UNL A   1      50.069  26.183  27.125  1.00  0.00     0.173 A 
ATOM     91  F   UNL A   1      48.670  27.505  24.044  1.00  0.00    -0.203 F 
ATOM     92  C   UNL A   1      50.831  26.689  24.506  1.00  0.00     0.198 A 
ATOM     93  C   UNL A   1      51.371  25.912  26.710  1.00  0.00     0.198 A 
ATOM     94  F   UNL A   1      49.731  25.929  28.397  1.00  0.00    -0.203 F 
ATOM     95  F   UNL A   1      51.181  26.901  23.230  1.00  0.00    -0.200 F 
ATOM     96  C   UNL A   1      51.747  26.155  25.398  1.00  0.00     0.200 A 
ATOM     97  F   UNL A   1      52.260  25.416  27.581  1.00  0.00    -0.200 F 
ATOM     98  F   UNL A   1      52.992  25.867  24.991  1.00  0.00    -0.200 F 
ENDBRANCH  64  88
BRANCH  76  99
ATOM     99  C   UNL A   1      46.044  32.277  29.134  1.00  0.00     0.064 A 
ATOM    100  C   UNL A   1      46.070  33.398  28.293  1.00  0.00     0.173 A 
ATOM    101  C   UNL A   1      46.511  32.426  30.449  1.00  0.00     0.173 A 
ATOM    102  F   UNL A   1      45.643  33.303  27.025  1.00  0.00    -0.203 F 
ATOM    103  C   UNL A   1      46.584  34.612  28.740  1.00  0.00     0.198 A 
ATOM    104  C   UNL A   1      46.986  33.652  30.903  1.00  0.00     0.198 A 
ATOM    105  F   UNL A   1      46.493  31.387  31.297  1.00  0.00    -0.203 F 
ATOM    106  F   UNL A   1      46.662  35.652  27.899  1.00  0.00    -0.200 F 
ATOM    107  C   UNL A   1      47.035  34.739  30.045  1.00  0.00     0.200 A 
ATOM    108  F   UNL A   1      47.401  33.777  32.172  1.00  0.00    -0.200 F 
ATOM    109  F   UNL A   1      47.526  35.910  30.474  1.00  0.00    -0.200 F 
ENDBRANCH  76  99
ENDBRANCH  50  51
ENDBRANCH  42  45
ENDBRANCH  40  41
ENDBRANCH  39  40
ENDBRANCH   1  39
TORSDOF 16
ENDMDL
MODEL 2
REMARK VINA RESULT:     -14.0      0.792      6.884
REMARK SMILES COc1ccc2[nH]cc([C@H](C(=O)NCCCCNC(=O)c3ccc(-c4c5nc(c(-c6c(F)c(F)c(F)c(F)c6F)c6ccc([nH]6)c(-c6c(F)c(F)c(F)c(F)c6F)c6nc(c(-c7c(F)c(F)c(F)c(F)c7F)c7ccc4[nH]7)C=C6)C=C5)cc3)[NH+]3CC[NH+](Cc4cccc5ccccc45)CC3)c2c1
REMARK SMILES IDX 15 1 14 2 13 3 11 4 12 5 10 7 9 8 3 9 4 10 102 11 5 12
REMARK SMILES IDX 101 13 6 14 7 15 8 16 2 18 1 19 84 20 85 21 100 22 86 24
REMARK SMILES IDX 99 25 87 26 88 28 89 29 90 30 98 31 91 32 93 33 97 34 92 35
REMARK SMILES IDX 94 36 96 37 95 38 16 39 17 40 18 41 19 42 20 44 21 45 22 46
REMARK SMILES IDX 83 47 23 48 82 49 24 50 25 51 26 52 76 53 27 54 81 55 75 56
REMARK SMILES IDX 77 57 28 58 80 59 74 60 73 61 29 63 61 64 41 65 60 66 42 67
REMARK SMILES IDX 45 68 59 69 78 70 43 71 44 72 58 74 79 75 46 76 30 77 31 78
REMARK SMILES IDX 39 79 32 80 33 81 37 82 40 83 34 84 35 85 38 86 36 87 62 88
REMARK SMILES IDX 63 89 71 90 64 91 65 92 69 93 72 94 66 95 67 96 70 97 68 98
REMARK SMILES IDX 47 99 48 100 56 101 49 102 50 103 54 104 57 105 51 106
REMARK SMILES IDX 52 107 55 108 53 109
REMARK H PARENT 13 6 7 17 84 23 87 27 18 43 77 62 45 73
REMARK Flexibility Score: inf
ROOT
ATOM      1  C   UNL A   1      37.008  20.809  24.580  1.00  0.00     0.023 C 
ENDROOT
BRANCH   1   2
ATOM      2  C   UNL A   1      36.757  21.952  25.596  1.00  0.00     0.116 C 
BRANCH   2   3
ATOM      3  N   UNL A   1      35.537  21.900  26.407  1.00  0.00    -0.351 N 
ATOM      4  C   UNL A   1      34.190  21.722  26.140  1.00  0.00     0.283 C 
ATOM      5  O   UNL A   1      33.607  21.172  27.081  1.00  0.00    -0.268 OA
ATOM      6  H   UNL A   1      35.718  22.020  27.367  1.00  0.00     0.163 HD
BRANCH   4   7
ATOM      7  C   UNL A   1      33.475  22.135  24.794  1.00  0.00     0.308 C 
BRANCH   7   8
ATOM      8  C   UNL A   1      33.101  21.058  23.790  1.00  0.00     0.045 A 
ATOM      9  C   UNL A   1      34.132  17.393  24.320  1.00  0.00     0.119 A 
ATOM     10  C   UNL A   1      33.342  16.857  23.311  1.00  0.00     0.048 A 
ATOM     11  C   UNL A   1      34.107  18.757  24.605  1.00  0.00     0.057 A 
ATOM     12  C   UNL A   1      32.547  17.689  22.523  1.00  0.00     0.030 A 
ATOM     13  C   UNL A   1      33.360  19.638  23.793  1.00  0.00     0.013 A 
ATOM     14  C   UNL A   1      32.591  19.069  22.772  1.00  0.00     0.046 A 
ATOM     15  N   UNL A   1      31.907  20.087  22.156  1.00  0.00    -0.361 N 
ATOM     16  C   UNL A   1      32.216  21.281  22.739  1.00  0.00     0.094 A 
ATOM     17  H   UNL A   1      31.283  19.973  21.403  1.00  0.00     0.166 HD
BRANCH   9  18
ATOM     18  O   UNL A   1      34.919  16.600  25.113  1.00  0.00    -0.497 OA
ATOM     19  C   UNL A   1      34.306  15.326  25.318  1.00  0.00     0.278 C 
ENDBRANCH   9  18
ENDBRANCH   7   8
BRANCH   7  20
ATOM     20  N   UNL A   1      32.293  23.002  24.949  1.00  0.00    -0.312 N 
ATOM     21  C   UNL A   1      31.078  22.742  25.723  1.00  0.00     0.325 C 
ATOM     22  C   UNL A   1      32.574  24.393  24.887  1.00  0.00     0.325 C 
ATOM     23  H   UNL A   1      31.921  22.535  24.122  1.00  0.00     0.349 HD
ATOM     24  C   UNL A   1      30.626  23.808  26.808  1.00  0.00     0.324 C 
ATOM     25  C   UNL A   1      32.611  25.008  26.294  1.00  0.00     0.324 C 
ATOM     26  N   UNL A   1      31.280  25.128  26.865  1.00  0.00    -0.322 N 
ATOM     27  H   UNL A   1      31.297  25.340  27.863  1.00  0.00     0.348 HD
BRANCH  26  28
ATOM     28  C   UNL A   1      30.561  26.351  26.430  1.00  0.00     0.300 C 
BRANCH  28  29
ATOM     29  C   UNL A   1      31.371  27.644  26.299  1.00  0.00     0.014 A 
ATOM     30  C   UNL A   1      31.872  28.264  27.469  1.00  0.00     0.010 A 
ATOM     31  C   UNL A   1      31.846  28.074  25.035  1.00  0.00    -0.010 A 
ATOM     32  C   UNL A   1      32.943  29.157  27.400  1.00  0.00     0.001 A 
ATOM     33  C   UNL A   1      33.006  28.889  24.983  1.00  0.00    -0.018 A 
ATOM     34  C   UNL A   1      31.262  27.667  23.822  1.00  0.00     0.009 A 
ATOM     35  C   UNL A   1      33.544  29.417  26.169  1.00  0.00     0.009 A 
ATOM     36  C   UNL A   1      33.632  29.110  23.747  1.00  0.00     0.009 A 
ATOM     37  C   UNL A   1      31.858  27.956  22.597  1.00  0.00     0.001 A 
ATOM     38  C   UNL A   1      33.065  28.638  22.563  1.00  0.00     0.001 A 
ENDBRANCH  28  29
ENDBRANCH  26  28
ENDBRANCH   7  20
ENDBRANCH   4   7
ENDBRANCH   2   3
ENDBRANCH   1   2
BRANCH   1  39
ATOM     39  C   UNL A   1      37.929  19.671  25.022  1.00  0.00     0.023 C 
BRANCH  39  40
ATOM     40  C   UNL A   1      39.079  20.164  25.850  1.00  0.00     0.116 C 
BRANCH  40  41
ATOM     41  N   UNL A   1      40.190  19.218  25.841  1.00  0.00    -0.352 N 
ATOM     42  C   UNL A   1      41.522  19.453  26.070  1.00  0.00     0.251 C 
ATOM     43  H   UNL A   1      39.951  18.284  25.644  1.00  0.00     0.163 HD
ATOM     44  O   UNL A   1      42.350  18.576  25.889  1.00  0.00    -0.269 OA
BRANCH  42  45
ATOM     45  C   UNL A   1      41.931  20.804  26.500  1.00  0.00     0.039 A 
ATOM     46  C   UNL A   1      42.090  21.064  27.860  1.00  0.00     0.014 A 
ATOM     47  C   UNL A   1      42.191  21.792  25.551  1.00  0.00     0.014 A 
ATOM     48  C   UNL A   1      42.520  22.325  28.257  1.00  0.00     0.010 A 
ATOM     49  C   UNL A   1      42.785  22.975  25.933  1.00  0.00     0.010 A 
ATOM     50  C   UNL A   1      42.876  23.282  27.292  1.00  0.00    -0.014 A 
BRANCH  50  51
ATOM     51  C   UNL A   1      43.220  24.665  27.667  1.00  0.00     0.031 A 
ATOM     52  C   UNL A   1      44.667  25.082  27.650  1.00  0.00     0.074 A 
ATOM     53  C   UNL A   1      42.246  25.507  28.051  1.00  0.00     0.049 A 
ATOM     54  N   UNL A   1      45.203  26.227  27.980  1.00  0.00    -0.248 NA
ATOM     55  C   UNL A   1      45.654  24.057  27.258  1.00  0.00     0.031 C 
ATOM     56  C   UNL A   1      40.826  25.167  28.163  1.00  0.00     0.029 A 
ATOM     57  N   UNL A   1      42.304  26.824  28.412  1.00  0.00    -0.354 N 
ATOM     58  C   UNL A   1      46.575  26.045  27.857  1.00  0.00     0.074 A 
ATOM     59  C   UNL A   1      46.800  24.661  27.521  1.00  0.00     0.031 C 
ATOM     60  C   UNL A   1      40.140  26.264  28.516  1.00  0.00     0.029 A 
ATOM     61  C   UNL A   1      41.076  27.369  28.691  1.00  0.00     0.049 A 
ATOM     62  H   UNL A   1      43.146  27.333  28.465  1.00  0.00     0.167 HD
ATOM     63  C   UNL A   1      47.557  26.967  27.968  1.00  0.00     0.037 A 
ATOM     64  C   UNL A   1      40.757  28.627  29.039  1.00  0.00     0.037 A 
ATOM     65  C   UNL A   1      47.303  28.351  28.256  1.00  0.00     0.049 A 
ATOM     66  C   UNL A   1      41.865  29.642  29.127  1.00  0.00     0.074 A 
ATOM     67  C   UNL A   1      48.201  29.396  28.342  1.00  0.00     0.029 A 
ATOM     68  N   UNL A   1      46.041  28.877  28.500  1.00  0.00    -0.354 N 
ATOM     69  N   UNL A   1      43.154  29.482  28.942  1.00  0.00    -0.248 NA
ATOM     70  C   UNL A   1      41.472  31.016  29.455  1.00  0.00     0.031 C 
ATOM     71  C   UNL A   1      47.487  30.548  28.690  1.00  0.00     0.029 A 
ATOM     72  C   UNL A   1      46.137  30.234  28.751  1.00  0.00     0.049 A 
ATOM     73  H   UNL A   1      45.202  28.361  28.495  1.00  0.00     0.167 HD
ATOM     74  C   UNL A   1      43.722  30.739  29.092  1.00  0.00     0.074 A 
ATOM     75  C   UNL A   1      42.630  31.653  29.368  1.00  0.00     0.031 C 
ATOM     76  C   UNL A   1      45.024  31.112  29.006  1.00  0.00     0.037 A 
BRANCH  63  77
ATOM     77  C   UNL A   1      48.973  26.506  27.764  1.00  0.00     0.064 A 
ATOM     78  C   UNL A   1      49.825  26.223  28.845  1.00  0.00     0.173 A 
ATOM     79  C   UNL A   1      49.488  26.342  26.470  1.00  0.00     0.173 A 
ATOM     80  F   UNL A   1      49.394  26.382  30.106  1.00  0.00    -0.203 F 
ATOM     81  C   UNL A   1      51.146  25.830  28.638  1.00  0.00     0.198 A 
ATOM     82  C   UNL A   1      50.797  25.912  26.266  1.00  0.00     0.198 A 
ATOM     83  F   UNL A   1      48.723  26.600  25.399  1.00  0.00    -0.203 F 
ATOM     84  F   UNL A   1      51.957  25.632  29.686  1.00  0.00    -0.200 F 
ATOM     85  C   UNL A   1      51.627  25.666  27.348  1.00  0.00     0.200 A 
ATOM     86  F   UNL A   1      51.258  25.742  25.019  1.00  0.00    -0.200 F 
ATOM     87  F   UNL A   1      52.895  25.283  27.149  1.00  0.00    -0.200 F 
ENDBRANCH  63  77
BRANCH  64  88
ATOM     88  C   UNL A   1      39.337  28.998  29.269  1.00  0.00     0.064 A 
ATOM     89  C   UNL A   1      38.530  29.455  28.218  1.00  0.00     0.173 A 
ATOM     90  C   UNL A   1      38.753  28.898  30.541  1.00  0.00     0.173 A 
ATOM     91  F   UNL A   1      39.043  29.576  26.984  1.00  0.00    -0.203 F 
ATOM     92  C   UNL A   1      37.205  29.828  28.435  1.00  0.00     0.198 A 
ATOM     93  C   UNL A   1      37.419  29.240  30.751  1.00  0.00     0.198 A 
ATOM     94  F   UNL A   1      39.476  28.451  31.578  1.00  0.00    -0.203 F 
ATOM     95  F   UNL A   1      36.474  30.310  27.422  1.00  0.00    -0.200 F 
ATOM     96  C   UNL A   1      36.649  29.715  29.700  1.00  0.00     0.200 A 
ATOM     97  F   UNL A   1      36.880  29.109  31.971  1.00  0.00    -0.200 F 
ATOM     98  F   UNL A   1      35.374  30.071  29.908  1.00  0.00    -0.200 F 
ENDBRANCH  64  88
BRANCH  76  99
ATOM     99  C   UNL A   1      45.324  32.575  29.154  1.00  0.00     0.064 A 
ATOM    100  C   UNL A   1      45.310  33.450  28.059  1.00  0.00     0.173 A 
ATOM    101  C   UNL A   1      45.599  33.109  30.423  1.00  0.00     0.173 A 
ATOM    102  F   UNL A   1      45.062  32.985  26.825  1.00  0.00    -0.203 F 
ATOM    103  C   UNL A   1      45.603  34.801  28.223  1.00  0.00     0.198 A 
ATOM    104  C   UNL A   1      45.850  34.466  30.587  1.00  0.00     0.198 A 
ATOM    105  F   UNL A   1      45.610  32.315  31.504  1.00  0.00    -0.203 F 
ATOM    106  F   UNL A   1      45.650  35.607  27.153  1.00  0.00    -0.200 F 
ATOM    107  C   UNL A   1      45.865  35.308  29.487  1.00  0.00     0.200 A 
ATOM    108  F   UNL A   1      46.083  34.958  31.813  1.00  0.00    -0.200 F 
ATOM    109  F   UNL A   1      46.142  36.610  29.642  1.00  0.00    -0.200 F 
ENDBRANCH  76  99
ENDBRANCH  50  51
ENDBRANCH  42  45
ENDBRANCH  40  41
ENDBRANCH  39  40
ENDBRANCH   1  39
TORSDOF 16
ENDMDL
MODEL 3
REMARK VINA RESULT:     -13.8      2.825      7.896
REMARK SMILES COc1ccc2[nH]cc([C@H](C(=O)NCCCCNC(=O)c3ccc(-c4c5nc(c(-c6c(F)c(F)c(F)c(F)c6F)c6ccc([nH]6)c(-c6c(F)c(F)c(F)c(F)c6F)c6nc(c(-c7c(F)c(F)c(F)c(F)c7F)c7ccc4[nH]7)C=C6)C=C5)cc3)[NH+]3CC[NH+](Cc4cccc5ccccc45)CC3)c2c1
REMARK SMILES IDX 15 1 14 2 13 3 11 4 12 5 10 7 9 8 3 9 4 10 102 11 5 12
REMARK SMILES IDX 101 13 6 14 7 15 8 16 2 18 1 19 84 20 85 21 100 22 86 24
REMARK SMILES IDX 99 25 87 26 88 28 89 29 90 30 98 31 91 32 93 33 97 34 92 35
REMARK SMILES IDX 94 36 96 37 95 38 16 39 17 40 18 41 19 42 20 44 21 45 22 46
REMARK SMILES IDX 83 47 23 48 82 49 24 50 25 51 26 52 76 53 27 54 81 55 75 56
REMARK SMILES IDX 77 57 28 58 80 59 74 60 73 61 29 63 61 64 41 65 60 66 42 67
REMARK SMILES IDX 45 68 59 69 78 70 43 71 44 72 58 74 79 75 46 76 30 77 31 78
REMARK SMILES IDX 39 79 32 80 33 81 37 82 40 83 34 84 35 85 38 86 36 87 62 88
REMARK SMILES IDX 63 89 71 90 64 91 65 92 69 93 72 94 66 95 67 96 70 97 68 98
REMARK SMILES IDX 47 99 48 100 56 101 49 102 50 103 54 104 57 105 51 106
REMARK SMILES IDX 52 107 55 108 53 109
REMARK H PARENT 13 6 7 17 84 23 87 27 18 43 77 62 45 73
REMARK Flexibility Score: inf
ROOT
ATOM      1  C   UNL A   1      35.119  22.046  26.579  1.00  0.00     0.023 C 
ENDROOT
BRANCH   1   2
ATOM      2  C   UNL A   1      33.967  21.707  27.558  1.00  0.00     0.116 C 
BRANCH   2   3
ATOM      3  N   UNL A   1      32.622  22.195  27.237  1.00  0.00    -0.351 N 
ATOM      4  C   UNL A   1      31.879  22.329  26.076  1.00  0.00     0.283 C 
ATOM      5  O   UNL A   1      30.668  22.213  26.293  1.00  0.00    -0.268 OA
ATOM      6  H   UNL A   1      32.131  22.497  28.035  1.00  0.00     0.163 HD
BRANCH   4   7
ATOM      7  C   UNL A   1      32.489  22.570  24.639  1.00  0.00     0.308 C 
BRANCH   7   8
ATOM      8  C   UNL A   1      32.456  21.443  23.620  1.00  0.00     0.045 A 
ATOM      9  C   UNL A   1      33.216  17.814  24.633  1.00  0.00     0.119 A 
ATOM     10  C   UNL A   1      32.797  17.226  23.446  1.00  0.00     0.048 A 
ATOM     11  C   UNL A   1      33.112  19.190  24.829  1.00  0.00     0.057 A 
ATOM     12  C   UNL A   1      32.316  18.015  22.401  1.00  0.00     0.030 A 
ATOM     13  C   UNL A   1      32.684  20.027  23.775  1.00  0.00     0.013 A 
ATOM     14  C   UNL A   1      32.290  19.405  22.585  1.00  0.00     0.046 A 
ATOM     15  N   UNL A   1      31.859  20.389  21.731  1.00  0.00    -0.361 N 
ATOM     16  C   UNL A   1      31.971  21.611  22.326  1.00  0.00     0.094 A 
ATOM     17  H   UNL A   1      31.518  20.235  20.820  1.00  0.00     0.166 HD
BRANCH   9  18
ATOM     18  O   UNL A   1      33.688  17.064  25.678  1.00  0.00    -0.497 OA
ATOM     19  C   UNL A   1      34.336  15.885  25.199  1.00  0.00     0.278 C 
ENDBRANCH   9  18
ENDBRANCH   7   8
BRANCH   7  20
ATOM     20  N   UNL A   1      32.014  23.783  23.949  1.00  0.00    -0.312 N 
ATOM     21  C   UNL A   1      30.640  24.273  23.828  1.00  0.00     0.325 C 
ATOM     22  C   UNL A   1      32.944  24.856  23.943  1.00  0.00     0.325 C 
ATOM     23  H   UNL A   1      31.927  23.198  23.118  1.00  0.00     0.349 HD
ATOM     24  C   UNL A   1      30.318  25.755  24.296  1.00  0.00     0.324 C 
ATOM     25  C   UNL A   1      32.581  25.902  25.007  1.00  0.00     0.324 C 
ATOM     26  N   UNL A   1      31.417  26.683  24.620  1.00  0.00    -0.322 N 
ATOM     27  H   UNL A   1      31.040  27.236  25.390  1.00  0.00     0.348 HD
BRANCH  26  28
ATOM     28  C   UNL A   1      31.742  27.818  23.722  1.00  0.00     0.300 C 
BRANCH  28  29
ATOM     29  C   UNL A   1      31.661  29.233  24.303  1.00  0.00     0.014 A 
ATOM     30  C   UNL A   1      30.516  30.021  24.035  1.00  0.00     0.010 A 
ATOM     31  C   UNL A   1      32.569  29.656  25.305  1.00  0.00    -0.010 A 
ATOM     32  C   UNL A   1      30.185  31.101  24.857  1.00  0.00     0.001 A 
ATOM     33  C   UNL A   1      32.167  30.677  26.204  1.00  0.00    -0.018 A 
ATOM     34  C   UNL A   1      33.826  29.056  25.498  1.00  0.00     0.009 A 
ATOM     35  C   UNL A   1      30.975  31.385  25.971  1.00  0.00     0.009 A 
ATOM     36  C   UNL A   1      32.942  30.928  27.346  1.00  0.00     0.009 A 
ATOM     37  C   UNL A   1      34.618  29.368  26.599  1.00  0.00     0.001 A 
ATOM     38  C   UNL A   1      34.155  30.270  27.546  1.00  0.00     0.001 A 
ENDBRANCH  28  29
ENDBRANCH  26  28
ENDBRANCH   7  20
ENDBRANCH   4   7
ENDBRANCH   2   3
ENDBRANCH   1   2
BRANCH   1  39
ATOM     39  C   UNL A   1      35.559  23.508  26.496  1.00  0.00     0.023 C 
BRANCH  39  40
ATOM     40  C   UNL A   1      36.791  23.680  25.656  1.00  0.00     0.116 C 
BRANCH  40  41
ATOM     41  N   UNL A   1      37.781  22.648  25.942  1.00  0.00    -0.352 N 
ATOM     42  C   UNL A   1      39.027  22.782  26.500  1.00  0.00     0.251 C 
ATOM     43  H   UNL A   1      37.521  21.730  25.701  1.00  0.00     0.163 HD
ATOM     44  O   UNL A   1      39.795  21.835  26.547  1.00  0.00    -0.269 OA
BRANCH  42  45
ATOM     45  C   UNL A   1      39.429  24.109  27.004  1.00  0.00     0.039 A 
ATOM     46  C   UNL A   1      40.050  25.006  26.137  1.00  0.00     0.014 A 
ATOM     47  C   UNL A   1      39.154  24.469  28.324  1.00  0.00     0.014 A 
ATOM     48  C   UNL A   1      40.386  26.271  26.606  1.00  0.00     0.010 A 
ATOM     49  C   UNL A   1      39.322  25.775  28.731  1.00  0.00     0.010 A 
ATOM     50  C   UNL A   1      40.014  26.661  27.903  1.00  0.00    -0.014 A 
BRANCH  50  51
ATOM     51  C   UNL A   1      40.454  27.944  28.479  1.00  0.00     0.031 A 
ATOM     52  C   UNL A   1      41.917  28.142  28.774  1.00  0.00     0.074 A 
ATOM     53  C   UNL A   1      39.542  28.888  28.763  1.00  0.00     0.049 A 
ATOM     54  N   UNL A   1      42.522  29.166  29.316  1.00  0.00    -0.248 NA
ATOM     55  C   UNL A   1      42.821  27.017  28.466  1.00  0.00     0.031 C 
ATOM     56  C   UNL A   1      38.096  28.753  28.575  1.00  0.00     0.029 A 
ATOM     57  N   UNL A   1      39.698  30.150  29.265  1.00  0.00    -0.354 N 
ATOM     58  C   UNL A   1      43.856  28.794  29.431  1.00  0.00     0.074 A 
ATOM     59  C   UNL A   1      43.961  27.423  28.998  1.00  0.00     0.031 C 
ATOM     60  C   UNL A   1      37.502  29.910  28.908  1.00  0.00     0.029 A 
ATOM     61  C   UNL A   1      38.520  30.847  29.369  1.00  0.00     0.049 A 
ATOM     62  H   UNL A   1      40.571  30.523  29.526  1.00  0.00     0.167 HD
ATOM     63  C   UNL A   1      44.908  29.549  29.817  1.00  0.00     0.037 A 
ATOM     64  C   UNL A   1      38.305  32.107  29.782  1.00  0.00     0.037 A 
ATOM     65  C   UNL A   1      44.784  30.928  30.198  1.00  0.00     0.049 A 
ATOM     66  C   UNL A   1      39.496  32.937  30.180  1.00  0.00     0.074 A 
ATOM     67  C   UNL A   1      45.775  31.819  30.558  1.00  0.00     0.029 A 
ATOM     68  N   UNL A   1      43.578  31.615  30.259  1.00  0.00    -0.354 N 
ATOM     69  N   UNL A   1      40.765  32.603  30.220  1.00  0.00    -0.248 NA
ATOM     70  C   UNL A   1      39.227  34.324  30.572  1.00  0.00     0.031 C 
ATOM     71  C   UNL A   1      45.163  33.033  30.888  1.00  0.00     0.029 A 
ATOM     72  C   UNL A   1      43.798  32.918  30.665  1.00  0.00     0.049 A 
ATOM     73  H   UNL A   1      42.697  31.230  30.044  1.00  0.00     0.167 HD
ATOM     74  C   UNL A   1      41.450  33.746  30.604  1.00  0.00     0.074 A 
ATOM     75  C   UNL A   1      40.453  34.787  30.769  1.00  0.00     0.031 C 
ATOM     76  C   UNL A   1      42.780  33.928  30.801  1.00  0.00     0.037 A 
BRANCH  63  77
ATOM     77  C   UNL A   1      46.264  28.901  29.832  1.00  0.00     0.064 A 
ATOM     78  C   UNL A   1      47.097  28.894  28.700  1.00  0.00     0.173 A 
ATOM     79  C   UNL A   1      46.741  28.277  30.994  1.00  0.00     0.173 A 
ATOM     80  F   UNL A   1      46.685  29.457  27.553  1.00  0.00    -0.203 F 
ATOM     81  C   UNL A   1      48.336  28.258  28.721  1.00  0.00     0.198 A 
ATOM     82  C   UNL A   1      47.997  27.676  31.023  1.00  0.00     0.198 A 
ATOM     83  F   UNL A   1      45.989  28.248  32.104  1.00  0.00    -0.203 F 
ATOM     84  F   UNL A   1      49.081  28.208  27.609  1.00  0.00    -0.200 F 
ATOM     85  C   UNL A   1      48.789  27.658  29.886  1.00  0.00     0.200 A 
ATOM     86  F   UNL A   1      48.439  27.105  32.153  1.00  0.00    -0.200 F 
ATOM     87  F   UNL A   1      49.983  27.051  29.908  1.00  0.00    -0.200 F 
ENDBRANCH  63  77
BRANCH  64  88
ATOM     88  C   UNL A   1      36.928  32.665  29.784  1.00  0.00     0.064 A 
ATOM     89  C   UNL A   1      36.389  33.262  28.636  1.00  0.00     0.173 A 
ATOM     90  C   UNL A   1      36.119  32.607  30.928  1.00  0.00     0.173 A 
ATOM     91  F   UNL A   1      37.125  33.348  27.517  1.00  0.00    -0.203 F 
ATOM     92  C   UNL A   1      35.107  33.808  28.641  1.00  0.00     0.198 A 
ATOM     93  C   UNL A   1      34.825  33.125  30.923  1.00  0.00     0.198 A 
ATOM     94  F   UNL A   1      36.579  32.032  32.048  1.00  0.00    -0.203 F 
ATOM     95  F   UNL A   1      34.639  34.419  27.544  1.00  0.00    -0.200 F 
ATOM     96  C   UNL A   1      34.325  33.735  29.783  1.00  0.00     0.200 A 
ATOM     97  F   UNL A   1      34.065  33.032  32.022  1.00  0.00    -0.200 F 
ATOM     98  F   UNL A   1      33.091  34.258  29.786  1.00  0.00    -0.200 F 
ENDBRANCH  64  88
BRANCH  76  99
ATOM     99  C   UNL A   1      43.232  35.314  31.155  1.00  0.00     0.064 A 
ATOM    100  C   UNL A   1      43.306  35.754  32.484  1.00  0.00     0.173 A 
ATOM    101  C   UNL A   1      43.627  36.203  30.143  1.00  0.00     0.173 A 
ATOM    102  F   UNL A   1      42.930  34.945  33.486  1.00  0.00    -0.203 F 
ATOM    103  C   UNL A   1      43.719  37.049  32.784  1.00  0.00     0.198 A 
ATOM    104  C   UNL A   1      44.078  37.482  30.451  1.00  0.00     0.198 A 
ATOM    105  F   UNL A   1      43.589  35.825  28.856  1.00  0.00    -0.203 F 
ATOM    106  F   UNL A   1      43.718  37.470  34.057  1.00  0.00    -0.200 F 
ATOM    107  C   UNL A   1      44.111  37.908  31.769  1.00  0.00     0.200 A 
ATOM    108  F   UNL A   1      44.477  38.303  29.469  1.00  0.00    -0.200 F 
ATOM    109  F   UNL A   1      44.513  39.152  32.061  1.00  0.00    -0.200 F 
ENDBRANCH  76  99
ENDBRANCH  50  51
ENDBRANCH  42  45
ENDBRANCH  40  41
ENDBRANCH  39  40
ENDBRANCH   1  39
TORSDOF 16
ENDMDL
