MODEL 1
REMARK VINA RESULT:     -11.6      0.000      0.000
REMARK SMILES CCN1C(=O)[C@@H](CC(=O)Nc2cccc(C(=O)NCCCCNC(=O)c3ccc(-c4c5nc(c(-c6c(F)c(F)c(F)c(F)c6F)c6ccc([nH]6)c(-c6c(F)c(F)c(F)c(F)c6F)c6nc(c(-c7c(F)c(F)c(F)c(F)c7F)c7ccc4[nH]7)C=C6)C=C5)cc3)c2)S/C1=[NH+]\c1cc(Cl)c(O)c(Cl)c1
REMARK SMILES IDX 19 1 18 2 16 3 17 4 15 6 11 7 12 8 89 9 13 10 14 11 10 12
REMARK SMILES IDX 8 13 9 14 7 16 6 17 3 18 4 19 91 20 5 21 90 22 92 23 2 25
REMARK SMILES IDX 1 26 93 27 94 28 101 29 95 30 99 31 96 32 97 33 100 34 98 35
REMARK SMILES IDX 20 37 21 38 22 39 23 40 24 41 25 43 26 44 27 45 88 46 28 47
REMARK SMILES IDX 87 48 29 49 30 50 31 51 81 52 32 53 86 54 80 55 82 56 33 57
REMARK SMILES IDX 85 58 79 59 78 60 34 62 66 63 46 64 65 65 47 66 50 67 64 68
REMARK SMILES IDX 83 69 48 70 49 71 63 73 84 74 51 75 35 76 36 77 44 78 37 79
REMARK SMILES IDX 38 80 42 81 45 82 39 83 40 84 43 85 41 86 67 87 68 88 76 89
REMARK SMILES IDX 69 90 70 91 74 92 77 93 71 94 72 95 75 96 73 97 52 98 53 99
REMARK SMILES IDX 61 100 54 101 55 102 59 103 62 104 56 105 57 106 60 107
REMARK SMILES IDX 58 108
REMARK H PARENT 18 5 10 15 92 24 98 36 23 42 82 61 50 72
REMARK Flexibility Score: inf
ROOT
ATOM      1  C   UNL A   1      35.136  33.957  30.695  1.00  0.00     0.116 C 
ENDROOT
BRANCH   1   2
ATOM      2  N   UNL A   1      36.355  34.250  29.989  1.00  0.00    -0.352 N 
ATOM      3  C   UNL A   1      37.011  33.506  29.031  1.00  0.00     0.251 C 
ATOM      4  O   UNL A   1      38.017  33.986  28.511  1.00  0.00    -0.269 OA
ATOM      5  H   UNL A   1      36.783  35.106  30.224  1.00  0.00     0.163 HD
BRANCH   3   6
ATOM      6  C   UNL A   1      36.598  32.117  28.658  1.00  0.00     0.041 A 
ATOM      7  C   UNL A   1      34.965  30.400  28.072  1.00  0.00     0.041 A 
ATOM      8  C   UNL A   1      35.993  29.445  28.151  1.00  0.00     0.026 A 
ATOM      9  C   UNL A   1      35.298  31.748  28.255  1.00  0.00     0.040 A 
ATOM     10  C   UNL A   1      37.303  29.810  28.454  1.00  0.00     0.003 A 
ATOM     11  C   UNL A   1      37.600  31.141  28.725  1.00  0.00     0.014 A 
BRANCH   7  12
ATOM     12  N   UNL A   1      33.671  29.862  27.912  1.00  0.00    -0.326 N 
ATOM     13  C   UNL A   1      32.740  29.805  26.924  1.00  0.00     0.226 C 
ATOM     14  O   UNL A   1      31.598  29.450  27.239  1.00  0.00    -0.275 OA
ATOM     15  H   UNL A   1      33.361  29.411  28.731  1.00  0.00     0.169 HD
BRANCH  13  16
ATOM     16  C   UNL A   1      33.017  30.130  25.485  1.00  0.00     0.128 C 
BRANCH  16  17
ATOM     17  C   UNL A   1      32.852  28.975  24.510  1.00  0.00     0.183 C 
ATOM     18  N   UNL A   1      31.317  27.228  23.864  1.00  0.00    -0.190 N 
ATOM     19  C   UNL A   1      31.469  28.596  24.021  1.00  0.00     0.324 C 
ATOM     20  C   UNL A   1      32.337  26.434  24.327  1.00  0.00     0.319 C 
ATOM     21  O   UNL A   1      30.636  29.415  23.646  1.00  0.00    -0.245 OA
ATOM     22  S   UNL A   1      33.597  27.421  25.034  1.00  0.00    -0.022 SA
ATOM     23  N   UNL A   1      32.320  25.151  24.205  1.00  0.00    -0.235 N 
ATOM     24  H   UNL A   1      31.500  24.751  23.833  1.00  0.00     0.313 HD
BRANCH  18  25
ATOM     25  C   UNL A   1      30.102  26.799  23.163  1.00  0.00     0.243 C 
ATOM     26  C   UNL A   1      28.807  26.622  23.932  1.00  0.00     0.054 C 
ENDBRANCH  18  25
BRANCH  23  27
ATOM     27  C   UNL A   1      33.356  24.269  24.548  1.00  0.00     0.128 A 
ATOM     28  C   UNL A   1      33.221  23.580  25.762  1.00  0.00     0.076 A 
ATOM     29  C   UNL A   1      34.528  24.084  23.812  1.00  0.00     0.076 A 
ATOM     30  C   UNL A   1      34.192  22.667  26.188  1.00  0.00     0.088 A 
ATOM     31  C   UNL A   1      35.468  23.128  24.204  1.00  0.00     0.088 A 
ATOM     32  Cl  UNL A   1      33.986  21.889  27.717  1.00  0.00    -0.080 Cl
ATOM     33  C   UNL A   1      35.301  22.409  25.387  1.00  0.00     0.153 A 
ATOM     34  Cl  UNL A   1      36.850  22.854  23.205  1.00  0.00    -0.080 Cl
BRANCH  33  35
ATOM     35  O   UNL A   1      36.218  21.464  25.770  1.00  0.00    -0.505 OA
ATOM     36  H   UNL A   1      36.757  21.611  26.522  1.00  0.00     0.293 HD
ENDBRANCH  33  35
ENDBRANCH  23  27
ENDBRANCH  16  17
ENDBRANCH  13  16
ENDBRANCH   7  12
ENDBRANCH   3   6
ENDBRANCH   1   2
BRANCH   1  37
ATOM     37  C   UNL A   1      35.252  33.125  31.964  1.00  0.00     0.023 C 
BRANCH  37  38
ATOM     38  C   UNL A   1      35.244  31.610  31.813  1.00  0.00     0.023 C 
BRANCH  38  39
ATOM     39  C   UNL A   1      36.276  30.826  32.615  1.00  0.00     0.116 C 
BRANCH  39  40
ATOM     40  N   UNL A   1      36.772  31.487  33.814  1.00  0.00    -0.352 N 
ATOM     41  C   UNL A   1      38.026  32.005  34.046  1.00  0.00     0.251 C 
ATOM     42  H   UNL A   1      36.128  31.576  34.552  1.00  0.00     0.163 HD
ATOM     43  O   UNL A   1      38.262  32.681  35.036  1.00  0.00    -0.269 OA
BRANCH  41  44
ATOM     44  C   UNL A   1      39.108  31.712  33.094  1.00  0.00     0.039 A 
ATOM     45  C   UNL A   1      40.030  30.712  33.406  1.00  0.00     0.014 A 
ATOM     46  C   UNL A   1      39.177  32.397  31.882  1.00  0.00     0.014 A 
ATOM     47  C   UNL A   1      41.005  30.355  32.478  1.00  0.00     0.010 A 
ATOM     48  C   UNL A   1      40.096  31.985  30.926  1.00  0.00     0.010 A 
ATOM     49  C   UNL A   1      41.020  30.965  31.216  1.00  0.00    -0.014 A 
BRANCH  49  50
ATOM     50  C   UNL A   1      42.011  30.593  30.178  1.00  0.00     0.031 A 
ATOM     51  C   UNL A   1      41.841  29.294  29.447  1.00  0.00     0.074 A 
ATOM     52  C   UNL A   1      43.101  31.357  29.974  1.00  0.00     0.049 A 
ATOM     53  N   UNL A   1      42.686  28.647  28.689  1.00  0.00    -0.248 NA
ATOM     54  C   UNL A   1      40.553  28.607  29.638  1.00  0.00     0.031 C 
ATOM     55  C   UNL A   1      43.375  32.636  30.628  1.00  0.00     0.029 A 
ATOM     56  N   UNL A   1      44.194  31.151  29.173  1.00  0.00    -0.354 N 
ATOM     57  C   UNL A   1      42.055  27.456  28.358  1.00  0.00     0.074 A 
ATOM     58  C   UNL A   1      40.773  27.454  29.028  1.00  0.00     0.031 C 
ATOM     59  C   UNL A   1      44.554  33.109  30.191  1.00  0.00     0.029 A 
ATOM     60  C   UNL A   1      45.142  32.139  29.274  1.00  0.00     0.049 A 
ATOM     61  H   UNL A   1      44.290  30.370  28.581  1.00  0.00     0.167 HD
ATOM     62  C   UNL A   1      42.504  26.460  27.559  1.00  0.00     0.037 A 
ATOM     63  C   UNL A   1      46.359  32.235  28.705  1.00  0.00     0.037 A 
ATOM     64  C   UNL A   1      43.762  26.503  26.859  1.00  0.00     0.049 A 
ATOM     65  C   UNL A   1      46.836  31.121  27.814  1.00  0.00     0.074 A 
ATOM     66  C   UNL A   1      44.292  25.582  25.975  1.00  0.00     0.029 A 
ATOM     67  N   UNL A   1      44.683  27.536  26.963  1.00  0.00    -0.354 N 
ATOM     68  N   UNL A   1      46.231  30.002  27.493  1.00  0.00    -0.248 NA
ATOM     69  C   UNL A   1      48.165  31.280  27.210  1.00  0.00     0.031 C 
ATOM     70  C   UNL A   1      45.552  26.039  25.573  1.00  0.00     0.029 A 
ATOM     71  C   UNL A   1      45.786  27.269  26.170  1.00  0.00     0.049 A 
ATOM     72  H   UNL A   1      44.568  28.342  27.518  1.00  0.00     0.167 HD
ATOM     73  C   UNL A   1      47.090  29.336  26.631  1.00  0.00     0.074 A 
ATOM     74  C   UNL A   1      48.256  30.183  26.470  1.00  0.00     0.031 C 
ATOM     75  C   UNL A   1      46.932  28.133  26.025  1.00  0.00     0.037 A 
BRANCH  62  76
ATOM     76  C   UNL A   1      41.636  25.241  27.421  1.00  0.00     0.064 A 
ATOM     77  C   UNL A   1      41.954  24.027  28.052  1.00  0.00     0.173 A 
ATOM     78  C   UNL A   1      40.475  25.285  26.634  1.00  0.00     0.173 A 
ATOM     79  F   UNL A   1      43.060  23.925  28.803  1.00  0.00    -0.203 F 
ATOM     80  C   UNL A   1      41.168  22.892  27.859  1.00  0.00     0.198 A 
ATOM     81  C   UNL A   1      39.673  24.158  26.475  1.00  0.00     0.198 A 
ATOM     82  F   UNL A   1      40.120  26.419  26.013  1.00  0.00    -0.203 F 
ATOM     83  F   UNL A   1      41.534  21.727  28.411  1.00  0.00    -0.200 F 
ATOM     84  C   UNL A   1      40.028  22.960  27.075  1.00  0.00     0.200 A 
ATOM     85  F   UNL A   1      38.563  24.228  25.727  1.00  0.00    -0.200 F 
ATOM     86  F   UNL A   1      39.277  21.865  26.888  1.00  0.00    -0.200 F 
ENDBRANCH  62  76
BRANCH  63  87
ATOM     87  C   UNL A   1      47.195  33.439  28.949  1.00  0.00     0.064 A 
ATOM     88  C   UNL A   1      48.117  33.464  30.005  1.00  0.00     0.173 A 
ATOM     89  C   UNL A   1      47.116  34.572  28.126  1.00  0.00     0.173 A 
ATOM     90  F   UNL A   1      48.214  32.413  30.832  1.00  0.00    -0.203 F 
ATOM     91  C   UNL A   1      48.922  34.578  30.233  1.00  0.00     0.198 A 
ATOM     92  C   UNL A   1      47.939  35.675  28.340  1.00  0.00     0.198 A 
ATOM     93  F   UNL A   1      46.253  34.598  27.100  1.00  0.00    -0.203 F 
ATOM     94  F   UNL A   1      49.772  34.587  31.269  1.00  0.00    -0.200 F 
ATOM     95  C   UNL A   1      48.838  35.681  29.396  1.00  0.00     0.200 A 
ATOM     96  F   UNL A   1      47.867  36.733  27.519  1.00  0.00    -0.200 F 
ATOM     97  F   UNL A   1      49.622  36.746  29.608  1.00  0.00    -0.200 F 
ENDBRANCH  63  87
BRANCH  75  98
ATOM     98  C   UNL A   1      48.028  27.681  25.105  1.00  0.00     0.064 A 
ATOM     99  C   UNL A   1      49.192  27.068  25.593  1.00  0.00     0.173 A 
ATOM    100  C   UNL A   1      47.891  27.825  23.717  1.00  0.00     0.173 A 
ATOM    101  F   UNL A   1      49.375  26.923  26.914  1.00  0.00    -0.203 F 
ATOM    102  C   UNL A   1      50.189  26.638  24.722  1.00  0.00     0.198 A 
ATOM    103  C   UNL A   1      48.877  27.367  22.848  1.00  0.00     0.198 A 
ATOM    104  F   UNL A   1      46.793  28.400  23.201  1.00  0.00    -0.203 F 
ATOM    105  F   UNL A   1      51.313  26.097  25.211  1.00  0.00    -0.200 F 
ATOM    106  C   UNL A   1      50.027  26.780  23.352  1.00  0.00     0.200 A 
ATOM    107  F   UNL A   1      48.713  27.493  21.524  1.00  0.00    -0.200 F 
ATOM    108  F   UNL A   1      50.986  26.357  22.516  1.00  0.00    -0.200 F 
ENDBRANCH  75  98
ENDBRANCH  49  50
ENDBRANCH  41  44
ENDBRANCH  39  40
ENDBRANCH  38  39
ENDBRANCH  37  38
ENDBRANCH   1  37
TORSDOF 17
ENDMDL
MODEL 2
REMARK VINA RESULT:     -11.2      1.067      6.906
REMARK SMILES CCN1C(=O)[C@@H](CC(=O)Nc2cccc(C(=O)NCCCCNC(=O)c3ccc(-c4c5nc(c(-c6c(F)c(F)c(F)c(F)c6F)c6ccc([nH]6)c(-c6c(F)c(F)c(F)c(F)c6F)c6nc(c(-c7c(F)c(F)c(F)c(F)c7F)c7ccc4[nH]7)C=C6)C=C5)cc3)c2)S/C1=[NH+]\c1cc(Cl)c(O)c(Cl)c1
REMARK SMILES IDX 19 1 18 2 16 3 17 4 15 6 11 7 12 8 89 9 13 10 14 11 10 12
REMARK SMILES IDX 8 13 9 14 7 16 6 17 3 18 4 19 91 20 5 21 90 22 92 23 2 25
REMARK SMILES IDX 1 26 93 27 94 28 101 29 95 30 99 31 96 32 97 33 100 34 98 35
REMARK SMILES IDX 20 37 21 38 22 39 23 40 24 41 25 43 26 44 27 45 88 46 28 47
REMARK SMILES IDX 87 48 29 49 30 50 31 51 81 52 32 53 86 54 80 55 82 56 33 57
REMARK SMILES IDX 85 58 79 59 78 60 34 62 66 63 46 64 65 65 47 66 50 67 64 68
REMARK SMILES IDX 83 69 48 70 49 71 63 73 84 74 51 75 35 76 36 77 44 78 37 79
REMARK SMILES IDX 38 80 42 81 45 82 39 83 40 84 43 85 41 86 67 87 68 88 76 89
REMARK SMILES IDX 69 90 70 91 74 92 77 93 71 94 72 95 75 96 73 97 52 98 53 99
REMARK SMILES IDX 61 100 54 101 55 102 59 103 62 104 56 105 57 106 60 107
REMARK SMILES IDX 58 108
REMARK H PARENT 18 5 10 15 92 24 98 36 23 42 82 61 50 72
REMARK Flexibility Score: inf
ROOT
ATOM      1  C   UNL A   1      34.952  34.192  29.972  1.00  0.00     0.116 C 
ENDROOT
BRANCH   1   2
ATOM      2  N   UNL A   1      36.327  34.338  29.571  1.00  0.00    -0.352 N 
ATOM      3  C   UNL A   1      37.141  33.448  28.903  1.00  0.00     0.251 C 
ATOM      4  O   UNL A   1      38.278  33.813  28.606  1.00  0.00    -0.269 OA
ATOM      5  H   UNL A   1      36.746  35.197  29.808  1.00  0.00     0.163 HD
BRANCH   3   6
ATOM      6  C   UNL A   1      36.731  32.042  28.599  1.00  0.00     0.041 A 
ATOM      7  C   UNL A   1      35.105  30.302  28.062  1.00  0.00     0.041 A 
ATOM      8  C   UNL A   1      36.124  29.349  28.227  1.00  0.00     0.026 A 
ATOM      9  C   UNL A   1      35.442  31.656  28.178  1.00  0.00     0.040 A 
ATOM     10  C   UNL A   1      37.427  29.724  28.549  1.00  0.00     0.003 A 
ATOM     11  C   UNL A   1      37.725  31.067  28.751  1.00  0.00     0.014 A 
BRANCH   7  12
ATOM     12  N   UNL A   1      33.813  29.762  27.894  1.00  0.00    -0.326 N 
ATOM     13  C   UNL A   1      32.962  29.542  26.859  1.00  0.00     0.226 C 
ATOM     14  O   UNL A   1      31.789  29.265  27.137  1.00  0.00    -0.275 OA
ATOM     15  H   UNL A   1      33.428  29.468  28.752  1.00  0.00     0.169 HD
BRANCH  13  16
ATOM     16  C   UNL A   1      33.359  29.601  25.413  1.00  0.00     0.128 C 
BRANCH  16  17
ATOM     17  C   UNL A   1      32.827  28.475  24.541  1.00  0.00     0.183 C 
ATOM     18  N   UNL A   1      30.810  27.259  24.018  1.00  0.00    -0.190 N 
ATOM     19  C   UNL A   1      31.393  28.515  24.055  1.00  0.00     0.324 C 
ATOM     20  C   UNL A   1      31.524  26.226  24.574  1.00  0.00     0.319 C 
ATOM     21  O   UNL A   1      30.865  29.519  23.588  1.00  0.00    -0.245 OA
ATOM     22  S   UNL A   1      33.038  26.820  25.219  1.00  0.00    -0.022 SA
ATOM     23  N   UNL A   1      31.096  25.011  24.566  1.00  0.00    -0.235 N 
ATOM     24  H   UNL A   1      30.189  24.861  24.212  1.00  0.00     0.313 HD
BRANCH  18  25
ATOM     25  C   UNL A   1      29.517  27.178  23.329  1.00  0.00     0.243 C 
ATOM     26  C   UNL A   1      28.303  26.639  24.059  1.00  0.00     0.054 C 
ENDBRANCH  18  25
BRANCH  23  27
ATOM     27  C   UNL A   1      31.797  23.879  25.012  1.00  0.00     0.128 A 
ATOM     28  C   UNL A   1      31.772  22.753  24.178  1.00  0.00     0.076 A 
ATOM     29  C   UNL A   1      32.450  23.775  26.242  1.00  0.00     0.076 A 
ATOM     30  C   UNL A   1      32.452  21.581  24.524  1.00  0.00     0.088 A 
ATOM     31  C   UNL A   1      33.180  22.628  26.561  1.00  0.00     0.088 A 
ATOM     32  Cl  UNL A   1      32.339  20.214  23.473  1.00  0.00    -0.080 Cl
ATOM     33  C   UNL A   1      33.193  21.530  25.701  1.00  0.00     0.153 A 
ATOM     34  Cl  UNL A   1      34.064  22.584  28.044  1.00  0.00    -0.080 Cl
BRANCH  33  35
ATOM     35  O   UNL A   1      33.916  20.406  26.008  1.00  0.00    -0.505 OA
ATOM     36  H   UNL A   1      34.456  20.003  25.356  1.00  0.00     0.293 HD
ENDBRANCH  33  35
ENDBRANCH  23  27
ENDBRANCH  16  17
ENDBRANCH  13  16
ENDBRANCH   7  12
ENDBRANCH   3   6
ENDBRANCH   1   2
BRANCH   1  37
ATOM     37  C   UNL A   1      34.690  33.740  31.401  1.00  0.00     0.023 C 
BRANCH  37  38
ATOM     38  C   UNL A   1      34.761  32.247  31.690  1.00  0.00     0.023 C 
BRANCH  38  39
ATOM     39  C   UNL A   1      35.992  31.739  32.433  1.00  0.00     0.116 C 
BRANCH  39  40
ATOM     40  N   UNL A   1      36.383  32.517  33.600  1.00  0.00    -0.352 N 
ATOM     41  C   UNL A   1      37.644  32.929  33.966  1.00  0.00     0.251 C 
ATOM     42  H   UNL A   1      35.652  32.782  34.203  1.00  0.00     0.163 HD
ATOM     43  O   UNL A   1      37.814  33.717  34.885  1.00  0.00    -0.269 OA
BRANCH  41  44
ATOM     44  C   UNL A   1      38.810  32.386  33.254  1.00  0.00     0.039 A 
ATOM     45  C   UNL A   1      39.551  31.365  33.851  1.00  0.00     0.014 A 
ATOM     46  C   UNL A   1      39.135  32.858  31.984  1.00  0.00     0.014 A 
ATOM     47  C   UNL A   1      40.601  30.773  33.153  1.00  0.00     0.010 A 
ATOM     48  C   UNL A   1      40.127  32.213  31.258  1.00  0.00     0.010 A 
ATOM     49  C   UNL A   1      40.871  31.169  31.836  1.00  0.00    -0.014 A 
BRANCH  49  50
ATOM     50  C   UNL A   1      41.951  30.543  31.035  1.00  0.00     0.031 A 
ATOM     51  C   UNL A   1      43.237  31.291  30.844  1.00  0.00     0.074 A 
ATOM     52  C   UNL A   1      41.736  29.374  30.403  1.00  0.00     0.049 A 
ATOM     53  N   UNL A   1      44.213  31.070  30.004  1.00  0.00    -0.248 NA
ATOM     54  C   UNL A   1      43.424  32.484  31.687  1.00  0.00     0.031 C 
ATOM     55  C   UNL A   1      40.526  28.560  30.509  1.00  0.00     0.029 A 
ATOM     56  N   UNL A   1      42.527  28.682  29.521  1.00  0.00    -0.354 N 
ATOM     57  C   UNL A   1      45.102  32.122  30.179  1.00  0.00     0.074 A 
ATOM     58  C   UNL A   1      44.531  33.000  31.177  1.00  0.00     0.031 C 
ATOM     59  C   UNL A   1      40.660  27.471  29.735  1.00  0.00     0.029 A 
ATOM     60  C   UNL A   1      41.938  27.541  29.035  1.00  0.00     0.049 A 
ATOM     61  H   UNL A   1      43.431  28.975  29.263  1.00  0.00     0.167 HD
ATOM     62  C   UNL A   1      46.292  32.328  29.567  1.00  0.00     0.037 A 
ATOM     63  C   UNL A   1      42.375  26.666  28.109  1.00  0.00     0.037 A 
ATOM     64  C   UNL A   1      46.869  31.416  28.614  1.00  0.00     0.049 A 
ATOM     65  C   UNL A   1      43.703  26.910  27.448  1.00  0.00     0.074 A 
ATOM     66  C   UNL A   1      48.093  31.490  27.977  1.00  0.00     0.029 A 
ATOM     67  N   UNL A   1      46.254  30.254  28.168  1.00  0.00    -0.354 N 
ATOM     68  N   UNL A   1      44.547  27.898  27.625  1.00  0.00    -0.248 NA
ATOM     69  C   UNL A   1      44.139  25.920  26.454  1.00  0.00     0.031 C 
ATOM     70  C   UNL A   1      48.204  30.392  27.116  1.00  0.00     0.029 A 
ATOM     71  C   UNL A   1      47.068  29.608  27.253  1.00  0.00     0.049 A 
ATOM     72  H   UNL A   1      45.369  29.934  28.461  1.00  0.00     0.167 HD
ATOM     73  C   UNL A   1      45.623  27.638  26.788  1.00  0.00     0.074 A 
ATOM     74  C   UNL A   1      45.329  26.391  26.110  1.00  0.00     0.031 C 
ATOM     75  C   UNL A   1      46.753  28.364  26.596  1.00  0.00     0.037 A 
BRANCH  62  76
ATOM     76  C   UNL A   1      47.029  33.595  29.900  1.00  0.00     0.064 A 
ATOM     77  C   UNL A   1      47.950  33.663  30.958  1.00  0.00     0.173 A 
ATOM     78  C   UNL A   1      46.798  34.763  29.157  1.00  0.00     0.173 A 
ATOM     79  F   UNL A   1      48.197  32.580  31.710  1.00  0.00    -0.203 F 
ATOM     80  C   UNL A   1      48.574  34.864  31.289  1.00  0.00     0.198 A 
ATOM     81  C   UNL A   1      47.453  35.952  29.468  1.00  0.00     0.198 A 
ATOM     82  F   UNL A   1      45.933  34.755  28.132  1.00  0.00    -0.203 F 
ATOM     83  F   UNL A   1      49.392  34.921  32.349  1.00  0.00    -0.200 F 
ATOM     84  C   UNL A   1      48.329  36.005  30.542  1.00  0.00     0.200 A 
ATOM     85  F   UNL A   1      47.224  37.052  28.737  1.00  0.00    -0.200 F 
ATOM     86  F   UNL A   1      48.927  37.160  30.865  1.00  0.00    -0.200 F 
ENDBRANCH  62  76
BRANCH  63  87
ATOM     87  C   UNL A   1      41.554  25.474  27.776  1.00  0.00     0.064 A 
ATOM     88  C   UNL A   1      41.848  24.225  28.343  1.00  0.00     0.173 A 
ATOM     89  C   UNL A   1      40.451  25.554  26.913  1.00  0.00     0.173 A 
ATOM     90  F   UNL A   1      42.905  24.094  29.157  1.00  0.00    -0.203 F 
ATOM     91  C   UNL A   1      41.075  23.103  28.055  1.00  0.00     0.198 A 
ATOM     92  C   UNL A   1      39.663  24.436  26.646  1.00  0.00     0.198 A 
ATOM     93  F   UNL A   1      40.124  26.725  26.347  1.00  0.00    -0.203 F 
ATOM     94  F   UNL A   1      41.397  21.916  28.587  1.00  0.00    -0.200 F 
ATOM     95  C   UNL A   1      39.978  23.210  27.213  1.00  0.00     0.200 A 
ATOM     96  F   UNL A   1      38.595  24.546  25.844  1.00  0.00    -0.200 F 
ATOM     97  F   UNL A   1      39.227  22.132  26.947  1.00  0.00    -0.200 F 
ENDBRANCH  63  87
BRANCH  75  98
ATOM     98  C   UNL A   1      47.769  27.807  25.644  1.00  0.00     0.064 A 
ATOM     99  C   UNL A   1      48.892  27.099  26.096  1.00  0.00     0.173 A 
ATOM    100  C   UNL A   1      47.592  27.947  24.259  1.00  0.00     0.173 A 
ATOM    101  F   UNL A   1      49.113  26.953  27.411  1.00  0.00    -0.203 F 
ATOM    102  C   UNL A   1      49.814  26.573  25.195  1.00  0.00     0.198 A 
ATOM    103  C   UNL A   1      48.500  27.394  23.361  1.00  0.00     0.198 A 
ATOM    104  F   UNL A   1      46.530  28.610  23.777  1.00  0.00    -0.203 F 
ATOM    105  F   UNL A   1      50.905  25.940  25.650  1.00  0.00    -0.200 F 
ATOM    106  C   UNL A   1      49.613  26.714  23.831  1.00  0.00     0.200 A 
ATOM    107  F   UNL A   1      48.297  27.519  22.042  1.00  0.00    -0.200 F 
ATOM    108  F   UNL A   1      50.498  26.198  22.965  1.00  0.00    -0.200 F 
ENDBRANCH  75  98
ENDBRANCH  49  50
ENDBRANCH  41  44
ENDBRANCH  39  40
ENDBRANCH  38  39
ENDBRANCH  37  38
ENDBRANCH   1  37
TORSDOF 17
ENDMDL
MODEL 3
REMARK VINA RESULT:     -10.9      4.353      9.027
REMARK SMILES CCN1C(=O)[C@@H](CC(=O)Nc2cccc(C(=O)NCCCCNC(=O)c3ccc(-c4c5nc(c(-c6c(F)c(F)c(F)c(F)c6F)c6ccc([nH]6)c(-c6c(F)c(F)c(F)c(F)c6F)c6nc(c(-c7c(F)c(F)c(F)c(F)c7F)c7ccc4[nH]7)C=C6)C=C5)cc3)c2)S/C1=[NH+]\c1cc(Cl)c(O)c(Cl)c1
REMARK SMILES IDX 19 1 18 2 16 3 17 4 15 6 11 7 12 8 89 9 13 10 14 11 10 12
REMARK SMILES IDX 8 13 9 14 7 16 6 17 3 18 4 19 91 20 5 21 90 22 92 23 2 25
REMARK SMILES IDX 1 26 93 27 94 28 101 29 95 30 99 31 96 32 97 33 100 34 98 35
REMARK SMILES IDX 20 37 21 38 22 39 23 40 24 41 25 43 26 44 27 45 88 46 28 47
REMARK SMILES IDX 87 48 29 49 30 50 31 51 81 52 32 53 86 54 80 55 82 56 33 57
REMARK SMILES IDX 85 58 79 59 78 60 34 62 66 63 46 64 65 65 47 66 50 67 64 68
REMARK SMILES IDX 83 69 48 70 49 71 63 73 84 74 51 75 35 76 36 77 44 78 37 79
REMARK SMILES IDX 38 80 42 81 45 82 39 83 40 84 43 85 41 86 67 87 68 88 76 89
REMARK SMILES IDX 69 90 70 91 74 92 77 93 71 94 72 95 75 96 73 97 52 98 53 99
REMARK SMILES IDX 61 100 54 101 55 102 59 103 62 104 56 105 57 106 60 107
REMARK SMILES IDX 58 108
REMARK H PARENT 18 5 10 15 92 24 98 36 23 42 82 61 50 72
REMARK Flexibility Score: inf
ROOT
ATOM      1  C   UNL A   1      38.512  23.951  26.714  1.00  0.00     0.116 C 
ENDROOT
BRANCH   1   2
ATOM      2  N   UNL A   1      38.778  22.569  26.412  1.00  0.00    -0.352 N 
ATOM      3  C   UNL A   1      38.128  21.724  25.539  1.00  0.00     0.251 C 
ATOM      4  O   UNL A   1      38.572  20.586  25.393  1.00  0.00    -0.269 OA
ATOM      5  H   UNL A   1      39.535  22.170  26.900  1.00  0.00     0.163 HD
BRANCH   3   6
ATOM      6  C   UNL A   1      36.867  22.103  24.828  1.00  0.00     0.041 A 
ATOM      7  C   UNL A   1      34.464  21.988  24.418  1.00  0.00     0.041 A 
ATOM      8  C   UNL A   1      34.655  22.789  23.280  1.00  0.00     0.026 A 
ATOM      9  C   UNL A   1      35.573  21.714  25.228  1.00  0.00     0.040 A 
ATOM     10  C   UNL A   1      35.918  23.261  22.926  1.00  0.00     0.003 A 
ATOM     11  C   UNL A   1      37.023  22.904  23.689  1.00  0.00     0.014 A 
BRANCH   7  12
ATOM     12  N   UNL A   1      33.163  21.460  24.557  1.00  0.00    -0.326 N 
ATOM     13  C   UNL A   1      32.106  21.644  25.390  1.00  0.00     0.226 C 
ATOM     14  O   UNL A   1      31.197  20.806  25.348  1.00  0.00    -0.275 OA
ATOM     15  H   UNL A   1      32.971  20.781  23.870  1.00  0.00     0.169 HD
BRANCH  13  16
ATOM     16  C   UNL A   1      31.971  22.799  26.339  1.00  0.00     0.128 C 
BRANCH  16  17
ATOM     17  C   UNL A   1      31.487  24.101  25.721  1.00  0.00     0.183 C 
ATOM     18  N   UNL A   1      31.796  25.533  23.803  1.00  0.00    -0.190 N 
ATOM     19  C   UNL A   1      31.461  24.253  24.214  1.00  0.00     0.324 C 
ATOM     20  C   UNL A   1      32.260  26.393  24.768  1.00  0.00     0.319 C 
ATOM     21  O   UNL A   1      31.029  23.392  23.454  1.00  0.00    -0.245 OA
ATOM     22  S   UNL A   1      32.314  25.585  26.319  1.00  0.00    -0.022 SA
ATOM     23  N   UNL A   1      32.570  27.616  24.509  1.00  0.00    -0.235 N 
ATOM     24  H   UNL A   1      32.537  27.892  23.564  1.00  0.00     0.313 HD
BRANCH  18  25
ATOM     25  C   UNL A   1      31.555  25.830  22.387  1.00  0.00     0.243 C 
ATOM     26  C   UNL A   1      32.691  25.730  21.388  1.00  0.00     0.054 C 
ENDBRANCH  18  25
BRANCH  23  27
ATOM     27  C   UNL A   1      32.950  28.594  25.442  1.00  0.00     0.128 A 
ATOM     28  C   UNL A   1      32.078  29.679  25.607  1.00  0.00     0.076 A 
ATOM     29  C   UNL A   1      34.150  28.597  26.156  1.00  0.00     0.076 A 
ATOM     30  C   UNL A   1      32.357  30.698  26.524  1.00  0.00     0.088 A 
ATOM     31  C   UNL A   1      34.400  29.580  27.115  1.00  0.00     0.088 A 
ATOM     32  Cl  UNL A   1      31.263  32.031  26.642  1.00  0.00    -0.080 Cl
ATOM     33  C   UNL A   1      33.503  30.630  27.311  1.00  0.00     0.153 A 
ATOM     34  Cl  UNL A   1      35.847  29.485  28.054  1.00  0.00    -0.080 Cl
BRANCH  33  35
ATOM     35  O   UNL A   1      33.743  31.592  28.258  1.00  0.00    -0.505 OA
ATOM     36  H   UNL A   1      34.055  32.437  27.999  1.00  0.00     0.293 HD
ENDBRANCH  33  35
ENDBRANCH  23  27
ENDBRANCH  16  17
ENDBRANCH  13  16
ENDBRANCH   7  12
ENDBRANCH   3   6
ENDBRANCH   1   2
BRANCH   1  37
ATOM     37  C   UNL A   1      39.657  24.936  26.523  1.00  0.00     0.023 C 
BRANCH  37  38
ATOM     38  C   UNL A   1      40.283  25.537  27.773  1.00  0.00     0.023 C 
BRANCH  38  39
ATOM     39  C   UNL A   1      41.531  24.855  28.322  1.00  0.00     0.116 C 
BRANCH  39  40
ATOM     40  N   UNL A   1      41.989  23.691  27.576  1.00  0.00    -0.352 N 
ATOM     41  C   UNL A   1      43.187  23.514  26.922  1.00  0.00     0.251 C 
ATOM     42  H   UNL A   1      41.361  22.935  27.534  1.00  0.00     0.163 HD
ATOM     43  O   UNL A   1      43.511  22.425  26.473  1.00  0.00    -0.269 OA
BRANCH  41  44
ATOM     44  C   UNL A   1      44.080  24.668  26.739  1.00  0.00     0.039 A 
ATOM     45  C   UNL A   1      44.026  25.378  25.539  1.00  0.00     0.014 A 
ATOM     46  C   UNL A   1      44.930  25.064  27.769  1.00  0.00     0.014 A 
ATOM     47  C   UNL A   1      44.795  26.529  25.381  1.00  0.00     0.010 A 
ATOM     48  C   UNL A   1      45.632  26.256  27.643  1.00  0.00     0.010 A 
ATOM     49  C   UNL A   1      45.575  26.996  26.448  1.00  0.00    -0.014 A 
BRANCH  49  50
ATOM     50  C   UNL A   1      46.380  28.237  26.347  1.00  0.00     0.031 A 
ATOM     51  C   UNL A   1      47.850  28.125  26.070  1.00  0.00     0.074 A 
ATOM     52  C   UNL A   1      45.820  29.432  26.608  1.00  0.00     0.049 A 
ATOM     53  N   UNL A   1      48.789  29.028  26.176  1.00  0.00    -0.248 NA
ATOM     54  C   UNL A   1      48.334  26.796  25.661  1.00  0.00     0.031 C 
ATOM     55  C   UNL A   1      44.404  29.663  26.894  1.00  0.00     0.029 A 
ATOM     56  N   UNL A   1      46.386  30.679  26.699  1.00  0.00    -0.354 N 
ATOM     57  C   UNL A   1      49.978  28.364  25.901  1.00  0.00     0.074 A 
ATOM     58  C   UNL A   1      49.644  26.977  25.661  1.00  0.00     0.031 C 
ATOM     59  C   UNL A   1      44.209  30.973  27.114  1.00  0.00     0.029 A 
ATOM     60  C   UNL A   1      45.492  31.663  27.043  1.00  0.00     0.049 A 
ATOM     61  H   UNL A   1      47.341  30.851  26.532  1.00  0.00     0.167 HD
ATOM     62  C   UNL A   1      51.231  28.872  25.846  1.00  0.00     0.037 A 
ATOM     63  C   UNL A   1      45.696  32.969  27.295  1.00  0.00     0.037 A 
ATOM     64  C   UNL A   1      51.537  30.266  26.038  1.00  0.00     0.049 A 
ATOM     65  C   UNL A   1      47.096  33.516  27.220  1.00  0.00     0.074 A 
ATOM     66  C   UNL A   1      52.760  30.904  25.944  1.00  0.00     0.029 A 
ATOM     67  N   UNL A   1      50.599  31.239  26.356  1.00  0.00    -0.354 N 
ATOM     68  N   UNL A   1      48.215  32.888  26.947  1.00  0.00    -0.248 NA
ATOM     69  C   UNL A   1      47.262  34.949  27.492  1.00  0.00     0.031 C 
ATOM     70  C   UNL A   1      52.569  32.258  26.243  1.00  0.00     0.029 A 
ATOM     71  C   UNL A   1      51.219  32.472  26.476  1.00  0.00     0.049 A 
ATOM     72  H   UNL A   1      49.635  31.077  26.476  1.00  0.00     0.167 HD
ATOM     73  C   UNL A   1      49.213  33.851  26.988  1.00  0.00     0.074 A 
ATOM     74  C   UNL A   1      48.564  35.109  27.302  1.00  0.00     0.031 C 
ATOM     75  C   UNL A   1      50.547  33.710  26.785  1.00  0.00     0.037 A 
BRANCH  62  76
ATOM     76  C   UNL A   1      52.356  27.909  25.588  1.00  0.00     0.064 A 
ATOM     77  C   UNL A   1      52.994  27.215  26.628  1.00  0.00     0.173 A 
ATOM     78  C   UNL A   1      52.810  27.687  24.279  1.00  0.00     0.173 A 
ATOM     79  F   UNL A   1      52.610  27.401  27.900  1.00  0.00    -0.203 F 
ATOM     80  C   UNL A   1      54.076  26.375  26.372  1.00  0.00     0.198 A 
ATOM     81  C   UNL A   1      53.867  26.817  24.024  1.00  0.00     0.198 A 
ATOM     82  F   UNL A   1      52.234  28.318  23.245  1.00  0.00    -0.203 F 
ATOM     83  F   UNL A   1      54.716  25.783  27.390  1.00  0.00    -0.200 F 
ATOM     84  C   UNL A   1      54.508  26.174  25.071  1.00  0.00     0.200 A 
ATOM     85  F   UNL A   1      54.276  26.614  22.764  1.00  0.00    -0.200 F 
ATOM     86  F   UNL A   1      55.552  25.369  24.828  1.00  0.00    -0.200 F 
ENDBRANCH  62  76
BRANCH  63  87
ATOM     87  C   UNL A   1      44.542  33.848  27.619  1.00  0.00     0.064 A 
ATOM     88  C   UNL A   1      43.951  34.643  26.627  1.00  0.00     0.173 A 
ATOM     89  C   UNL A   1      43.988  33.894  28.907  1.00  0.00     0.173 A 
ATOM     90  F   UNL A   1      44.459  34.649  25.386  1.00  0.00    -0.203 F 
ATOM     91  C   UNL A   1      42.856  35.456  26.912  1.00  0.00     0.198 A 
ATOM     92  C   UNL A   1      42.877  34.688  29.184  1.00  0.00     0.198 A 
ATOM     93  F   UNL A   1      44.513  33.150  29.892  1.00  0.00    -0.203 F 
ATOM     94  F   UNL A   1      42.331  36.229  25.951  1.00  0.00    -0.200 F 
ATOM     95  C   UNL A   1      42.314  35.472  28.188  1.00  0.00     0.200 A 
ATOM     96  F   UNL A   1      42.347  34.689  30.415  1.00  0.00    -0.200 F 
ATOM     97  F   UNL A   1      41.253  36.244  28.458  1.00  0.00    -0.200 F 
ENDBRANCH  63  87
BRANCH  75  98
ATOM     98  C   UNL A   1      51.385  34.953  26.859  1.00  0.00     0.064 A 
ATOM     99  C   UNL A   1      51.565  35.787  25.746  1.00  0.00     0.173 A 
ATOM    100  C   UNL A   1      51.978  35.334  28.071  1.00  0.00     0.173 A 
ATOM    101  F   UNL A   1      51.030  35.456  24.561  1.00  0.00    -0.203 F 
ATOM    102  C   UNL A   1      52.330  36.946  25.840  1.00  0.00     0.198 A 
ATOM    103  C   UNL A   1      52.717  36.509  28.168  1.00  0.00     0.198 A 
ATOM    104  F   UNL A   1      51.830  34.572  29.166  1.00  0.00    -0.203 F 
ATOM    105  F   UNL A   1      52.528  37.705  24.752  1.00  0.00    -0.200 F 
ATOM    106  C   UNL A   1      52.898  37.310  27.051  1.00  0.00     0.200 A 
ATOM    107  F   UNL A   1      53.254  36.866  29.343  1.00  0.00    -0.200 F 
ATOM    108  F   UNL A   1      53.627  38.431  27.141  1.00  0.00    -0.200 F 
ENDBRANCH  75  98
ENDBRANCH  49  50
ENDBRANCH  41  44
ENDBRANCH  39  40
ENDBRANCH  38  39
ENDBRANCH  37  38
ENDBRANCH   1  37
TORSDOF 17
ENDMDL
