MODEL 1
REMARK VINA RESULT:      -9.9      0.000      0.000
REMARK SMILES O=C(C[NH2+][C@H]1CCCC[C@H]1[N@@H+](Cc1ccccc1)C1CC1)NCCCCNC(=O)c1ccc(-c2c3nc(c(-c4c(F)c(F)c(F)c(F)c4F)c4ccc([nH]4)c(-c4c(F)c(F)c(F)c(F)c4F)c4nc(c(-c5c(F)c(F)c(F)c(F)c5F)c5ccc2[nH]5)C=C4)C=C3)cc1
REMARK SMILES IDX 23 1 22 2 1 3 2 4 3 6 4 7 5 10 6 11 10 12 7 13 9 14 8 15
REMARK SMILES IDX 11 16 12 18 13 19 14 20 18 21 15 22 17 23 16 24 19 25 20 26
REMARK SMILES IDX 21 27 24 28 25 29 26 30 27 31 28 32 29 34 30 35 31 36 92 37
REMARK SMILES IDX 32 38 91 39 33 40 34 41 35 42 85 43 36 44 90 45 84 46 86 47
REMARK SMILES IDX 37 48 89 49 83 50 82 51 38 53 70 54 50 55 69 56 51 57 54 58
REMARK SMILES IDX 68 59 87 60 52 61 53 62 67 64 88 65 55 66 39 67 40 68 48 69
REMARK SMILES IDX 41 70 42 71 46 72 49 73 43 74 44 75 47 76 45 77 71 78 72 79
REMARK SMILES IDX 80 80 73 81 74 82 78 83 81 84 75 85 76 86 79 87 77 88 56 89
REMARK SMILES IDX 57 90 65 91 58 92 59 93 63 94 66 95 60 96 61 97 64 98 62 99
REMARK H PARENT 22 5 4 8 4 9 11 17 27 33 86 52 54 63
REMARK Flexibility Score: inf
ROOT
ATOM      1  C   UNL A   1      43.115  19.314  25.658  1.00  0.00     0.116 C 
ENDROOT
BRANCH   1   2
ATOM      2  N   UNL A   1      44.108  20.342  25.887  1.00  0.00    -0.351 N 
ATOM      3  O   UNL A   1      44.549  20.769  23.667  1.00  0.00    -0.269 OA
ATOM      4  C   UNL A   1      44.712  21.036  24.855  1.00  0.00     0.275 C 
ATOM      5  H   UNL A   1      44.364  20.554  26.813  1.00  0.00     0.163 HD
BRANCH   4   6
ATOM      6  C   UNL A   1      45.542  22.245  25.319  1.00  0.00     0.362 C 
BRANCH   6   7
ATOM      7  N   UNL A   1      45.266  22.446  26.743  1.00  0.00    -0.331 N 
ATOM      8  H   UNL A   1      46.160  22.450  27.237  1.00  0.00     0.347 HD
ATOM      9  H   UNL A   1      44.644  21.684  27.013  1.00  0.00     0.347 HD
BRANCH   7  10
ATOM     10  C   UNL A   1      44.557  23.678  27.093  1.00  0.00     0.241 C 
ATOM     11  C   UNL A   1      43.479  23.338  28.158  1.00  0.00     0.071 C 
ATOM     12  C   UNL A   1      45.490  24.866  27.625  1.00  0.00     0.243 C 
ATOM     13  C   UNL A   1      44.079  22.994  29.521  1.00  0.00     0.007 C 
ATOM     14  C   UNL A   1      45.958  24.599  29.075  1.00  0.00     0.071 C 
ATOM     15  C   UNL A   1      44.858  24.181  30.044  1.00  0.00     0.007 C 
BRANCH  12  16
ATOM     16  N   UNL A   1      46.528  25.499  26.738  1.00  0.00    -0.321 N 
ATOM     17  H   UNL A   1      46.841  24.553  26.519  1.00  0.00     0.349 HD
BRANCH  16  18
ATOM     18  C   UNL A   1      45.968  26.341  25.647  1.00  0.00     0.299 C 
BRANCH  18  19
ATOM     19  C   UNL A   1      44.854  27.337  25.980  1.00  0.00     0.006 A 
ATOM     20  C   UNL A   1      43.545  27.253  25.481  1.00  0.00     0.009 A 
ATOM     21  C   UNL A   1      45.172  28.455  26.765  1.00  0.00     0.009 A 
ATOM     22  C   UNL A   1      42.644  28.311  25.605  1.00  0.00     0.001 A 
ATOM     23  C   UNL A   1      44.254  29.496  26.939  1.00  0.00     0.001 A 
ATOM     24  C   UNL A   1      43.006  29.442  26.322  1.00  0.00     0.000 A 
ENDBRANCH  18  19
ENDBRANCH  16  18
BRANCH  16  25
ATOM     25  C   UNL A   1      47.870  25.986  27.112  1.00  0.00     0.185 C 
ATOM     26  C   UNL A   1      49.125  25.184  27.179  1.00  0.00     0.071 C 
ATOM     27  C   UNL A   1      48.939  26.219  26.097  1.00  0.00     0.071 C 
ENDBRANCH  16  25
ENDBRANCH  12  16
ENDBRANCH   7  10
ENDBRANCH   6   7
ENDBRANCH   4   6
ENDBRANCH   1   2
BRANCH   1  28
ATOM     28  C   UNL A   1      41.721  19.732  26.120  1.00  0.00     0.023 C 
BRANCH  28  29
ATOM     29  C   UNL A   1      41.452  21.242  26.108  1.00  0.00     0.023 C 
BRANCH  29  30
ATOM     30  C   UNL A   1      40.271  21.705  26.960  1.00  0.00     0.116 C 
BRANCH  30  31
ATOM     31  N   UNL A   1      39.157  22.197  26.164  1.00  0.00    -0.352 N 
ATOM     32  C   UNL A   1      38.547  23.426  26.150  1.00  0.00     0.251 C 
ATOM     33  H   UNL A   1      38.780  21.542  25.532  1.00  0.00     0.163 HD
ATOM     34  O   UNL A   1      37.514  23.585  25.498  1.00  0.00    -0.269 OA
BRANCH  32  35
ATOM     35  C   UNL A   1      39.091  24.562  26.929  1.00  0.00     0.039 A 
ATOM     36  C   UNL A   1      39.916  25.487  26.280  1.00  0.00     0.014 A 
ATOM     37  C   UNL A   1      38.826  24.710  28.292  1.00  0.00     0.014 A 
ATOM     38  C   UNL A   1      40.410  26.595  26.976  1.00  0.00     0.010 A 
ATOM     39  C   UNL A   1      39.256  25.854  28.966  1.00  0.00     0.010 A 
ATOM     40  C   UNL A   1      40.049  26.812  28.316  1.00  0.00    -0.014 A 
BRANCH  40  41
ATOM     41  C   UNL A   1      40.479  28.039  29.039  1.00  0.00     0.031 A 
ATOM     42  C   UNL A   1      41.879  28.158  29.579  1.00  0.00     0.074 A 
ATOM     43  C   UNL A   1      39.589  29.025  29.267  1.00  0.00     0.049 A 
ATOM     44  N   UNL A   1      42.416  29.119  30.289  1.00  0.00    -0.248 NA
ATOM     45  C   UNL A   1      42.792  27.038  29.303  1.00  0.00     0.031 C 
ATOM     46  C   UNL A   1      38.192  29.018  28.832  1.00  0.00     0.029 A 
ATOM     47  N   UNL A   1      39.724  30.222  29.928  1.00  0.00    -0.354 N 
ATOM     48  C   UNL A   1      43.717  28.715  30.555  1.00  0.00     0.074 A 
ATOM     49  C   UNL A   1      43.875  27.398  29.975  1.00  0.00     0.031 C 
ATOM     50  C   UNL A   1      37.605  30.163  29.217  1.00  0.00     0.029 A 
ATOM     51  C   UNL A   1      38.568  30.965  29.963  1.00  0.00     0.049 A 
ATOM     52  H   UNL A   1      40.568  30.519  30.339  1.00  0.00     0.167 HD
ATOM     53  C   UNL A   1      44.697  29.388  31.205  1.00  0.00     0.037 A 
ATOM     54  C   UNL A   1      38.309  32.153  30.542  1.00  0.00     0.037 A 
ATOM     55  C   UNL A   1      44.544  30.706  31.766  1.00  0.00     0.049 A 
ATOM     56  C   UNL A   1      39.410  32.868  31.282  1.00  0.00     0.074 A 
ATOM     57  C   UNL A   1      45.494  31.494  32.391  1.00  0.00     0.029 A 
ATOM     58  N   UNL A   1      43.358  31.428  31.780  1.00  0.00    -0.354 N 
ATOM     59  N   UNL A   1      40.656  32.507  31.464  1.00  0.00    -0.248 NA
ATOM     60  C   UNL A   1      39.066  34.159  31.893  1.00  0.00     0.031 C 
ATOM     61  C   UNL A   1      44.872  32.664  32.836  1.00  0.00     0.029 A 
ATOM     62  C   UNL A   1      43.548  32.638  32.431  1.00  0.00     0.049 A 
ATOM     63  H   UNL A   1      42.508  31.125  31.385  1.00  0.00     0.167 HD
ATOM     64  C   UNL A   1      41.253  33.538  32.178  1.00  0.00     0.074 A 
ATOM     65  C   UNL A   1      40.234  34.547  32.383  1.00  0.00     0.031 C 
ATOM     66  C   UNL A   1      42.529  33.640  32.622  1.00  0.00     0.037 A 
BRANCH  53  67
ATOM     67  C   UNL A   1      46.031  28.710  31.351  1.00  0.00     0.064 A 
ATOM     68  C   UNL A   1      46.323  27.882  32.446  1.00  0.00     0.173 A 
ATOM     69  C   UNL A   1      47.015  28.853  30.361  1.00  0.00     0.173 A 
ATOM     70  F   UNL A   1      45.422  27.715  33.426  1.00  0.00    -0.203 F 
ATOM     71  C   UNL A   1      47.560  27.252  32.561  1.00  0.00     0.198 A 
ATOM     72  C   UNL A   1      48.237  28.194  30.460  1.00  0.00     0.198 A 
ATOM     73  F   UNL A   1      46.786  29.625  29.287  1.00  0.00    -0.203 F 
ATOM     74  F   UNL A   1      47.834  26.509  33.642  1.00  0.00    -0.200 F 
ATOM     75  C   UNL A   1      48.512  27.402  31.564  1.00  0.00     0.200 A 
ATOM     76  F   UNL A   1      49.149  28.327  29.488  1.00  0.00    -0.200 F 
ATOM     77  F   UNL A   1      49.698  26.787  31.671  1.00  0.00    -0.200 F 
ENDBRANCH  53  67
BRANCH  54  78
ATOM     78  C   UNL A   1      36.954  32.756  30.435  1.00  0.00     0.064 A 
ATOM     79  C   UNL A   1      36.597  33.532  29.322  1.00  0.00     0.173 A 
ATOM     80  C   UNL A   1      35.994  32.583  31.443  1.00  0.00     0.173 A 
ATOM     81  F   UNL A   1      37.486  33.745  28.341  1.00  0.00    -0.203 F 
ATOM     82  C   UNL A   1      35.342  34.132  29.235  1.00  0.00     0.198 A 
ATOM     83  C   UNL A   1      34.728  33.157  31.338  1.00  0.00     0.198 A 
ATOM     84  F   UNL A   1      36.282  31.846  32.526  1.00  0.00    -0.203 F 
ATOM     85  F   UNL A   1      35.048  34.913  28.187  1.00  0.00    -0.200 F 
ATOM     86  C   UNL A   1      34.407  33.939  30.241  1.00  0.00     0.200 A 
ATOM     87  F   UNL A   1      33.822  32.953  32.305  1.00  0.00    -0.200 F 
ATOM     88  F   UNL A   1      33.200  34.514  30.155  1.00  0.00    -0.200 F 
ENDBRANCH  54  78
BRANCH  66  89
ATOM     89  C   UNL A   1      42.915  34.905  33.338  1.00  0.00     0.064 A 
ATOM     90  C   UNL A   1      43.377  36.035  32.647  1.00  0.00     0.173 A 
ATOM     91  C   UNL A   1      42.784  34.997  34.732  1.00  0.00     0.173 A 
ATOM     92  F   UNL A   1      43.535  35.995  31.315  1.00  0.00    -0.203 F 
ATOM     93  C   UNL A   1      43.721  37.199  33.328  1.00  0.00     0.198 A 
ATOM     94  C   UNL A   1      43.095  36.175  35.406  1.00  0.00     0.198 A 
ATOM     95  F   UNL A   1      42.339  33.949  35.442  1.00  0.00    -0.203 F 
ATOM     96  F   UNL A   1      44.212  38.248  32.653  1.00  0.00    -0.200 F 
ATOM     97  C   UNL A   1      43.572  37.272  34.706  1.00  0.00     0.200 A 
ATOM     98  F   UNL A   1      42.934  36.247  36.735  1.00  0.00    -0.200 F 
ATOM     99  F   UNL A   1      43.894  38.396  35.358  1.00  0.00    -0.200 F 
ENDBRANCH  66  89
ENDBRANCH  40  41
ENDBRANCH  32  35
ENDBRANCH  30  31
ENDBRANCH  29  30
ENDBRANCH  28  29
ENDBRANCH   1  28
TORSDOF 17
ENDMDL
MODEL 2
REMARK VINA RESULT:      -9.6      4.710     10.016
REMARK SMILES O=C(C[NH2+][C@H]1CCCC[C@H]1[N@@H+](Cc1ccccc1)C1CC1)NCCCCNC(=O)c1ccc(-c2c3nc(c(-c4c(F)c(F)c(F)c(F)c4F)c4ccc([nH]4)c(-c4c(F)c(F)c(F)c(F)c4F)c4nc(c(-c5c(F)c(F)c(F)c(F)c5F)c5ccc2[nH]5)C=C4)C=C3)cc1
REMARK SMILES IDX 23 1 22 2 1 3 2 4 3 6 4 7 5 10 6 11 10 12 7 13 9 14 8 15
REMARK SMILES IDX 11 16 12 18 13 19 14 20 18 21 15 22 17 23 16 24 19 25 20 26
REMARK SMILES IDX 21 27 24 28 25 29 26 30 27 31 28 32 29 34 30 35 31 36 92 37
REMARK SMILES IDX 32 38 91 39 33 40 34 41 35 42 85 43 36 44 90 45 84 46 86 47
REMARK SMILES IDX 37 48 89 49 83 50 82 51 38 53 70 54 50 55 69 56 51 57 54 58
REMARK SMILES IDX 68 59 87 60 52 61 53 62 67 64 88 65 55 66 39 67 40 68 48 69
REMARK SMILES IDX 41 70 42 71 46 72 49 73 43 74 44 75 47 76 45 77 71 78 72 79
REMARK SMILES IDX 80 80 73 81 74 82 78 83 81 84 75 85 76 86 79 87 77 88 56 89
REMARK SMILES IDX 57 90 65 91 58 92 59 93 63 94 66 95 60 96 61 97 64 98 62 99
REMARK H PARENT 22 5 4 8 4 9 11 17 27 33 86 52 54 63
REMARK Flexibility Score: inf
ROOT
ATOM      1  C   UNL A   1      32.404  29.935  26.513  1.00  0.00     0.116 C 
ENDROOT
BRANCH   1   2
ATOM      2  N   UNL A   1      32.091  28.581  26.107  1.00  0.00    -0.351 N 
ATOM      3  O   UNL A   1      31.108  27.941  28.089  1.00  0.00    -0.269 OA
ATOM      4  C   UNL A   1      31.407  27.700  26.922  1.00  0.00     0.275 C 
ATOM      5  H   UNL A   1      32.377  28.277  25.216  1.00  0.00     0.163 HD
BRANCH   4   6
ATOM      6  C   UNL A   1      30.962  26.410  26.211  1.00  0.00     0.362 C 
BRANCH   6   7
ATOM      7  N   UNL A   1      32.145  25.830  25.572  1.00  0.00    -0.331 N 
ATOM      8  H   UNL A   1      32.844  25.665  26.298  1.00  0.00     0.347 HD
ATOM      9  H   UNL A   1      32.433  26.504  24.862  1.00  0.00     0.347 HD
BRANCH   7  10
ATOM     10  C   UNL A   1      31.937  24.569  24.858  1.00  0.00     0.241 C 
ATOM     11  C   UNL A   1      30.999  24.839  23.650  1.00  0.00     0.071 C 
ATOM     12  C   UNL A   1      33.276  23.850  24.355  1.00  0.00     0.243 C 
ATOM     13  C   UNL A   1      31.673  25.649  22.544  1.00  0.00     0.007 C 
ATOM     14  C   UNL A   1      33.867  24.573  23.121  1.00  0.00     0.071 C 
ATOM     15  C   UNL A   1      32.867  24.886  22.015  1.00  0.00     0.007 C 
BRANCH  12  16
ATOM     16  N   UNL A   1      34.301  23.339  25.332  1.00  0.00    -0.321 N 
ATOM     17  H   UNL A   1      34.005  22.399  25.069  1.00  0.00     0.349 HD
BRANCH  16  18
ATOM     18  C   UNL A   1      35.695  23.762  25.033  1.00  0.00     0.299 C 
BRANCH  18  19
ATOM     19  C   UNL A   1      36.813  22.718  25.086  1.00  0.00     0.006 A 
ATOM     20  C   UNL A   1      36.723  21.435  24.525  1.00  0.00     0.009 A 
ATOM     21  C   UNL A   1      37.975  23.023  25.810  1.00  0.00     0.009 A 
ATOM     22  C   UNL A   1      37.657  20.441  24.815  1.00  0.00     0.001 A 
ATOM     23  C   UNL A   1      38.943  22.044  26.060  1.00  0.00     0.001 A 
ATOM     24  C   UNL A   1      38.761  20.742  25.599  1.00  0.00     0.000 A 
ENDBRANCH  18  19
ENDBRANCH  16  18
BRANCH  16  25
ATOM     25  C   UNL A   1      34.143  23.115  26.782  1.00  0.00     0.185 C 
ATOM     26  C   UNL A   1      32.941  22.568  27.476  1.00  0.00     0.071 C 
ATOM     27  C   UNL A   1      34.205  21.749  27.383  1.00  0.00     0.071 C 
ENDBRANCH  16  25
ENDBRANCH  12  16
ENDBRANCH   7  10
ENDBRANCH   6   7
ENDBRANCH   4   6
ENDBRANCH   1   2
BRANCH   1  28
ATOM     28  C   UNL A   1      31.511  30.972  25.835  1.00  0.00     0.023 C 
BRANCH  28  29
ATOM     29  C   UNL A   1      31.260  32.250  26.643  1.00  0.00     0.023 C 
BRANCH  29  30
ATOM     30  C   UNL A   1      32.487  32.838  27.339  1.00  0.00     0.116 C 
BRANCH  30  31
ATOM     31  N   UNL A   1      32.314  34.235  27.705  1.00  0.00    -0.352 N 
ATOM     32  C   UNL A   1      32.970  34.999  28.638  1.00  0.00     0.251 C 
ATOM     33  H   UNL A   1      31.614  34.711  27.201  1.00  0.00     0.163 HD
ATOM     34  O   UNL A   1      32.560  36.132  28.893  1.00  0.00    -0.269 OA
BRANCH  32  35
ATOM     35  C   UNL A   1      34.147  34.475  29.369  1.00  0.00     0.039 A 
ATOM     36  C   UNL A   1      33.952  33.902  30.631  1.00  0.00     0.014 A 
ATOM     37  C   UNL A   1      35.437  34.568  28.844  1.00  0.00     0.014 A 
ATOM     38  C   UNL A   1      35.035  33.358  31.328  1.00  0.00     0.010 A 
ATOM     39  C   UNL A   1      36.505  33.958  29.504  1.00  0.00     0.010 A 
ATOM     40  C   UNL A   1      36.317  33.343  30.752  1.00  0.00    -0.014 A 
BRANCH  40  41
ATOM     41  C   UNL A   1      37.459  32.675  31.433  1.00  0.00     0.031 A 
ATOM     42  C   UNL A   1      38.140  31.492  30.801  1.00  0.00     0.074 A 
ATOM     43  C   UNL A   1      37.844  33.095  32.654  1.00  0.00     0.049 A 
ATOM     44  N   UNL A   1      39.106  30.742  31.271  1.00  0.00    -0.248 NA
ATOM     45  C   UNL A   1      37.658  31.082  29.474  1.00  0.00     0.031 C 
ATOM     46  C   UNL A   1      37.243  34.205  33.394  1.00  0.00     0.029 A 
ATOM     47  N   UNL A   1      38.830  32.633  33.493  1.00  0.00    -0.354 N 
ATOM     48  C   UNL A   1      39.335  29.768  30.308  1.00  0.00     0.074 A 
ATOM     49  C   UNL A   1      38.373  29.990  29.249  1.00  0.00     0.031 C 
ATOM     50  C   UNL A   1      37.885  34.353  34.564  1.00  0.00     0.029 A 
ATOM     51  C   UNL A   1      38.912  33.323  34.679  1.00  0.00     0.049 A 
ATOM     52  H   UNL A   1      39.421  31.879  33.266  1.00  0.00     0.167 HD
ATOM     53  C   UNL A   1      40.275  28.793  30.297  1.00  0.00     0.037 A 
ATOM     54  C   UNL A   1      39.715  33.140  35.744  1.00  0.00     0.037 A 
ATOM     55  C   UNL A   1      41.244  28.584  31.343  1.00  0.00     0.049 A 
ATOM     56  C   UNL A   1      40.733  32.030  35.717  1.00  0.00     0.074 A 
ATOM     57  C   UNL A   1      42.273  27.661  31.395  1.00  0.00     0.029 A 
ATOM     58  N   UNL A   1      41.297  29.305  32.528  1.00  0.00    -0.354 N 
ATOM     59  N   UNL A   1      40.987  31.161  34.769  1.00  0.00    -0.248 NA
ATOM     60  C   UNL A   1      41.579  31.879  36.909  1.00  0.00     0.031 C 
ATOM     61  C   UNL A   1      42.909  27.781  32.634  1.00  0.00     0.029 A 
ATOM     62  C   UNL A   1      42.321  28.825  33.329  1.00  0.00     0.049 A 
ATOM     63  H   UNL A   1      40.695  30.049  32.764  1.00  0.00     0.167 HD
ATOM     64  C   UNL A   1      42.042  30.386  35.234  1.00  0.00     0.074 A 
ATOM     65  C   UNL A   1      42.390  30.896  36.543  1.00  0.00     0.031 C 
ATOM     66  C   UNL A   1      42.665  29.346  34.629  1.00  0.00     0.037 A 
BRANCH  53  67
ATOM     67  C   UNL A   1      40.304  27.864  29.114  1.00  0.00     0.064 A 
ATOM     68  C   UNL A   1      41.060  28.151  27.968  1.00  0.00     0.173 A 
ATOM     69  C   UNL A   1      39.600  26.650  29.145  1.00  0.00     0.173 A 
ATOM     70  F   UNL A   1      41.747  29.301  27.880  1.00  0.00    -0.203 F 
ATOM     71  C   UNL A   1      41.084  27.274  26.885  1.00  0.00     0.198 A 
ATOM     72  C   UNL A   1      39.654  25.760  28.077  1.00  0.00     0.198 A 
ATOM     73  F   UNL A   1      38.868  26.321  30.221  1.00  0.00    -0.203 F 
ATOM     74  F   UNL A   1      41.772  27.595  25.780  1.00  0.00    -0.200 F 
ATOM     75  C   UNL A   1      40.389  26.076  26.944  1.00  0.00     0.200 A 
ATOM     76  F   UNL A   1      38.995  24.595  28.143  1.00  0.00    -0.200 F 
ATOM     77  F   UNL A   1      40.420  25.230  25.905  1.00  0.00    -0.200 F 
ENDBRANCH  53  67
BRANCH  54  78
ATOM     78  C   UNL A   1      39.604  34.037  36.925  1.00  0.00     0.064 A 
ATOM     79  C   UNL A   1      38.817  33.679  38.030  1.00  0.00     0.173 A 
ATOM     80  C   UNL A   1      40.266  35.272  36.971  1.00  0.00     0.173 A 
ATOM     81  F   UNL A   1      38.147  32.517  38.026  1.00  0.00    -0.203 F 
ATOM     82  C   UNL A   1      38.677  34.533  39.122  1.00  0.00     0.198 A 
ATOM     83  C   UNL A   1      40.151  36.111  38.079  1.00  0.00     0.198 A 
ATOM     84  F   UNL A   1      41.035  35.661  35.943  1.00  0.00    -0.203 F 
ATOM     85  F   UNL A   1      37.876  34.189  40.140  1.00  0.00    -0.200 F 
ATOM     86  C   UNL A   1      39.350  35.745  39.148  1.00  0.00     0.200 A 
ATOM     87  F   UNL A   1      40.816  37.274  38.106  1.00  0.00    -0.200 F 
ATOM     88  F   UNL A   1      39.217  36.565  40.199  1.00  0.00    -0.200 F 
ENDBRANCH  54  78
BRANCH  66  89
ATOM     89  C   UNL A   1      43.820  28.713  35.355  1.00  0.00     0.064 A 
ATOM     90  C   UNL A   1      43.643  27.626  36.223  1.00  0.00     0.173 A 
ATOM     91  C   UNL A   1      45.127  29.181  35.147  1.00  0.00     0.173 A 
ATOM     92  F   UNL A   1      42.412  27.150  36.468  1.00  0.00    -0.203 F 
ATOM     93  C   UNL A   1      44.727  27.050  36.879  1.00  0.00     0.198 A 
ATOM     94  C   UNL A   1      46.213  28.579  35.778  1.00  0.00     0.198 A 
ATOM     95  F   UNL A   1      45.355  30.213  34.322  1.00  0.00    -0.203 F 
ATOM     96  F   UNL A   1      44.528  26.047  37.747  1.00  0.00    -0.200 F 
ATOM     97  C   UNL A   1      46.012  27.521  36.650  1.00  0.00     0.200 A 
ATOM     98  F   UNL A   1      47.455  29.025  35.541  1.00  0.00    -0.200 F 
ATOM     99  F   UNL A   1      47.055  26.958  37.275  1.00  0.00    -0.200 F 
ENDBRANCH  66  89
ENDBRANCH  40  41
ENDBRANCH  32  35
ENDBRANCH  30  31
ENDBRANCH  29  30
ENDBRANCH  28  29
ENDBRANCH   1  28
TORSDOF 17
ENDMDL
MODEL 3
REMARK VINA RESULT:      -9.6      4.689     10.046
REMARK SMILES O=C(C[NH2+][C@H]1CCCC[C@H]1[N@@H+](Cc1ccccc1)C1CC1)NCCCCNC(=O)c1ccc(-c2c3nc(c(-c4c(F)c(F)c(F)c(F)c4F)c4ccc([nH]4)c(-c4c(F)c(F)c(F)c(F)c4F)c4nc(c(-c5c(F)c(F)c(F)c(F)c5F)c5ccc2[nH]5)C=C4)C=C3)cc1
REMARK SMILES IDX 23 1 22 2 1 3 2 4 3 6 4 7 5 10 6 11 10 12 7 13 9 14 8 15
REMARK SMILES IDX 11 16 12 18 13 19 14 20 18 21 15 22 17 23 16 24 19 25 20 26
REMARK SMILES IDX 21 27 24 28 25 29 26 30 27 31 28 32 29 34 30 35 31 36 92 37
REMARK SMILES IDX 32 38 91 39 33 40 34 41 35 42 85 43 36 44 90 45 84 46 86 47
REMARK SMILES IDX 37 48 89 49 83 50 82 51 38 53 70 54 50 55 69 56 51 57 54 58
REMARK SMILES IDX 68 59 87 60 52 61 53 62 67 64 88 65 55 66 39 67 40 68 48 69
REMARK SMILES IDX 41 70 42 71 46 72 49 73 43 74 44 75 47 76 45 77 71 78 72 79
REMARK SMILES IDX 80 80 73 81 74 82 78 83 81 84 75 85 76 86 79 87 77 88 56 89
REMARK SMILES IDX 57 90 65 91 58 92 59 93 63 94 66 95 60 96 61 97 64 98 62 99
REMARK H PARENT 22 5 4 8 4 9 11 17 27 33 86 52 54 63
REMARK Flexibility Score: inf
ROOT
ATOM      1  C   UNL A   1      32.876  30.200  26.309  1.00  0.00     0.116 C 
ENDROOT
BRANCH   1   2
ATOM      2  N   UNL A   1      33.266  29.319  25.228  1.00  0.00    -0.351 N 
ATOM      3  O   UNL A   1      33.656  27.466  26.541  1.00  0.00    -0.269 OA
ATOM      4  C   UNL A   1      33.574  27.986  25.431  1.00  0.00     0.275 C 
ATOM      5  H   UNL A   1      33.314  29.682  24.316  1.00  0.00     0.163 HD
BRANCH   4   6
ATOM      6  C   UNL A   1      33.715  27.175  24.131  1.00  0.00     0.362 C 
BRANCH   6   7
ATOM      7  N   UNL A   1      34.108  25.814  24.504  1.00  0.00    -0.331 N 
ATOM      8  H   UNL A   1      34.429  25.836  25.473  1.00  0.00     0.347 HD
ATOM      9  H   UNL A   1      34.826  25.541  23.833  1.00  0.00     0.347 HD
BRANCH   7  10
ATOM     10  C   UNL A   1      33.064  24.793  24.403  1.00  0.00     0.241 C 
ATOM     11  C   UNL A   1      32.156  25.139  23.191  1.00  0.00     0.071 C 
ATOM     12  C   UNL A   1      33.601  23.291  24.266  1.00  0.00     0.243 C 
ATOM     13  C   UNL A   1      32.852  24.927  21.847  1.00  0.00     0.007 C 
ATOM     14  C   UNL A   1      34.150  23.022  22.844  1.00  0.00     0.071 C 
ATOM     15  C   UNL A   1      33.243  23.472  21.705  1.00  0.00     0.007 C 
BRANCH  12  16
ATOM     16  N   UNL A   1      34.385  22.639  25.374  1.00  0.00    -0.321 N 
ATOM     17  H   UNL A   1      34.251  23.501  25.903  1.00  0.00     0.349 HD
BRANCH  16  18
ATOM     18  C   UNL A   1      33.785  21.379  25.888  1.00  0.00     0.299 C 
BRANCH  18  19
ATOM     19  C   UNL A   1      33.661  20.180  24.945  1.00  0.00     0.006 A 
ATOM     20  C   UNL A   1      32.520  19.889  24.182  1.00  0.00     0.009 A 
ATOM     21  C   UNL A   1      34.720  19.260  24.895  1.00  0.00     0.009 A 
ATOM     22  C   UNL A   1      32.361  18.661  23.540  1.00  0.00     0.001 A 
ATOM     23  C   UNL A   1      34.587  18.049  24.208  1.00  0.00     0.001 A 
ATOM     24  C   UNL A   1      33.391  17.732  23.568  1.00  0.00     0.000 A 
ENDBRANCH  18  19
ENDBRANCH  16  18
BRANCH  16  25
ATOM     25  C   UNL A   1      35.849  22.612  25.557  1.00  0.00     0.185 C 
ATOM     26  C   UNL A   1      36.873  22.280  24.525  1.00  0.00     0.071 C 
ATOM     27  C   UNL A   1      36.733  23.694  25.032  1.00  0.00     0.071 C 
ENDBRANCH  16  25
ENDBRANCH  12  16
ENDBRANCH   7  10
ENDBRANCH   6   7
ENDBRANCH   4   6
ENDBRANCH   1   2
BRANCH   1  28
ATOM     28  C   UNL A   1      31.493  30.813  26.096  1.00  0.00     0.023 C 
BRANCH  28  29
ATOM     29  C   UNL A   1      31.357  32.283  26.510  1.00  0.00     0.023 C 
BRANCH  29  30
ATOM     30  C   UNL A   1      32.572  32.881  27.218  1.00  0.00     0.116 C 
BRANCH  30  31
ATOM     31  N   UNL A   1      32.360  34.256  27.643  1.00  0.00    -0.352 N 
ATOM     32  C   UNL A   1      32.992  34.997  28.610  1.00  0.00     0.251 C 
ATOM     33  H   UNL A   1      31.647  34.732  27.158  1.00  0.00     0.163 HD
ATOM     34  O   UNL A   1      32.550  36.106  28.912  1.00  0.00    -0.269 OA
BRANCH  32  35
ATOM     35  C   UNL A   1      34.183  34.476  29.320  1.00  0.00     0.039 A 
ATOM     36  C   UNL A   1      34.005  33.848  30.557  1.00  0.00     0.014 A 
ATOM     37  C   UNL A   1      35.470  34.624  28.799  1.00  0.00     0.014 A 
ATOM     38  C   UNL A   1      35.102  33.306  31.232  1.00  0.00     0.010 A 
ATOM     39  C   UNL A   1      36.554  34.017  29.435  1.00  0.00     0.010 A 
ATOM     40  C   UNL A   1      36.383  33.348  30.657  1.00  0.00    -0.014 A 
BRANCH  40  41
ATOM     41  C   UNL A   1      37.543  32.684  31.311  1.00  0.00     0.031 A 
ATOM     42  C   UNL A   1      38.238  31.528  30.647  1.00  0.00     0.074 A 
ATOM     43  C   UNL A   1      37.934  33.083  32.538  1.00  0.00     0.049 A 
ATOM     44  N   UNL A   1      39.221  30.783  31.089  1.00  0.00    -0.248 NA
ATOM     45  C   UNL A   1      37.749  31.140  29.314  1.00  0.00     0.031 C 
ATOM     46  C   UNL A   1      37.321  34.165  33.310  1.00  0.00     0.029 A 
ATOM     47  N   UNL A   1      38.935  32.619  33.357  1.00  0.00    -0.354 N 
ATOM     48  C   UNL A   1      39.457  29.836  30.102  1.00  0.00     0.074 A 
ATOM     49  C   UNL A   1      38.481  30.065  29.058  1.00  0.00     0.031 C 
ATOM     50  C   UNL A   1      37.972  34.297  34.476  1.00  0.00     0.029 A 
ATOM     51  C   UNL A   1      39.018  33.283  34.557  1.00  0.00     0.049 A 
ATOM     52  H   UNL A   1      39.536  31.880  33.107  1.00  0.00     0.167 HD
ATOM     53  C   UNL A   1      40.413  28.877  30.059  1.00  0.00     0.037 A 
ATOM     54  C   UNL A   1      39.834  33.088  35.611  1.00  0.00     0.037 A 
ATOM     55  C   UNL A   1      41.395  28.661  31.091  1.00  0.00     0.049 A 
ATOM     56  C   UNL A   1      40.870  31.997  35.548  1.00  0.00     0.074 A 
ATOM     57  C   UNL A   1      42.440  27.755  31.112  1.00  0.00     0.029 A 
ATOM     58  N   UNL A   1      41.448  29.356  32.292  1.00  0.00    -0.354 N 
ATOM     59  N   UNL A   1      41.129  31.155  34.578  1.00  0.00    -0.248 NA
ATOM     60  C   UNL A   1      41.731  31.833  36.728  1.00  0.00     0.031 C 
ATOM     61  C   UNL A   1      43.087  27.858  32.348  1.00  0.00     0.029 A 
ATOM     62  C   UNL A   1      42.488  28.875  33.072  1.00  0.00     0.049 A 
ATOM     63  H   UNL A   1      40.836  30.084  32.550  1.00  0.00     0.167 HD
ATOM     64  C   UNL A   1      42.202  30.387  35.014  1.00  0.00     0.074 A 
ATOM     65  C   UNL A   1      42.554  30.873  36.332  1.00  0.00     0.031 C 
ATOM     66  C   UNL A   1      42.836  29.372  34.380  1.00  0.00     0.037 A 
BRANCH  53  67
ATOM     67  C   UNL A   1      40.445  27.977  28.855  1.00  0.00     0.064 A 
ATOM     68  C   UNL A   1      41.211  28.287  27.721  1.00  0.00     0.173 A 
ATOM     69  C   UNL A   1      39.735  26.766  28.853  1.00  0.00     0.173 A 
ATOM     70  F   UNL A   1      41.904  29.435  27.666  1.00  0.00    -0.203 F 
ATOM     71  C   UNL A   1      41.238  27.435  26.619  1.00  0.00     0.198 A 
ATOM     72  C   UNL A   1      39.793  25.901  27.764  1.00  0.00     0.198 A 
ATOM     73  F   UNL A   1      38.994  26.415  29.915  1.00  0.00    -0.203 F 
ATOM     74  F   UNL A   1      41.935  27.778  25.526  1.00  0.00    -0.200 F 
ATOM     75  C   UNL A   1      40.536  26.240  26.645  1.00  0.00     0.200 A 
ATOM     76  F   UNL A   1      39.127  24.738  27.799  1.00  0.00    -0.200 F 
ATOM     77  F   UNL A   1      40.571  25.418  25.587  1.00  0.00    -0.200 F 
ENDBRANCH  53  67
BRANCH  54  78
ATOM     78  C   UNL A   1      39.720  33.956  36.813  1.00  0.00     0.064 A 
ATOM     79  C   UNL A   1      38.928  33.572  37.906  1.00  0.00     0.173 A 
ATOM     80  C   UNL A   1      40.383  35.189  36.892  1.00  0.00     0.173 A 
ATOM     81  F   UNL A   1      38.256  32.412  37.870  1.00  0.00    -0.203 F 
ATOM     82  C   UNL A   1      38.785  34.399  39.018  1.00  0.00     0.198 A 
ATOM     83  C   UNL A   1      40.266  36.000  38.020  1.00  0.00     0.198 A 
ATOM     84  F   UNL A   1      41.157  35.602  35.877  1.00  0.00    -0.203 F 
ATOM     85  F   UNL A   1      37.980  34.031  40.023  1.00  0.00    -0.200 F 
ATOM     86  C   UNL A   1      39.460  35.610  39.076  1.00  0.00     0.200 A 
ATOM     87  F   UNL A   1      40.933  37.161  38.078  1.00  0.00    -0.200 F 
ATOM     88  F   UNL A   1      39.324  36.403  40.147  1.00  0.00    -0.200 F 
ENDBRANCH  54  78
BRANCH  66  89
ATOM     89  C   UNL A   1      44.009  28.743  35.080  1.00  0.00     0.064 A 
ATOM     90  C   UNL A   1      45.317  29.216  34.905  1.00  0.00     0.173 A 
ATOM     91  C   UNL A   1      43.812  27.674  35.968  1.00  0.00     0.173 A 
ATOM     92  F   UNL A   1      45.562  30.226  34.056  1.00  0.00    -0.203 F 
ATOM     93  C   UNL A   1      46.388  28.624  35.569  1.00  0.00     0.198 A 
ATOM     94  C   UNL A   1      44.881  27.107  36.658  1.00  0.00     0.198 A 
ATOM     95  F   UNL A   1      42.580  27.185  36.179  1.00  0.00    -0.203 F 
ATOM     96  F   UNL A   1      47.637  29.059  35.345  1.00  0.00    -0.200 F 
ATOM     97  C   UNL A   1      46.168  27.576  36.452  1.00  0.00     0.200 A 
ATOM     98  F   UNL A   1      44.663  26.106  37.523  1.00  0.00    -0.200 F 
ATOM     99  F   UNL A   1      47.199  27.015  37.098  1.00  0.00    -0.200 F 
ENDBRANCH  66  89
ENDBRANCH  40  41
ENDBRANCH  32  35
ENDBRANCH  30  31
ENDBRANCH  29  30
ENDBRANCH  28  29
ENDBRANCH   1  28
TORSDOF 17
ENDMDL
