MODEL 1
REMARK VINA RESULT:     -13.3      0.000      0.000
REMARK SMILES C[N@H+]1Cc2ccccc2C[C@@H]1C(=O)NCCC(=O)NCC(=O)NCCCCNC(=O)c1ccc(-c2c3nc(c(-c4c(F)c(F)c(F)c(F)c4F)c4ccc([nH]4)c(-c4c(F)c(F)c(F)c(F)c4F)c4nc(c(-c5c(F)c(F)c(F)c(F)c5F)c5ccc2[nH]5)C=C4)C=C3)cc1
REMARK SMILES IDX 24 1 23 2 21 3 22 4 20 6 19 7 17 8 18 9 16 11 15 12 14 13
REMARK SMILES IDX 12 14 13 15 11 17 1 18 2 19 3 20 4 22 10 23 5 24 9 25 6 26
REMARK SMILES IDX 8 27 7 28 25 29 26 30 27 31 28 32 29 33 30 35 31 36 32 37
REMARK SMILES IDX 93 38 33 39 92 40 34 41 35 42 36 43 86 44 37 45 91 46 85 47
REMARK SMILES IDX 87 48 38 49 90 50 84 51 83 52 39 54 71 55 51 56 70 57 52 58
REMARK SMILES IDX 55 59 69 60 88 61 53 62 54 63 68 65 89 66 56 67 40 68 41 69
REMARK SMILES IDX 49 70 42 71 43 72 47 73 50 74 44 75 45 76 48 77 46 78 72 79
REMARK SMILES IDX 73 80 81 81 74 82 75 83 79 84 82 85 76 86 77 87 80 88 78 89
REMARK SMILES IDX 57 90 58 91 66 92 59 93 60 94 64 95 67 96 61 97 62 98 65 99
REMARK SMILES IDX 63 100
REMARK H PARENT 23 5 19 10 14 16 2 21 28 34 87 53 55 64
REMARK Flexibility Score: inf
ROOT
ATOM      1  C   UNL A   1      31.566  29.901  25.301  1.00  0.00     0.116 C 
ENDROOT
BRANCH   1   2
ATOM      2  N   UNL A   1      32.715  29.629  24.455  1.00  0.00    -0.355 N 
ATOM      3  C   UNL A   1      32.934  28.757  23.431  1.00  0.00     0.239 C 
ATOM      4  O   UNL A   1      34.045  28.822  22.892  1.00  0.00    -0.273 OA
ATOM      5  H   UNL A   1      33.496  30.190  24.665  1.00  0.00     0.163 HD
BRANCH   3   6
ATOM      6  C   UNL A   1      31.844  27.853  22.822  1.00  0.00     0.216 C 
BRANCH   6   7
ATOM      7  N   UNL A   1      32.170  27.140  21.600  1.00  0.00    -0.347 N 
ATOM      8  C   UNL A   1      32.817  25.958  21.418  1.00  0.00     0.222 C 
ATOM      9  O   UNL A   1      33.092  25.617  20.267  1.00  0.00    -0.275 OA
ATOM     10  H   UNL A   1      31.875  27.583  20.771  1.00  0.00     0.164 HD
BRANCH   8  11
ATOM     11  C   UNL A   1      33.244  25.111  22.598  1.00  0.00     0.121 C 
BRANCH  11  12
ATOM     12  C   UNL A   1      32.067  24.380  23.247  1.00  0.00     0.126 C 
BRANCH  12  13
ATOM     13  N   UNL A   1      32.260  24.160  24.676  1.00  0.00    -0.350 N 
ATOM     14  C   UNL A   1      31.840  23.071  25.384  1.00  0.00     0.278 C 
ATOM     15  O   UNL A   1      30.974  23.277  26.242  1.00  0.00    -0.268 OA
ATOM     16  H   UNL A   1      32.736  24.861  25.177  1.00  0.00     0.163 HD
BRANCH  14  17
ATOM     17  C   UNL A   1      32.554  21.702  25.279  1.00  0.00     0.278 C 
ATOM     18  C   UNL A   1      34.555  22.793  26.260  1.00  0.00     0.333 C 
ATOM     19  N   UNL A   1      34.046  21.858  25.250  1.00  0.00    -0.323 N 
ATOM     20  C   UNL A   1      34.666  20.535  25.487  1.00  0.00     0.299 C 
ATOM     21  H   UNL A   1      34.287  22.238  24.335  1.00  0.00     0.348 HD
ATOM     22  C   UNL A   1      34.125  19.430  24.606  1.00  0.00     0.010 A 
ATOM     23  C   UNL A   1      32.133  20.870  24.060  1.00  0.00     0.111 C 
ATOM     24  C   UNL A   1      34.815  18.215  24.504  1.00  0.00     0.010 A 
ATOM     25  C   UNL A   1      32.898  19.578  23.940  1.00  0.00    -0.033 A 
ATOM     26  C   UNL A   1      34.310  17.178  23.720  1.00  0.00     0.001 A 
ATOM     27  C   UNL A   1      32.409  18.542  23.134  1.00  0.00     0.004 A 
ATOM     28  C   UNL A   1      33.113  17.344  23.028  1.00  0.00     0.000 A 
ENDBRANCH  14  17
ENDBRANCH  12  13
ENDBRANCH  11  12
ENDBRANCH   8  11
ENDBRANCH   6   7
ENDBRANCH   3   6
ENDBRANCH   1   2
BRANCH   1  29
ATOM     29  C   UNL A   1      31.947  30.490  26.652  1.00  0.00     0.023 C 
BRANCH  29  30
ATOM     30  C   UNL A   1      31.684  31.987  26.783  1.00  0.00     0.023 C 
BRANCH  30  31
ATOM     31  C   UNL A   1      32.826  32.805  27.383  1.00  0.00     0.116 C 
BRANCH  31  32
ATOM     32  N   UNL A   1      32.465  34.186  27.682  1.00  0.00    -0.352 N 
ATOM     33  C   UNL A   1      33.017  35.037  28.611  1.00  0.00     0.251 C 
ATOM     34  H   UNL A   1      31.729  34.559  27.146  1.00  0.00     0.163 HD
ATOM     35  O   UNL A   1      32.545  36.153  28.805  1.00  0.00    -0.269 OA
BRANCH  33  36
ATOM     36  C   UNL A   1      34.159  34.565  29.415  1.00  0.00     0.039 A 
ATOM     37  C   UNL A   1      33.920  34.018  30.677  1.00  0.00     0.014 A 
ATOM     38  C   UNL A   1      35.447  34.574  28.873  1.00  0.00     0.014 A 
ATOM     39  C   UNL A   1      34.959  33.378  31.355  1.00  0.00     0.010 A 
ATOM     40  C   UNL A   1      36.459  33.869  29.514  1.00  0.00     0.010 A 
ATOM     41  C   UNL A   1      36.219  33.248  30.750  1.00  0.00    -0.014 A 
BRANCH  41  42
ATOM     42  C   UNL A   1      37.302  32.445  31.369  1.00  0.00     0.031 A 
ATOM     43  C   UNL A   1      37.805  32.795  32.739  1.00  0.00     0.074 A 
ATOM     44  C   UNL A   1      37.906  31.474  30.657  1.00  0.00     0.049 A 
ATOM     45  N   UNL A   1      38.834  32.321  33.393  1.00  0.00    -0.248 NA
ATOM     46  C   UNL A   1      37.069  33.849  33.454  1.00  0.00     0.031 C 
ATOM     47  C   UNL A   1      37.541  31.065  29.299  1.00  0.00     0.029 A 
ATOM     48  N   UNL A   1      38.969  30.665  30.973  1.00  0.00    -0.354 N 
ATOM     49  C   UNL A   1      38.890  33.041  34.577  1.00  0.00     0.074 A 
ATOM     50  C   UNL A   1      37.818  34.012  34.536  1.00  0.00     0.031 C 
ATOM     51  C   UNL A   1      38.349  30.067  28.909  1.00  0.00     0.029 A 
ATOM     52  C   UNL A   1      39.316  29.794  29.969  1.00  0.00     0.049 A 
ATOM     53  H   UNL A   1      39.439  30.704  31.837  1.00  0.00     0.167 HD
ATOM     54  C   UNL A   1      39.749  32.894  35.614  1.00  0.00     0.037 A 
ATOM     55  C   UNL A   1      40.306  28.885  29.908  1.00  0.00     0.037 A 
ATOM     56  C   UNL A   1      40.788  31.901  35.671  1.00  0.00     0.049 A 
ATOM     57  C   UNL A   1      41.242  28.734  31.074  1.00  0.00     0.074 A 
ATOM     58  C   UNL A   1      41.660  31.622  36.709  1.00  0.00     0.029 A 
ATOM     59  N   UNL A   1      41.093  31.021  34.643  1.00  0.00    -0.354 N 
ATOM     60  N   UNL A   1      41.255  29.383  32.212  1.00  0.00    -0.248 NA
ATOM     61  C   UNL A   1      42.302  27.725  30.946  1.00  0.00     0.031 C 
ATOM     62  C   UNL A   1      42.516  30.594  36.295  1.00  0.00     0.029 A 
ATOM     63  C   UNL A   1      42.152  30.208  35.016  1.00  0.00     0.049 A 
ATOM     64  H   UNL A   1      40.626  30.980  33.778  1.00  0.00     0.167 HD
ATOM     65  C   UNL A   1      42.302  28.845  32.947  1.00  0.00     0.074 A 
ATOM     66  C   UNL A   1      42.900  27.810  32.126  1.00  0.00     0.031 C 
ATOM     67  C   UNL A   1      42.728  29.176  34.191  1.00  0.00     0.037 A 
BRANCH  54  68
ATOM     68  C   UNL A   1      39.594  33.840  36.768  1.00  0.00     0.064 A 
ATOM     69  C   UNL A   1      40.220  35.095  36.783  1.00  0.00     0.173 A 
ATOM     70  C   UNL A   1      38.812  33.484  37.878  1.00  0.00     0.173 A 
ATOM     71  F   UNL A   1      40.992  35.475  35.752  1.00  0.00    -0.203 F 
ATOM     72  C   UNL A   1      40.105  35.941  37.882  1.00  0.00     0.198 A 
ATOM     73  C   UNL A   1      38.674  34.345  38.962  1.00  0.00     0.198 A 
ATOM     74  F   UNL A   1      38.188  32.296  37.913  1.00  0.00    -0.203 F 
ATOM     75  F   UNL A   1      40.764  37.108  37.899  1.00  0.00    -0.200 F 
ATOM     76  C   UNL A   1      39.329  35.568  38.969  1.00  0.00     0.200 A 
ATOM     77  F   UNL A   1      37.915  33.987  40.008  1.00  0.00    -0.200 F 
ATOM     78  F   UNL A   1      39.222  36.381  40.028  1.00  0.00    -0.200 F 
ENDBRANCH  54  68
BRANCH  55  79
ATOM     79  C   UNL A   1      40.437  28.018  28.710  1.00  0.00     0.064 A 
ATOM     80  C   UNL A   1      39.784  26.779  28.656  1.00  0.00     0.173 A 
ATOM     81  C   UNL A   1      41.194  28.408  27.597  1.00  0.00     0.173 A 
ATOM     82  F   UNL A   1      39.066  26.356  29.707  1.00  0.00    -0.203 F 
ATOM     83  C   UNL A   1      39.887  25.959  27.535  1.00  0.00     0.198 A 
ATOM     84  C   UNL A   1      41.281  27.596  26.468  1.00  0.00     0.198 A 
ATOM     85  F   UNL A   1      41.835  29.586  27.600  1.00  0.00    -0.203 F 
ATOM     86  F   UNL A   1      39.276  24.767  27.521  1.00  0.00    -0.200 F 
ATOM     87  C   UNL A   1      40.631  26.370  26.440  1.00  0.00     0.200 A 
ATOM     88  F   UNL A   1      41.991  28.002  25.406  1.00  0.00    -0.200 F 
ATOM     89  F   UNL A   1      40.724  25.585  25.358  1.00  0.00    -0.200 F 
ENDBRANCH  55  79
BRANCH  67  90
ATOM     90  C   UNL A   1      43.869  28.386  34.757  1.00  0.00     0.064 A 
ATOM     91  C   UNL A   1      43.660  27.187  35.452  1.00  0.00     0.173 A 
ATOM     92  C   UNL A   1      45.191  28.815  34.562  1.00  0.00     0.173 A 
ATOM     93  F   UNL A   1      42.412  26.747  35.679  1.00  0.00    -0.203 F 
ATOM     94  C   UNL A   1      44.734  26.454  35.949  1.00  0.00     0.198 A 
ATOM     95  C   UNL A   1      46.263  28.065  35.039  1.00  0.00     0.198 A 
ATOM     96  F   UNL A   1      45.442  29.954  33.900  1.00  0.00    -0.203 F 
ATOM     97  F   UNL A   1      44.510  25.329  36.643  1.00  0.00    -0.200 F 
ATOM     98  C   UNL A   1      46.034  26.889  35.735  1.00  0.00     0.200 A 
ATOM     99  F   UNL A   1      47.518  28.482  34.824  1.00  0.00    -0.200 F 
ATOM    100  F   UNL A   1      47.066  26.176  36.208  1.00  0.00    -0.200 F 
ENDBRANCH  67  90
ENDBRANCH  41  42
ENDBRANCH  33  36
ENDBRANCH  31  32
ENDBRANCH  30  31
ENDBRANCH  29  30
ENDBRANCH   1  29
TORSDOF 16
ENDMDL
MODEL 2
REMARK VINA RESULT:     -13.3      5.237     11.039
REMARK SMILES C[N@H+]1Cc2ccccc2C[C@@H]1C(=O)NCCC(=O)NCC(=O)NCCCCNC(=O)c1ccc(-c2c3nc(c(-c4c(F)c(F)c(F)c(F)c4F)c4ccc([nH]4)c(-c4c(F)c(F)c(F)c(F)c4F)c4nc(c(-c5c(F)c(F)c(F)c(F)c5F)c5ccc2[nH]5)C=C4)C=C3)cc1
REMARK SMILES IDX 24 1 23 2 21 3 22 4 20 6 19 7 17 8 18 9 16 11 15 12 14 13
REMARK SMILES IDX 12 14 13 15 11 17 1 18 2 19 3 20 4 22 10 23 5 24 9 25 6 26
REMARK SMILES IDX 8 27 7 28 25 29 26 30 27 31 28 32 29 33 30 35 31 36 32 37
REMARK SMILES IDX 93 38 33 39 92 40 34 41 35 42 36 43 86 44 37 45 91 46 85 47
REMARK SMILES IDX 87 48 38 49 90 50 84 51 83 52 39 54 71 55 51 56 70 57 52 58
REMARK SMILES IDX 55 59 69 60 88 61 53 62 54 63 68 65 89 66 56 67 40 68 41 69
REMARK SMILES IDX 49 70 42 71 43 72 47 73 50 74 44 75 45 76 48 77 46 78 72 79
REMARK SMILES IDX 73 80 81 81 74 82 75 83 79 84 82 85 76 86 77 87 80 88 78 89
REMARK SMILES IDX 57 90 58 91 66 92 59 93 60 94 64 95 67 96 61 97 62 98 65 99
REMARK SMILES IDX 63 100
REMARK H PARENT 23 5 19 10 14 16 2 21 28 34 87 53 55 64
REMARK Flexibility Score: inf
ROOT
ATOM      1  C   UNL A   1      42.454  19.304  25.750  1.00  0.00     0.116 C 
ENDROOT
BRANCH   1   2
ATOM      2  N   UNL A   1      43.789  18.777  25.969  1.00  0.00    -0.355 N 
ATOM      3  C   UNL A   1      44.885  18.647  25.168  1.00  0.00     0.239 C 
ATOM      4  O   UNL A   1      45.897  18.182  25.705  1.00  0.00    -0.273 OA
ATOM      5  H   UNL A   1      43.933  18.445  26.884  1.00  0.00     0.163 HD
BRANCH   3   6
ATOM      6  C   UNL A   1      44.970  19.198  23.731  1.00  0.00     0.216 C 
BRANCH   6   7
ATOM      7  N   UNL A   1      44.529  20.563  23.508  1.00  0.00    -0.347 N 
ATOM      8  C   UNL A   1      44.750  21.688  24.241  1.00  0.00     0.222 C 
ATOM      9  O   UNL A   1      44.157  22.718  23.916  1.00  0.00    -0.275 OA
ATOM     10  H   UNL A   1      43.984  20.696  22.699  1.00  0.00     0.164 HD
BRANCH   8  11
ATOM     11  C   UNL A   1      45.649  21.665  25.457  1.00  0.00     0.121 C 
BRANCH  11  12
ATOM     12  C   UNL A   1      45.673  23.008  26.189  1.00  0.00     0.126 C 
BRANCH  12  13
ATOM     13  N   UNL A   1      46.805  23.842  25.800  1.00  0.00    -0.350 N 
ATOM     14  C   UNL A   1      46.758  24.923  24.969  1.00  0.00     0.278 C 
ATOM     15  O   UNL A   1      47.365  24.815  23.896  1.00  0.00    -0.268 OA
ATOM     16  H   UNL A   1      47.686  23.603  26.172  1.00  0.00     0.163 HD
BRANCH  14  17
ATOM     17  C   UNL A   1      46.171  26.280  25.423  1.00  0.00     0.278 C 
ATOM     18  C   UNL A   1      48.066  26.442  27.017  1.00  0.00     0.333 C 
ATOM     19  N   UNL A   1      46.628  26.645  26.805  1.00  0.00    -0.323 N 
ATOM     20  C   UNL A   1      46.318  28.072  27.047  1.00  0.00     0.299 C 
ATOM     21  H   UNL A   1      46.136  26.029  27.452  1.00  0.00     0.348 HD
ATOM     22  C   UNL A   1      44.891  28.459  26.726  1.00  0.00     0.010 A 
ATOM     23  C   UNL A   1      44.637  26.339  25.393  1.00  0.00     0.111 C 
ATOM     24  C   UNL A   1      44.378  29.680  27.185  1.00  0.00     0.010 A 
ATOM     25  C   UNL A   1      44.090  27.643  25.913  1.00  0.00    -0.033 A 
ATOM     26  C   UNL A   1      43.074  30.063  26.870  1.00  0.00     0.001 A 
ATOM     27  C   UNL A   1      42.773  28.021  25.622  1.00  0.00     0.004 A 
ATOM     28  C   UNL A   1      42.269  29.230  26.097  1.00  0.00     0.000 A 
ENDBRANCH  14  17
ENDBRANCH  12  13
ENDBRANCH  11  12
ENDBRANCH   8  11
ENDBRANCH   6   7
ENDBRANCH   3   6
ENDBRANCH   1   2
BRANCH   1  29
ATOM     29  C   UNL A   1      41.843  19.918  27.001  1.00  0.00     0.023 C 
BRANCH  29  30
ATOM     30  C   UNL A   1      42.381  21.302  27.351  1.00  0.00     0.023 C 
BRANCH  30  31
ATOM     31  C   UNL A   1      41.722  22.468  26.617  1.00  0.00     0.116 C 
BRANCH  31  32
ATOM     32  N   UNL A   1      40.380  22.173  26.131  1.00  0.00    -0.352 N 
ATOM     33  C   UNL A   1      39.241  22.939  26.232  1.00  0.00     0.251 C 
ATOM     34  H   UNL A   1      40.274  21.310  25.669  1.00  0.00     0.163 HD
ATOM     35  O   UNL A   1      38.157  22.513  25.844  1.00  0.00    -0.269 OA
BRANCH  33  36
ATOM     36  C   UNL A   1      39.333  24.267  26.865  1.00  0.00     0.039 A 
ATOM     37  C   UNL A   1      38.933  24.413  28.195  1.00  0.00     0.014 A 
ATOM     38  C   UNL A   1      39.909  25.334  26.170  1.00  0.00     0.014 A 
ATOM     39  C   UNL A   1      39.213  25.605  28.867  1.00  0.00     0.010 A 
ATOM     40  C   UNL A   1      40.254  26.488  26.863  1.00  0.00     0.010 A 
ATOM     41  C   UNL A   1      39.927  26.626  28.222  1.00  0.00    -0.014 A 
BRANCH  41  42
ATOM     42  C   UNL A   1      40.375  27.842  28.946  1.00  0.00     0.031 A 
ATOM     43  C   UNL A   1      41.765  27.907  29.511  1.00  0.00     0.074 A 
ATOM     44  C   UNL A   1      39.501  28.837  29.189  1.00  0.00     0.049 A 
ATOM     45  N   UNL A   1      42.300  28.804  30.298  1.00  0.00    -0.248 NA
ATOM     46  C   UNL A   1      42.659  26.789  29.172  1.00  0.00     0.031 C 
ATOM     47  C   UNL A   1      38.110  28.876  28.733  1.00  0.00     0.029 A 
ATOM     48  N   UNL A   1      39.650  30.003  29.899  1.00  0.00    -0.354 N 
ATOM     49  C   UNL A   1      43.579  28.344  30.576  1.00  0.00     0.074 A 
ATOM     50  C   UNL A   1      43.725  27.068  29.909  1.00  0.00     0.031 C 
ATOM     51  C   UNL A   1      37.541  30.017  29.152  1.00  0.00     0.029 A 
ATOM     52  C   UNL A   1      38.512  30.770  29.942  1.00  0.00     0.049 A 
ATOM     53  H   UNL A   1      40.492  30.264  30.335  1.00  0.00     0.167 HD
ATOM     54  C   UNL A   1      44.549  28.939  31.309  1.00  0.00     0.037 A 
ATOM     55  C   UNL A   1      38.276  31.944  30.556  1.00  0.00     0.037 A 
ATOM     56  C   UNL A   1      44.415  30.227  31.937  1.00  0.00     0.049 A 
ATOM     57  C   UNL A   1      39.371  32.590  31.357  1.00  0.00     0.074 A 
ATOM     58  C   UNL A   1      45.365  30.950  32.637  1.00  0.00     0.029 A 
ATOM     59  N   UNL A   1      43.253  30.985  31.939  1.00  0.00    -0.354 N 
ATOM     60  N   UNL A   1      40.594  32.174  31.571  1.00  0.00    -0.248 NA
ATOM     61  C   UNL A   1      39.051  33.871  32.003  1.00  0.00     0.031 C 
ATOM     62  C   UNL A   1      44.767  32.132  33.091  1.00  0.00     0.029 A 
ATOM     63  C   UNL A   1      43.458  32.162  32.642  1.00  0.00     0.049 A 
ATOM     64  H   UNL A   1      42.409  30.725  31.504  1.00  0.00     0.167 HD
ATOM     65  C   UNL A   1      41.199  33.149  32.351  1.00  0.00     0.074 A 
ATOM     66  C   UNL A   1      40.208  34.184  32.569  1.00  0.00     0.031 C 
ATOM     67  C   UNL A   1      42.463  33.186  32.840  1.00  0.00     0.037 A 
BRANCH  54  68
ATOM     68  C   UNL A   1      45.840  28.192  31.468  1.00  0.00     0.064 A 
ATOM     69  C   UNL A   1      46.974  28.510  30.707  1.00  0.00     0.173 A 
ATOM     70  C   UNL A   1      45.942  27.141  32.391  1.00  0.00     0.173 A 
ATOM     71  F   UNL A   1      46.922  29.498  29.800  1.00  0.00    -0.203 F 
ATOM     72  C   UNL A   1      48.151  27.777  30.833  1.00  0.00     0.198 A 
ATOM     73  C   UNL A   1      47.130  26.429  32.537  1.00  0.00     0.198 A 
ATOM     74  F   UNL A   1      44.888  26.799  33.148  1.00  0.00    -0.203 F 
ATOM     75  F   UNL A   1      49.201  28.059  30.050  1.00  0.00    -0.200 F 
ATOM     76  C   UNL A   1      48.229  26.740  31.750  1.00  0.00     0.200 A 
ATOM     77  F   UNL A   1      47.207  25.433  33.431  1.00  0.00    -0.200 F 
ATOM     78  F   UNL A   1      49.360  26.032  31.867  1.00  0.00    -0.200 F 
ENDBRANCH  54  68
BRANCH  55  79
ATOM     79  C   UNL A   1      36.954  32.603  30.402  1.00  0.00     0.064 A 
ATOM     80  C   UNL A   1      35.951  32.412  31.362  1.00  0.00     0.173 A 
ATOM     81  C   UNL A   1      36.671  33.443  29.317  1.00  0.00     0.173 A 
ATOM     82  F   UNL A   1      36.171  31.599  32.406  1.00  0.00    -0.203 F 
ATOM     83  C   UNL A   1      34.710  33.032  31.238  1.00  0.00     0.198 A 
ATOM     84  C   UNL A   1      35.437  34.079  29.205  1.00  0.00     0.198 A 
ATOM     85  F   UNL A   1      37.601  33.659  28.375  1.00  0.00    -0.203 F 
ATOM     86  F   UNL A   1      33.758  32.810  32.155  1.00  0.00    -0.200 F 
ATOM     87  C   UNL A   1      34.456  33.870  30.163  1.00  0.00     0.200 A 
ATOM     88  F   UNL A   1      35.198  34.898  28.171  1.00  0.00    -0.200 F 
ATOM     89  F   UNL A   1      33.265  34.473  30.048  1.00  0.00    -0.200 F 
ENDBRANCH  55  79
BRANCH  67  90
ATOM     90  C   UNL A   1      42.860  34.400  33.625  1.00  0.00     0.064 A 
ATOM     91  C   UNL A   1      43.275  35.580  32.992  1.00  0.00     0.173 A 
ATOM     92  C   UNL A   1      42.781  34.394  35.025  1.00  0.00     0.173 A 
ATOM     93  F   UNL A   1      43.382  35.628  31.655  1.00  0.00    -0.203 F 
ATOM     94  C   UNL A   1      43.614  36.707  33.736  1.00  0.00     0.198 A 
ATOM     95  C   UNL A   1      43.098  35.530  35.764  1.00  0.00     0.198 A 
ATOM     96  F   UNL A   1      42.386  33.289  35.676  1.00  0.00    -0.203 F 
ATOM     97  F   UNL A   1      44.044  37.813  33.114  1.00  0.00    -0.200 F 
ATOM     98  C   UNL A   1      43.518  36.684  35.120  1.00  0.00     0.200 A 
ATOM     99  F   UNL A   1      42.996  35.509  37.100  1.00  0.00    -0.200 F 
ATOM    100  F   UNL A   1      43.839  37.772  35.834  1.00  0.00    -0.200 F 
ENDBRANCH  67  90
ENDBRANCH  41  42
ENDBRANCH  33  36
ENDBRANCH  31  32
ENDBRANCH  30  31
ENDBRANCH  29  30
ENDBRANCH   1  29
TORSDOF 16
ENDMDL
MODEL 3
REMARK VINA RESULT:     -13.2      0.930      2.262
REMARK SMILES C[N@H+]1Cc2ccccc2C[C@@H]1C(=O)NCCC(=O)NCC(=O)NCCCCNC(=O)c1ccc(-c2c3nc(c(-c4c(F)c(F)c(F)c(F)c4F)c4ccc([nH]4)c(-c4c(F)c(F)c(F)c(F)c4F)c4nc(c(-c5c(F)c(F)c(F)c(F)c5F)c5ccc2[nH]5)C=C4)C=C3)cc1
REMARK SMILES IDX 24 1 23 2 21 3 22 4 20 6 19 7 17 8 18 9 16 11 15 12 14 13
REMARK SMILES IDX 12 14 13 15 11 17 1 18 2 19 3 20 4 22 10 23 5 24 9 25 6 26
REMARK SMILES IDX 8 27 7 28 25 29 26 30 27 31 28 32 29 33 30 35 31 36 32 37
REMARK SMILES IDX 93 38 33 39 92 40 34 41 35 42 36 43 86 44 37 45 91 46 85 47
REMARK SMILES IDX 87 48 38 49 90 50 84 51 83 52 39 54 71 55 51 56 70 57 52 58
REMARK SMILES IDX 55 59 69 60 88 61 53 62 54 63 68 65 89 66 56 67 40 68 41 69
REMARK SMILES IDX 49 70 42 71 43 72 47 73 50 74 44 75 45 76 48 77 46 78 72 79
REMARK SMILES IDX 73 80 81 81 74 82 75 83 79 84 82 85 76 86 77 87 80 88 78 89
REMARK SMILES IDX 57 90 58 91 66 92 59 93 60 94 64 95 67 96 61 97 62 98 65 99
REMARK SMILES IDX 63 100
REMARK H PARENT 23 5 19 10 14 16 2 21 28 34 87 53 55 64
REMARK Flexibility Score: inf
ROOT
ATOM      1  C   UNL A   1      32.201  29.849  25.524  1.00  0.00     0.116 C 
ENDROOT
BRANCH   1   2
ATOM      2  N   UNL A   1      31.013  30.089  24.725  1.00  0.00    -0.355 N 
ATOM      3  C   UNL A   1      30.424  29.411  23.700  1.00  0.00     0.239 C 
ATOM      4  O   UNL A   1      29.370  29.890  23.267  1.00  0.00    -0.273 OA
ATOM      5  H   UNL A   1      30.534  30.912  24.975  1.00  0.00     0.163 HD
BRANCH   3   6
ATOM      6  C   UNL A   1      30.898  28.033  23.195  1.00  0.00     0.216 C 
BRANCH   6   7
ATOM      7  N   UNL A   1      32.035  28.003  22.294  1.00  0.00    -0.347 N 
ATOM      8  C   UNL A   1      33.206  27.317  22.381  1.00  0.00     0.222 C 
ATOM      9  O   UNL A   1      34.082  27.557  21.549  1.00  0.00    -0.275 OA
ATOM     10  H   UNL A   1      31.945  28.569  21.494  1.00  0.00     0.164 HD
BRANCH   8  11
ATOM     11  C   UNL A   1      33.454  26.331  23.501  1.00  0.00     0.121 C 
BRANCH  11  12
ATOM     12  C   UNL A   1      33.636  24.901  22.990  1.00  0.00     0.126 C 
BRANCH  12  13
ATOM     13  N   UNL A   1      34.697  24.183  23.688  1.00  0.00    -0.350 N 
ATOM     14  C   UNL A   1      34.530  23.321  24.733  1.00  0.00     0.278 C 
ATOM     15  O   UNL A   1      35.012  23.673  25.815  1.00  0.00    -0.268 OA
ATOM     16  H   UNL A   1      35.619  24.334  23.377  1.00  0.00     0.163 HD
BRANCH  14  17
ATOM     17  C   UNL A   1      33.967  21.893  24.533  1.00  0.00     0.278 C 
ATOM     18  C   UNL A   1      31.781  22.763  25.321  1.00  0.00     0.333 C 
ATOM     19  N   UNL A   1      32.746  21.658  25.373  1.00  0.00    -0.323 N 
ATOM     20  C   UNL A   1      32.072  20.429  24.898  1.00  0.00     0.299 C 
ATOM     21  H   UNL A   1      33.061  21.577  26.339  1.00  0.00     0.348 HD
ATOM     22  C   UNL A   1      32.989  19.234  24.761  1.00  0.00     0.010 A 
ATOM     23  C   UNL A   1      34.977  20.776  24.831  1.00  0.00     0.111 C 
ATOM     24  C   UNL A   1      32.447  17.949  24.620  1.00  0.00     0.010 A 
ATOM     25  C   UNL A   1      34.381  19.398  24.704  1.00  0.00    -0.033 A 
ATOM     26  C   UNL A   1      33.281  16.842  24.462  1.00  0.00     0.001 A 
ATOM     27  C   UNL A   1      35.214  18.280  24.571  1.00  0.00     0.004 A 
ATOM     28  C   UNL A   1      34.664  17.006  24.447  1.00  0.00     0.000 A 
ENDBRANCH  14  17
ENDBRANCH  12  13
ENDBRANCH  11  12
ENDBRANCH   8  11
ENDBRANCH   6   7
ENDBRANCH   3   6
ENDBRANCH   1   2
BRANCH   1  29
ATOM     29  C   UNL A   1      32.110  30.444  26.922  1.00  0.00     0.023 C 
BRANCH  29  30
ATOM     30  C   UNL A   1      31.778  31.933  26.952  1.00  0.00     0.023 C 
BRANCH  30  31
ATOM     31  C   UNL A   1      32.941  32.857  27.308  1.00  0.00     0.116 C 
BRANCH  31  32
ATOM     32  N   UNL A   1      32.527  34.205  27.680  1.00  0.00    -0.352 N 
ATOM     33  C   UNL A   1      33.029  35.016  28.671  1.00  0.00     0.251 C 
ATOM     34  H   UNL A   1      31.789  34.585  27.151  1.00  0.00     0.163 HD
ATOM     35  O   UNL A   1      32.515  36.102  28.920  1.00  0.00    -0.269 OA
BRANCH  33  36
ATOM     36  C   UNL A   1      34.171  34.535  29.471  1.00  0.00     0.039 A 
ATOM     37  C   UNL A   1      33.927  33.935  30.708  1.00  0.00     0.014 A 
ATOM     38  C   UNL A   1      35.465  34.589  28.946  1.00  0.00     0.014 A 
ATOM     39  C   UNL A   1      34.969  33.288  31.373  1.00  0.00     0.010 A 
ATOM     40  C   UNL A   1      36.482  33.879  29.572  1.00  0.00     0.010 A 
ATOM     41  C   UNL A   1      36.239  33.206  30.781  1.00  0.00    -0.014 A 
BRANCH  41  42
ATOM     42  C   UNL A   1      37.330  32.399  31.383  1.00  0.00     0.031 A 
ATOM     43  C   UNL A   1      37.845  32.739  32.751  1.00  0.00     0.074 A 
ATOM     44  C   UNL A   1      37.928  31.436  30.656  1.00  0.00     0.049 A 
ATOM     45  N   UNL A   1      38.881  32.262  33.390  1.00  0.00    -0.248 NA
ATOM     46  C   UNL A   1      37.114  33.786  33.482  1.00  0.00     0.031 C 
ATOM     47  C   UNL A   1      37.552  31.038  29.299  1.00  0.00     0.029 A 
ATOM     48  N   UNL A   1      38.996  30.626  30.955  1.00  0.00    -0.354 N 
ATOM     49  C   UNL A   1      38.947  32.972  34.580  1.00  0.00     0.074 A 
ATOM     50  C   UNL A   1      37.873  33.940  34.557  1.00  0.00     0.031 C 
ATOM     51  C   UNL A   1      38.358  30.045  28.892  1.00  0.00     0.029 A 
ATOM     52  C   UNL A   1      39.335  29.765  29.940  1.00  0.00     0.049 A 
ATOM     53  H   UNL A   1      39.474  30.659  31.815  1.00  0.00     0.167 HD
ATOM     54  C   UNL A   1      39.816  32.818  35.607  1.00  0.00     0.037 A 
ATOM     55  C   UNL A   1      40.326  28.858  29.862  1.00  0.00     0.037 A 
ATOM     56  C   UNL A   1      40.858  31.826  35.646  1.00  0.00     0.049 A 
ATOM     57  C   UNL A   1      41.273  28.700  31.018  1.00  0.00     0.074 A 
ATOM     58  C   UNL A   1      41.741  31.540  36.673  1.00  0.00     0.029 A 
ATOM     59  N   UNL A   1      41.155  30.955  34.608  1.00  0.00    -0.354 N 
ATOM     60  N   UNL A   1      41.296  29.339  32.161  1.00  0.00    -0.248 NA
ATOM     61  C   UNL A   1      42.334  27.693  30.871  1.00  0.00     0.031 C 
ATOM     62  C   UNL A   1      42.595  30.517  36.242  1.00  0.00     0.029 A 
ATOM     63  C   UNL A   1      42.219  30.141  34.963  1.00  0.00     0.049 A 
ATOM     64  H   UNL A   1      40.680  30.921  33.747  1.00  0.00     0.167 HD
ATOM     65  C   UNL A   1      42.352  28.796  32.881  1.00  0.00     0.074 A 
ATOM     66  C   UNL A   1      42.943  27.770  32.046  1.00  0.00     0.031 C 
ATOM     67  C   UNL A   1      42.789  29.118  34.124  1.00  0.00     0.037 A 
BRANCH  54  68
ATOM     68  C   UNL A   1      39.671  33.753  36.771  1.00  0.00     0.064 A 
ATOM     69  C   UNL A   1      38.884  33.426  37.885  1.00  0.00     0.173 A 
ATOM     70  C   UNL A   1      40.322  34.996  36.769  1.00  0.00     0.173 A 
ATOM     71  F   UNL A   1      38.228  32.257  37.928  1.00  0.00    -0.203 F 
ATOM     72  C   UNL A   1      38.721  34.325  38.936  1.00  0.00     0.198 A 
ATOM     73  C   UNL A   1      40.181  35.880  37.835  1.00  0.00     0.198 A 
ATOM     74  F   UNL A   1      41.090  35.356  35.729  1.00  0.00    -0.203 F 
ATOM     75  F   UNL A   1      37.914  34.016  39.960  1.00  0.00    -0.200 F 
ATOM     76  C   UNL A   1      39.373  35.549  38.912  1.00  0.00     0.200 A 
ATOM     77  F   UNL A   1      40.820  37.059  37.816  1.00  0.00    -0.200 F 
ATOM     78  F   UNL A   1      39.211  36.415  39.922  1.00  0.00    -0.200 F 
ENDBRANCH  54  68
BRANCH  55  79
ATOM     79  C   UNL A   1      40.448  28.002  28.655  1.00  0.00     0.064 A 
ATOM     80  C   UNL A   1      41.213  28.424  27.560  1.00  0.00     0.173 A 
ATOM     81  C   UNL A   1      39.824  26.749  28.575  1.00  0.00     0.173 A 
ATOM     82  F   UNL A   1      41.810  29.625  27.585  1.00  0.00    -0.203 F 
ATOM     83  C   UNL A   1      41.346  27.627  26.426  1.00  0.00     0.198 A 
ATOM     84  C   UNL A   1      39.974  25.944  27.448  1.00  0.00     0.198 A 
ATOM     85  F   UNL A   1      39.084  26.301  29.599  1.00  0.00    -0.203 F 
ATOM     86  F   UNL A   1      42.061  28.068  25.380  1.00  0.00    -0.200 F 
ATOM     87  C   UNL A   1      40.732  26.386  26.372  1.00  0.00     0.200 A 
ATOM     88  F   UNL A   1      39.389  24.739  27.404  1.00  0.00    -0.200 F 
ATOM     89  F   UNL A   1      40.866  25.616  25.284  1.00  0.00    -0.200 F 
ENDBRANCH  55  79
BRANCH  67  90
ATOM     90  C   UNL A   1      43.937  28.326  34.673  1.00  0.00     0.064 A 
ATOM     91  C   UNL A   1      45.266  28.736  34.492  1.00  0.00     0.173 A 
ATOM     92  C   UNL A   1      43.701  27.166  35.425  1.00  0.00     0.173 A 
ATOM     93  F   UNL A   1      45.541  29.830  33.764  1.00  0.00    -0.203 F 
ATOM     94  C   UNL A   1      46.318  28.003  35.031  1.00  0.00     0.198 A 
ATOM     95  C   UNL A   1      44.755  26.449  35.984  1.00  0.00     0.198 A 
ATOM     96  F   UNL A   1      42.446  26.735  35.628  1.00  0.00    -0.203 F 
ATOM     97  F   UNL A   1      47.583  28.391  34.816  1.00  0.00    -0.200 F 
ATOM     98  C   UNL A   1      46.062  26.864  35.783  1.00  0.00     0.200 A 
ATOM     99  F   UNL A   1      44.505  25.355  36.716  1.00  0.00    -0.200 F 
ATOM    100  F   UNL A   1      47.077  26.164  36.307  1.00  0.00    -0.200 F 
ENDBRANCH  67  90
ENDBRANCH  41  42
ENDBRANCH  33  36
ENDBRANCH  31  32
ENDBRANCH  30  31
ENDBRANCH  29  30
ENDBRANCH   1  29
TORSDOF 16
ENDMDL
