MODEL 1
REMARK VINA RESULT:     -11.8      0.000      0.000
REMARK SMILES CSCC[C@H](NC(=O)N[C@@H]1CCCCC1(C)C)C(=O)NCCCCNC(=O)c1ccc(-c2c3nc(c(-c4c(F)c(F)c(F)c(F)c4F)c4ccc([nH]4)c(-c4c(F)c(F)c(F)c(F)c4F)c4nc(c(-c5c(F)c(F)c(F)c(F)c5F)c5ccc2[nH]5)C=C4)C=C3)cc1
REMARK SMILES IDX 22 1 21 2 20 3 18 4 19 5 5 7 4 8 3 9 2 10 1 11 6 12 7 13
REMARK SMILES IDX 8 15 9 16 10 18 11 19 15 20 12 21 14 22 16 23 17 24 13 25
REMARK SMILES IDX 23 26 24 27 25 28 26 29 27 31 28 32 29 33 90 34 30 35 89 36
REMARK SMILES IDX 31 37 32 38 33 39 83 40 34 41 88 42 82 43 84 44 35 45 87 46
REMARK SMILES IDX 81 47 80 48 36 50 68 51 48 52 67 53 49 54 52 55 66 56 85 57
REMARK SMILES IDX 50 58 51 59 65 61 86 62 53 63 37 64 38 65 46 66 39 67 40 68
REMARK SMILES IDX 44 69 47 70 41 71 42 72 45 73 43 74 69 75 70 76 78 77 71 78
REMARK SMILES IDX 72 79 76 80 79 81 73 82 74 83 77 84 75 85 54 86 55 87 63 88
REMARK SMILES IDX 56 89 57 90 61 91 64 92 58 93 59 94 62 95 60 96
REMARK H PARENT 20 6 6 14 9 17 25 30 84 49 52 60
REMARK Flexibility Score: inf
ROOT
ATOM      1  C   UNL A   1      31.522  31.026  26.186  1.00  0.00     0.023 C 
ENDROOT
BRANCH   1   2
ATOM      2  C   UNL A   1      31.386  29.862  25.204  1.00  0.00     0.116 C 
BRANCH   2   3
ATOM      3  N   UNL A   1      32.613  29.231  24.749  1.00  0.00    -0.354 N 
ATOM      4  C   UNL A   1      32.853  28.422  23.664  1.00  0.00     0.242 C 
ATOM      5  O   UNL A   1      34.043  28.153  23.447  1.00  0.00    -0.273 OA
ATOM      6  H   UNL A   1      33.401  29.410  25.311  1.00  0.00     0.163 HD
BRANCH   4   7
ATOM      7  C   UNL A   1      31.748  27.758  22.751  1.00  0.00     0.174 C 
BRANCH   7   8
ATOM      8  C   UNL A   1      30.537  27.172  23.519  1.00  0.00     0.046 C 
BRANCH   8   9
ATOM      9  C   UNL A   1      29.139  27.757  23.307  1.00  0.00     0.072 C 
BRANCH   9  10
ATOM     10  S   UNL A   1      29.024  29.301  22.359  1.00  0.00    -0.165 SA
ATOM     11  C   UNL A   1      27.448  29.922  23.002  1.00  0.00     0.085 C 
ENDBRANCH   9  10
ENDBRANCH   8   9
ENDBRANCH   7   8
BRANCH   7  12
ATOM     12  N   UNL A   1      32.146  26.894  21.647  1.00  0.00    -0.326 N 
ATOM     13  C   UNL A   1      32.857  25.778  21.499  1.00  0.00     0.315 C 
ATOM     14  H   UNL A   1      31.799  27.221  20.786  1.00  0.00     0.166 HD
ATOM     15  O   UNL A   1      33.150  25.453  20.345  1.00  0.00    -0.249 OA
ATOM     16  N   UNL A   1      33.449  25.101  22.491  1.00  0.00    -0.335 N 
ATOM     17  H   UNL A   1      34.413  24.969  22.346  1.00  0.00     0.165 HD
BRANCH  16  18
ATOM     18  C   UNL A   1      32.970  24.510  23.752  1.00  0.00     0.089 C 
ATOM     19  C   UNL A   1      33.649  25.069  25.017  1.00  0.00     0.025 C 
ATOM     20  C   UNL A   1      33.110  22.941  23.723  1.00  0.00    -0.015 C 
ATOM     21  C   UNL A   1      35.054  24.580  25.313  1.00  0.00     0.002 C 
ATOM     22  C   UNL A   1      34.590  22.535  23.937  1.00  0.00     0.008 C 
ATOM     23  C   UNL A   1      32.225  22.330  24.831  1.00  0.00     0.013 C 
ATOM     24  C   UNL A   1      32.624  22.329  22.389  1.00  0.00     0.013 C 
ATOM     25  C   UNL A   1      35.181  23.075  25.235  1.00  0.00     0.001 C 
ENDBRANCH  16  18
ENDBRANCH   7  12
ENDBRANCH   4   7
ENDBRANCH   2   3
ENDBRANCH   1   2
BRANCH   1  26
ATOM     26  C   UNL A   1      32.705  31.025  27.163  1.00  0.00     0.023 C 
BRANCH  26  27
ATOM     27  C   UNL A   1      33.534  32.300  27.384  1.00  0.00     0.116 C 
BRANCH  27  28
ATOM     28  N   UNL A   1      32.816  33.512  27.737  1.00  0.00    -0.352 N 
ATOM     29  C   UNL A   1      33.215  34.529  28.590  1.00  0.00     0.251 C 
ATOM     30  H   UNL A   1      31.933  33.627  27.314  1.00  0.00     0.163 HD
ATOM     31  O   UNL A   1      32.556  35.553  28.693  1.00  0.00    -0.269 OA
BRANCH  29  32
ATOM     32  C   UNL A   1      34.417  34.347  29.441  1.00  0.00     0.039 A 
ATOM     33  C   UNL A   1      34.250  33.823  30.725  1.00  0.00     0.014 A 
ATOM     34  C   UNL A   1      35.698  34.628  28.964  1.00  0.00     0.014 A 
ATOM     35  C   UNL A   1      35.373  33.440  31.469  1.00  0.00     0.010 A 
ATOM     36  C   UNL A   1      36.818  34.212  29.688  1.00  0.00     0.010 A 
ATOM     37  C   UNL A   1      36.661  33.559  30.920  1.00  0.00    -0.014 A 
BRANCH  37  38
ATOM     38  C   UNL A   1      37.816  32.839  31.524  1.00  0.00     0.031 A 
ATOM     39  C   UNL A   1      38.429  31.633  30.876  1.00  0.00     0.074 A 
ATOM     40  C   UNL A   1      38.246  33.233  32.740  1.00  0.00     0.049 A 
ATOM     41  N   UNL A   1      39.388  30.858  31.322  1.00  0.00    -0.248 NA
ATOM     42  C   UNL A   1      37.890  31.234  29.570  1.00  0.00     0.031 C 
ATOM     43  C   UNL A   1      37.697  34.357  33.503  1.00  0.00     0.029 A 
ATOM     44  N   UNL A   1      39.225  32.726  33.559  1.00  0.00    -0.354 N 
ATOM     45  C   UNL A   1      39.570  29.881  30.354  1.00  0.00     0.074 A 
ATOM     46  C   UNL A   1      38.595  30.140  29.311  1.00  0.00     0.031 C 
ATOM     47  C   UNL A   1      38.349  34.458  34.669  1.00  0.00     0.029 A 
ATOM     48  C   UNL A   1      39.335  33.387  34.758  1.00  0.00     0.049 A 
ATOM     49  H   UNL A   1      39.794  31.962  33.309  1.00  0.00     0.167 HD
ATOM     50  C   UNL A   1      40.474  28.872  30.332  1.00  0.00     0.037 A 
ATOM     51  C   UNL A   1      40.125  33.149  35.823  1.00  0.00     0.037 A 
ATOM     52  C   UNL A   1      41.448  28.619  31.365  1.00  0.00     0.049 A 
ATOM     53  C   UNL A   1      41.094  32.002  35.785  1.00  0.00     0.074 A 
ATOM     54  C   UNL A   1      42.459  27.672  31.384  1.00  0.00     0.029 A 
ATOM     55  N   UNL A   1      41.524  29.305  32.568  1.00  0.00    -0.354 N 
ATOM     56  N   UNL A   1      41.315  31.140  34.824  1.00  0.00    -0.248 NA
ATOM     57  C   UNL A   1      41.920  31.791  36.983  1.00  0.00     0.031 C 
ATOM     58  C   UNL A   1      43.115  27.751  32.618  1.00  0.00     0.029 A 
ATOM     59  C   UNL A   1      42.540  28.776  33.351  1.00  0.00     0.049 A 
ATOM     60  H   UNL A   1      40.944  30.056  32.828  1.00  0.00     0.167 HD
ATOM     61  C   UNL A   1      42.313  30.298  35.290  1.00  0.00     0.074 A 
ATOM     62  C   UNL A   1      42.668  30.761  36.616  1.00  0.00     0.031 C 
ATOM     63  C   UNL A   1      42.881  29.234  34.673  1.00  0.00     0.037 A 
BRANCH  50  64
ATOM     64  C   UNL A   1      40.463  27.951  29.148  1.00  0.00     0.064 A 
ATOM     65  C   UNL A   1      39.655  26.804  29.122  1.00  0.00     0.173 A 
ATOM     66  C   UNL A   1      41.210  28.255  28.000  1.00  0.00     0.173 A 
ATOM     67  F   UNL A   1      38.924  26.469  30.195  1.00  0.00    -0.203 F 
ATOM     68  C   UNL A   1      39.613  25.984  27.998  1.00  0.00     0.198 A 
ATOM     69  C   UNL A   1      41.147  27.446  26.870  1.00  0.00     0.198 A 
ATOM     70  F   UNL A   1      41.988  29.348  27.970  1.00  0.00    -0.203 F 
ATOM     71  F   UNL A   1      38.860  24.876  28.007  1.00  0.00    -0.200 F 
ATOM     72  C   UNL A   1      40.353  26.309  26.871  1.00  0.00     0.200 A 
ATOM     73  F   UNL A   1      41.853  27.768  25.776  1.00  0.00    -0.200 F 
ATOM     74  F   UNL A   1      40.304  25.523  25.785  1.00  0.00    -0.200 F 
ENDBRANCH  50  64
BRANCH  51  75
ATOM     75  C   UNL A   1      40.030  34.023  37.021  1.00  0.00     0.064 A 
ATOM     76  C   UNL A   1      39.116  33.740  38.044  1.00  0.00     0.173 A 
ATOM     77  C   UNL A   1      40.849  35.151  37.166  1.00  0.00     0.173 A 
ATOM     78  F   UNL A   1      38.297  32.684  37.937  1.00  0.00    -0.203 F 
ATOM     79  C   UNL A   1      39.013  34.565  39.162  1.00  0.00     0.198 A 
ATOM     80  C   UNL A   1      40.764  35.960  38.296  1.00  0.00     0.198 A 
ATOM     81  F   UNL A   1      41.744  35.459  36.215  1.00  0.00    -0.203 F 
ATOM     82  F   UNL A   1      38.103  34.297  40.108  1.00  0.00    -0.200 F 
ATOM     83  C   UNL A   1      39.841  35.671  39.290  1.00  0.00     0.200 A 
ATOM     84  F   UNL A   1      41.575  37.019  38.423  1.00  0.00    -0.200 F 
ATOM     85  F   UNL A   1      39.745  36.461  40.369  1.00  0.00    -0.200 F 
ENDBRANCH  51  75
BRANCH  63  86
ATOM     86  C   UNL A   1      43.953  28.497  35.421  1.00  0.00     0.064 A 
ATOM     87  C   UNL A   1      43.647  27.408  36.249  1.00  0.00     0.173 A 
ATOM     88  C   UNL A   1      45.301  28.858  35.278  1.00  0.00     0.173 A 
ATOM     89  F   UNL A   1      42.372  27.038  36.434  1.00  0.00    -0.203 F 
ATOM     90  C   UNL A   1      44.652  26.714  36.919  1.00  0.00     0.198 A 
ATOM     91  C   UNL A   1      46.305  28.148  35.930  1.00  0.00     0.198 A 
ATOM     92  F   UNL A   1      45.645  29.893  34.498  1.00  0.00    -0.203 F 
ATOM     93  F   UNL A   1      44.334  25.699  37.735  1.00  0.00    -0.200 F 
ATOM     94  C   UNL A   1      45.980  27.079  36.753  1.00  0.00     0.200 A 
ATOM     95  F   UNL A   1      47.588  28.496  35.762  1.00  0.00    -0.200 F 
ATOM     96  F   UNL A   1      46.947  26.405  37.392  1.00  0.00    -0.200 F 
ENDBRANCH  63  86
ENDBRANCH  37  38
ENDBRANCH  29  32
ENDBRANCH  27  28
ENDBRANCH  26  27
ENDBRANCH   1  26
TORSDOF 16
ENDMDL
MODEL 2
REMARK VINA RESULT:     -11.8      1.975      2.847
REMARK SMILES CSCC[C@H](NC(=O)N[C@@H]1CCCCC1(C)C)C(=O)NCCCCNC(=O)c1ccc(-c2c3nc(c(-c4c(F)c(F)c(F)c(F)c4F)c4ccc([nH]4)c(-c4c(F)c(F)c(F)c(F)c4F)c4nc(c(-c5c(F)c(F)c(F)c(F)c5F)c5ccc2[nH]5)C=C4)C=C3)cc1
REMARK SMILES IDX 22 1 21 2 20 3 18 4 19 5 5 7 4 8 3 9 2 10 1 11 6 12 7 13
REMARK SMILES IDX 8 15 9 16 10 18 11 19 15 20 12 21 14 22 16 23 17 24 13 25
REMARK SMILES IDX 23 26 24 27 25 28 26 29 27 31 28 32 29 33 90 34 30 35 89 36
REMARK SMILES IDX 31 37 32 38 33 39 83 40 34 41 88 42 82 43 84 44 35 45 87 46
REMARK SMILES IDX 81 47 80 48 36 50 68 51 48 52 67 53 49 54 52 55 66 56 85 57
REMARK SMILES IDX 50 58 51 59 65 61 86 62 53 63 37 64 38 65 46 66 39 67 40 68
REMARK SMILES IDX 44 69 47 70 41 71 42 72 45 73 43 74 69 75 70 76 78 77 71 78
REMARK SMILES IDX 72 79 76 80 79 81 73 82 74 83 77 84 75 85 54 86 55 87 63 88
REMARK SMILES IDX 56 89 57 90 61 91 64 92 58 93 59 94 62 95 60 96
REMARK H PARENT 20 6 6 14 9 17 25 30 84 49 52 60
REMARK Flexibility Score: inf
ROOT
ATOM      1  C   UNL A   1      32.106  28.707  27.412  1.00  0.00     0.023 C 
ENDROOT
BRANCH   1   2
ATOM      2  C   UNL A   1      32.107  27.470  26.512  1.00  0.00     0.116 C 
BRANCH   2   3
ATOM      3  N   UNL A   1      31.226  26.376  26.886  1.00  0.00    -0.354 N 
ATOM      4  C   UNL A   1      30.629  25.406  26.117  1.00  0.00     0.242 C 
ATOM      5  O   UNL A   1      30.044  24.510  26.743  1.00  0.00    -0.273 OA
ATOM      6  H   UNL A   1      31.021  26.323  27.848  1.00  0.00     0.163 HD
BRANCH   4   7
ATOM      7  C   UNL A   1      30.561  25.397  24.540  1.00  0.00     0.174 C 
BRANCH   7   8
ATOM      8  C   UNL A   1      29.493  26.340  23.930  1.00  0.00     0.046 C 
BRANCH   8   9
ATOM      9  C   UNL A   1      29.923  27.551  23.099  1.00  0.00     0.072 C 
BRANCH   9  10
ATOM     10  S   UNL A   1      28.670  28.828  22.789  1.00  0.00    -0.165 SA
ATOM     11  C   UNL A   1      29.528  30.257  23.499  1.00  0.00     0.085 C 
ENDBRANCH   9  10
ENDBRANCH   8   9
ENDBRANCH   7   8
BRANCH   7  12
ATOM     12  N   UNL A   1      30.626  24.132  23.820  1.00  0.00    -0.326 N 
ATOM     13  C   UNL A   1      31.523  23.165  23.642  1.00  0.00     0.315 C 
ATOM     14  H   UNL A   1      29.786  23.943  23.341  1.00  0.00     0.166 HD
ATOM     15  O   UNL A   1      31.272  22.326  22.771  1.00  0.00    -0.249 OA
ATOM     16  N   UNL A   1      32.752  23.143  24.173  1.00  0.00    -0.335 N 
ATOM     17  H   UNL A   1      33.461  23.043  23.498  1.00  0.00     0.165 HD
BRANCH  16  18
ATOM     18  C   UNL A   1      33.272  23.235  25.547  1.00  0.00     0.089 C 
ATOM     19  C   UNL A   1      34.286  24.374  25.770  1.00  0.00     0.025 C 
ATOM     20  C   UNL A   1      33.906  21.865  25.998  1.00  0.00    -0.015 C 
ATOM     21  C   UNL A   1      35.691  24.154  25.245  1.00  0.00     0.002 C 
ATOM     22  C   UNL A   1      35.296  21.679  25.339  1.00  0.00     0.008 C 
ATOM     23  C   UNL A   1      34.039  21.847  27.536  1.00  0.00     0.013 C 
ATOM     24  C   UNL A   1      33.022  20.653  25.623  1.00  0.00     0.013 C 
ATOM     25  C   UNL A   1      36.266  22.815  25.649  1.00  0.00     0.001 C 
ENDBRANCH  16  18
ENDBRANCH   7  12
ENDBRANCH   4   7
ENDBRANCH   2   3
ENDBRANCH   1   2
BRANCH   1  26
ATOM     26  C   UNL A   1      31.614  30.037  26.826  1.00  0.00     0.023 C 
BRANCH  26  27
ATOM     27  C   UNL A   1      32.615  31.139  26.447  1.00  0.00     0.116 C 
BRANCH  27  28
ATOM     28  N   UNL A   1      32.547  32.388  27.184  1.00  0.00    -0.352 N 
ATOM     29  C   UNL A   1      33.559  33.031  27.878  1.00  0.00     0.251 C 
ATOM     30  H   UNL A   1      31.670  32.837  27.189  1.00  0.00     0.163 HD
ATOM     31  O   UNL A   1      33.384  34.146  28.348  1.00  0.00    -0.269 OA
BRANCH  29  32
ATOM     32  C   UNL A   1      34.848  32.334  28.117  1.00  0.00     0.039 A 
ATOM     33  C   UNL A   1      36.025  33.086  28.100  1.00  0.00     0.014 A 
ATOM     34  C   UNL A   1      34.895  30.972  28.417  1.00  0.00     0.014 A 
ATOM     35  C   UNL A   1      37.224  32.506  28.529  1.00  0.00     0.010 A 
ATOM     36  C   UNL A   1      36.083  30.402  28.883  1.00  0.00     0.010 A 
ATOM     37  C   UNL A   1      37.243  31.182  29.001  1.00  0.00    -0.014 A 
BRANCH  37  38
ATOM     38  C   UNL A   1      38.397  30.670  29.789  1.00  0.00     0.031 A 
ATOM     39  C   UNL A   1      39.327  29.624  29.251  1.00  0.00     0.074 A 
ATOM     40  C   UNL A   1      38.538  31.096  31.061  1.00  0.00     0.049 A 
ATOM     41  N   UNL A   1      40.329  29.027  29.850  1.00  0.00    -0.248 NA
ATOM     42  C   UNL A   1      39.097  29.176  27.872  1.00  0.00     0.031 C 
ATOM     43  C   UNL A   1      37.666  32.071  31.723  1.00  0.00     0.029 A 
ATOM     44  N   UNL A   1      39.446  30.754  32.032  1.00  0.00    -0.354 N 
ATOM     45  C   UNL A   1      40.851  28.136  28.925  1.00  0.00     0.074 A 
ATOM     46  C   UNL A   1      40.031  28.243  27.734  1.00  0.00     0.031 C 
ATOM     47  C   UNL A   1      38.085  32.252  32.983  1.00  0.00     0.029 A 
ATOM     48  C   UNL A   1      39.228  31.382  33.235  1.00  0.00     0.049 A 
ATOM     49  H   UNL A   1      40.183  30.119  31.881  1.00  0.00     0.167 HD
ATOM     50  C   UNL A   1      41.922  27.315  29.054  1.00  0.00     0.037 A 
ATOM     51  C   UNL A   1      39.862  31.259  34.417  1.00  0.00     0.037 A 
ATOM     52  C   UNL A   1      42.741  27.214  30.236  1.00  0.00     0.049 A 
ATOM     53  C   UNL A   1      41.024  30.315  34.540  1.00  0.00     0.074 A 
ATOM     54  C   UNL A   1      43.897  26.472  30.423  1.00  0.00     0.029 A 
ATOM     55  N   UNL A   1      42.486  27.859  31.436  1.00  0.00    -0.354 N 
ATOM     56  N   UNL A   1      41.560  29.545  33.629  1.00  0.00    -0.248 NA
ATOM     57  C   UNL A   1      41.666  30.223  35.861  1.00  0.00     0.031 C 
ATOM     58  C   UNL A   1      44.312  26.630  31.750  1.00  0.00     0.029 A 
ATOM     59  C   UNL A   1      43.440  27.504  32.378  1.00  0.00     0.049 A 
ATOM     60  H   UNL A   1      41.738  28.479  31.597  1.00  0.00     0.167 HD
ATOM     61  C   UNL A   1      42.610  28.888  34.255  1.00  0.00     0.074 A 
ATOM     62  C   UNL A   1      42.646  29.363  35.623  1.00  0.00     0.031 C 
ATOM     63  C   UNL A   1      43.464  27.972  33.740  1.00  0.00     0.037 A 
BRANCH  50  64
ATOM     64  C   UNL A   1      42.282  26.449  27.883  1.00  0.00     0.064 A 
ATOM     65  C   UNL A   1      41.657  25.211  27.670  1.00  0.00     0.173 A 
ATOM     66  C   UNL A   1      43.206  26.893  26.926  1.00  0.00     0.173 A 
ATOM     67  F   UNL A   1      40.768  24.742  28.557  1.00  0.00    -0.203 F 
ATOM     68  C   UNL A   1      41.961  24.440  26.552  1.00  0.00     0.198 A 
ATOM     69  C   UNL A   1      43.491  26.129  25.797  1.00  0.00     0.198 A 
ATOM     70  F   UNL A   1      43.822  28.076  27.077  1.00  0.00    -0.203 F 
ATOM     71  F   UNL A   1      41.377  23.246  26.385  1.00  0.00    -0.200 F 
ATOM     72  C   UNL A   1      42.872  24.902  25.613  1.00  0.00     0.200 A 
ATOM     73  F   UNL A   1      44.361  26.583  24.884  1.00  0.00    -0.200 F 
ATOM     74  F   UNL A   1      43.157  24.161  24.532  1.00  0.00    -0.200 F 
ENDBRANCH  50  64
BRANCH  51  75
ATOM     75  C   UNL A   1      39.406  32.058  35.584  1.00  0.00     0.064 A 
ATOM     76  C   UNL A   1      38.481  31.532  36.495  1.00  0.00     0.173 A 
ATOM     77  C   UNL A   1      39.884  33.356  35.810  1.00  0.00     0.173 A 
ATOM     78  F   UNL A   1      37.980  30.303  36.307  1.00  0.00    -0.203 F 
ATOM     79  C   UNL A   1      38.039  32.283  37.583  1.00  0.00     0.198 A 
ATOM     80  C   UNL A   1      39.461  34.096  36.911  1.00  0.00     0.198 A 
ATOM     81  F   UNL A   1      40.775  33.901  34.967  1.00  0.00    -0.203 F 
ATOM     82  F   UNL A   1      37.125  31.773  38.418  1.00  0.00    -0.200 F 
ATOM     83  C   UNL A   1      38.534  33.562  37.793  1.00  0.00     0.200 A 
ATOM     84  F   UNL A   1      39.952  35.325  37.119  1.00  0.00    -0.200 F 
ATOM     85  F   UNL A   1      38.113  34.281  38.842  1.00  0.00    -0.200 F 
ENDBRANCH  51  75
BRANCH  63  86
ATOM     86  C   UNL A   1      44.518  27.423  34.657  1.00  0.00     0.064 A 
ATOM     87  C   UNL A   1      45.743  28.083  34.837  1.00  0.00     0.173 A 
ATOM     88  C   UNL A   1      44.288  26.250  35.390  1.00  0.00     0.173 A 
ATOM     89  F   UNL A   1      46.018  29.196  34.142  1.00  0.00    -0.203 F 
ATOM     90  C   UNL A   1      46.705  27.580  35.709  1.00  0.00     0.198 A 
ATOM     91  C   UNL A   1      45.242  25.763  36.279  1.00  0.00     0.198 A 
ATOM     92  F   UNL A   1      43.133  25.582  35.253  1.00  0.00    -0.203 F 
ATOM     93  F   UNL A   1      47.883  28.206  35.838  1.00  0.00    -0.200 F 
ATOM     94  C   UNL A   1      46.451  26.425  36.435  1.00  0.00     0.200 A 
ATOM     95  F   UNL A   1      44.992  24.652  36.986  1.00  0.00    -0.200 F 
ATOM     96  F   UNL A   1      47.375  25.947  37.280  1.00  0.00    -0.200 F 
ENDBRANCH  63  86
ENDBRANCH  37  38
ENDBRANCH  29  32
ENDBRANCH  27  28
ENDBRANCH  26  27
ENDBRANCH   1  26
TORSDOF 16
ENDMDL
MODEL 3
REMARK VINA RESULT:     -11.8      1.715      7.683
REMARK SMILES CSCC[C@H](NC(=O)N[C@@H]1CCCCC1(C)C)C(=O)NCCCCNC(=O)c1ccc(-c2c3nc(c(-c4c(F)c(F)c(F)c(F)c4F)c4ccc([nH]4)c(-c4c(F)c(F)c(F)c(F)c4F)c4nc(c(-c5c(F)c(F)c(F)c(F)c5F)c5ccc2[nH]5)C=C4)C=C3)cc1
REMARK SMILES IDX 22 1 21 2 20 3 18 4 19 5 5 7 4 8 3 9 2 10 1 11 6 12 7 13
REMARK SMILES IDX 8 15 9 16 10 18 11 19 15 20 12 21 14 22 16 23 17 24 13 25
REMARK SMILES IDX 23 26 24 27 25 28 26 29 27 31 28 32 29 33 90 34 30 35 89 36
REMARK SMILES IDX 31 37 32 38 33 39 83 40 34 41 88 42 82 43 84 44 35 45 87 46
REMARK SMILES IDX 81 47 80 48 36 50 68 51 48 52 67 53 49 54 52 55 66 56 85 57
REMARK SMILES IDX 50 58 51 59 65 61 86 62 53 63 37 64 38 65 46 66 39 67 40 68
REMARK SMILES IDX 44 69 47 70 41 71 42 72 45 73 43 74 69 75 70 76 78 77 71 78
REMARK SMILES IDX 72 79 76 80 79 81 73 82 74 83 77 84 75 85 54 86 55 87 63 88
REMARK SMILES IDX 56 89 57 90 61 91 64 92 58 93 59 94 62 95 60 96
REMARK H PARENT 20 6 6 14 9 17 25 30 84 49 52 60
REMARK Flexibility Score: inf
ROOT
ATOM      1  C   UNL A   1      31.033  31.175  25.654  1.00  0.00     0.023 C 
ENDROOT
BRANCH   1   2
ATOM      2  C   UNL A   1      32.079  30.063  25.745  1.00  0.00     0.116 C 
BRANCH   2   3
ATOM      3  N   UNL A   1      32.770  29.700  24.519  1.00  0.00    -0.354 N 
ATOM      4  C   UNL A   1      32.392  28.870  23.491  1.00  0.00     0.242 C 
ATOM      5  O   UNL A   1      33.135  28.872  22.499  1.00  0.00    -0.273 OA
ATOM      6  H   UNL A   1      33.656  30.116  24.408  1.00  0.00     0.163 HD
BRANCH   4   7
ATOM      7  C   UNL A   1      31.165  27.876  23.517  1.00  0.00     0.174 C 
BRANCH   7   8
ATOM      8  C   UNL A   1      29.946  28.326  22.672  1.00  0.00     0.046 C 
BRANCH   8   9
ATOM      9  C   UNL A   1      29.719  29.812  22.383  1.00  0.00     0.072 C 
BRANCH   9  10
ATOM     10  S   UNL A   1      28.018  30.333  22.021  1.00  0.00    -0.165 SA
ATOM     11  C   UNL A   1      27.714  31.369  23.476  1.00  0.00     0.085 C 
ENDBRANCH   9  10
ENDBRANCH   8   9
ENDBRANCH   7   8
BRANCH   7  12
ATOM     12  N   UNL A   1      30.746  27.278  24.778  1.00  0.00    -0.326 N 
ATOM     13  C   UNL A   1      31.021  26.169  25.461  1.00  0.00     0.315 C 
ATOM     14  H   UNL A   1      30.087  27.840  25.246  1.00  0.00     0.166 HD
ATOM     15  O   UNL A   1      30.288  25.911  26.421  1.00  0.00    -0.249 OA
ATOM     16  N   UNL A   1      31.881  25.218  25.078  1.00  0.00    -0.335 N 
ATOM     17  H   UNL A   1      31.473  24.323  25.040  1.00  0.00     0.165 HD
BRANCH  16  18
ATOM     18  C   UNL A   1      33.304  25.219  24.703  1.00  0.00     0.089 C 
ATOM     19  C   UNL A   1      33.567  25.419  23.197  1.00  0.00     0.025 C 
ATOM     20  C   UNL A   1      34.015  23.902  25.195  1.00  0.00    -0.015 C 
ATOM     21  C   UNL A   1      33.322  24.224  22.295  1.00  0.00     0.002 C 
ATOM     22  C   UNL A   1      33.633  22.716  24.275  1.00  0.00     0.008 C 
ATOM     23  C   UNL A   1      35.545  24.114  25.185  1.00  0.00     0.013 C 
ATOM     24  C   UNL A   1      33.635  23.534  26.649  1.00  0.00     0.013 C 
ATOM     25  C   UNL A   1      33.972  22.959  22.808  1.00  0.00     0.001 C 
ENDBRANCH  16  18
ENDBRANCH   7  12
ENDBRANCH   4   7
ENDBRANCH   2   3
ENDBRANCH   1   2
BRANCH   1  26
ATOM     26  C   UNL A   1      31.236  32.441  26.499  1.00  0.00     0.023 C 
BRANCH  26  27
ATOM     27  C   UNL A   1      32.489  32.601  27.373  1.00  0.00     0.116 C 
BRANCH  27  28
ATOM     28  N   UNL A   1      32.895  33.952  27.719  1.00  0.00    -0.352 N 
ATOM     29  C   UNL A   1      34.156  34.404  28.075  1.00  0.00     0.251 C 
ATOM     30  H   UNL A   1      32.184  34.633  27.696  1.00  0.00     0.163 HD
ATOM     31  O   UNL A   1      34.373  35.598  28.219  1.00  0.00    -0.269 OA
BRANCH  29  32
ATOM     32  C   UNL A   1      35.238  33.427  28.354  1.00  0.00     0.039 A 
ATOM     33  C   UNL A   1      36.561  33.873  28.325  1.00  0.00     0.014 A 
ATOM     34  C   UNL A   1      34.956  32.106  28.702  1.00  0.00     0.014 A 
ATOM     35  C   UNL A   1      37.585  33.039  28.789  1.00  0.00     0.010 A 
ATOM     36  C   UNL A   1      35.970  31.285  29.202  1.00  0.00     0.010 A 
ATOM     37  C   UNL A   1      37.284  31.767  29.306  1.00  0.00    -0.014 A 
BRANCH  37  38
ATOM     38  C   UNL A   1      38.278  31.023  30.126  1.00  0.00     0.031 A 
ATOM     39  C   UNL A   1      38.522  31.345  31.570  1.00  0.00     0.074 A 
ATOM     40  C   UNL A   1      39.049  30.103  29.510  1.00  0.00     0.049 A 
ATOM     41  N   UNL A   1      39.408  30.834  32.389  1.00  0.00    -0.248 NA
ATOM     42  C   UNL A   1      37.674  32.383  32.171  1.00  0.00     0.031 C 
ATOM     43  C   UNL A   1      38.951  29.735  28.094  1.00  0.00     0.029 A 
ATOM     44  N   UNL A   1      40.076  29.323  29.982  1.00  0.00    -0.354 N 
ATOM     45  C   UNL A   1      39.228  31.484  33.601  1.00  0.00     0.074 A 
ATOM     46  C   UNL A   1      38.169  32.454  33.401  1.00  0.00     0.031 C 
ATOM     47  C   UNL A   1      39.872  28.801  27.817  1.00  0.00     0.029 A 
ATOM     48  C   UNL A   1      40.651  28.530  29.019  1.00  0.00     0.049 A 
ATOM     49  H   UNL A   1      40.372  29.334  30.921  1.00  0.00     0.167 HD
ATOM     50  C   UNL A   1      39.877  31.280  34.774  1.00  0.00     0.037 A 
ATOM     51  C   UNL A   1      41.702  27.689  29.087  1.00  0.00     0.037 A 
ATOM     52  C   UNL A   1      40.924  30.309  34.975  1.00  0.00     0.049 A 
ATOM     53  C   UNL A   1      42.424  27.509  30.392  1.00  0.00     0.074 A 
ATOM     54  C   UNL A   1      41.576  29.975  36.152  1.00  0.00     0.029 A 
ATOM     55  N   UNL A   1      41.485  29.529  33.976  1.00  0.00    -0.354 N 
ATOM     56  N   UNL A   1      42.183  28.067  31.551  1.00  0.00    -0.248 NA
ATOM     57  C   UNL A   1      43.568  26.585  30.394  1.00  0.00     0.031 C 
ATOM     58  C   UNL A   1      42.564  29.030  35.855  1.00  0.00     0.029 A 
ATOM     59  C   UNL A   1      42.499  28.743  34.502  1.00  0.00     0.049 A 
ATOM     60  H   UNL A   1      41.204  29.531  33.032  1.00  0.00     0.167 HD
ATOM     61  C   UNL A   1      43.130  27.552  32.425  1.00  0.00     0.074 A 
ATOM     62  C   UNL A   1      43.942  26.623  31.665  1.00  0.00     0.031 C 
ATOM     63  C   UNL A   1      43.310  27.829  33.739  1.00  0.00     0.037 A 
BRANCH  50  64
ATOM     64  C   UNL A   1      39.476  32.123  35.948  1.00  0.00     0.064 A 
ATOM     65  C   UNL A   1      40.048  33.385  36.171  1.00  0.00     0.173 A 
ATOM     66  C   UNL A   1      38.459  31.699  36.817  1.00  0.00     0.173 A 
ATOM     67  F   UNL A   1      41.024  33.834  35.369  1.00  0.00    -0.203 F 
ATOM     68  C   UNL A   1      39.631  34.181  37.234  1.00  0.00     0.198 A 
ATOM     69  C   UNL A   1      38.030  32.508  37.865  1.00  0.00     0.198 A 
ATOM     70  F   UNL A   1      37.872  30.506  36.639  1.00  0.00    -0.203 F 
ATOM     71  F   UNL A   1      40.213  35.369  37.448  1.00  0.00    -0.200 F 
ATOM     72  C   UNL A   1      38.619  33.745  38.076  1.00  0.00     0.200 A 
ATOM     73  F   UNL A   1      37.042  32.091  38.670  1.00  0.00    -0.200 F 
ATOM     74  F   UNL A   1      38.212  34.518  39.094  1.00  0.00    -0.200 F 
ENDBRANCH  50  64
BRANCH  51  75
ATOM     75  C   UNL A   1      42.135  26.952  27.872  1.00  0.00     0.064 A 
ATOM     76  C   UNL A   1      43.048  27.520  26.975  1.00  0.00     0.173 A 
ATOM     77  C   UNL A   1      41.646  25.669  27.587  1.00  0.00     0.173 A 
ATOM     78  F   UNL A   1      43.524  28.753  27.196  1.00  0.00    -0.203 F 
ATOM     79  C   UNL A   1      43.445  26.838  25.826  1.00  0.00     0.198 A 
ATOM     80  C   UNL A   1      42.064  24.978  26.452  1.00  0.00     0.198 A 
ATOM     81  F   UNL A   1      40.773  25.081  28.419  1.00  0.00    -0.203 F 
ATOM     82  F   UNL A   1      44.289  27.418  24.963  1.00  0.00    -0.200 F 
ATOM     83  C   UNL A   1      42.957  25.565  25.569  1.00  0.00     0.200 A 
ATOM     84  F   UNL A   1      41.601  23.743  26.214  1.00  0.00    -0.200 F 
ATOM     85  F   UNL A   1      43.344  24.907  24.467  1.00  0.00    -0.200 F 
ENDBRANCH  51  75
BRANCH  63  86
ATOM     86  C   UNL A   1      44.424  27.114  34.446  1.00  0.00     0.064 A 
ATOM     87  C   UNL A   1      45.701  27.684  34.557  1.00  0.00     0.173 A 
ATOM     88  C   UNL A   1      44.204  25.868  35.050  1.00  0.00     0.173 A 
ATOM     89  F   UNL A   1      45.966  28.864  33.977  1.00  0.00    -0.203 F 
ATOM     90  C   UNL A   1      46.721  27.025  35.237  1.00  0.00     0.198 A 
ATOM     91  C   UNL A   1      45.220  25.223  35.750  1.00  0.00     0.198 A 
ATOM     92  F   UNL A   1      43.001  25.281  34.972  1.00  0.00    -0.203 F 
ATOM     93  F   UNL A   1      47.944  27.570  35.299  1.00  0.00    -0.200 F 
ATOM     94  C   UNL A   1      46.478  25.799  35.839  1.00  0.00     0.200 A 
ATOM     95  F   UNL A   1      44.981  24.043  36.339  1.00  0.00    -0.200 F 
ATOM     96  F   UNL A   1      47.460  25.170  36.501  1.00  0.00    -0.200 F 
ENDBRANCH  63  86
ENDBRANCH  37  38
ENDBRANCH  29  32
ENDBRANCH  27  28
ENDBRANCH  26  27
ENDBRANCH   1  26
TORSDOF 16
ENDMDL
