MODEL 1
REMARK VINA RESULT:     -13.6      0.000      0.000
REMARK SMILES Cc1nc(-c2cccc(F)c2)sc1C(=O)NC[C@H]1CC[C@@H](C(=O)NCCCCNC(=O)c2ccc(-c3c4nc(c(-c5c(F)c(F)c(F)c(F)c5F)c5ccc([nH]5)c(-c5c(F)c(F)c(F)c(F)c5F)c5nc(c(-c6c(F)c(F)c(F)c(F)c6F)c6ccc3[nH]6)C=C5)C=C4)cc2)CC1
REMARK SMILES IDX 25 1 24 2 22 3 23 4 21 6 18 7 19 8 96 9 20 10 95 11 17 12
REMARK SMILES IDX 16 13 14 14 15 15 13 17 1 18 2 19 3 20 4 21 12 22 5 23 6 24
REMARK SMILES IDX 11 25 7 26 9 27 8 28 10 29 26 30 27 31 28 32 29 33 30 34
REMARK SMILES IDX 31 36 32 37 33 38 94 39 34 40 93 41 35 42 36 43 37 44 87 45
REMARK SMILES IDX 38 46 92 47 86 48 88 49 39 50 91 51 85 52 84 53 40 55 72 56
REMARK SMILES IDX 52 57 71 58 53 59 56 60 70 61 89 62 54 63 55 64 69 66 90 67
REMARK SMILES IDX 57 68 41 69 42 70 50 71 43 72 44 73 48 74 51 75 45 76 46 77
REMARK SMILES IDX 49 78 47 79 73 80 74 81 82 82 75 83 76 84 80 85 83 86 77 87
REMARK SMILES IDX 78 88 81 89 79 90 58 91 59 92 67 93 60 94 61 95 65 96 68 97
REMARK SMILES IDX 62 98 63 99 66 100 64 101
REMARK H PARENT 24 5 16 16 29 35 88 54 56 65
REMARK Flexibility Score: inf
ROOT
ATOM      1  C   UNL A   1      40.166  21.866  26.152  1.00  0.00     0.116 C 
ENDROOT
BRANCH   1   2
ATOM      2  N   UNL A   1      38.959  21.133  25.854  1.00  0.00    -0.356 N 
ATOM      3  C   UNL A   1      37.815  21.447  25.201  1.00  0.00     0.223 C 
ATOM      4  O   UNL A   1      37.062  20.491  24.973  1.00  0.00    -0.275 OA
ATOM      5  H   UNL A   1      38.969  20.210  26.198  1.00  0.00     0.163 HD
BRANCH   3   6
ATOM      6  C   UNL A   1      37.381  22.853  24.753  1.00  0.00     0.078 C 
ATOM      7  C   UNL A   1      34.445  23.552  24.463  1.00  0.00     0.008 C 
ATOM      8  C   UNL A   1      35.171  23.671  25.821  1.00  0.00     0.006 C 
ATOM      9  C   UNL A   1      35.243  22.866  23.339  1.00  0.00     0.006 C 
ATOM     10  C   UNL A   1      36.689  23.752  25.772  1.00  0.00     0.014 C 
ATOM     11  C   UNL A   1      36.755  22.956  23.375  1.00  0.00     0.014 C 
BRANCH   7  12
ATOM     12  C   UNL A   1      33.067  22.851  24.659  1.00  0.00     0.119 C 
BRANCH  12  13
ATOM     13  N   UNL A   1      32.371  23.288  25.839  1.00  0.00    -0.351 N 
ATOM     14  C   UNL A   1      31.650  24.392  26.213  1.00  0.00     0.263 C 
ATOM     15  O   UNL A   1      31.079  24.202  27.297  1.00  0.00    -0.268 OA
ATOM     16  H   UNL A   1      32.429  22.625  26.565  1.00  0.00     0.163 HD
BRANCH  14  17
ATOM     17  C   UNL A   1      31.540  25.663  25.495  1.00  0.00     0.115 A 
ATOM     18  C   UNL A   1      33.638  27.242  25.677  1.00  0.00     0.068 C 
ATOM     19  C   UNL A   1      32.292  26.811  25.246  1.00  0.00     0.062 A 
ATOM     20  N   UNL A   1      31.667  27.784  24.477  1.00  0.00    -0.241 NA
ATOM     21  C   UNL A   1      30.429  27.462  24.212  1.00  0.00     0.124 A 
ATOM     22  S   UNL A   1      29.973  25.909  24.726  1.00  0.00    -0.108 S 
BRANCH  21  23
ATOM     23  C   UNL A   1      29.507  28.367  23.532  1.00  0.00     0.013 A 
ATOM     24  C   UNL A   1      28.151  28.045  23.362  1.00  0.00     0.011 A 
ATOM     25  C   UNL A   1      29.959  29.638  23.153  1.00  0.00     0.050 A 
ATOM     26  C   UNL A   1      27.262  28.982  22.827  1.00  0.00     0.004 A 
ATOM     27  C   UNL A   1      29.067  30.558  22.615  1.00  0.00     0.123 A 
ATOM     28  C   UNL A   1      27.723  30.242  22.454  1.00  0.00     0.039 A 
ATOM     29  F   UNL A   1      29.506  31.774  22.266  1.00  0.00    -0.207 F 
ENDBRANCH  21  23
ENDBRANCH  14  17
ENDBRANCH  12  13
ENDBRANCH   7  12
ENDBRANCH   3   6
ENDBRANCH   1   2
BRANCH   1  30
ATOM     30  C   UNL A   1      41.381  20.971  26.402  1.00  0.00     0.023 C 
BRANCH  30  31
ATOM     31  C   UNL A   1      42.686  21.467  25.790  1.00  0.00     0.023 C 
BRANCH  31  32
ATOM     32  C   UNL A   1      42.586  22.763  24.991  1.00  0.00     0.116 C 
BRANCH  32  33
ATOM     33  N   UNL A   1      43.861  23.386  24.661  1.00  0.00    -0.352 N 
ATOM     34  C   UNL A   1      44.351  24.594  25.117  1.00  0.00     0.251 C 
ATOM     35  H   UNL A   1      44.440  22.887  24.041  1.00  0.00     0.163 HD
ATOM     36  O   UNL A   1      45.430  25.019  24.734  1.00  0.00    -0.269 OA
BRANCH  34  37
ATOM     37  C   UNL A   1      43.508  25.395  26.032  1.00  0.00     0.039 A 
ATOM     38  C   UNL A   1      42.819  24.743  27.057  1.00  0.00     0.014 A 
ATOM     39  C   UNL A   1      43.513  26.789  25.952  1.00  0.00     0.014 A 
ATOM     40  C   UNL A   1      42.226  25.499  28.071  1.00  0.00     0.010 A 
ATOM     41  C   UNL A   1      42.995  27.534  27.006  1.00  0.00     0.010 A 
ATOM     42  C   UNL A   1      42.365  26.896  28.086  1.00  0.00    -0.014 A 
BRANCH  42  43
ATOM     43  C   UNL A   1      41.888  27.712  29.232  1.00  0.00     0.031 A 
ATOM     44  C   UNL A   1      42.610  27.658  30.548  1.00  0.00     0.074 A 
ATOM     45  C   UNL A   1      40.756  28.435  29.114  1.00  0.00     0.049 A 
ATOM     46  N   UNL A   1      42.290  28.211  31.690  1.00  0.00    -0.248 NA
ATOM     47  C   UNL A   1      43.836  26.848  30.595  1.00  0.00     0.031 C 
ATOM     48  C   UNL A   1      39.930  28.527  27.907  1.00  0.00     0.029 A 
ATOM     49  N   UNL A   1      40.098  29.226  30.024  1.00  0.00    -0.354 N 
ATOM     50  C   UNL A   1      43.263  27.800  32.591  1.00  0.00     0.074 A 
ATOM     51  C   UNL A   1      44.152  26.908  31.880  1.00  0.00     0.031 C 
ATOM     52  C   UNL A   1      38.902  29.358  28.140  1.00  0.00     0.029 A 
ATOM     53  C   UNL A   1      38.971  29.829  29.520  1.00  0.00     0.049 A 
ATOM     54  H   UNL A   1      40.405  29.350  30.951  1.00  0.00     0.167 HD
ATOM     55  C   UNL A   1      43.417  28.158  33.887  1.00  0.00     0.037 A 
ATOM     56  C   UNL A   1      38.094  30.667  30.104  1.00  0.00     0.037 A 
ATOM     57  C   UNL A   1      42.558  29.078  34.583  1.00  0.00     0.049 A 
ATOM     58  C   UNL A   1      38.297  31.063  31.541  1.00  0.00     0.074 A 
ATOM     59  C   UNL A   1      42.664  29.541  35.882  1.00  0.00     0.029 A 
ATOM     60  N   UNL A   1      41.440  29.684  34.030  1.00  0.00    -0.354 N 
ATOM     61  N   UNL A   1      39.243  30.698  32.370  1.00  0.00    -0.248 NA
ATOM     62  C   UNL A   1      37.311  31.987  32.122  1.00  0.00     0.031 C 
ATOM     63  C   UNL A   1      41.594  30.409  36.124  1.00  0.00     0.029 A 
ATOM     64  C   UNL A   1      40.843  30.513  34.964  1.00  0.00     0.049 A 
ATOM     65  H   UNL A   1      41.119  29.546  33.109  1.00  0.00     0.167 HD
ATOM     66  C   UNL A   1      38.982  31.362  33.561  1.00  0.00     0.074 A 
ATOM     67  C   UNL A   1      37.794  32.161  33.345  1.00  0.00     0.031 C 
ATOM     68  C   UNL A   1      39.668  31.312  34.728  1.00  0.00     0.037 A 
BRANCH  55  69
ATOM     69  C   UNL A   1      44.576  27.569  34.634  1.00  0.00     0.064 A 
ATOM     70  C   UNL A   1      44.433  26.374  35.352  1.00  0.00     0.173 A 
ATOM     71  C   UNL A   1      45.822  28.216  34.674  1.00  0.00     0.173 A 
ATOM     72  F   UNL A   1      43.262  25.719  35.349  1.00  0.00    -0.203 F 
ATOM     73  C   UNL A   1      45.493  25.848  36.086  1.00  0.00     0.198 A 
ATOM     74  C   UNL A   1      46.887  27.673  35.386  1.00  0.00     0.198 A 
ATOM     75  F   UNL A   1      46.012  29.355  33.992  1.00  0.00    -0.203 F 
ATOM     76  F   UNL A   1      45.328  24.716  36.782  1.00  0.00    -0.200 F 
ATOM     77  C   UNL A   1      46.720  26.495  36.097  1.00  0.00     0.200 A 
ATOM     78  F   UNL A   1      48.079  28.285  35.373  1.00  0.00    -0.200 F 
ATOM     79  F   UNL A   1      47.745  25.979  36.790  1.00  0.00    -0.200 F 
ENDBRANCH  55  69
BRANCH  56  80
ATOM     80  C   UNL A   1      36.972  31.231  29.309  1.00  0.00     0.064 A 
ATOM     81  C   UNL A   1      36.977  32.563  28.872  1.00  0.00     0.173 A 
ATOM     82  C   UNL A   1      35.856  30.443  28.995  1.00  0.00     0.173 A 
ATOM     83  F   UNL A   1      38.020  33.358  29.152  1.00  0.00    -0.203 F 
ATOM     84  C   UNL A   1      35.900  33.090  28.162  1.00  0.00     0.198 A 
ATOM     85  C   UNL A   1      34.790  30.965  28.265  1.00  0.00     0.198 A 
ATOM     86  F   UNL A   1      35.817  29.158  29.375  1.00  0.00    -0.203 F 
ATOM     87  F   UNL A   1      35.916  34.374  27.778  1.00  0.00    -0.200 F 
ATOM     88  C   UNL A   1      34.809  32.289  27.856  1.00  0.00     0.200 A 
ATOM     89  F   UNL A   1      33.748  30.182  27.955  1.00  0.00    -0.200 F 
ATOM     90  F   UNL A   1      33.779  32.793  27.165  1.00  0.00    -0.200 F 
ENDBRANCH  56  80
BRANCH  68  91
ATOM     91  C   UNL A   1      39.174  32.159  35.862  1.00  0.00     0.064 A 
ATOM     92  C   UNL A   1      39.648  33.469  36.027  1.00  0.00     0.173 A 
ATOM     93  C   UNL A   1      38.300  31.647  36.831  1.00  0.00     0.173 A 
ATOM     94  F   UNL A   1      40.493  34.000  35.129  1.00  0.00    -0.203 F 
ATOM     95  C   UNL A   1      39.277  34.230  37.131  1.00  0.00     0.198 A 
ATOM     96  C   UNL A   1      37.912  32.419  37.922  1.00  0.00     0.198 A 
ATOM     97  F   UNL A   1      37.811  30.403  36.708  1.00  0.00    -0.203 F 
ATOM     98  F   UNL A   1      39.768  35.468  37.286  1.00  0.00    -0.200 F 
ATOM     99  C   UNL A   1      38.409  33.705  38.076  1.00  0.00     0.200 A 
ATOM    100  F   UNL A   1      37.057  31.919  38.824  1.00  0.00    -0.200 F 
ATOM    101  F   UNL A   1      38.049  34.441  39.137  1.00  0.00    -0.200 F 
ENDBRANCH  68  91
ENDBRANCH  42  43
ENDBRANCH  34  37
ENDBRANCH  32  33
ENDBRANCH  31  32
ENDBRANCH  30  31
ENDBRANCH   1  30
TORSDOF 15
ENDMDL
MODEL 2
REMARK VINA RESULT:     -13.5      3.648      9.221
REMARK SMILES Cc1nc(-c2cccc(F)c2)sc1C(=O)NC[C@H]1CC[C@@H](C(=O)NCCCCNC(=O)c2ccc(-c3c4nc(c(-c5c(F)c(F)c(F)c(F)c5F)c5ccc([nH]5)c(-c5c(F)c(F)c(F)c(F)c5F)c5nc(c(-c6c(F)c(F)c(F)c(F)c6F)c6ccc3[nH]6)C=C5)C=C4)cc2)CC1
REMARK SMILES IDX 25 1 24 2 22 3 23 4 21 6 18 7 19 8 96 9 20 10 95 11 17 12
REMARK SMILES IDX 16 13 14 14 15 15 13 17 1 18 2 19 3 20 4 21 12 22 5 23 6 24
REMARK SMILES IDX 11 25 7 26 9 27 8 28 10 29 26 30 27 31 28 32 29 33 30 34
REMARK SMILES IDX 31 36 32 37 33 38 94 39 34 40 93 41 35 42 36 43 37 44 87 45
REMARK SMILES IDX 38 46 92 47 86 48 88 49 39 50 91 51 85 52 84 53 40 55 72 56
REMARK SMILES IDX 52 57 71 58 53 59 56 60 70 61 89 62 54 63 55 64 69 66 90 67
REMARK SMILES IDX 57 68 41 69 42 70 50 71 43 72 44 73 48 74 51 75 45 76 46 77
REMARK SMILES IDX 49 78 47 79 73 80 74 81 82 82 75 83 76 84 80 85 83 86 77 87
REMARK SMILES IDX 78 88 81 89 79 90 58 91 59 92 67 93 60 94 61 95 65 96 68 97
REMARK SMILES IDX 62 98 63 99 66 100 64 101
REMARK H PARENT 24 5 16 16 29 35 88 54 56 65
REMARK Flexibility Score: inf
ROOT
ATOM      1  C   UNL A   1      34.386  31.400  28.984  1.00  0.00     0.116 C 
ENDROOT
BRANCH   1   2
ATOM      2  N   UNL A   1      34.709  30.451  27.946  1.00  0.00    -0.356 N 
ATOM      3  C   UNL A   1      33.969  29.786  27.027  1.00  0.00     0.223 C 
ATOM      4  O   UNL A   1      34.621  29.186  26.163  1.00  0.00    -0.275 OA
ATOM      5  H   UNL A   1      35.670  30.240  27.896  1.00  0.00     0.163 HD
BRANCH   3   6
ATOM      6  C   UNL A   1      32.433  29.703  26.986  1.00  0.00     0.078 C 
ATOM      7  C   UNL A   1      31.038  27.595  25.312  1.00  0.00     0.008 C 
ATOM      8  C   UNL A   1      31.506  27.299  26.753  1.00  0.00     0.006 C 
ATOM      9  C   UNL A   1      31.508  28.937  24.721  1.00  0.00     0.006 C 
ATOM     10  C   UNL A   1      31.758  28.506  27.645  1.00  0.00     0.014 C 
ATOM     11  C   UNL A   1      31.776  30.085  25.673  1.00  0.00     0.014 C 
BRANCH   7  12
ATOM     12  C   UNL A   1      31.437  26.417  24.372  1.00  0.00     0.119 C 
BRANCH  12  13
ATOM     13  N   UNL A   1      32.818  26.036  24.496  1.00  0.00    -0.351 N 
ATOM     14  C   UNL A   1      33.520  24.860  24.541  1.00  0.00     0.263 C 
ATOM     15  O   UNL A   1      34.739  25.069  24.459  1.00  0.00    -0.268 OA
ATOM     16  H   UNL A   1      33.410  26.820  24.568  1.00  0.00     0.163 HD
BRANCH  14  17
ATOM     17  C   UNL A   1      32.978  23.508  24.686  1.00  0.00     0.115 A 
ATOM     18  C   UNL A   1      31.022  23.264  26.431  1.00  0.00     0.068 C 
ATOM     19  C   UNL A   1      31.994  22.831  25.406  1.00  0.00     0.062 A 
ATOM     20  N   UNL A   1      31.910  21.465  25.170  1.00  0.00    -0.241 NA
ATOM     21  C   UNL A   1      32.858  21.059  24.369  1.00  0.00     0.124 A 
ATOM     22  S   UNL A   1      33.818  22.298  23.719  1.00  0.00    -0.108 S 
BRANCH  21  23
ATOM     23  C   UNL A   1      33.079  19.648  24.060  1.00  0.00     0.013 A 
ATOM     24  C   UNL A   1      32.302  18.974  23.105  1.00  0.00     0.011 A 
ATOM     25  C   UNL A   1      34.171  18.990  24.639  1.00  0.00     0.050 A 
ATOM     26  C   UNL A   1      32.618  17.664  22.732  1.00  0.00     0.004 A 
ATOM     27  C   UNL A   1      34.470  17.685  24.267  1.00  0.00     0.123 A 
ATOM     28  C   UNL A   1      33.707  17.019  23.314  1.00  0.00     0.039 A 
ATOM     29  F   UNL A   1      35.523  17.068  24.818  1.00  0.00    -0.207 F 
ENDBRANCH  21  23
ENDBRANCH  14  17
ENDBRANCH  12  13
ENDBRANCH   7  12
ENDBRANCH   3   6
ENDBRANCH   1   2
BRANCH   1  30
ATOM     30  C   UNL A   1      34.887  32.816  28.696  1.00  0.00     0.023 C 
BRANCH  30  31
ATOM     31  C   UNL A   1      33.795  33.856  28.470  1.00  0.00     0.023 C 
BRANCH  31  32
ATOM     32  C   UNL A   1      34.044  35.218  29.110  1.00  0.00     0.116 C 
BRANCH  32  33
ATOM     33  N   UNL A   1      32.959  35.715  29.947  1.00  0.00    -0.352 N 
ATOM     34  C   UNL A   1      32.862  35.654  31.323  1.00  0.00     0.251 C 
ATOM     35  H   UNL A   1      32.209  36.145  29.476  1.00  0.00     0.163 HD
ATOM     36  O   UNL A   1      31.876  36.084  31.904  1.00  0.00    -0.269 OA
BRANCH  34  37
ATOM     37  C   UNL A   1      33.951  34.995  32.077  1.00  0.00     0.039 A 
ATOM     38  C   UNL A   1      33.802  33.657  32.445  1.00  0.00     0.014 A 
ATOM     39  C   UNL A   1      35.159  35.662  32.293  1.00  0.00     0.014 A 
ATOM     40  C   UNL A   1      34.907  32.953  32.930  1.00  0.00     0.010 A 
ATOM     41  C   UNL A   1      36.276  34.938  32.696  1.00  0.00     0.010 A 
ATOM     42  C   UNL A   1      36.166  33.572  32.999  1.00  0.00    -0.014 A 
BRANCH  42  43
ATOM     43  C   UNL A   1      37.388  32.807  33.355  1.00  0.00     0.031 A 
ATOM     44  C   UNL A   1      38.094  33.076  34.654  1.00  0.00     0.074 A 
ATOM     45  C   UNL A   1      37.912  31.932  32.473  1.00  0.00     0.049 A 
ATOM     46  N   UNL A   1      39.226  32.591  35.096  1.00  0.00    -0.248 NA
ATOM     47  C   UNL A   1      37.459  34.044  35.561  1.00  0.00     0.031 C 
ATOM     48  C   UNL A   1      37.355  31.621  31.155  1.00  0.00     0.029 A 
ATOM     49  N   UNL A   1      39.036  31.146  32.549  1.00  0.00    -0.354 N 
ATOM     50  C   UNL A   1      39.446  33.208  36.319  1.00  0.00     0.074 A 
ATOM     51  C   UNL A   1      38.362  34.143  36.525  1.00  0.00     0.031 C 
ATOM     52  C   UNL A   1      38.115  30.685  30.565  1.00  0.00     0.029 A 
ATOM     53  C   UNL A   1      39.233  30.355  31.443  1.00  0.00     0.049 A 
ATOM     54  H   UNL A   1      39.643  31.148  33.324  1.00  0.00     0.167 HD
ATOM     55  C   UNL A   1      40.447  32.994  37.205  1.00  0.00     0.037 A 
ATOM     56  C   UNL A   1      40.204  29.463  31.170  1.00  0.00     0.037 A 
ATOM     57  C   UNL A   1      41.502  32.034  37.020  1.00  0.00     0.049 A 
ATOM     58  C   UNL A   1      41.297  29.230  32.177  1.00  0.00     0.074 A 
ATOM     59  C   UNL A   1      42.532  31.709  37.884  1.00  0.00     0.029 A 
ATOM     60  N   UNL A   1      41.653  31.236  35.895  1.00  0.00    -0.354 N 
ATOM     61  N   UNL A   1      41.472  29.792  33.348  1.00  0.00    -0.248 NA
ATOM     62  C   UNL A   1      42.325  28.239  31.826  1.00  0.00     0.031 C 
ATOM     63  C   UNL A   1      43.324  30.732  37.271  1.00  0.00     0.029 A 
ATOM     64  C   UNL A   1      42.765  30.423  36.041  1.00  0.00     0.049 A 
ATOM     65  H   UNL A   1      41.059  31.246  35.110  1.00  0.00     0.167 HD
ATOM     66  C   UNL A   1      42.612  29.209  33.883  1.00  0.00     0.074 A 
ATOM     67  C   UNL A   1      43.084  28.242  32.914  1.00  0.00     0.031 C 
ATOM     68  C   UNL A   1      43.213  29.457  35.072  1.00  0.00     0.037 A 
BRANCH  55  69
ATOM     69  C   UNL A   1      40.435  33.797  38.471  1.00  0.00     0.064 A 
ATOM     70  C   UNL A   1      39.638  33.410  39.557  1.00  0.00     0.173 A 
ATOM     71  C   UNL A   1      41.182  34.979  38.591  1.00  0.00     0.173 A 
ATOM     72  F   UNL A   1      38.901  32.290  39.491  1.00  0.00    -0.203 F 
ATOM     73  C   UNL A   1      39.587  34.179  40.717  1.00  0.00     0.198 A 
ATOM     74  C   UNL A   1      41.150  35.730  39.762  1.00  0.00     0.198 A 
ATOM     75  F   UNL A   1      41.971  35.384  37.583  1.00  0.00    -0.203 F 
ATOM     76  F   UNL A   1      38.802  33.802  41.735  1.00  0.00    -0.200 F 
ATOM     77  C   UNL A   1      40.347  35.334  40.820  1.00  0.00     0.200 A 
ATOM     78  F   UNL A   1      41.907  36.831  39.870  1.00  0.00    -0.200 F 
ATOM     79  F   UNL A   1      40.310  36.064  41.944  1.00  0.00    -0.200 F 
ENDBRANCH  55  69
BRANCH  56  80
ATOM     80  C   UNL A   1      40.155  28.684  29.905  1.00  0.00     0.064 A 
ATOM     81  C   UNL A   1      39.518  27.437  29.833  1.00  0.00     0.173 A 
ATOM     82  C   UNL A   1      40.775  29.171  28.745  1.00  0.00     0.173 A 
ATOM     83  F   UNL A   1      38.916  26.927  30.917  1.00  0.00    -0.203 F 
ATOM     84  C   UNL A   1      39.515  26.701  28.650  1.00  0.00     0.198 A 
ATOM     85  C   UNL A   1      40.752  28.443  27.558  1.00  0.00     0.198 A 
ATOM     86  F   UNL A   1      41.379  30.368  28.763  1.00  0.00    -0.203 F 
ATOM     87  F   UNL A   1      38.923  25.499  28.613  1.00  0.00    -0.200 F 
ATOM     88  C   UNL A   1      40.129  27.205  27.514  1.00  0.00     0.200 A 
ATOM     89  F   UNL A   1      41.328  28.944  26.457  1.00  0.00    -0.200 F 
ATOM     90  F   UNL A   1      40.116  26.501  26.374  1.00  0.00    -0.200 F 
ENDBRANCH  56  80
BRANCH  68  91
ATOM     91  C   UNL A   1      44.435  28.658  35.413  1.00  0.00     0.064 A 
ATOM     92  C   UNL A   1      45.703  29.090  34.998  1.00  0.00     0.173 A 
ATOM     93  C   UNL A   1      44.341  27.425  36.074  1.00  0.00     0.173 A 
ATOM     94  F   UNL A   1      45.841  30.260  34.355  1.00  0.00    -0.203 F 
ATOM     95  C   UNL A   1      46.833  28.308  35.218  1.00  0.00     0.198 A 
ATOM     96  C   UNL A   1      45.476  26.656  36.313  1.00  0.00     0.198 A 
ATOM     97  F   UNL A   1      43.151  26.977  36.501  1.00  0.00    -0.203 F 
ATOM     98  F   UNL A   1      48.030  28.725  34.783  1.00  0.00    -0.200 F 
ATOM     99  C   UNL A   1      46.718  27.093  35.877  1.00  0.00     0.200 A 
ATOM    100  F   UNL A   1      45.368  25.492  36.968  1.00  0.00    -0.200 F 
ATOM    101  F   UNL A   1      47.808  26.342  36.091  1.00  0.00    -0.200 F 
ENDBRANCH  68  91
ENDBRANCH  42  43
ENDBRANCH  34  37
ENDBRANCH  32  33
ENDBRANCH  31  32
ENDBRANCH  30  31
ENDBRANCH   1  30
TORSDOF 15
ENDMDL
MODEL 3
REMARK VINA RESULT:     -13.5      3.437      8.921
REMARK SMILES Cc1nc(-c2cccc(F)c2)sc1C(=O)NC[C@H]1CC[C@@H](C(=O)NCCCCNC(=O)c2ccc(-c3c4nc(c(-c5c(F)c(F)c(F)c(F)c5F)c5ccc([nH]5)c(-c5c(F)c(F)c(F)c(F)c5F)c5nc(c(-c6c(F)c(F)c(F)c(F)c6F)c6ccc3[nH]6)C=C5)C=C4)cc2)CC1
REMARK SMILES IDX 25 1 24 2 22 3 23 4 21 6 18 7 19 8 96 9 20 10 95 11 17 12
REMARK SMILES IDX 16 13 14 14 15 15 13 17 1 18 2 19 3 20 4 21 12 22 5 23 6 24
REMARK SMILES IDX 11 25 7 26 9 27 8 28 10 29 26 30 27 31 28 32 29 33 30 34
REMARK SMILES IDX 31 36 32 37 33 38 94 39 34 40 93 41 35 42 36 43 37 44 87 45
REMARK SMILES IDX 38 46 92 47 86 48 88 49 39 50 91 51 85 52 84 53 40 55 72 56
REMARK SMILES IDX 52 57 71 58 53 59 56 60 70 61 89 62 54 63 55 64 69 66 90 67
REMARK SMILES IDX 57 68 41 69 42 70 50 71 43 72 44 73 48 74 51 75 45 76 46 77
REMARK SMILES IDX 49 78 47 79 73 80 74 81 82 82 75 83 76 84 80 85 83 86 77 87
REMARK SMILES IDX 78 88 81 89 79 90 58 91 59 92 67 93 60 94 61 95 65 96 68 97
REMARK SMILES IDX 62 98 63 99 66 100 64 101
REMARK H PARENT 24 5 16 16 29 35 88 54 56 65
REMARK Flexibility Score: inf
ROOT
ATOM      1  C   UNL A   1      34.384  29.440  27.558  1.00  0.00     0.116 C 
ENDROOT
BRANCH   1   2
ATOM      2  N   UNL A   1      34.311  29.274  26.126  1.00  0.00    -0.356 N 
ATOM      3  C   UNL A   1      33.282  29.202  25.247  1.00  0.00     0.223 C 
ATOM      4  O   UNL A   1      33.609  29.246  24.054  1.00  0.00    -0.275 OA
ATOM      5  H   UNL A   1      35.194  29.196  25.697  1.00  0.00     0.163 HD
BRANCH   3   6
ATOM      6  C   UNL A   1      31.793  29.053  25.602  1.00  0.00     0.078 C 
ATOM      7  C   UNL A   1      30.215  26.632  24.685  1.00  0.00     0.008 C 
ATOM      8  C   UNL A   1      31.035  26.610  25.993  1.00  0.00     0.006 C 
ATOM      9  C   UNL A   1      30.420  27.868  23.790  1.00  0.00     0.006 C 
ATOM     10  C   UNL A   1      31.394  27.962  26.590  1.00  0.00     0.014 C 
ATOM     11  C   UNL A   1      30.813  29.174  24.450  1.00  0.00     0.014 C 
BRANCH   7  12
ATOM     12  C   UNL A   1      30.472  25.325  23.876  1.00  0.00     0.119 C 
BRANCH  12  13
ATOM     13  N   UNL A   1      31.634  25.400  23.031  1.00  0.00    -0.351 N 
ATOM     14  C   UNL A   1      32.722  24.609  22.772  1.00  0.00     0.263 C 
ATOM     15  O   UNL A   1      33.359  25.038  21.798  1.00  0.00    -0.268 OA
ATOM     16  H   UNL A   1      31.652  26.234  22.507  1.00  0.00     0.163 HD
BRANCH  14  17
ATOM     17  C   UNL A   1      33.151  23.421  23.512  1.00  0.00     0.115 A 
ATOM     18  C   UNL A   1      34.809  23.876  25.505  1.00  0.00     0.068 C 
ATOM     19  C   UNL A   1      33.960  23.079  24.595  1.00  0.00     0.062 A 
ATOM     20  N   UNL A   1      34.043  21.722  24.878  1.00  0.00    -0.241 NA
ATOM     21  C   UNL A   1      33.405  21.008  23.990  1.00  0.00     0.124 A 
ATOM     22  S   UNL A   1      32.532  21.911  22.847  1.00  0.00    -0.108 S 
BRANCH  21  23
ATOM     23  C   UNL A   1      33.443  19.548  23.977  1.00  0.00     0.013 A 
ATOM     24  C   UNL A   1      32.524  18.796  23.228  1.00  0.00     0.011 A 
ATOM     25  C   UNL A   1      34.495  18.890  24.625  1.00  0.00     0.050 A 
ATOM     26  C   UNL A   1      32.661  17.408  23.125  1.00  0.00     0.004 A 
ATOM     27  C   UNL A   1      34.616  17.510  24.523  1.00  0.00     0.123 A 
ATOM     28  C   UNL A   1      33.712  16.765  23.774  1.00  0.00     0.039 A 
ATOM     29  F   UNL A   1      35.633  16.891  25.137  1.00  0.00    -0.207 F 
ENDBRANCH  21  23
ENDBRANCH  14  17
ENDBRANCH  12  13
ENDBRANCH   7  12
ENDBRANCH   3   6
ENDBRANCH   1   2
BRANCH   1  30
ATOM     30  C   UNL A   1      34.601  30.889  27.996  1.00  0.00     0.023 C 
BRANCH  30  31
ATOM     31  C   UNL A   1      33.359  31.771  27.951  1.00  0.00     0.023 C 
BRANCH  31  32
ATOM     32  C   UNL A   1      33.485  33.039  27.111  1.00  0.00     0.116 C 
BRANCH  32  33
ATOM     33  N   UNL A   1      32.776  34.199  27.633  1.00  0.00    -0.352 N 
ATOM     34  C   UNL A   1      33.088  34.941  28.755  1.00  0.00     0.251 C 
ATOM     35  H   UNL A   1      31.982  34.488  27.127  1.00  0.00     0.163 HD
ATOM     36  O   UNL A   1      32.386  35.880  29.104  1.00  0.00    -0.269 OA
BRANCH  34  37
ATOM     37  C   UNL A   1      34.257  34.534  29.565  1.00  0.00     0.039 A 
ATOM     38  C   UNL A   1      34.039  33.920  30.800  1.00  0.00     0.014 A 
ATOM     39  C   UNL A   1      35.547  34.639  29.040  1.00  0.00     0.014 A 
ATOM     40  C   UNL A   1      35.109  33.309  31.459  1.00  0.00     0.010 A 
ATOM     41  C   UNL A   1      36.592  33.959  29.656  1.00  0.00     0.010 A 
ATOM     42  C   UNL A   1      36.379  33.269  30.860  1.00  0.00    -0.014 A 
BRANCH  42  43
ATOM     43  C   UNL A   1      37.494  32.490  31.457  1.00  0.00     0.031 A 
ATOM     44  C   UNL A   1      37.992  32.821  32.835  1.00  0.00     0.074 A 
ATOM     45  C   UNL A   1      38.115  31.542  30.726  1.00  0.00     0.049 A 
ATOM     46  N   UNL A   1      39.016  32.330  33.484  1.00  0.00    -0.248 NA
ATOM     47  C   UNL A   1      37.262  33.867  33.567  1.00  0.00     0.031 C 
ATOM     48  C   UNL A   1      37.764  31.163  29.356  1.00  0.00     0.029 A 
ATOM     49  N   UNL A   1      39.176  30.727  31.032  1.00  0.00    -0.354 N 
ATOM     50  C   UNL A   1      39.063  33.019  34.688  1.00  0.00     0.074 A 
ATOM     51  C   UNL A   1      38.001  34.000  34.658  1.00  0.00     0.031 C 
ATOM     52  C   UNL A   1      38.568  30.166  28.955  1.00  0.00     0.029 A 
ATOM     53  C   UNL A   1      39.515  29.858  30.023  1.00  0.00     0.049 A 
ATOM     54  H   UNL A   1      39.651  30.760  31.894  1.00  0.00     0.167 HD
ATOM     55  C   UNL A   1      39.898  32.831  35.737  1.00  0.00     0.037 A 
ATOM     56  C   UNL A   1      40.478  28.919  29.965  1.00  0.00     0.037 A 
ATOM     57  C   UNL A   1      40.926  31.827  35.784  1.00  0.00     0.049 A 
ATOM     58  C   UNL A   1      41.383  28.717  31.150  1.00  0.00     0.074 A 
ATOM     59  C   UNL A   1      41.789  31.526  36.823  1.00  0.00     0.029 A 
ATOM     60  N   UNL A   1      41.223  30.952  34.749  1.00  0.00    -0.354 N 
ATOM     61  N   UNL A   1      41.391  29.349  32.298  1.00  0.00    -0.248 NA
ATOM     62  C   UNL A   1      42.411  27.672  31.032  1.00  0.00     0.031 C 
ATOM     63  C   UNL A   1      42.626  30.485  36.407  1.00  0.00     0.029 A 
ATOM     64  C   UNL A   1      42.260  30.114  35.123  1.00  0.00     0.049 A 
ATOM     65  H   UNL A   1      40.763  30.930  33.879  1.00  0.00     0.167 HD
ATOM     66  C   UNL A   1      42.405  28.766  33.046  1.00  0.00     0.074 A 
ATOM     67  C   UNL A   1      42.985  27.723  32.227  1.00  0.00     0.031 C 
ATOM     68  C   UNL A   1      42.817  29.072  34.300  1.00  0.00     0.037 A 
BRANCH  55  69
ATOM     69  C   UNL A   1      39.717  33.716  36.933  1.00  0.00     0.064 A 
ATOM     70  C   UNL A   1      38.840  33.354  37.966  1.00  0.00     0.173 A 
ATOM     71  C   UNL A   1      40.381  34.948  37.035  1.00  0.00     0.173 A 
ATOM     72  F   UNL A   1      38.179  32.188  37.914  1.00  0.00    -0.203 F 
ATOM     73  C   UNL A   1      38.633  34.195  39.056  1.00  0.00     0.198 A 
ATOM     74  C   UNL A   1      40.192  35.773  38.139  1.00  0.00     0.198 A 
ATOM     75  F   UNL A   1      41.240  35.333  36.078  1.00  0.00    -0.203 F 
ATOM     76  F   UNL A   1      37.775  33.839  40.021  1.00  0.00    -0.200 F 
ATOM     77  C   UNL A   1      39.313  35.400  39.144  1.00  0.00     0.200 A 
ATOM     78  F   UNL A   1      40.871  36.925  38.236  1.00  0.00    -0.200 F 
ATOM     79  F   UNL A   1      39.126  36.201  40.203  1.00  0.00    -0.200 F 
ENDBRANCH  55  69
BRANCH  56  80
ATOM     80  C   UNL A   1      40.600  28.060  28.759  1.00  0.00     0.064 A 
ATOM     81  C   UNL A   1      41.377  28.445  27.657  1.00  0.00     0.173 A 
ATOM     82  C   UNL A   1      39.912  26.841  28.681  1.00  0.00     0.173 A 
ATOM     83  F   UNL A   1      42.051  29.604  27.682  1.00  0.00    -0.203 F 
ATOM     84  C   UNL A   1      41.450  27.647  26.517  1.00  0.00     0.198 A 
ATOM     85  C   UNL A   1      40.003  26.035  27.548  1.00  0.00     0.198 A 
ATOM     86  F   UNL A   1      39.172  26.424  29.718  1.00  0.00    -0.203 F 
ATOM     87  F   UNL A   1      42.179  28.049  25.466  1.00  0.00    -0.200 F 
ATOM     88  C   UNL A   1      40.766  26.442  26.465  1.00  0.00     0.200 A 
ATOM     89  F   UNL A   1      39.357  24.862  27.510  1.00  0.00    -0.200 F 
ATOM     90  F   UNL A   1      40.844  25.671  25.372  1.00  0.00    -0.200 F 
ENDBRANCH  56  80
BRANCH  68  91
ATOM     91  C   UNL A   1      43.932  28.258  34.883  1.00  0.00     0.064 A 
ATOM     92  C   UNL A   1      43.652  27.091  35.611  1.00  0.00     0.173 A 
ATOM     93  C   UNL A   1      45.266  28.677  34.796  1.00  0.00     0.173 A 
ATOM     94  F   UNL A   1      42.388  26.655  35.728  1.00  0.00    -0.203 F 
ATOM     95  C   UNL A   1      44.668  26.382  36.244  1.00  0.00     0.198 A 
ATOM     96  C   UNL A   1      46.283  27.952  35.411  1.00  0.00     0.198 A 
ATOM     97  F   UNL A   1      45.583  29.779  34.100  1.00  0.00    -0.203 F 
ATOM     98  F   UNL A   1      44.374  25.289  36.962  1.00  0.00    -0.200 F 
ATOM     99  C   UNL A   1      45.982  26.812  36.142  1.00  0.00     0.200 A 
ATOM    100  F   UNL A   1      47.556  28.357  35.295  1.00  0.00    -0.200 F 
ATOM    101  F   UNL A   1      46.961  26.126  36.749  1.00  0.00    -0.200 F 
ENDBRANCH  68  91
ENDBRANCH  42  43
ENDBRANCH  34  37
ENDBRANCH  32  33
ENDBRANCH  31  32
ENDBRANCH  30  31
ENDBRANCH   1  30
TORSDOF 15
ENDMDL
