MODEL 1
REMARK VINA RESULT:     -12.4      0.000      0.000
REMARK SMILES CC[C@@H]1CCC[C@@](CC[NH+]2CCOCC2)(C(=O)NCCCCNC(=O)c2ccc(-c3c4nc(c(-c5c(F)c(F)c(F)c(F)c5F)c5ccc([nH]5)c(-c5c(F)c(F)c(F)c(F)c5F)c5nc(c(-c6c(F)c(F)c(F)c(F)c6F)c6ccc3[nH]6)C=C5)C=C4)cc2)C1
REMARK SMILES IDX 20 1 19 2 18 3 16 4 17 5 7 7 3 8 4 9 89 10 5 11 6 12 2 13
REMARK SMILES IDX 1 14 8 15 9 16 10 17 11 18 15 19 12 21 14 22 13 23 21 24
REMARK SMILES IDX 22 25 23 26 24 27 25 29 26 30 27 31 88 32 28 33 87 34 29 35
REMARK SMILES IDX 30 36 31 37 81 38 32 39 86 40 80 41 82 42 33 43 85 44 79 45
REMARK SMILES IDX 78 46 34 48 66 49 46 50 65 51 47 52 50 53 64 54 83 55 48 56
REMARK SMILES IDX 49 57 63 59 84 60 51 61 35 62 36 63 44 64 37 65 38 66 42 67
REMARK SMILES IDX 45 68 39 69 40 70 43 71 41 72 67 73 68 74 76 75 69 76 70 77
REMARK SMILES IDX 74 78 77 79 71 80 72 81 75 82 73 83 52 84 53 85 61 86 54 87
REMARK SMILES IDX 55 88 59 89 62 90 56 91 57 92 60 93 58 94
REMARK H PARENT 18 6 10 20 23 28 82 47 50 58
REMARK Flexibility Score: inf
ROOT
ATOM      1  C   UNL A   1      31.557  30.802  26.080  1.00  0.00     0.023 C 
ENDROOT
BRANCH   1   2
ATOM      2  C   UNL A   1      32.911  30.099  26.274  1.00  0.00     0.116 C 
BRANCH   2   3
ATOM      3  N   UNL A   1      33.494  29.693  25.005  1.00  0.00    -0.356 N 
ATOM      4  C   UNL A   1      33.200  28.821  24.009  1.00  0.00     0.226 C 
ATOM      5  O   UNL A   1      34.044  28.804  23.102  1.00  0.00    -0.274 OA
ATOM      6  H   UNL A   1      34.327  30.183  24.820  1.00  0.00     0.163 HD
BRANCH   4   7
ATOM      7  C   UNL A   1      31.987  27.864  23.979  1.00  0.00     0.055 C 
ATOM      8  C   UNL A   1      33.423  25.739  23.244  1.00  0.00    -0.010 C 
ATOM      9  C   UNL A   1      33.542  25.346  24.727  1.00  0.00     0.003 C 
ATOM     10  C   UNL A   1      32.236  26.688  22.954  1.00  0.00     0.020 C 
ATOM     11  C   UNL A   1      33.179  26.441  25.722  1.00  0.00     0.001 C 
ATOM     12  C   UNL A   1      31.875  27.156  25.350  1.00  0.00     0.017 C 
BRANCH   8  13
ATOM     13  C   UNL A   1      33.352  24.434  22.409  1.00  0.00     0.000 C 
ATOM     14  C   UNL A   1      34.039  23.226  23.029  1.00  0.00     0.004 C 
ENDBRANCH   8  13
BRANCH   7  15
ATOM     15  C   UNL A   1      30.631  28.549  23.534  1.00  0.00     0.078 C 
BRANCH  15  16
ATOM     16  C   UNL A   1      30.498  29.257  22.160  1.00  0.00     0.263 C 
BRANCH  16  17
ATOM     17  N   UNL A   1      29.632  30.410  22.209  1.00  0.00    -0.331 N 
ATOM     18  C   UNL A   1      28.517  30.476  21.269  1.00  0.00     0.291 C 
ATOM     19  C   UNL A   1      29.176  30.861  23.522  1.00  0.00     0.291 C 
ATOM     20  H   UNL A   1      30.338  31.069  21.882  1.00  0.00     0.348 HD
ATOM     21  C   UNL A   1      28.125  31.960  21.149  1.00  0.00     0.221 C 
ATOM     22  C   UNL A   1      28.727  32.333  23.406  1.00  0.00     0.221 C 
ATOM     23  O   UNL A   1      27.696  32.487  22.420  1.00  0.00    -0.370 OA
ENDBRANCH  16  17
ENDBRANCH  15  16
ENDBRANCH   7  15
ENDBRANCH   4   7
ENDBRANCH   2   3
ENDBRANCH   1   2
BRANCH   1  24
ATOM     24  C   UNL A   1      31.383  32.226  26.638  1.00  0.00     0.023 C 
BRANCH  24  25
ATOM     25  C   UNL A   1      32.591  32.978  27.193  1.00  0.00     0.116 C 
BRANCH  25  26
ATOM     26  N   UNL A   1      32.309  34.289  27.734  1.00  0.00    -0.352 N 
ATOM     27  C   UNL A   1      33.015  34.996  28.685  1.00  0.00     0.251 C 
ATOM     28  H   UNL A   1      31.508  34.736  27.377  1.00  0.00     0.163 HD
ATOM     29  O   UNL A   1      32.636  36.099  29.041  1.00  0.00    -0.269 OA
BRANCH  27  30
ATOM     30  C   UNL A   1      34.217  34.394  29.311  1.00  0.00     0.039 A 
ATOM     31  C   UNL A   1      34.034  33.533  30.395  1.00  0.00     0.014 A 
ATOM     32  C   UNL A   1      35.506  34.680  28.852  1.00  0.00     0.014 A 
ATOM     33  C   UNL A   1      35.138  32.914  30.988  1.00  0.00     0.010 A 
ATOM     34  C   UNL A   1      36.606  34.023  29.417  1.00  0.00     0.010 A 
ATOM     35  C   UNL A   1      36.434  33.132  30.489  1.00  0.00    -0.014 A 
BRANCH  35  36
ATOM     36  C   UNL A   1      37.597  32.415  31.081  1.00  0.00     0.031 A 
ATOM     37  C   UNL A   1      38.096  32.758  32.457  1.00  0.00     0.074 A 
ATOM     38  C   UNL A   1      38.225  31.460  30.368  1.00  0.00     0.049 A 
ATOM     39  N   UNL A   1      39.075  32.219  33.144  1.00  0.00    -0.248 NA
ATOM     40  C   UNL A   1      37.417  33.863  33.146  1.00  0.00     0.031 C 
ATOM     41  C   UNL A   1      37.866  31.050  29.011  1.00  0.00     0.029 A 
ATOM     42  N   UNL A   1      39.293  30.656  30.686  1.00  0.00    -0.354 N 
ATOM     43  C   UNL A   1      39.132  32.922  34.341  1.00  0.00     0.074 A 
ATOM     44  C   UNL A   1      38.126  33.962  34.261  1.00  0.00     0.031 C 
ATOM     45  C   UNL A   1      38.670  30.047  28.628  1.00  0.00     0.029 A 
ATOM     46  C   UNL A   1      39.627  29.765  29.695  1.00  0.00     0.049 A 
ATOM     47  H   UNL A   1      39.773  30.713  31.544  1.00  0.00     0.167 HD
ATOM     48  C   UNL A   1      39.931  32.709  35.415  1.00  0.00     0.037 A 
ATOM     49  C   UNL A   1      40.591  28.826  29.650  1.00  0.00     0.037 A 
ATOM     50  C   UNL A   1      40.932  31.675  35.492  1.00  0.00     0.049 A 
ATOM     51  C   UNL A   1      41.497  28.636  30.837  1.00  0.00     0.074 A 
ATOM     52  C   UNL A   1      41.753  31.343  36.557  1.00  0.00     0.029 A 
ATOM     53  N   UNL A   1      41.264  30.815  34.454  1.00  0.00    -0.354 N 
ATOM     54  N   UNL A   1      41.487  29.251  31.994  1.00  0.00    -0.248 NA
ATOM     55  C   UNL A   1      42.547  27.617  30.709  1.00  0.00     0.031 C 
ATOM     56  C   UNL A   1      42.625  30.331  36.142  1.00  0.00     0.029 A 
ATOM     57  C   UNL A   1      42.304  29.980  34.840  1.00  0.00     0.049 A 
ATOM     58  H   UNL A   1      40.827  30.801  33.572  1.00  0.00     0.167 HD
ATOM     59  C   UNL A   1      42.504  28.673  32.743  1.00  0.00     0.074 A 
ATOM     60  C   UNL A   1      43.103  27.650  31.912  1.00  0.00     0.031 C 
ATOM     61  C   UNL A   1      42.899  28.964  34.008  1.00  0.00     0.037 A 
BRANCH  48  62
ATOM     62  C   UNL A   1      39.765  33.635  36.589  1.00  0.00     0.064 A 
ATOM     63  C   UNL A   1      38.897  33.336  37.652  1.00  0.00     0.173 A 
ATOM     64  C   UNL A   1      40.482  34.839  36.655  1.00  0.00     0.173 A 
ATOM     65  F   UNL A   1      38.182  32.200  37.641  1.00  0.00    -0.203 F 
ATOM     66  C   UNL A   1      38.711  34.231  38.703  1.00  0.00     0.198 A 
ATOM     67  C   UNL A   1      40.323  35.714  37.727  1.00  0.00     0.198 A 
ATOM     68  F   UNL A   1      41.338  35.172  35.677  1.00  0.00    -0.203 F 
ATOM     69  F   UNL A   1      37.819  33.956  39.665  1.00  0.00    -0.200 F 
ATOM     70  C   UNL A   1      39.427  35.418  38.741  1.00  0.00     0.200 A 
ATOM     71  F   UNL A   1      41.030  36.852  37.771  1.00  0.00    -0.200 F 
ATOM     72  F   UNL A   1      39.242  36.281  39.750  1.00  0.00    -0.200 F 
ENDBRANCH  48  62
BRANCH  49  73
ATOM     73  C   UNL A   1      40.717  27.957  28.451  1.00  0.00     0.064 A 
ATOM     74  C   UNL A   1      40.056  26.721  28.389  1.00  0.00     0.173 A 
ATOM     75  C   UNL A   1      41.481  28.343  27.340  1.00  0.00     0.173 A 
ATOM     76  F   UNL A   1      39.332  26.298  29.436  1.00  0.00    -0.203 F 
ATOM     77  C   UNL A   1      40.161  25.904  27.266  1.00  0.00     0.198 A 
ATOM     78  C   UNL A   1      41.562  27.538  26.207  1.00  0.00     0.198 A 
ATOM     79  F   UNL A   1      42.131  29.516  27.348  1.00  0.00    -0.203 F 
ATOM     80  F   UNL A   1      39.546  24.713  27.249  1.00  0.00    -0.200 F 
ATOM     81  C   UNL A   1      40.906  26.316  26.173  1.00  0.00     0.200 A 
ATOM     82  F   UNL A   1      42.271  27.946  25.145  1.00  0.00    -0.200 F 
ATOM     83  F   UNL A   1      40.996  25.535  25.088  1.00  0.00    -0.200 F 
ENDBRANCH  49  73
BRANCH  61  84
ATOM     84  C   UNL A   1      44.015  28.141  34.591  1.00  0.00     0.064 A 
ATOM     85  C   UNL A   1      45.353  28.559  34.534  1.00  0.00     0.173 A 
ATOM     86  C   UNL A   1      43.736  26.930  35.246  1.00  0.00     0.173 A 
ATOM     87  F   UNL A   1      45.678  29.699  33.905  1.00  0.00    -0.203 F 
ATOM     88  C   UNL A   1      46.371  27.785  35.087  1.00  0.00     0.198 A 
ATOM     89  C   UNL A   1      44.752  26.176  35.827  1.00  0.00     0.198 A 
ATOM     90  F   UNL A   1      42.474  26.485  35.335  1.00  0.00    -0.203 F 
ATOM     91  F   UNL A   1      47.647  28.179  34.973  1.00  0.00    -0.200 F 
ATOM     92  C   UNL A   1      46.069  26.599  35.739  1.00  0.00     0.200 A 
ATOM     93  F   UNL A   1      44.456  25.039  36.472  1.00  0.00    -0.200 F 
ATOM     94  F   UNL A   1      47.049  25.860  36.278  1.00  0.00    -0.200 F 
ENDBRANCH  61  84
ENDBRANCH  35  36
ENDBRANCH  27  30
ENDBRANCH  25  26
ENDBRANCH  24  25
ENDBRANCH   1  24
TORSDOF 15
ENDMDL
MODEL 2
REMARK VINA RESULT:     -12.4      0.240      1.151
REMARK SMILES CC[C@@H]1CCC[C@@](CC[NH+]2CCOCC2)(C(=O)NCCCCNC(=O)c2ccc(-c3c4nc(c(-c5c(F)c(F)c(F)c(F)c5F)c5ccc([nH]5)c(-c5c(F)c(F)c(F)c(F)c5F)c5nc(c(-c6c(F)c(F)c(F)c(F)c6F)c6ccc3[nH]6)C=C5)C=C4)cc2)C1
REMARK SMILES IDX 20 1 19 2 18 3 16 4 17 5 7 7 3 8 4 9 89 10 5 11 6 12 2 13
REMARK SMILES IDX 1 14 8 15 9 16 10 17 11 18 15 19 12 21 14 22 13 23 21 24
REMARK SMILES IDX 22 25 23 26 24 27 25 29 26 30 27 31 88 32 28 33 87 34 29 35
REMARK SMILES IDX 30 36 31 37 81 38 32 39 86 40 80 41 82 42 33 43 85 44 79 45
REMARK SMILES IDX 78 46 34 48 66 49 46 50 65 51 47 52 50 53 64 54 83 55 48 56
REMARK SMILES IDX 49 57 63 59 84 60 51 61 35 62 36 63 44 64 37 65 38 66 42 67
REMARK SMILES IDX 45 68 39 69 40 70 43 71 41 72 67 73 68 74 76 75 69 76 70 77
REMARK SMILES IDX 74 78 77 79 71 80 72 81 75 82 73 83 52 84 53 85 61 86 54 87
REMARK SMILES IDX 55 88 59 89 62 90 56 91 57 92 60 93 58 94
REMARK H PARENT 18 6 10 20 23 28 82 47 50 58
REMARK Flexibility Score: inf
ROOT
ATOM      1  C   UNL A   1      31.537  30.684  26.384  1.00  0.00     0.023 C 
ENDROOT
BRANCH   1   2
ATOM      2  C   UNL A   1      32.938  30.052  26.426  1.00  0.00     0.116 C 
BRANCH   2   3
ATOM      3  N   UNL A   1      33.438  29.761  25.091  1.00  0.00    -0.356 N 
ATOM      4  C   UNL A   1      33.076  28.984  24.041  1.00  0.00     0.226 C 
ATOM      5  O   UNL A   1      33.863  29.047  23.085  1.00  0.00    -0.274 OA
ATOM      6  H   UNL A   1      34.262  30.264  24.899  1.00  0.00     0.163 HD
BRANCH   4   7
ATOM      7  C   UNL A   1      31.856  28.037  24.000  1.00  0.00     0.055 C 
ATOM      8  C   UNL A   1      33.212  26.004  22.929  1.00  0.00    -0.010 C 
ATOM      9  C   UNL A   1      33.441  25.451  24.347  1.00  0.00     0.003 C 
ATOM     10  C   UNL A   1      32.016  26.980  22.837  1.00  0.00     0.020 C 
ATOM     11  C   UNL A   1      33.165  26.430  25.480  1.00  0.00     0.001 C 
ATOM     12  C   UNL A   1      31.842  27.183  25.290  1.00  0.00     0.017 C 
BRANCH   8  13
ATOM     13  C   UNL A   1      33.066  24.798  21.964  1.00  0.00     0.000 C 
ATOM     14  C   UNL A   1      32.707  23.475  22.625  1.00  0.00     0.004 C 
ENDBRANCH   8  13
BRANCH   7  15
ATOM     15  C   UNL A   1      30.476  28.767  23.738  1.00  0.00     0.078 C 
BRANCH  15  16
ATOM     16  C   UNL A   1      29.999  29.097  22.299  1.00  0.00     0.263 C 
BRANCH  16  17
ATOM     17  N   UNL A   1      29.339  30.377  22.212  1.00  0.00    -0.331 N 
ATOM     18  C   UNL A   1      28.230  30.519  21.273  1.00  0.00     0.291 C 
ATOM     19  C   UNL A   1      28.995  31.051  23.462  1.00  0.00     0.291 C 
ATOM     20  H   UNL A   1      30.137  30.864  21.805  1.00  0.00     0.348 HD
ATOM     21  C   UNL A   1      28.089  32.023  20.977  1.00  0.00     0.221 C 
ATOM     22  C   UNL A   1      28.796  32.553  23.170  1.00  0.00     0.221 C 
ATOM     23  O   UNL A   1      27.782  32.761  22.176  1.00  0.00    -0.370 OA
ENDBRANCH  16  17
ENDBRANCH  15  16
ENDBRANCH   7  15
ENDBRANCH   4   7
ENDBRANCH   2   3
ENDBRANCH   1   2
BRANCH   1  24
ATOM     24  C   UNL A   1      31.412  32.206  26.580  1.00  0.00     0.023 C 
BRANCH  24  25
ATOM     25  C   UNL A   1      32.602  33.004  27.111  1.00  0.00     0.116 C 
BRANCH  25  26
ATOM     26  N   UNL A   1      32.276  34.290  27.688  1.00  0.00    -0.352 N 
ATOM     27  C   UNL A   1      32.949  34.986  28.669  1.00  0.00     0.251 C 
ATOM     28  H   UNL A   1      31.469  34.726  27.333  1.00  0.00     0.163 HD
ATOM     29  O   UNL A   1      32.536  36.067  29.053  1.00  0.00    -0.269 OA
BRANCH  27  30
ATOM     30  C   UNL A   1      34.159  34.398  29.295  1.00  0.00     0.039 A 
ATOM     31  C   UNL A   1      33.995  33.620  30.443  1.00  0.00     0.014 A 
ATOM     32  C   UNL A   1      35.437  34.617  28.771  1.00  0.00     0.014 A 
ATOM     33  C   UNL A   1      35.105  33.016  31.039  1.00  0.00     0.010 A 
ATOM     34  C   UNL A   1      36.541  33.973  29.343  1.00  0.00     0.010 A 
ATOM     35  C   UNL A   1      36.387  33.164  30.482  1.00  0.00    -0.014 A 
BRANCH  35  36
ATOM     36  C   UNL A   1      37.554  32.460  31.082  1.00  0.00     0.031 A 
ATOM     37  C   UNL A   1      38.052  32.823  32.453  1.00  0.00     0.074 A 
ATOM     38  C   UNL A   1      38.185  31.498  30.381  1.00  0.00     0.049 A 
ATOM     39  N   UNL A   1      39.034  32.298  33.146  1.00  0.00    -0.248 NA
ATOM     40  C   UNL A   1      37.369  33.935  33.127  1.00  0.00     0.031 C 
ATOM     41  C   UNL A   1      37.826  31.068  29.030  1.00  0.00     0.029 A 
ATOM     42  N   UNL A   1      39.256  30.702  30.710  1.00  0.00    -0.354 N 
ATOM     43  C   UNL A   1      39.088  33.016  34.333  1.00  0.00     0.074 A 
ATOM     44  C   UNL A   1      38.079  34.051  34.240  1.00  0.00     0.031 C 
ATOM     45  C   UNL A   1      38.635  30.064  28.660  1.00  0.00     0.029 A 
ATOM     46  C   UNL A   1      39.594  29.800  29.730  1.00  0.00     0.049 A 
ATOM     47  H   UNL A   1      39.736  30.773  31.566  1.00  0.00     0.167 HD
ATOM     48  C   UNL A   1      39.889  32.821  35.410  1.00  0.00     0.037 A 
ATOM     49  C   UNL A   1      40.562  28.864  29.696  1.00  0.00     0.037 A 
ATOM     50  C   UNL A   1      40.895  31.792  35.500  1.00  0.00     0.049 A 
ATOM     51  C   UNL A   1      41.469  28.694  30.885  1.00  0.00     0.074 A 
ATOM     52  C   UNL A   1      41.718  31.478  36.568  1.00  0.00     0.029 A 
ATOM     53  N   UNL A   1      41.230  30.920  34.473  1.00  0.00    -0.354 N 
ATOM     54  N   UNL A   1      41.457  29.324  32.034  1.00  0.00    -0.248 NA
ATOM     55  C   UNL A   1      42.524  27.678  30.770  1.00  0.00     0.031 C 
ATOM     56  C   UNL A   1      42.594  30.464  36.166  1.00  0.00     0.029 A 
ATOM     57  C   UNL A   1      42.274  30.095  34.870  1.00  0.00     0.049 A 
ATOM     58  H   UNL A   1      40.792  30.892  33.592  1.00  0.00     0.167 HD
ATOM     59  C   UNL A   1      42.477  28.761  32.790  1.00  0.00     0.074 A 
ATOM     60  C   UNL A   1      43.080  27.729  31.972  1.00  0.00     0.031 C 
ATOM     61  C   UNL A   1      42.872  29.070  34.051  1.00  0.00     0.037 A 
BRANCH  48  62
ATOM     62  C   UNL A   1      39.720  33.762  36.572  1.00  0.00     0.064 A 
ATOM     63  C   UNL A   1      40.380  35.001  36.623  1.00  0.00     0.173 A 
ATOM     64  C   UNL A   1      38.888  33.424  37.649  1.00  0.00     0.173 A 
ATOM     65  F   UNL A   1      41.191  35.377  35.622  1.00  0.00    -0.203 F 
ATOM     66  C   UNL A   1      40.258  35.836  37.732  1.00  0.00     0.198 A 
ATOM     67  C   UNL A   1      38.738  34.278  38.739  1.00  0.00     0.198 A 
ATOM     68  F   UNL A   1      38.220  32.260  37.649  1.00  0.00    -0.203 F 
ATOM     69  F   UNL A   1      40.959  36.976  37.790  1.00  0.00    -0.200 F 
ATOM     70  C   UNL A   1      39.435  35.474  38.788  1.00  0.00     0.200 A 
ATOM     71  F   UNL A   1      37.927  33.934  39.750  1.00  0.00    -0.200 F 
ATOM     72  F   UNL A   1      39.324  36.274  39.857  1.00  0.00    -0.200 F 
ENDBRANCH  48  62
BRANCH  49  73
ATOM     73  C   UNL A   1      40.690  27.980  28.509  1.00  0.00     0.064 A 
ATOM     74  C   UNL A   1      40.036  26.740  28.466  1.00  0.00     0.173 A 
ATOM     75  C   UNL A   1      41.450  28.355  27.392  1.00  0.00     0.173 A 
ATOM     76  F   UNL A   1      39.316  26.326  29.519  1.00  0.00    -0.203 F 
ATOM     77  C   UNL A   1      40.143  25.908  27.354  1.00  0.00     0.198 A 
ATOM     78  C   UNL A   1      41.533  27.535  26.269  1.00  0.00     0.198 A 
ATOM     79  F   UNL A   1      42.094  29.532  27.382  1.00  0.00    -0.203 F 
ATOM     80  F   UNL A   1      39.535  24.714  27.353  1.00  0.00    -0.200 F 
ATOM     81  C   UNL A   1      40.884  26.310  26.253  1.00  0.00     0.200 A 
ATOM     82  F   UNL A   1      42.238  27.933  25.201  1.00  0.00    -0.200 F 
ATOM     83  F   UNL A   1      40.976  25.514  25.179  1.00  0.00    -0.200 F 
ENDBRANCH  49  73
BRANCH  61  84
ATOM     84  C   UNL A   1      43.992  28.260  34.643  1.00  0.00     0.064 A 
ATOM     85  C   UNL A   1      45.328  28.682  34.579  1.00  0.00     0.173 A 
ATOM     86  C   UNL A   1      43.719  27.058  35.316  1.00  0.00     0.173 A 
ATOM     87  F   UNL A   1      45.648  29.814  33.934  1.00  0.00    -0.203 F 
ATOM     88  C   UNL A   1      46.350  27.920  35.141  1.00  0.00     0.198 A 
ATOM     89  C   UNL A   1      44.738  26.315  35.906  1.00  0.00     0.198 A 
ATOM     90  F   UNL A   1      42.459  26.609  35.412  1.00  0.00    -0.203 F 
ATOM     91  F   UNL A   1      47.624  28.317  35.020  1.00  0.00    -0.200 F 
ATOM     92  C   UNL A   1      46.053  26.742  35.811  1.00  0.00     0.200 A 
ATOM     93  F   UNL A   1      44.447  25.186  36.567  1.00  0.00    -0.200 F 
ATOM     94  F   UNL A   1      47.036  26.014  36.358  1.00  0.00    -0.200 F 
ENDBRANCH  61  84
ENDBRANCH  35  36
ENDBRANCH  27  30
ENDBRANCH  25  26
ENDBRANCH  24  25
ENDBRANCH   1  24
TORSDOF 15
ENDMDL
MODEL 3
REMARK VINA RESULT:     -12.4      0.702      7.331
REMARK SMILES CC[C@@H]1CCC[C@@](CC[NH+]2CCOCC2)(C(=O)NCCCCNC(=O)c2ccc(-c3c4nc(c(-c5c(F)c(F)c(F)c(F)c5F)c5ccc([nH]5)c(-c5c(F)c(F)c(F)c(F)c5F)c5nc(c(-c6c(F)c(F)c(F)c(F)c6F)c6ccc3[nH]6)C=C5)C=C4)cc2)C1
REMARK SMILES IDX 20 1 19 2 18 3 16 4 17 5 7 7 3 8 4 9 89 10 5 11 6 12 2 13
REMARK SMILES IDX 1 14 8 15 9 16 10 17 11 18 15 19 12 21 14 22 13 23 21 24
REMARK SMILES IDX 22 25 23 26 24 27 25 29 26 30 27 31 88 32 28 33 87 34 29 35
REMARK SMILES IDX 30 36 31 37 81 38 32 39 86 40 80 41 82 42 33 43 85 44 79 45
REMARK SMILES IDX 78 46 34 48 66 49 46 50 65 51 47 52 50 53 64 54 83 55 48 56
REMARK SMILES IDX 49 57 63 59 84 60 51 61 35 62 36 63 44 64 37 65 38 66 42 67
REMARK SMILES IDX 45 68 39 69 40 70 43 71 41 72 67 73 68 74 76 75 69 76 70 77
REMARK SMILES IDX 74 78 77 79 71 80 72 81 75 82 73 83 52 84 53 85 61 86 54 87
REMARK SMILES IDX 55 88 59 89 62 90 56 91 57 92 60 93 58 94
REMARK H PARENT 18 6 10 20 23 28 82 47 50 58
REMARK Flexibility Score: inf
ROOT
ATOM      1  C   UNL A   1      31.411  30.861  26.489  1.00  0.00     0.023 C 
ENDROOT
BRANCH   1   2
ATOM      2  C   UNL A   1      32.724  30.079  26.659  1.00  0.00     0.116 C 
BRANCH   2   3
ATOM      3  N   UNL A   1      33.328  29.754  25.376  1.00  0.00    -0.356 N 
ATOM      4  C   UNL A   1      33.020  28.996  24.295  1.00  0.00     0.226 C 
ATOM      5  O   UNL A   1      33.894  29.010  23.417  1.00  0.00    -0.274 OA
ATOM      6  H   UNL A   1      34.194  30.207  25.263  1.00  0.00     0.163 HD
BRANCH   4   7
ATOM      7  C   UNL A   1      31.755  28.123  24.139  1.00  0.00     0.055 C 
ATOM      8  C   UNL A   1      33.088  25.992  23.246  1.00  0.00    -0.010 C 
ATOM      9  C   UNL A   1      33.133  25.455  24.688  1.00  0.00     0.003 C 
ATOM     10  C   UNL A   1      31.970  27.035  23.014  1.00  0.00     0.020 C 
ATOM     11  C   UNL A   1      32.800  26.472  25.772  1.00  0.00     0.001 C 
ATOM     12  C   UNL A   1      31.554  27.299  25.432  1.00  0.00     0.017 C 
BRANCH   8  13
ATOM     13  C   UNL A   1      32.970  24.777  22.289  1.00  0.00     0.000 C 
ATOM     14  C   UNL A   1      33.730  23.531  22.721  1.00  0.00     0.004 C 
ENDBRANCH   8  13
BRANCH   7  15
ATOM     15  C   UNL A   1      30.457  28.928  23.722  1.00  0.00     0.078 C 
BRANCH  15  16
ATOM     16  C   UNL A   1      30.216  29.365  22.253  1.00  0.00     0.263 C 
BRANCH  16  17
ATOM     17  N   UNL A   1      29.482  30.603  22.153  1.00  0.00    -0.331 N 
ATOM     18  C   UNL A   1      28.366  30.670  21.214  1.00  0.00     0.291 C 
ATOM     19  C   UNL A   1      29.100  31.268  23.396  1.00  0.00     0.291 C 
ATOM     20  H   UNL A   1      30.251  31.132  21.741  1.00  0.00     0.348 HD
ATOM     21  C   UNL A   1      28.137  32.160  20.903  1.00  0.00     0.221 C 
ATOM     22  C   UNL A   1      28.813  32.753  23.090  1.00  0.00     0.221 C 
ATOM     23  O   UNL A   1      27.789  32.891  22.095  1.00  0.00    -0.370 OA
ENDBRANCH  16  17
ENDBRANCH  15  16
ENDBRANCH   7  15
ENDBRANCH   4   7
ENDBRANCH   2   3
ENDBRANCH   1   2
BRANCH   1  24
ATOM     24  C   UNL A   1      31.459  32.398  26.561  1.00  0.00     0.023 C 
BRANCH  24  25
ATOM     25  C   UNL A   1      32.600  33.090  27.305  1.00  0.00     0.116 C 
BRANCH  25  26
ATOM     26  N   UNL A   1      32.311  34.425  27.778  1.00  0.00    -0.352 N 
ATOM     27  C   UNL A   1      32.980  35.161  28.733  1.00  0.00     0.251 C 
ATOM     28  H   UNL A   1      31.536  34.867  27.365  1.00  0.00     0.163 HD
ATOM     29  O   UNL A   1      32.601  36.283  29.026  1.00  0.00    -0.269 OA
BRANCH  27  30
ATOM     30  C   UNL A   1      34.142  34.571  29.442  1.00  0.00     0.039 A 
ATOM     31  C   UNL A   1      33.921  33.974  30.685  1.00  0.00     0.014 A 
ATOM     32  C   UNL A   1      35.431  34.613  28.902  1.00  0.00     0.014 A 
ATOM     33  C   UNL A   1      34.982  33.371  31.366  1.00  0.00     0.010 A 
ATOM     34  C   UNL A   1      36.482  33.968  29.565  1.00  0.00     0.010 A 
ATOM     35  C   UNL A   1      36.269  33.338  30.803  1.00  0.00    -0.014 A 
BRANCH  35  36
ATOM     36  C   UNL A   1      37.379  32.633  31.502  1.00  0.00     0.031 A 
ATOM     37  C   UNL A   1      38.092  31.480  30.851  1.00  0.00     0.074 A 
ATOM     38  C   UNL A   1      37.737  33.018  32.742  1.00  0.00     0.049 A 
ATOM     39  N   UNL A   1      39.099  30.769  31.296  1.00  0.00    -0.248 NA
ATOM     40  C   UNL A   1      37.597  31.061  29.533  1.00  0.00     0.031 C 
ATOM     41  C   UNL A   1      37.109  34.098  33.502  1.00  0.00     0.029 A 
ATOM     42  N   UNL A   1      38.720  32.549  33.580  1.00  0.00    -0.354 N 
ATOM     43  C   UNL A   1      39.355  29.817  30.317  1.00  0.00     0.074 A 
ATOM     44  C   UNL A   1      38.359  30.007  29.282  1.00  0.00     0.031 C 
ATOM     45  C   UNL A   1      37.745  34.236  34.675  1.00  0.00     0.029 A 
ATOM     46  C   UNL A   1      38.801  33.232  34.769  1.00  0.00     0.049 A 
ATOM     47  H   UNL A   1      39.310  31.795  33.350  1.00  0.00     0.167 HD
ATOM     48  C   UNL A   1      40.339  28.885  30.273  1.00  0.00     0.037 A 
ATOM     49  C   UNL A   1      39.635  33.072  35.816  1.00  0.00     0.037 A 
ATOM     50  C   UNL A   1      41.327  28.695  31.306  1.00  0.00     0.049 A 
ATOM     51  C   UNL A   1      40.691  32.002  35.765  1.00  0.00     0.074 A 
ATOM     52  C   UNL A   1      42.397  27.817  31.328  1.00  0.00     0.029 A 
ATOM     53  N   UNL A   1      41.355  29.384  32.511  1.00  0.00    -0.354 N 
ATOM     54  N   UNL A   1      40.976  31.163  34.799  1.00  0.00    -0.248 NA
ATOM     55  C   UNL A   1      41.544  31.860  36.953  1.00  0.00     0.031 C 
ATOM     56  C   UNL A   1      43.030  27.926  32.571  1.00  0.00     0.029 A 
ATOM     57  C   UNL A   1      42.400  28.922  33.299  1.00  0.00     0.049 A 
ATOM     58  H   UNL A   1      40.725  30.095  32.769  1.00  0.00     0.167 HD
ATOM     59  C   UNL A   1      42.059  30.418  35.247  1.00  0.00     0.074 A 
ATOM     60  C   UNL A   1      42.387  30.912  36.568  1.00  0.00     0.031 C 
ATOM     61  C   UNL A   1      42.722  29.416  34.615  1.00  0.00     0.037 A 
BRANCH  48  62
ATOM     62  C   UNL A   1      40.376  27.981  29.071  1.00  0.00     0.064 A 
ATOM     63  C   UNL A   1      41.135  28.294  27.932  1.00  0.00     0.173 A 
ATOM     64  C   UNL A   1      39.642  26.785  29.054  1.00  0.00     0.173 A 
ATOM     65  F   UNL A   1      41.855  29.427  27.890  1.00  0.00    -0.203 F 
ATOM     66  C   UNL A   1      41.113  27.476  26.805  1.00  0.00     0.198 A 
ATOM     67  C   UNL A   1      39.653  25.950  27.940  1.00  0.00     0.198 A 
ATOM     68  F   UNL A   1      38.910  26.425  30.119  1.00  0.00    -0.203 F 
ATOM     69  F   UNL A   1      41.786  27.837  25.704  1.00  0.00    -0.200 F 
ATOM     70  C   UNL A   1      40.374  26.303  26.811  1.00  0.00     0.200 A 
ATOM     71  F   UNL A   1      38.953  24.807  27.955  1.00  0.00    -0.200 F 
ATOM     72  F   UNL A   1      40.348  25.520  25.724  1.00  0.00    -0.200 F 
ENDBRANCH  48  62
BRANCH  49  73
ATOM     73  C   UNL A   1      39.532  33.985  36.985  1.00  0.00     0.064 A 
ATOM     74  C   UNL A   1      38.793  33.616  38.118  1.00  0.00     0.173 A 
ATOM     75  C   UNL A   1      40.177  35.231  37.003  1.00  0.00     0.173 A 
ATOM     76  F   UNL A   1      38.140  32.445  38.139  1.00  0.00    -0.203 F 
ATOM     77  C   UNL A   1      38.698  34.462  39.221  1.00  0.00     0.198 A 
ATOM     78  C   UNL A   1      40.104  36.062  38.118  1.00  0.00     0.198 A 
ATOM     79  F   UNL A   1      40.897  35.629  35.944  1.00  0.00    -0.203 F 
ATOM     80  F   UNL A   1      37.958  34.099  40.277  1.00  0.00    -0.200 F 
ATOM     81  C   UNL A   1      39.360  35.680  39.224  1.00  0.00     0.200 A 
ATOM     82  F   UNL A   1      40.758  37.232  38.123  1.00  0.00    -0.200 F 
ATOM     83  F   UNL A   1      39.279  36.486  40.291  1.00  0.00    -0.200 F 
ENDBRANCH  49  73
BRANCH  61  84
ATOM     84  C   UNL A   1      43.897  28.807  35.329  1.00  0.00     0.064 A 
ATOM     85  C   UNL A   1      45.207  29.270  35.132  1.00  0.00     0.173 A 
ATOM     86  C   UNL A   1      43.705  27.765  36.250  1.00  0.00     0.173 A 
ATOM     87  F   UNL A   1      45.450  30.253  34.250  1.00  0.00    -0.203 F 
ATOM     88  C   UNL A   1      46.281  28.697  35.808  1.00  0.00     0.198 A 
ATOM     89  C   UNL A   1      44.777  27.216  36.950  1.00  0.00     0.198 A 
ATOM     90  F   UNL A   1      42.474  27.286  36.482  1.00  0.00    -0.203 F 
ATOM     91  F   UNL A   1      47.528  29.121  35.563  1.00  0.00    -0.200 F 
ATOM     92  C   UNL A   1      46.064  27.677  36.722  1.00  0.00     0.200 A 
ATOM     93  F   UNL A   1      44.563  26.242  37.845  1.00  0.00    -0.200 F 
ATOM     94  F   UNL A   1      47.098  27.131  37.378  1.00  0.00    -0.200 F 
ENDBRANCH  61  84
ENDBRANCH  35  36
ENDBRANCH  27  30
ENDBRANCH  25  26
ENDBRANCH  24  25
ENDBRANCH   1  24
TORSDOF 15
ENDMDL
