MODEL 1
REMARK VINA RESULT:     -11.7      0.000      0.000
REMARK SMILES CCC[C@@H]1SC[C@H](C(=O)NCCCCNC(=O)c2ccc(-c3c4nc(c(-c5c(F)c(F)c(F)c(F)c5F)c5ccc([nH]5)c(-c5c(F)c(F)c(F)c(F)c5F)c5nc(c(-c6c(F)c(F)c(F)c(F)c6F)c6ccc3[nH]6)C=C5)C=C4)cc2)N1C(=O)C[NH+]1CCC([NH3+])CC1
REMARK SMILES IDX 11 1 10 2 8 3 9 4 7 6 4 7 5 8 81 9 6 10 3 11 2 12 1 13 82 14
REMARK SMILES IDX 83 15 84 16 85 17 86 18 91 19 87 21 90 22 88 23 89 24 12 28
REMARK SMILES IDX 13 29 14 30 15 31 16 32 17 34 18 35 19 36 80 37 20 38 79 39
REMARK SMILES IDX 21 40 22 41 23 42 73 43 24 44 78 45 72 46 74 47 25 48 77 49
REMARK SMILES IDX 71 50 70 51 26 53 58 54 38 55 57 56 39 57 42 58 56 59 75 60
REMARK SMILES IDX 40 61 41 62 55 64 76 65 43 66 27 67 28 68 36 69 29 70 30 71
REMARK SMILES IDX 34 72 37 73 31 74 32 75 35 76 33 77 59 78 60 79 68 80 61 81
REMARK SMILES IDX 62 82 66 83 69 84 63 85 64 86 67 87 65 88 44 89 45 90 53 91
REMARK SMILES IDX 46 92 47 93 51 94 54 95 48 96 49 97 52 98 50 99
REMARK H PARENT 10 5 85 20 89 25 89 26 89 27 15 33 74 52 42 63
REMARK Flexibility Score: inf
ROOT
ATOM      1  C   UNL A   1      33.065  29.895  26.257  1.00  0.00     0.116 C 
ENDROOT
BRANCH   1   2
ATOM      2  N   UNL A   1      33.331  29.577  24.863  1.00  0.00    -0.354 N 
ATOM      3  C   UNL A   1      32.640  28.678  24.071  1.00  0.00     0.243 C 
ATOM      4  O   UNL A   1      32.667  28.829  22.850  1.00  0.00    -0.273 OA
ATOM      5  H   UNL A   1      34.083  30.051  24.439  1.00  0.00     0.163 HD
BRANCH   3   6
ATOM      6  C   UNL A   1      31.819  27.578  24.789  1.00  0.00     0.185 C 
ATOM      7  C   UNL A   1      31.122  25.239  24.745  1.00  0.00     0.144 C 
ATOM      8  S   UNL A   1      29.834  26.111  23.769  1.00  0.00    -0.134 SA
ATOM      9  N   UNL A   1      32.263  26.163  24.705  1.00  0.00    -0.313 N 
ATOM     10  C   UNL A   1      30.365  27.720  24.324  1.00  0.00     0.107 C 
BRANCH   7  11
ATOM     11  C   UNL A   1      31.152  23.808  24.190  1.00  0.00     0.036 C 
BRANCH  11  12
ATOM     12  C   UNL A   1      31.054  22.647  25.197  1.00  0.00    -0.000 C 
ATOM     13  C   UNL A   1      30.740  23.000  26.645  1.00  0.00     0.004 C 
ENDBRANCH  11  12
ENDBRANCH   7  11
BRANCH   9  14
ATOM     14  C   UNL A   1      33.564  25.947  25.150  1.00  0.00     0.279 C 
ATOM     15  O   UNL A   1      34.046  26.657  26.045  1.00  0.00    -0.268 OA
BRANCH  14  16
ATOM     16  C   UNL A   1      34.441  24.813  24.607  1.00  0.00     0.363 C 
BRANCH  16  17
ATOM     17  N   UNL A   1      35.351  24.285  25.647  1.00  0.00    -0.327 N 
ATOM     18  C   UNL A   1      34.672  23.355  26.567  1.00  0.00     0.268 C 
ATOM     19  C   UNL A   1      36.597  23.697  25.130  1.00  0.00     0.268 C 
ATOM     20  H   UNL A   1      35.632  25.111  26.175  1.00  0.00     0.348 HD
ATOM     21  C   UNL A   1      34.521  21.913  26.075  1.00  0.00     0.126 C 
ATOM     22  C   UNL A   1      36.425  22.309  24.514  1.00  0.00     0.126 C 
ATOM     23  C   UNL A   1      35.853  21.364  25.568  1.00  0.00     0.192 C 
BRANCH  23  24
ATOM     24  N   UNL A   1      35.699  20.014  25.025  1.00  0.00    -0.355 N 
ATOM     25  H   UNL A   1      35.737  19.335  25.785  1.00  0.00     0.344 HD
ATOM     26  H   UNL A   1      36.452  19.826  24.362  1.00  0.00     0.344 HD
ATOM     27  H   UNL A   1      34.800  19.940  24.548  1.00  0.00     0.344 HD
ENDBRANCH  23  24
ENDBRANCH  16  17
ENDBRANCH  14  16
ENDBRANCH   9  14
ENDBRANCH   3   6
ENDBRANCH   1   2
BRANCH   1  28
ATOM     28  C   UNL A   1      31.716  30.538  26.550  1.00  0.00     0.023 C 
BRANCH  28  29
ATOM     29  C   UNL A   1      31.670  32.061  26.518  1.00  0.00     0.023 C 
BRANCH  29  30
ATOM     30  C   UNL A   1      32.760  32.777  27.305  1.00  0.00     0.116 C 
BRANCH  30  31
ATOM     31  N   UNL A   1      32.417  34.143  27.661  1.00  0.00    -0.352 N 
ATOM     32  C   UNL A   1      32.984  34.971  28.607  1.00  0.00     0.251 C 
ATOM     33  H   UNL A   1      31.670  34.535  27.153  1.00  0.00     0.163 HD
ATOM     34  O   UNL A   1      32.491  36.061  28.845  1.00  0.00    -0.269 OA
BRANCH  32  35
ATOM     35  C   UNL A   1      34.171  34.513  29.367  1.00  0.00     0.039 A 
ATOM     36  C   UNL A   1      33.982  33.947  30.630  1.00  0.00     0.014 A 
ATOM     37  C   UNL A   1      35.456  34.615  28.829  1.00  0.00     0.014 A 
ATOM     38  C   UNL A   1      35.071  33.406  31.316  1.00  0.00     0.010 A 
ATOM     39  C   UNL A   1      36.524  33.996  29.473  1.00  0.00     0.010 A 
ATOM     40  C   UNL A   1      36.344  33.384  30.722  1.00  0.00    -0.014 A 
BRANCH  40  41
ATOM     41  C   UNL A   1      37.495  32.719  31.388  1.00  0.00     0.031 A 
ATOM     42  C   UNL A   1      38.188  31.562  30.727  1.00  0.00     0.074 A 
ATOM     43  C   UNL A   1      37.864  33.105  32.624  1.00  0.00     0.049 A 
ATOM     44  N   UNL A   1      39.163  30.812  31.176  1.00  0.00    -0.248 NA
ATOM     45  C   UNL A   1      37.699  31.175  29.395  1.00  0.00     0.031 C 
ATOM     46  C   UNL A   1      37.230  34.171  33.402  1.00  0.00     0.029 A 
ATOM     47  N   UNL A   1      38.852  32.632  33.453  1.00  0.00    -0.354 N 
ATOM     48  C   UNL A   1      39.386  29.856  30.195  1.00  0.00     0.074 A 
ATOM     49  C   UNL A   1      38.409  30.085  29.153  1.00  0.00     0.031 C 
ATOM     50  C   UNL A   1      37.855  34.285  34.584  1.00  0.00     0.029 A 
ATOM     51  C   UNL A   1      38.907  33.275  34.665  1.00  0.00     0.049 A 
ATOM     52  H   UNL A   1      39.462  31.902  33.202  1.00  0.00     0.167 HD
ATOM     53  C   UNL A   1      40.334  28.888  30.155  1.00  0.00     0.037 A 
ATOM     54  C   UNL A   1      39.710  33.071  35.727  1.00  0.00     0.037 A 
ATOM     55  C   UNL A   1      41.319  28.679  31.184  1.00  0.00     0.049 A 
ATOM     56  C   UNL A   1      40.763  32.000  35.658  1.00  0.00     0.074 A 
ATOM     57  C   UNL A   1      42.373  27.784  31.201  1.00  0.00     0.029 A 
ATOM     58  N   UNL A   1      41.363  29.370  32.387  1.00  0.00    -0.354 N 
ATOM     59  N   UNL A   1      41.026  31.160  34.687  1.00  0.00    -0.248 NA
ATOM     60  C   UNL A   1      41.638  31.854  36.831  1.00  0.00     0.031 C 
ATOM     61  C   UNL A   1      43.019  27.892  32.437  1.00  0.00     0.029 A 
ATOM     62  C   UNL A   1      42.407  28.897  33.168  1.00  0.00     0.049 A 
ATOM     63  H   UNL A   1      40.743  30.089  32.648  1.00  0.00     0.167 HD
ATOM     64  C   UNL A   1      42.106  30.402  35.118  1.00  0.00     0.074 A 
ATOM     65  C   UNL A   1      42.460  30.893  36.435  1.00  0.00     0.031 C 
ATOM     66  C   UNL A   1      42.746  29.391  34.479  1.00  0.00     0.037 A 
BRANCH  53  67
ATOM     67  C   UNL A   1      40.342  27.979  28.959  1.00  0.00     0.064 A 
ATOM     68  C   UNL A   1      39.629  26.770  28.942  1.00  0.00     0.173 A 
ATOM     69  C   UNL A   1      41.070  28.322  27.810  1.00  0.00     0.173 A 
ATOM     70  F   UNL A   1      38.924  26.387  30.018  1.00  0.00    -0.203 F 
ATOM     71  C   UNL A   1      39.679  25.920  27.840  1.00  0.00     0.198 A 
ATOM     72  C   UNL A   1      41.089  27.488  26.695  1.00  0.00     0.198 A 
ATOM     73  F   UNL A   1      41.764  29.470  27.766  1.00  0.00    -0.203 F 
ATOM     74  F   UNL A   1      39.043  24.742  27.874  1.00  0.00    -0.200 F 
ATOM     75  C   UNL A   1      40.405  26.283  26.715  1.00  0.00     0.200 A 
ATOM     76  F   UNL A   1      41.779  27.847  25.603  1.00  0.00    -0.200 F 
ATOM     77  F   UNL A   1      40.452  25.465  25.655  1.00  0.00    -0.200 F 
ENDBRANCH  53  67
BRANCH  54  78
ATOM     78  C   UNL A   1      39.557  33.924  36.934  1.00  0.00     0.064 A 
ATOM     79  C   UNL A   1      40.158  35.189  37.003  1.00  0.00     0.173 A 
ATOM     80  C   UNL A   1      38.785  33.507  38.028  1.00  0.00     0.173 A 
ATOM     81  F   UNL A   1      40.921  35.624  35.990  1.00  0.00    -0.203 F 
ATOM     82  C   UNL A   1      39.997  36.001  38.124  1.00  0.00     0.198 A 
ATOM     83  C   UNL A   1      38.604  34.331  39.137  1.00  0.00     0.198 A 
ATOM     84  F   UNL A   1      38.186  32.307  38.009  1.00  0.00    -0.203 F 
ATOM     85  F   UNL A   1      40.608  37.193  38.178  1.00  0.00    -0.200 F 
ATOM     86  C   UNL A   1      39.214  35.576  39.186  1.00  0.00     0.200 A 
ATOM     87  F   UNL A   1      37.832  33.922  40.154  1.00  0.00    -0.200 F 
ATOM     88  F   UNL A   1      39.048  36.363  40.258  1.00  0.00    -0.200 F 
ENDBRANCH  54  78
BRANCH  66  89
ATOM     89  C   UNL A   1      43.914  28.760  35.183  1.00  0.00     0.064 A 
ATOM     90  C   UNL A   1      45.220  29.249  35.030  1.00  0.00     0.173 A 
ATOM     91  C   UNL A   1      43.716  27.678  36.055  1.00  0.00     0.173 A 
ATOM     92  F   UNL A   1      45.464  30.271  34.197  1.00  0.00    -0.203 F 
ATOM     93  C   UNL A   1      46.287  28.663  35.706  1.00  0.00     0.198 A 
ATOM     94  C   UNL A   1      44.781  27.115  36.753  1.00  0.00     0.198 A 
ATOM     95  F   UNL A   1      42.486  27.175  36.240  1.00  0.00    -0.203 F 
ATOM     96  F   UNL A   1      47.532  29.117  35.509  1.00  0.00    -0.200 F 
ATOM     97  C   UNL A   1      46.065  27.603  36.573  1.00  0.00     0.200 A 
ATOM     98  F   UNL A   1      44.562  26.100  37.601  1.00  0.00    -0.200 F 
ATOM     99  F   UNL A   1      47.093  27.047  37.229  1.00  0.00    -0.200 F 
ENDBRANCH  66  89
ENDBRANCH  40  41
ENDBRANCH  32  35
ENDBRANCH  30  31
ENDBRANCH  29  30
ENDBRANCH  28  29
ENDBRANCH   1  28
TORSDOF 17
ENDMDL
MODEL 2
REMARK VINA RESULT:     -11.7      0.558      7.330
REMARK SMILES CCC[C@@H]1SC[C@H](C(=O)NCCCCNC(=O)c2ccc(-c3c4nc(c(-c5c(F)c(F)c(F)c(F)c5F)c5ccc([nH]5)c(-c5c(F)c(F)c(F)c(F)c5F)c5nc(c(-c6c(F)c(F)c(F)c(F)c6F)c6ccc3[nH]6)C=C5)C=C4)cc2)N1C(=O)C[NH+]1CCC([NH3+])CC1
REMARK SMILES IDX 11 1 10 2 8 3 9 4 7 6 4 7 5 8 81 9 6 10 3 11 2 12 1 13 82 14
REMARK SMILES IDX 83 15 84 16 85 17 86 18 91 19 87 21 90 22 88 23 89 24 12 28
REMARK SMILES IDX 13 29 14 30 15 31 16 32 17 34 18 35 19 36 80 37 20 38 79 39
REMARK SMILES IDX 21 40 22 41 23 42 73 43 24 44 78 45 72 46 74 47 25 48 77 49
REMARK SMILES IDX 71 50 70 51 26 53 58 54 38 55 57 56 39 57 42 58 56 59 75 60
REMARK SMILES IDX 40 61 41 62 55 64 76 65 43 66 27 67 28 68 36 69 29 70 30 71
REMARK SMILES IDX 34 72 37 73 31 74 32 75 35 76 33 77 59 78 60 79 68 80 61 81
REMARK SMILES IDX 62 82 66 83 69 84 63 85 64 86 67 87 65 88 44 89 45 90 53 91
REMARK SMILES IDX 46 92 47 93 51 94 54 95 48 96 49 97 52 98 50 99
REMARK H PARENT 10 5 85 20 89 25 89 26 89 27 15 33 74 52 42 63
REMARK Flexibility Score: inf
ROOT
ATOM      1  C   UNL A   1      32.839  30.084  25.870  1.00  0.00     0.116 C 
ENDROOT
BRANCH   1   2
ATOM      2  N   UNL A   1      33.290  29.574  24.586  1.00  0.00    -0.354 N 
ATOM      3  C   UNL A   1      32.741  28.524  23.871  1.00  0.00     0.243 C 
ATOM      4  O   UNL A   1      32.915  28.489  22.653  1.00  0.00    -0.273 OA
ATOM      5  H   UNL A   1      34.069  30.022  24.182  1.00  0.00     0.163 HD
BRANCH   3   6
ATOM      6  C   UNL A   1      31.883  27.500  24.653  1.00  0.00     0.185 C 
ATOM      7  C   UNL A   1      31.142  25.177  24.777  1.00  0.00     0.144 C 
ATOM      8  S   UNL A   1      29.893  25.992  23.705  1.00  0.00    -0.134 SA
ATOM      9  N   UNL A   1      32.301  26.075  24.692  1.00  0.00    -0.313 N 
ATOM     10  C   UNL A   1      30.443  27.630  24.144  1.00  0.00     0.107 C 
BRANCH   7  11
ATOM     11  C   UNL A   1      31.157  23.706  24.337  1.00  0.00     0.036 C 
BRANCH  11  12
ATOM     12  C   UNL A   1      31.079  22.630  25.436  1.00  0.00    -0.000 C 
ATOM     13  C   UNL A   1      30.800  23.098  26.858  1.00  0.00     0.004 C 
ENDBRANCH  11  12
ENDBRANCH   7  11
BRANCH   9  14
ATOM     14  C   UNL A   1      33.588  25.871  25.184  1.00  0.00     0.279 C 
ATOM     15  O   UNL A   1      34.045  26.614  26.065  1.00  0.00    -0.268 OA
BRANCH  14  16
ATOM     16  C   UNL A   1      34.476  24.715  24.711  1.00  0.00     0.363 C 
BRANCH  16  17
ATOM     17  N   UNL A   1      35.324  24.199  25.807  1.00  0.00    -0.327 N 
ATOM     18  C   UNL A   1      34.636  23.176  26.616  1.00  0.00     0.268 C 
ATOM     19  C   UNL A   1      36.652  23.728  25.384  1.00  0.00     0.268 C 
ATOM     20  H   UNL A   1      35.493  25.014  26.396  1.00  0.00     0.348 HD
ATOM     21  C   UNL A   1      34.639  21.755  26.046  1.00  0.00     0.126 C 
ATOM     22  C   UNL A   1      36.642  22.366  24.693  1.00  0.00     0.126 C 
ATOM     23  C   UNL A   1      36.050  21.329  25.643  1.00  0.00     0.192 C 
BRANCH  23  24
ATOM     24  N   UNL A   1      36.048  20.002  25.027  1.00  0.00    -0.355 N 
ATOM     25  H   UNL A   1      36.239  19.296  25.738  1.00  0.00     0.344 HD
ATOM     26  H   UNL A   1      36.767  19.961  24.305  1.00  0.00     0.344 HD
ATOM     27  H   UNL A   1      35.135  19.823  24.609  1.00  0.00     0.344 HD
ENDBRANCH  23  24
ENDBRANCH  16  17
ENDBRANCH  14  16
ENDBRANCH   9  14
ENDBRANCH   3   6
ENDBRANCH   1   2
BRANCH   1  28
ATOM     28  C   UNL A   1      31.509  30.826  25.865  1.00  0.00     0.023 C 
BRANCH  28  29
ATOM     29  C   UNL A   1      31.360  31.957  26.876  1.00  0.00     0.023 C 
BRANCH  29  30
ATOM     30  C   UNL A   1      32.634  32.718  27.218  1.00  0.00     0.116 C 
BRANCH  30  31
ATOM     31  N   UNL A   1      32.403  34.103  27.586  1.00  0.00    -0.352 N 
ATOM     32  C   UNL A   1      33.044  34.879  28.529  1.00  0.00     0.251 C 
ATOM     33  H   UNL A   1      31.683  34.555  27.089  1.00  0.00     0.163 HD
ATOM     34  O   UNL A   1      32.640  36.002  28.780  1.00  0.00    -0.269 OA
BRANCH  32  35
ATOM     35  C   UNL A   1      34.200  34.325  29.272  1.00  0.00     0.039 A 
ATOM     36  C   UNL A   1      33.959  33.542  30.403  1.00  0.00     0.014 A 
ATOM     37  C   UNL A   1      35.510  34.552  28.842  1.00  0.00     0.014 A 
ATOM     38  C   UNL A   1      35.025  32.917  31.053  1.00  0.00     0.010 A 
ATOM     39  C   UNL A   1      36.561  33.857  29.435  1.00  0.00     0.010 A 
ATOM     40  C   UNL A   1      36.330  33.032  30.546  1.00  0.00    -0.014 A 
BRANCH  40  41
ATOM     41  C   UNL A   1      37.464  32.290  31.158  1.00  0.00     0.031 A 
ATOM     42  C   UNL A   1      37.966  32.662  32.523  1.00  0.00     0.074 A 
ATOM     43  C   UNL A   1      38.095  31.333  30.449  1.00  0.00     0.049 A 
ATOM     44  N   UNL A   1      38.982  32.180  33.195  1.00  0.00    -0.248 NA
ATOM     45  C   UNL A   1      37.250  33.746  33.215  1.00  0.00     0.031 C 
ATOM     46  C   UNL A   1      37.747  30.922  29.088  1.00  0.00     0.029 A 
ATOM     47  N   UNL A   1      39.172  30.544  30.769  1.00  0.00    -0.354 N 
ATOM     48  C   UNL A   1      39.038  32.914  34.372  1.00  0.00     0.074 A 
ATOM     49  C   UNL A   1      37.992  33.910  34.299  1.00  0.00     0.031 C 
ATOM     50  C   UNL A   1      38.581  29.945  28.697  1.00  0.00     0.029 A 
ATOM     51  C   UNL A   1      39.545  29.688  29.763  1.00  0.00     0.049 A 
ATOM     52  H   UNL A   1      39.633  30.588  31.638  1.00  0.00     0.167 HD
ATOM     53  C   UNL A   1      39.872  32.757  35.428  1.00  0.00     0.037 A 
ATOM     54  C   UNL A   1      40.557  28.801  29.700  1.00  0.00     0.037 A 
ATOM     55  C   UNL A   1      40.897  31.749  35.506  1.00  0.00     0.049 A 
ATOM     56  C   UNL A   1      41.464  28.634  30.888  1.00  0.00     0.074 A 
ATOM     57  C   UNL A   1      41.737  31.451  36.564  1.00  0.00     0.029 A 
ATOM     58  N   UNL A   1      41.229  30.879  34.476  1.00  0.00    -0.354 N 
ATOM     59  N   UNL A   1      41.451  29.270  32.034  1.00  0.00    -0.248 NA
ATOM     60  C   UNL A   1      42.521  27.618  30.776  1.00  0.00     0.031 C 
ATOM     61  C   UNL A   1      42.615  30.442  36.155  1.00  0.00     0.029 A 
ATOM     62  C   UNL A   1      42.284  30.066  34.863  1.00  0.00     0.049 A 
ATOM     63  H   UNL A   1      40.781  30.844  33.600  1.00  0.00     0.167 HD
ATOM     64  C   UNL A   1      42.479  28.721  32.787  1.00  0.00     0.074 A 
ATOM     65  C   UNL A   1      43.086  27.686  31.973  1.00  0.00     0.031 C 
ATOM     66  C   UNL A   1      42.882  29.044  34.042  1.00  0.00     0.037 A 
BRANCH  53  67
ATOM     67  C   UNL A   1      39.711  33.706  36.582  1.00  0.00     0.064 A 
ATOM     68  C   UNL A   1      40.377  34.941  36.624  1.00  0.00     0.173 A 
ATOM     69  C   UNL A   1      38.873  33.379  37.659  1.00  0.00     0.173 A 
ATOM     70  F   UNL A   1      41.197  35.300  35.625  1.00  0.00    -0.203 F 
ATOM     71  C   UNL A   1      40.246  35.791  37.719  1.00  0.00     0.198 A 
ATOM     72  C   UNL A   1      38.716  34.248  38.736  1.00  0.00     0.198 A 
ATOM     73  F   UNL A   1      38.205  32.216  37.669  1.00  0.00    -0.203 F 
ATOM     74  F   UNL A   1      40.944  36.934  37.766  1.00  0.00    -0.200 F 
ATOM     75  C   UNL A   1      39.412  35.446  38.772  1.00  0.00     0.200 A 
ATOM     76  F   UNL A   1      37.898  33.919  39.746  1.00  0.00    -0.200 F 
ATOM     77  F   UNL A   1      39.287  36.265  39.826  1.00  0.00    -0.200 F 
ENDBRANCH  53  67
BRANCH  54  78
ATOM     78  C   UNL A   1      40.740  27.986  28.471  1.00  0.00     0.064 A 
ATOM     79  C   UNL A   1      40.107  26.742  28.330  1.00  0.00     0.173 A 
ATOM     80  C   UNL A   1      41.522  28.445  27.402  1.00  0.00     0.173 A 
ATOM     81  F   UNL A   1      39.364  26.252  29.333  1.00  0.00    -0.203 F 
ATOM     82  C   UNL A   1      40.258  25.986  27.170  1.00  0.00     0.198 A 
ATOM     83  C   UNL A   1      41.650  27.700  26.232  1.00  0.00     0.198 A 
ATOM     84  F   UNL A   1      42.144  29.630  27.486  1.00  0.00    -0.203 F 
ATOM     85  F   UNL A   1      39.669  24.786  27.073  1.00  0.00    -0.200 F 
ATOM     86  C   UNL A   1      41.022  26.469  26.118  1.00  0.00     0.200 A 
ATOM     87  F   UNL A   1      42.376  28.179  25.212  1.00  0.00    -0.200 F 
ATOM     88  F   UNL A   1      41.155  25.748  24.996  1.00  0.00    -0.200 F 
ENDBRANCH  54  78
BRANCH  66  89
ATOM     89  C   UNL A   1      44.021  28.256  34.625  1.00  0.00     0.064 A 
ATOM     90  C   UNL A   1      45.350  28.690  34.516  1.00  0.00     0.173 A 
ATOM     91  C   UNL A   1      43.773  27.074  35.340  1.00  0.00     0.173 A 
ATOM     92  F   UNL A   1      45.642  29.806  33.831  1.00  0.00    -0.203 F 
ATOM     93  C   UNL A   1      46.391  27.957  35.080  1.00  0.00     0.198 A 
ATOM     94  C   UNL A   1      44.813  26.360  35.929  1.00  0.00     0.198 A 
ATOM     95  F   UNL A   1      42.519  26.618  35.478  1.00  0.00    -0.203 F 
ATOM     96  F   UNL A   1      47.658  28.366  34.924  1.00  0.00    -0.200 F 
ATOM     97  C   UNL A   1      46.120  26.798  35.793  1.00  0.00     0.200 A 
ATOM     98  F   UNL A   1      44.547  25.250  36.630  1.00  0.00    -0.200 F 
ATOM     99  F   UNL A   1      47.123  26.100  36.344  1.00  0.00    -0.200 F 
ENDBRANCH  66  89
ENDBRANCH  40  41
ENDBRANCH  32  35
ENDBRANCH  30  31
ENDBRANCH  29  30
ENDBRANCH  28  29
ENDBRANCH   1  28
TORSDOF 17
ENDMDL
MODEL 3
REMARK VINA RESULT:     -11.5      0.949      1.997
REMARK SMILES CCC[C@@H]1SC[C@H](C(=O)NCCCCNC(=O)c2ccc(-c3c4nc(c(-c5c(F)c(F)c(F)c(F)c5F)c5ccc([nH]5)c(-c5c(F)c(F)c(F)c(F)c5F)c5nc(c(-c6c(F)c(F)c(F)c(F)c6F)c6ccc3[nH]6)C=C5)C=C4)cc2)N1C(=O)C[NH+]1CCC([NH3+])CC1
REMARK SMILES IDX 11 1 10 2 8 3 9 4 7 6 4 7 5 8 81 9 6 10 3 11 2 12 1 13 82 14
REMARK SMILES IDX 83 15 84 16 85 17 86 18 91 19 87 21 90 22 88 23 89 24 12 28
REMARK SMILES IDX 13 29 14 30 15 31 16 32 17 34 18 35 19 36 80 37 20 38 79 39
REMARK SMILES IDX 21 40 22 41 23 42 73 43 24 44 78 45 72 46 74 47 25 48 77 49
REMARK SMILES IDX 71 50 70 51 26 53 58 54 38 55 57 56 39 57 42 58 56 59 75 60
REMARK SMILES IDX 40 61 41 62 55 64 76 65 43 66 27 67 28 68 36 69 29 70 30 71
REMARK SMILES IDX 34 72 37 73 31 74 32 75 35 76 33 77 59 78 60 79 68 80 61 81
REMARK SMILES IDX 62 82 66 83 69 84 63 85 64 86 67 87 65 88 44 89 45 90 53 91
REMARK SMILES IDX 46 92 47 93 51 94 54 95 48 96 49 97 52 98 50 99
REMARK H PARENT 10 5 85 20 89 25 89 26 89 27 15 33 74 52 42 63
REMARK Flexibility Score: inf
ROOT
ATOM      1  C   UNL A   1      32.222  29.569  26.789  1.00  0.00     0.116 C 
ENDROOT
BRANCH   1   2
ATOM      2  N   UNL A   1      33.430  28.997  26.217  1.00  0.00    -0.354 N 
ATOM      3  C   UNL A   1      33.523  28.237  25.065  1.00  0.00     0.243 C 
ATOM      4  O   UNL A   1      34.599  28.202  24.469  1.00  0.00    -0.273 OA
ATOM      5  H   UNL A   1      34.271  29.169  26.700  1.00  0.00     0.163 HD
BRANCH   3   6
ATOM      6  C   UNL A   1      32.235  27.534  24.569  1.00  0.00     0.185 C 
ATOM      7  C   UNL A   1      31.312  25.521  23.539  1.00  0.00     0.144 C 
ATOM      8  S   UNL A   1      31.739  26.601  22.116  1.00  0.00    -0.134 SA
ATOM      9  N   UNL A   1      32.141  26.052  24.629  1.00  0.00    -0.313 N 
ATOM     10  C   UNL A   1      31.961  28.038  23.147  1.00  0.00     0.107 C 
BRANCH   7  11
ATOM     11  C   UNL A   1      31.409  24.086  23.004  1.00  0.00     0.036 C 
BRANCH  11  12
ATOM     12  C   UNL A   1      32.610  23.738  22.103  1.00  0.00    -0.000 C 
ATOM     13  C   UNL A   1      33.901  23.312  22.790  1.00  0.00     0.004 C 
ENDBRANCH  11  12
ENDBRANCH   7  11
BRANCH   9  14
ATOM     14  C   UNL A   1      32.339  25.520  25.901  1.00  0.00     0.279 C 
ATOM     15  O   UNL A   1      31.642  25.899  26.853  1.00  0.00    -0.268 OA
BRANCH  14  16
ATOM     16  C   UNL A   1      33.373  24.424  26.182  1.00  0.00     0.363 C 
BRANCH  16  17
ATOM     17  N   UNL A   1      32.803  23.339  27.009  1.00  0.00    -0.327 N 
ATOM     18  C   UNL A   1      31.836  22.513  26.264  1.00  0.00     0.268 C 
ATOM     19  C   UNL A   1      33.800  22.497  27.688  1.00  0.00     0.268 C 
ATOM     20  H   UNL A   1      32.301  23.829  27.751  1.00  0.00     0.348 HD
ATOM     21  C   UNL A   1      32.432  21.419  25.375  1.00  0.00     0.126 C 
ATOM     22  C   UNL A   1      34.496  21.492  26.772  1.00  0.00     0.126 C 
ATOM     23  C   UNL A   1      33.446  20.576  26.148  1.00  0.00     0.192 C 
BRANCH  23  24
ATOM     24  N   UNL A   1      34.076  19.579  25.283  1.00  0.00    -0.355 N 
ATOM     25  H   UNL A   1      33.372  18.915  24.961  1.00  0.00     0.344 HD
ATOM     26  H   UNL A   1      34.798  19.082  25.806  1.00  0.00     0.344 HD
ATOM     27  H   UNL A   1      34.498  20.043  24.479  1.00  0.00     0.344 HD
ENDBRANCH  23  24
ENDBRANCH  16  17
ENDBRANCH  14  16
ENDBRANCH   9  14
ENDBRANCH   3   6
ENDBRANCH   1   2
BRANCH   1  28
ATOM     28  C   UNL A   1      31.653  30.785  26.070  1.00  0.00     0.023 C 
BRANCH  28  29
ATOM     29  C   UNL A   1      31.386  32.017  26.928  1.00  0.00     0.023 C 
BRANCH  29  30
ATOM     30  C   UNL A   1      32.613  32.814  27.350  1.00  0.00     0.116 C 
BRANCH  30  31
ATOM     31  N   UNL A   1      32.328  34.207  27.644  1.00  0.00    -0.352 N 
ATOM     32  C   UNL A   1      32.941  35.057  28.541  1.00  0.00     0.251 C 
ATOM     33  H   UNL A   1      31.588  34.603  27.128  1.00  0.00     0.163 HD
ATOM     34  O   UNL A   1      32.493  36.175  28.733  1.00  0.00    -0.269 OA
BRANCH  32  35
ATOM     35  C   UNL A   1      34.121  34.591  29.305  1.00  0.00     0.039 A 
ATOM     36  C   UNL A   1      33.928  34.078  30.591  1.00  0.00     0.014 A 
ATOM     37  C   UNL A   1      35.403  34.632  28.752  1.00  0.00     0.014 A 
ATOM     38  C   UNL A   1      35.007  33.529  31.287  1.00  0.00     0.010 A 
ATOM     39  C   UNL A   1      36.458  34.004  29.408  1.00  0.00     0.010 A 
ATOM     40  C   UNL A   1      36.272  33.445  30.681  1.00  0.00    -0.014 A 
BRANCH  40  41
ATOM     41  C   UNL A   1      37.409  32.769  31.360  1.00  0.00     0.031 A 
ATOM     42  C   UNL A   1      38.089  31.596  30.714  1.00  0.00     0.074 A 
ATOM     43  C   UNL A   1      37.777  33.162  32.594  1.00  0.00     0.049 A 
ATOM     44  N   UNL A   1      39.049  30.835  31.177  1.00  0.00    -0.248 NA
ATOM     45  C   UNL A   1      37.601  31.202  29.383  1.00  0.00     0.031 C 
ATOM     46  C   UNL A   1      37.156  34.245  33.358  1.00  0.00     0.029 A 
ATOM     47  N   UNL A   1      38.753  32.683  33.433  1.00  0.00    -0.354 N 
ATOM     48  C   UNL A   1      39.264  29.866  30.206  1.00  0.00     0.074 A 
ATOM     49  C   UNL A   1      38.296  30.099  29.156  1.00  0.00     0.031 C 
ATOM     50  C   UNL A   1      37.776  34.361  34.542  1.00  0.00     0.029 A 
ATOM     51  C   UNL A   1      38.812  33.337  34.639  1.00  0.00     0.049 A 
ATOM     52  H   UNL A   1      39.353  31.941  33.193  1.00  0.00     0.167 HD
ATOM     53  C   UNL A   1      40.197  28.884  30.182  1.00  0.00     0.037 A 
ATOM     54  C   UNL A   1      39.605  33.131  35.708  1.00  0.00     0.037 A 
ATOM     55  C   UNL A   1      41.173  28.670  31.219  1.00  0.00     0.049 A 
ATOM     56  C   UNL A   1      40.642  32.043  35.656  1.00  0.00     0.074 A 
ATOM     57  C   UNL A   1      42.213  27.759  31.251  1.00  0.00     0.029 A 
ATOM     58  N   UNL A   1      41.220  29.372  32.415  1.00  0.00    -0.354 N 
ATOM     59  N   UNL A   1      40.898  31.190  34.695  1.00  0.00    -0.248 NA
ATOM     60  C   UNL A   1      41.508  31.897  36.835  1.00  0.00     0.031 C 
ATOM     61  C   UNL A   1      42.854  27.870  32.489  1.00  0.00     0.029 A 
ATOM     62  C   UNL A   1      42.252  28.892  33.206  1.00  0.00     0.049 A 
ATOM     63  H   UNL A   1      40.610  30.104  32.665  1.00  0.00     0.167 HD
ATOM     64  C   UNL A   1      41.963  30.420  35.140  1.00  0.00     0.074 A 
ATOM     65  C   UNL A   1      42.318  30.919  36.453  1.00  0.00     0.031 C 
ATOM     66  C   UNL A   1      42.592  29.393  34.515  1.00  0.00     0.037 A 
BRANCH  53  67
ATOM     67  C   UNL A   1      40.198  27.962  28.995  1.00  0.00     0.064 A 
ATOM     68  C   UNL A   1      39.496  26.747  29.000  1.00  0.00     0.173 A 
ATOM     69  C   UNL A   1      40.907  28.301  27.833  1.00  0.00     0.173 A 
ATOM     70  F   UNL A   1      38.809  26.368  30.089  1.00  0.00    -0.203 F 
ATOM     71  C   UNL A   1      39.539  25.886  27.906  1.00  0.00     0.198 A 
ATOM     72  C   UNL A   1      40.919  27.456  26.726  1.00  0.00     0.198 A 
ATOM     73  F   UNL A   1      41.589  29.455  27.768  1.00  0.00    -0.203 F 
ATOM     74  F   UNL A   1      38.915  24.702  27.960  1.00  0.00    -0.200 F 
ATOM     75  C   UNL A   1      40.247  26.244  26.768  1.00  0.00     0.200 A 
ATOM     76  F   UNL A   1      41.591  27.810  25.621  1.00  0.00    -0.200 F 
ATOM     77  F   UNL A   1      40.288  25.416  25.715  1.00  0.00    -0.200 F 
ENDBRANCH  53  67
BRANCH  54  78
ATOM     78  C   UNL A   1      39.459  33.998  36.906  1.00  0.00     0.064 A 
ATOM     79  C   UNL A   1      38.718  33.573  38.017  1.00  0.00     0.173 A 
ATOM     80  C   UNL A   1      40.081  35.253  36.977  1.00  0.00     0.173 A 
ATOM     81  F   UNL A   1      38.089  32.390  37.990  1.00  0.00    -0.203 F 
ATOM     82  C   UNL A   1      38.598  34.375  39.151  1.00  0.00     0.198 A 
ATOM     83  C   UNL A   1      39.982  36.042  38.121  1.00  0.00     0.198 A 
ATOM     84  F   UNL A   1      40.805  35.703  35.942  1.00  0.00    -0.203 F 
ATOM     85  F   UNL A   1      37.858  33.958  40.188  1.00  0.00    -0.200 F 
ATOM     86  C   UNL A   1      39.237  35.604  39.206  1.00  0.00     0.200 A 
ATOM     87  F   UNL A   1      40.615  37.222  38.176  1.00  0.00    -0.200 F 
ATOM     88  F   UNL A   1      39.134  36.368  40.302  1.00  0.00    -0.200 F 
ENDBRANCH  54  78
BRANCH  66  89
ATOM     89  C   UNL A   1      43.746  28.751  35.231  1.00  0.00     0.064 A 
ATOM     90  C   UNL A   1      43.565  27.650  36.081  1.00  0.00     0.173 A 
ATOM     91  C   UNL A   1      45.054  29.219  35.031  1.00  0.00     0.173 A 
ATOM     92  F   UNL A   1      42.334  27.174  36.318  1.00  0.00    -0.203 F 
ATOM     93  C   UNL A   1      44.650  27.055  36.722  1.00  0.00     0.198 A 
ATOM     94  C   UNL A   1      46.138  28.602  35.649  1.00  0.00     0.198 A 
ATOM     95  F   UNL A   1      45.282  30.266  34.224  1.00  0.00    -0.203 F 
ATOM     96  F   UNL A   1      44.448  26.034  37.566  1.00  0.00    -0.200 F 
ATOM     97  C   UNL A   1      45.935  27.527  36.499  1.00  0.00     0.200 A 
ATOM     98  F   UNL A   1      47.381  29.049  35.420  1.00  0.00    -0.200 F 
ATOM     99  F   UNL A   1      46.977  26.947  37.109  1.00  0.00    -0.200 F 
ENDBRANCH  66  89
ENDBRANCH  40  41
ENDBRANCH  32  35
ENDBRANCH  30  31
ENDBRANCH  29  30
ENDBRANCH  28  29
ENDBRANCH   1  28
TORSDOF 17
ENDMDL
