MODEL 1
REMARK VINA RESULT:     -11.8      0.000      0.000
REMARK SMILES C[C@H]1CCCN1c1cccc(OCC(=O)NCCCCNC(=O)c2ccc(-c3c4nc(c(-c5c(F)c(F)c(F)c(F)c5F)c5ccc([nH]5)c(-c5c(F)c(F)c(F)c(F)c5F)c5nc(c(-c6c(F)c(F)c(F)c(F)c6F)c6ccc3[nH]6)C=C5)C=C4)cc2)c1
REMARK SMILES IDX 18 1 17 2 16 3 14 4 15 5 13 7 12 8 11 9 7 10 8 11 87 12 9 13
REMARK SMILES IDX 10 14 6 15 1 16 2 17 3 18 4 19 5 20 19 21 20 22 21 23 22 24
REMARK SMILES IDX 23 26 24 27 25 28 86 29 26 30 85 31 27 32 28 33 29 34 79 35
REMARK SMILES IDX 30 36 84 37 78 38 80 39 31 40 83 41 77 42 76 43 32 45 64 46
REMARK SMILES IDX 44 47 63 48 45 49 48 50 62 51 81 52 46 53 47 54 61 56 82 57
REMARK SMILES IDX 49 58 33 59 34 60 42 61 35 62 36 63 40 64 43 65 37 66 38 67
REMARK SMILES IDX 41 68 39 69 65 70 66 71 74 72 67 73 68 74 72 75 75 76 69 77
REMARK SMILES IDX 70 78 73 79 71 80 50 81 51 82 59 83 52 84 53 85 57 86 60 87
REMARK SMILES IDX 54 88 55 89 58 90 56 91
REMARK H PARENT 16 6 21 25 80 44 48 55
REMARK Flexibility Score: inf
ROOT
ATOM      1  C   UNL A   1      36.479  20.559  25.048  1.00  0.00     0.023 C 
ENDROOT
BRANCH   1   2
ATOM      2  C   UNL A   1      36.329  21.969  25.613  1.00  0.00     0.116 C 
BRANCH   2   3
ATOM      3  N   UNL A   1      35.505  22.002  26.806  1.00  0.00    -0.353 N 
ATOM      4  C   UNL A   1      34.289  22.601  26.975  1.00  0.00     0.257 C 
ATOM      5  O   UNL A   1      33.722  22.492  28.065  1.00  0.00    -0.271 OA
ATOM      6  H   UNL A   1      35.868  21.534  27.592  1.00  0.00     0.163 HD
BRANCH   4   7
ATOM      7  C   UNL A   1      33.641  23.339  25.800  1.00  0.00     0.329 C 
BRANCH   7   8
ATOM      8  O   UNL A   1      32.390  22.831  25.364  1.00  0.00    -0.484 OA
BRANCH   8   9
ATOM      9  C   UNL A   1      32.386  21.692  24.608  1.00  0.00     0.122 A 
ATOM     10  C   UNL A   1      32.681  19.305  24.182  1.00  0.00     0.041 A 
ATOM     11  C   UNL A   1      32.347  19.535  22.841  1.00  0.00     0.026 A 
ATOM     12  C   UNL A   1      32.699  20.404  25.052  1.00  0.00     0.072 A 
ATOM     13  C   UNL A   1      32.013  20.812  22.388  1.00  0.00     0.006 A 
ATOM     14  C   UNL A   1      32.037  21.887  23.271  1.00  0.00     0.046 A 
BRANCH  10  15
ATOM     15  N   UNL A   1      33.008  18.034  24.601  1.00  0.00    -0.369 N 
ATOM     16  C   UNL A   1      34.447  16.877  22.985  1.00  0.00     0.031 C 
ATOM     17  C   UNL A   1      33.106  16.875  23.709  1.00  0.00     0.079 C 
ATOM     18  C   UNL A   1      32.986  15.672  24.657  1.00  0.00     0.026 C 
ATOM     19  C   UNL A   1      32.211  16.220  25.845  1.00  0.00     0.023 C 
ATOM     20  C   UNL A   1      32.736  17.646  25.980  1.00  0.00     0.117 C 
ENDBRANCH  10  15
ENDBRANCH   8   9
ENDBRANCH   7   8
ENDBRANCH   4   7
ENDBRANCH   2   3
ENDBRANCH   1   2
BRANCH   1  21
ATOM     21  C   UNL A   1      37.911  20.151  24.693  1.00  0.00     0.023 C 
BRANCH  21  22
ATOM     22  C   UNL A   1      38.947  20.369  25.789  1.00  0.00     0.116 C 
BRANCH  22  23
ATOM     23  N   UNL A   1      39.911  19.284  25.890  1.00  0.00    -0.352 N 
ATOM     24  C   UNL A   1      41.263  19.344  26.128  1.00  0.00     0.251 C 
ATOM     25  H   UNL A   1      39.543  18.378  25.771  1.00  0.00     0.163 HD
ATOM     26  O   UNL A   1      41.949  18.328  26.059  1.00  0.00    -0.269 OA
BRANCH  24  27
ATOM     27  C   UNL A   1      41.903  20.643  26.434  1.00  0.00     0.039 A 
ATOM     28  C   UNL A   1      42.179  21.523  25.384  1.00  0.00     0.014 A 
ATOM     29  C   UNL A   1      42.217  20.999  27.749  1.00  0.00     0.014 A 
ATOM     30  C   UNL A   1      42.704  22.787  25.658  1.00  0.00     0.010 A 
ATOM     31  C   UNL A   1      42.667  22.288  28.027  1.00  0.00     0.010 A 
ATOM     32  C   UNL A   1      42.915  23.195  26.986  1.00  0.00    -0.014 A 
BRANCH  32  33
ATOM     33  C   UNL A   1      43.394  24.566  27.306  1.00  0.00     0.031 A 
ATOM     34  C   UNL A   1      42.442  25.588  27.860  1.00  0.00     0.074 A 
ATOM     35  C   UNL A   1      44.667  24.911  27.032  1.00  0.00     0.049 A 
ATOM     36  N   UNL A   1      42.644  26.855  28.123  1.00  0.00    -0.248 NA
ATOM     37  C   UNL A   1      41.069  25.133  28.130  1.00  0.00     0.031 C 
ATOM     38  C   UNL A   1      45.678  24.025  26.454  1.00  0.00     0.029 A 
ATOM     39  N   UNL A   1      45.326  26.106  27.192  1.00  0.00    -0.354 N 
ATOM     40  C   UNL A   1      41.426  27.347  28.574  1.00  0.00     0.074 A 
ATOM     41  C   UNL A   1      40.475  26.260  28.494  1.00  0.00     0.031 C 
ATOM     42  C   UNL A   1      46.833  24.699  26.327  1.00  0.00     0.029 A 
ATOM     43  C   UNL A   1      46.633  26.075  26.771  1.00  0.00     0.049 A 
ATOM     44  H   UNL A   1      44.901  26.909  27.571  1.00  0.00     0.167 HD
ATOM     45  C   UNL A   1      41.133  28.588  29.033  1.00  0.00     0.037 A 
ATOM     46  C   UNL A   1      47.563  27.049  26.736  1.00  0.00     0.037 A 
ATOM     47  C   UNL A   1      42.086  29.662  29.129  1.00  0.00     0.049 A 
ATOM     48  C   UNL A   1      47.206  28.424  27.233  1.00  0.00     0.074 A 
ATOM     49  C   UNL A   1      41.901  30.938  29.633  1.00  0.00     0.029 A 
ATOM     50  N   UNL A   1      43.406  29.588  28.706  1.00  0.00    -0.354 N 
ATOM     51  N   UNL A   1      46.070  28.860  27.720  1.00  0.00    -0.248 NA
ATOM     52  C   UNL A   1      48.265  29.443  27.182  1.00  0.00     0.031 C 
ATOM     53  C   UNL A   1      43.091  31.653  29.463  1.00  0.00     0.029 A 
ATOM     54  C   UNL A   1      44.038  30.804  28.913  1.00  0.00     0.049 A 
ATOM     55  H   UNL A   1      43.830  28.791  28.315  1.00  0.00     0.167 HD
ATOM     56  C   UNL A   1      46.285  30.189  28.063  1.00  0.00     0.074 A 
ATOM     57  C   UNL A   1      47.665  30.484  27.741  1.00  0.00     0.031 C 
ATOM     58  C   UNL A   1      45.417  31.082  28.598  1.00  0.00     0.037 A 
BRANCH  45  59
ATOM     59  C   UNL A   1      39.719  28.851  29.467  1.00  0.00     0.064 A 
ATOM     60  C   UNL A   1      38.754  29.346  28.576  1.00  0.00     0.173 A 
ATOM     61  C   UNL A   1      39.314  28.572  30.781  1.00  0.00     0.173 A 
ATOM     62  F   UNL A   1      39.090  29.640  27.311  1.00  0.00    -0.203 F 
ATOM     63  C   UNL A   1      37.446  29.583  28.994  1.00  0.00     0.198 A 
ATOM     64  C   UNL A   1      37.996  28.777  31.185  1.00  0.00     0.198 A 
ATOM     65  F   UNL A   1      40.192  28.090  31.674  1.00  0.00    -0.203 F 
ATOM     66  F   UNL A   1      36.557  30.107  28.139  1.00  0.00    -0.200 F 
ATOM     67  C   UNL A   1      37.067  29.291  30.294  1.00  0.00     0.200 A 
ATOM     68  F   UNL A   1      37.627  28.479  32.439  1.00  0.00    -0.200 F 
ATOM     69  F   UNL A   1      35.806  29.511  30.692  1.00  0.00    -0.200 F 
ENDBRANCH  45  59
BRANCH  46  70
ATOM     70  C   UNL A   1      48.930  26.756  26.228  1.00  0.00     0.064 A 
ATOM     71  C   UNL A   1      49.264  26.990  24.886  1.00  0.00     0.173 A 
ATOM     72  C   UNL A   1      49.924  26.229  27.065  1.00  0.00     0.173 A 
ATOM     73  F   UNL A   1      48.342  27.472  24.041  1.00  0.00    -0.203 F 
ATOM     74  C   UNL A   1      50.532  26.685  24.397  1.00  0.00     0.198 A 
ATOM     75  C   UNL A   1      51.202  25.954  26.581  1.00  0.00     0.198 A 
ATOM     76  F   UNL A   1      49.658  25.991  28.358  1.00  0.00    -0.203 F 
ATOM     77  F   UNL A   1      50.808  26.869  23.098  1.00  0.00    -0.200 F 
ATOM     78  C   UNL A   1      51.502  26.173  25.245  1.00  0.00     0.200 A 
ATOM     79  F   UNL A   1      52.140  25.475  27.408  1.00  0.00    -0.200 F 
ATOM     80  F   UNL A   1      52.722  25.883  24.774  1.00  0.00    -0.200 F 
ENDBRANCH  46  70
BRANCH  58  81
ATOM     81  C   UNL A   1      45.942  32.453  28.916  1.00  0.00     0.064 A 
ATOM     82  C   UNL A   1      46.554  32.746  30.145  1.00  0.00     0.173 A 
ATOM     83  C   UNL A   1      45.872  33.477  27.959  1.00  0.00     0.173 A 
ATOM     84  F   UNL A   1      46.634  31.807  31.099  1.00  0.00    -0.203 F 
ATOM     85  C   UNL A   1      47.051  34.020  30.412  1.00  0.00     0.198 A 
ATOM     86  C   UNL A   1      46.400  34.739  28.216  1.00  0.00     0.198 A 
ATOM     87  F   UNL A   1      45.304  33.250  26.765  1.00  0.00    -0.203 F 
ATOM     88  F   UNL A   1      47.585  34.289  31.610  1.00  0.00    -0.200 F 
ATOM     89  C   UNL A   1      46.981  35.012  29.446  1.00  0.00     0.200 A 
ATOM     90  F   UNL A   1      46.348  35.691  27.275  1.00  0.00    -0.200 F 
ATOM     91  F   UNL A   1      47.469  36.233  29.701  1.00  0.00    -0.200 F 
ENDBRANCH  58  81
ENDBRANCH  32  33
ENDBRANCH  24  27
ENDBRANCH  22  23
ENDBRANCH  21  22
ENDBRANCH   1  21
TORSDOF 14
ENDMDL
MODEL 2
REMARK VINA RESULT:     -11.8      6.632     11.787
REMARK SMILES C[C@H]1CCCN1c1cccc(OCC(=O)NCCCCNC(=O)c2ccc(-c3c4nc(c(-c5c(F)c(F)c(F)c(F)c5F)c5ccc([nH]5)c(-c5c(F)c(F)c(F)c(F)c5F)c5nc(c(-c6c(F)c(F)c(F)c(F)c6F)c6ccc3[nH]6)C=C5)C=C4)cc2)c1
REMARK SMILES IDX 18 1 17 2 16 3 14 4 15 5 13 7 12 8 11 9 7 10 8 11 87 12 9 13
REMARK SMILES IDX 10 14 6 15 1 16 2 17 3 18 4 19 5 20 19 21 20 22 21 23 22 24
REMARK SMILES IDX 23 26 24 27 25 28 86 29 26 30 85 31 27 32 28 33 29 34 79 35
REMARK SMILES IDX 30 36 84 37 78 38 80 39 31 40 83 41 77 42 76 43 32 45 64 46
REMARK SMILES IDX 44 47 63 48 45 49 48 50 62 51 81 52 46 53 47 54 61 56 82 57
REMARK SMILES IDX 49 58 33 59 34 60 42 61 35 62 36 63 40 64 43 65 37 66 38 67
REMARK SMILES IDX 41 68 39 69 65 70 66 71 74 72 67 73 68 74 72 75 75 76 69 77
REMARK SMILES IDX 70 78 73 79 71 80 50 81 51 82 59 83 52 84 53 85 57 86 60 87
REMARK SMILES IDX 54 88 55 89 58 90 56 91
REMARK H PARENT 16 6 21 25 80 44 48 55
REMARK Flexibility Score: inf
ROOT
ATOM      1  C   UNL A   1      31.765  30.520  26.707  1.00  0.00     0.023 C 
ENDROOT
BRANCH   1   2
ATOM      2  C   UNL A   1      32.794  30.048  25.683  1.00  0.00     0.116 C 
BRANCH   2   3
ATOM      3  N   UNL A   1      33.217  28.680  25.915  1.00  0.00    -0.353 N 
ATOM      4  C   UNL A   1      33.547  27.730  24.989  1.00  0.00     0.257 C 
ATOM      5  O   UNL A   1      33.917  26.622  25.385  1.00  0.00    -0.271 OA
ATOM      6  H   UNL A   1      33.273  28.400  26.857  1.00  0.00     0.163 HD
BRANCH   4   7
ATOM      7  C   UNL A   1      33.504  28.081  23.499  1.00  0.00     0.329 C 
BRANCH   7   8
ATOM      8  O   UNL A   1      32.523  27.402  22.731  1.00  0.00    -0.484 OA
BRANCH   8   9
ATOM      9  C   UNL A   1      31.216  27.767  22.892  1.00  0.00     0.122 A 
ATOM     10  C   UNL A   1      29.320  29.308  22.893  1.00  0.00     0.041 A 
ATOM     11  C   UNL A   1      28.507  28.259  23.339  1.00  0.00     0.026 A 
ATOM     12  C   UNL A   1      30.680  29.041  22.679  1.00  0.00     0.072 A 
ATOM     13  C   UNL A   1      29.024  26.978  23.536  1.00  0.00     0.006 A 
ATOM     14  C   UNL A   1      30.376  26.736  23.316  1.00  0.00     0.046 A 
BRANCH  10  15
ATOM     15  N   UNL A   1      28.784  30.564  22.708  1.00  0.00    -0.369 N 
ATOM     16  C   UNL A   1      27.864  30.845  20.451  1.00  0.00     0.031 C 
ATOM     17  C   UNL A   1      28.895  31.330  21.464  1.00  0.00     0.079 C 
ATOM     18  C   UNL A   1      28.614  32.777  21.897  1.00  0.00     0.026 C 
ATOM     19  C   UNL A   1      29.001  32.798  23.368  1.00  0.00     0.023 C 
ATOM     20  C   UNL A   1      28.566  31.423  23.866  1.00  0.00     0.117 C 
ENDBRANCH  10  15
ENDBRANCH   8   9
ENDBRANCH   7   8
ENDBRANCH   4   7
ENDBRANCH   2   3
ENDBRANCH   1   2
BRANCH   1  21
ATOM     21  C   UNL A   1      31.544  32.034  26.753  1.00  0.00     0.023 C 
BRANCH  21  22
ATOM     22  C   UNL A   1      32.756  32.862  27.164  1.00  0.00     0.116 C 
BRANCH  22  23
ATOM     23  N   UNL A   1      32.412  34.213  27.582  1.00  0.00    -0.352 N 
ATOM     24  C   UNL A   1      32.968  34.981  28.576  1.00  0.00     0.251 C 
ATOM     25  H   UNL A   1      31.677  34.636  27.081  1.00  0.00     0.163 HD
ATOM     26  O   UNL A   1      32.468  36.062  28.873  1.00  0.00    -0.269 OA
BRANCH  24  27
ATOM     27  C   UNL A   1      34.151  34.490  29.315  1.00  0.00     0.039 A 
ATOM     28  C   UNL A   1      33.964  33.877  30.557  1.00  0.00     0.014 A 
ATOM     29  C   UNL A   1      35.438  34.620  28.785  1.00  0.00     0.014 A 
ATOM     30  C   UNL A   1      35.057  33.331  31.234  1.00  0.00     0.010 A 
ATOM     31  C   UNL A   1      36.514  34.008  29.422  1.00  0.00     0.010 A 
ATOM     32  C   UNL A   1      36.336  33.357  30.653  1.00  0.00    -0.014 A 
BRANCH  32  33
ATOM     33  C   UNL A   1      37.498  32.708  31.315  1.00  0.00     0.031 A 
ATOM     34  C   UNL A   1      38.205  31.563  30.647  1.00  0.00     0.074 A 
ATOM     35  C   UNL A   1      37.872  33.104  32.548  1.00  0.00     0.049 A 
ATOM     36  N   UNL A   1      39.181  30.813  31.097  1.00  0.00    -0.248 NA
ATOM     37  C   UNL A   1      37.735  31.190  29.304  1.00  0.00     0.031 C 
ATOM     38  C   UNL A   1      37.241  34.175  33.320  1.00  0.00     0.029 A 
ATOM     39  N   UNL A   1      38.868  32.642  33.373  1.00  0.00    -0.354 N 
ATOM     40  C   UNL A   1      39.429  29.877  30.102  1.00  0.00     0.074 A 
ATOM     41  C   UNL A   1      38.465  30.114  29.049  1.00  0.00     0.031 C 
ATOM     42  C   UNL A   1      37.876  34.301  34.497  1.00  0.00     0.029 A 
ATOM     43  C   UNL A   1      38.929  33.292  34.581  1.00  0.00     0.049 A 
ATOM     44  H   UNL A   1      39.479  31.912  33.123  1.00  0.00     0.167 HD
ATOM     45  C   UNL A   1      40.388  28.921  30.060  1.00  0.00     0.037 A 
ATOM     46  C   UNL A   1      39.735  33.092  35.642  1.00  0.00     0.037 A 
ATOM     47  C   UNL A   1      41.357  28.700  31.101  1.00  0.00     0.049 A 
ATOM     48  C   UNL A   1      40.779  32.010  35.578  1.00  0.00     0.074 A 
ATOM     49  C   UNL A   1      42.403  27.794  31.127  1.00  0.00     0.029 A 
ATOM     50  N   UNL A   1      41.396  29.390  32.304  1.00  0.00    -0.354 N 
ATOM     51  N   UNL A   1      41.048  31.175  34.604  1.00  0.00    -0.248 NA
ATOM     52  C   UNL A   1      41.637  31.846  36.761  1.00  0.00     0.031 C 
ATOM     53  C   UNL A   1      43.040  27.897  32.368  1.00  0.00     0.029 A 
ATOM     54  C   UNL A   1      42.432  28.911  33.090  1.00  0.00     0.049 A 
ATOM     55  H   UNL A   1      40.779  30.112  32.562  1.00  0.00     0.167 HD
ATOM     56  C   UNL A   1      42.124  30.412  35.040  1.00  0.00     0.074 A 
ATOM     57  C   UNL A   1      42.466  30.893  36.363  1.00  0.00     0.031 C 
ATOM     58  C   UNL A   1      42.770  29.406  34.402  1.00  0.00     0.037 A 
BRANCH  45  59
ATOM     59  C   UNL A   1      40.435  28.038  28.846  1.00  0.00     0.064 A 
ATOM     60  C   UNL A   1      41.168  28.392  27.703  1.00  0.00     0.173 A 
ATOM     61  C   UNL A   1      39.768  26.803  28.838  1.00  0.00     0.173 A 
ATOM     62  F   UNL A   1      41.817  29.566  27.653  1.00  0.00    -0.203 F 
ATOM     63  C   UNL A   1      41.204  27.560  26.586  1.00  0.00     0.198 A 
ATOM     64  C   UNL A   1      39.835  25.958  27.732  1.00  0.00     0.198 A 
ATOM     65  F   UNL A   1      39.058  26.409  29.906  1.00  0.00    -0.203 F 
ATOM     66  F   UNL A   1      41.866  27.946  25.486  1.00  0.00    -0.200 F 
ATOM     67  C   UNL A   1      40.545  26.342  26.604  1.00  0.00     0.200 A 
ATOM     68  F   UNL A   1      39.210  24.772  27.757  1.00  0.00    -0.200 F 
ATOM     69  F   UNL A   1      40.587  25.538  25.532  1.00  0.00    -0.200 F 
ENDBRANCH  45  59
BRANCH  46  70
ATOM     70  C   UNL A   1      39.599  33.947  36.852  1.00  0.00     0.064 A 
ATOM     71  C   UNL A   1      40.278  35.170  36.949  1.00  0.00     0.173 A 
ATOM     72  C   UNL A   1      38.800  33.557  37.937  1.00  0.00     0.173 A 
ATOM     73  F   UNL A   1      41.072  35.576  35.947  1.00  0.00    -0.203 F 
ATOM     74  C   UNL A   1      40.183  35.958  38.094  1.00  0.00     0.198 A 
ATOM     75  C   UNL A   1      38.680  34.361  39.069  1.00  0.00     0.198 A 
ATOM     76  F   UNL A   1      38.126  32.399  37.893  1.00  0.00    -0.203 F 
ATOM     77  F   UNL A   1      40.885  37.097  38.181  1.00  0.00    -0.200 F 
ATOM     78  C   UNL A   1      39.380  35.556  39.150  1.00  0.00     0.200 A 
ATOM     79  F   UNL A   1      37.891  33.977  40.080  1.00  0.00    -0.200 F 
ATOM     80  F   UNL A   1      39.286  36.316  40.250  1.00  0.00    -0.200 F 
ENDBRANCH  46  70
BRANCH  58  81
ATOM     81  C   UNL A   1      43.945  28.784  35.101  1.00  0.00     0.064 A 
ATOM     82  C   UNL A   1      43.803  27.669  35.940  1.00  0.00     0.173 A 
ATOM     83  C   UNL A   1      45.239  29.286  34.891  1.00  0.00     0.173 A 
ATOM     84  F   UNL A   1      42.586  27.160  36.186  1.00  0.00    -0.203 F 
ATOM     85  C   UNL A   1      44.909  27.097  36.565  1.00  0.00     0.198 A 
ATOM     86  C   UNL A   1      46.346  28.690  35.489  1.00  0.00     0.198 A 
ATOM     87  F   UNL A   1      45.433  30.345  34.092  1.00  0.00    -0.203 F 
ATOM     88  F   UNL A   1      44.742  26.065  37.402  1.00  0.00    -0.200 F 
ATOM     89  C   UNL A   1      46.179  27.602  36.332  1.00  0.00     0.200 A 
ATOM     90  F   UNL A   1      47.575  29.169  35.249  1.00  0.00    -0.200 F 
ATOM     91  F   UNL A   1      47.243  27.043  36.925  1.00  0.00    -0.200 F 
ENDBRANCH  58  81
ENDBRANCH  32  33
ENDBRANCH  24  27
ENDBRANCH  22  23
ENDBRANCH  21  22
ENDBRANCH   1  21
TORSDOF 14
ENDMDL
MODEL 3
REMARK VINA RESULT:     -11.8      5.725     10.773
REMARK SMILES C[C@H]1CCCN1c1cccc(OCC(=O)NCCCCNC(=O)c2ccc(-c3c4nc(c(-c5c(F)c(F)c(F)c(F)c5F)c5ccc([nH]5)c(-c5c(F)c(F)c(F)c(F)c5F)c5nc(c(-c6c(F)c(F)c(F)c(F)c6F)c6ccc3[nH]6)C=C5)C=C4)cc2)c1
REMARK SMILES IDX 18 1 17 2 16 3 14 4 15 5 13 7 12 8 11 9 7 10 8 11 87 12 9 13
REMARK SMILES IDX 10 14 6 15 1 16 2 17 3 18 4 19 5 20 19 21 20 22 21 23 22 24
REMARK SMILES IDX 23 26 24 27 25 28 86 29 26 30 85 31 27 32 28 33 29 34 79 35
REMARK SMILES IDX 30 36 84 37 78 38 80 39 31 40 83 41 77 42 76 43 32 45 64 46
REMARK SMILES IDX 44 47 63 48 45 49 48 50 62 51 81 52 46 53 47 54 61 56 82 57
REMARK SMILES IDX 49 58 33 59 34 60 42 61 35 62 36 63 40 64 43 65 37 66 38 67
REMARK SMILES IDX 41 68 39 69 65 70 66 71 74 72 67 73 68 74 72 75 75 76 69 77
REMARK SMILES IDX 70 78 73 79 71 80 50 81 51 82 59 83 52 84 53 85 57 86 60 87
REMARK SMILES IDX 54 88 55 89 58 90 56 91
REMARK H PARENT 16 6 21 25 80 44 48 55
REMARK Flexibility Score: inf
ROOT
ATOM      1  C   UNL A   1      33.423  34.559  28.597  1.00  0.00     0.023 C 
ENDROOT
BRANCH   1   2
ATOM      2  C   UNL A   1      33.634  35.816  29.438  1.00  0.00     0.116 C 
BRANCH   2   3
ATOM      3  N   UNL A   1      32.530  36.066  30.344  1.00  0.00    -0.353 N 
ATOM      4  C   UNL A   1      32.583  36.361  31.678  1.00  0.00     0.257 C 
ATOM      5  O   UNL A   1      31.527  36.575  32.279  1.00  0.00    -0.271 OA
ATOM      6  H   UNL A   1      31.630  36.019  29.950  1.00  0.00     0.163 HD
BRANCH   4   7
ATOM      7  C   UNL A   1      33.943  36.472  32.373  1.00  0.00     0.329 C 
BRANCH   7   8
ATOM      8  O   UNL A   1      34.244  35.451  33.312  1.00  0.00    -0.484 OA
BRANCH   8   9
ATOM      9  C   UNL A   1      35.111  34.465  32.934  1.00  0.00     0.122 A 
ATOM     10  C   UNL A   1      37.077  33.539  31.817  1.00  0.00     0.041 A 
ATOM     11  C   UNL A   1      36.692  32.268  32.260  1.00  0.00     0.026 A 
ATOM     12  C   UNL A   1      36.266  34.630  32.163  1.00  0.00     0.072 A 
ATOM     13  C   UNL A   1      35.553  32.091  33.047  1.00  0.00     0.006 A 
ATOM     14  C   UNL A   1      34.765  33.189  33.379  1.00  0.00     0.046 A 
BRANCH  10  15
ATOM     15  N   UNL A   1      38.205  33.684  31.040  1.00  0.00    -0.369 N 
ATOM     16  C   UNL A   1      40.148  34.385  32.365  1.00  0.00     0.031 C 
ATOM     17  C   UNL A   1      39.201  34.744  31.226  1.00  0.00     0.079 C 
ATOM     18  C   UNL A   1      39.940  34.793  29.880  1.00  0.00     0.026 C 
ATOM     19  C   UNL A   1      38.924  34.250  28.887  1.00  0.00     0.023 C 
ATOM     20  C   UNL A   1      38.204  33.163  29.678  1.00  0.00     0.117 C 
ENDBRANCH  10  15
ENDBRANCH   8   9
ENDBRANCH   7   8
ENDBRANCH   4   7
ENDBRANCH   2   3
ENDBRANCH   1   2
BRANCH   1  21
ATOM     21  C   UNL A   1      34.657  33.669  28.440  1.00  0.00     0.023 C 
BRANCH  21  22
ATOM     22  C   UNL A   1      34.640  32.374  29.244  1.00  0.00     0.116 C 
BRANCH  22  23
ATOM     23  N   UNL A   1      34.099  31.246  28.501  1.00  0.00    -0.352 N 
ATOM     24  C   UNL A   1      34.740  30.116  28.052  1.00  0.00     0.251 C 
ATOM     25  H   UNL A   1      33.139  31.299  28.290  1.00  0.00     0.163 HD
ATOM     26  O   UNL A   1      34.150  29.317  27.331  1.00  0.00    -0.269 OA
BRANCH  24  27
ATOM     27  C   UNL A   1      36.155  29.877  28.410  1.00  0.00     0.039 A 
ATOM     28  C   UNL A   1      36.454  29.373  29.678  1.00  0.00     0.014 A 
ATOM     29  C   UNL A   1      37.183  30.134  27.498  1.00  0.00     0.014 A 
ATOM     30  C   UNL A   1      37.775  29.060  30.008  1.00  0.00     0.010 A 
ATOM     31  C   UNL A   1      38.487  29.750  27.798  1.00  0.00     0.010 A 
ATOM     32  C   UNL A   1      38.798  29.209  29.056  1.00  0.00    -0.014 A 
BRANCH  32  33
ATOM     33  C   UNL A   1      40.196  28.804  29.355  1.00  0.00     0.031 A 
ATOM     34  C   UNL A   1      41.097  29.720  30.135  1.00  0.00     0.074 A 
ATOM     35  C   UNL A   1      40.677  27.645  28.864  1.00  0.00     0.049 A 
ATOM     36  N   UNL A   1      42.368  29.585  30.424  1.00  0.00    -0.248 NA
ATOM     37  C   UNL A   1      40.498  30.968  30.633  1.00  0.00     0.031 C 
ATOM     38  C   UNL A   1      39.917  26.688  28.058  1.00  0.00     0.029 A 
ATOM     39  N   UNL A   1      41.924  27.078  28.963  1.00  0.00    -0.354 N 
ATOM     40  C   UNL A   1      42.720  30.733  31.123  1.00  0.00     0.074 A 
ATOM     41  C   UNL A   1      41.547  31.579  31.164  1.00  0.00     0.031 C 
ATOM     42  C   UNL A   1      40.707  25.646  27.752  1.00  0.00     0.029 A 
ATOM     43  C   UNL A   1      42.039  25.880  28.301  1.00  0.00     0.049 A 
ATOM     44  H   UNL A   1      42.666  27.493  29.459  1.00  0.00     0.167 HD
ATOM     45  C   UNL A   1      43.907  31.043  31.698  1.00  0.00     0.037 A 
ATOM     46  C   UNL A   1      43.101  25.066  28.146  1.00  0.00     0.037 A 
ATOM     47  C   UNL A   1      45.066  30.190  31.671  1.00  0.00     0.049 A 
ATOM     48  C   UNL A   1      44.415  25.444  28.777  1.00  0.00     0.074 A 
ATOM     49  C   UNL A   1      46.298  30.390  32.271  1.00  0.00     0.029 A 
ATOM     50  N   UNL A   1      45.140  28.977  31.003  1.00  0.00    -0.354 N 
ATOM     51  N   UNL A   1      44.717  26.499  29.493  1.00  0.00    -0.248 NA
ATOM     52  C   UNL A   1      45.535  24.511  28.583  1.00  0.00     0.031 C 
ATOM     53  C   UNL A   1      47.133  29.325  31.919  1.00  0.00     0.029 A 
ATOM     54  C   UNL A   1      46.404  28.429  31.154  1.00  0.00     0.049 A 
ATOM     55  H   UNL A   1      44.403  28.565  30.496  1.00  0.00     0.167 HD
ATOM     56  C   UNL A   1      46.047  26.342  29.862  1.00  0.00     0.074 A 
ATOM     57  C   UNL A   1      46.490  25.083  29.302  1.00  0.00     0.031 C 
ATOM     58  C   UNL A   1      46.829  27.168  30.600  1.00  0.00     0.037 A 
BRANCH  45  59
ATOM     59  C   UNL A   1      44.012  32.364  32.405  1.00  0.00     0.064 A 
ATOM     60  C   UNL A   1      44.441  33.524  31.741  1.00  0.00     0.173 A 
ATOM     61  C   UNL A   1      43.645  32.481  33.754  1.00  0.00     0.173 A 
ATOM     62  F   UNL A   1      44.814  33.467  30.453  1.00  0.00    -0.203 F 
ATOM     63  C   UNL A   1      44.532  34.742  32.411  1.00  0.00     0.198 A 
ATOM     64  C   UNL A   1      43.704  33.709  34.410  1.00  0.00     0.198 A 
ATOM     65  F   UNL A   1      43.221  31.406  34.437  1.00  0.00    -0.203 F 
ATOM     66  F   UNL A   1      44.996  35.824  31.769  1.00  0.00    -0.200 F 
ATOM     67  C   UNL A   1      44.155  34.835  33.741  1.00  0.00     0.200 A 
ATOM     68  F   UNL A   1      43.324  33.800  35.693  1.00  0.00    -0.200 F 
ATOM     69  F   UNL A   1      44.234  36.010  34.381  1.00  0.00    -0.200 F 
ENDBRANCH  45  59
BRANCH  46  70
ATOM     70  C   UNL A   1      42.964  23.803  27.373  1.00  0.00     0.064 A 
ATOM     71  C   UNL A   1      42.497  22.631  27.985  1.00  0.00     0.173 A 
ATOM     72  C   UNL A   1      43.307  23.736  26.014  1.00  0.00     0.173 A 
ATOM     73  F   UNL A   1      42.177  22.638  29.287  1.00  0.00    -0.203 F 
ATOM     74  C   UNL A   1      42.400  21.437  27.274  1.00  0.00     0.198 A 
ATOM     75  C   UNL A   1      43.180  22.548  25.296  1.00  0.00     0.198 A 
ATOM     76  F   UNL A   1      43.755  24.829  25.379  1.00  0.00    -0.203 F 
ATOM     77  F   UNL A   1      42.000  20.320  27.898  1.00  0.00    -0.200 F 
ATOM     78  C   UNL A   1      42.736  21.398  25.930  1.00  0.00     0.200 A 
ATOM     79  F   UNL A   1      43.490  22.518  23.994  1.00  0.00    -0.200 F 
ATOM     80  F   UNL A   1      42.639  20.249  25.247  1.00  0.00    -0.200 F 
ENDBRANCH  46  70
BRANCH  58  81
ATOM     81  C   UNL A   1      48.233  26.717  30.889  1.00  0.00     0.064 A 
ATOM     82  C   UNL A   1      49.309  27.070  30.061  1.00  0.00     0.173 A 
ATOM     83  C   UNL A   1      48.510  25.957  32.035  1.00  0.00     0.173 A 
ATOM     84  F   UNL A   1      49.097  27.783  28.945  1.00  0.00    -0.203 F 
ATOM     85  C   UNL A   1      50.606  26.656  30.357  1.00  0.00     0.198 A 
ATOM     86  C   UNL A   1      49.812  25.574  32.347  1.00  0.00     0.198 A 
ATOM     87  F   UNL A   1      47.519  25.598  32.865  1.00  0.00    -0.203 F 
ATOM     88  F   UNL A   1      51.610  26.962  29.525  1.00  0.00    -0.200 F 
ATOM     89  C   UNL A   1      50.857  25.916  31.503  1.00  0.00     0.200 A 
ATOM     90  F   UNL A   1      50.054  24.874  33.464  1.00  0.00    -0.200 F 
ATOM     91  F   UNL A   1      52.107  25.528  31.791  1.00  0.00    -0.200 F 
ENDBRANCH  58  81
ENDBRANCH  32  33
ENDBRANCH  24  27
ENDBRANCH  22  23
ENDBRANCH  21  22
ENDBRANCH   1  21
TORSDOF 14
ENDMDL
