MODEL 1
REMARK VINA RESULT:     -11.5      0.000      0.000
REMARK SMILES CSc1ncccc1C(=O)NCCCC(=O)NCCCCNC(=O)c1ccc(-c2c3nc(c(-c4c(F)c(F)c(F)c(F)c4F)c4ccc([nH]4)c(-c4c(F)c(F)c(F)c(F)c4F)c4nc(c(-c5c(F)c(F)c(F)c(F)c5F)c5ccc2[nH]5)C=C4)C=C3)cc1
REMARK SMILES IDX 18 1 17 2 15 3 16 4 14 6 13 7 12 8 11 9 9 10 10 11 8 13 3 14
REMARK SMILES IDX 4 15 5 16 7 17 6 18 2 19 1 20 19 21 20 22 21 23 22 24 23 25
REMARK SMILES IDX 24 27 25 28 26 29 87 30 27 31 86 32 28 33 29 34 30 35 80 36
REMARK SMILES IDX 31 37 85 38 79 39 81 40 32 41 84 42 78 43 77 44 33 46 65 47
REMARK SMILES IDX 45 48 64 49 46 50 49 51 63 52 82 53 47 54 48 55 62 57 83 58
REMARK SMILES IDX 50 59 34 60 35 61 43 62 36 63 37 64 41 65 44 66 38 67 39 68
REMARK SMILES IDX 42 69 40 70 66 71 67 72 75 73 68 74 69 75 73 76 76 77 70 78
REMARK SMILES IDX 71 79 74 80 72 81 51 82 52 83 60 84 53 85 54 86 58 87 61 88
REMARK SMILES IDX 55 89 56 90 59 91 57 92
REMARK H PARENT 17 5 11 12 22 26 81 45 49 56
REMARK Flexibility Score: inf
ROOT
ATOM      1  C   UNL A   1      32.268  29.958  25.510  1.00  0.00     0.116 C 
ENDROOT
BRANCH   1   2
ATOM      2  N   UNL A   1      31.178  29.958  24.552  1.00  0.00    -0.356 N 
ATOM      3  C   UNL A   1      30.564  28.918  23.925  1.00  0.00     0.220 C 
ATOM      4  O   UNL A   1      29.771  29.170  23.017  1.00  0.00    -0.275 OA
ATOM      5  H   UNL A   1      30.828  30.849  24.321  1.00  0.00     0.163 HD
BRANCH   3   6
ATOM      6  C   UNL A   1      30.828  27.488  24.352  1.00  0.00     0.102 C 
BRANCH   6   7
ATOM      7  C   UNL A   1      29.844  26.461  23.779  1.00  0.00     0.031 C 
BRANCH   7   8
ATOM      8  C   UNL A   1      30.284  24.994  23.825  1.00  0.00     0.116 C 
BRANCH   8   9
ATOM      9  N   UNL A   1      30.289  24.440  25.167  1.00  0.00    -0.352 N 
ATOM     10  C   UNL A   1      31.303  24.146  26.045  1.00  0.00     0.254 C 
ATOM     11  O   UNL A   1      30.992  24.073  27.232  1.00  0.00    -0.269 OA
ATOM     12  H   UNL A   1      29.391  24.233  25.514  1.00  0.00     0.163 HD
BRANCH  10  13
ATOM     13  C   UNL A   1      32.710  23.947  25.622  1.00  0.00     0.072 A 
ATOM     14  C   UNL A   1      33.168  22.692  25.185  1.00  0.00     0.108 A 
ATOM     15  N   UNL A   1      34.464  22.485  24.819  1.00  0.00    -0.249 NA
ATOM     16  C   UNL A   1      35.328  23.515  24.901  1.00  0.00     0.112 A 
ATOM     17  C   UNL A   1      33.646  24.985  25.718  1.00  0.00     0.018 A 
ATOM     18  C   UNL A   1      34.969  24.772  25.340  1.00  0.00     0.021 A 
BRANCH  14  19
ATOM     19  S   UNL A   1      32.102  21.259  25.001  1.00  0.00    -0.109 SA
ATOM     20  C   UNL A   1      33.259  19.905  25.342  1.00  0.00     0.092 C 
ENDBRANCH  14  19
ENDBRANCH  10  13
ENDBRANCH   8   9
ENDBRANCH   7   8
ENDBRANCH   6   7
ENDBRANCH   3   6
ENDBRANCH   1   2
BRANCH   1  21
ATOM     21  C   UNL A   1      31.796  30.509  26.856  1.00  0.00     0.023 C 
BRANCH  21  22
ATOM     22  C   UNL A   1      31.543  32.013  26.866  1.00  0.00     0.023 C 
BRANCH  22  23
ATOM     23  C   UNL A   1      32.767  32.847  27.215  1.00  0.00     0.116 C 
BRANCH  23  24
ATOM     24  N   UNL A   1      32.450  34.217  27.595  1.00  0.00    -0.352 N 
ATOM     25  C   UNL A   1      33.024  34.972  28.591  1.00  0.00     0.251 C 
ATOM     26  H   UNL A   1      31.737  34.656  27.076  1.00  0.00     0.163 HD
ATOM     27  O   UNL A   1      32.589  36.082  28.878  1.00  0.00    -0.269 OA
BRANCH  25  28
ATOM     28  C   UNL A   1      34.154  34.402  29.350  1.00  0.00     0.039 A 
ATOM     29  C   UNL A   1      33.889  33.612  30.469  1.00  0.00     0.014 A 
ATOM     30  C   UNL A   1      35.465  34.587  28.905  1.00  0.00     0.014 A 
ATOM     31  C   UNL A   1      34.936  32.940  31.100  1.00  0.00     0.010 A 
ATOM     32  C   UNL A   1      36.494  33.853  29.480  1.00  0.00     0.010 A 
ATOM     33  C   UNL A   1      36.239  33.022  30.581  1.00  0.00    -0.014 A 
BRANCH  33  34
ATOM     34  C   UNL A   1      37.363  32.259  31.178  1.00  0.00     0.031 A 
ATOM     35  C   UNL A   1      37.858  32.620  32.548  1.00  0.00     0.074 A 
ATOM     36  C   UNL A   1      37.991  31.312  30.454  1.00  0.00     0.049 A 
ATOM     37  N   UNL A   1      38.903  32.172  33.197  1.00  0.00    -0.248 NA
ATOM     38  C   UNL A   1      37.099  33.652  33.272  1.00  0.00     0.031 C 
ATOM     39  C   UNL A   1      37.636  30.911  29.092  1.00  0.00     0.029 A 
ATOM     40  N   UNL A   1      39.074  30.528  30.759  1.00  0.00    -0.354 N 
ATOM     41  C   UNL A   1      38.941  32.889  34.385  1.00  0.00     0.074 A 
ATOM     42  C   UNL A   1      37.847  33.833  34.349  1.00  0.00     0.031 C 
ATOM     43  C   UNL A   1      38.473  29.941  28.687  1.00  0.00     0.029 A 
ATOM     44  C   UNL A   1      39.444  29.679  29.745  1.00  0.00     0.049 A 
ATOM     45  H   UNL A   1      39.542  30.568  31.625  1.00  0.00     0.167 HD
ATOM     46  C   UNL A   1      39.799  32.754  35.425  1.00  0.00     0.037 A 
ATOM     47  C   UNL A   1      40.458  28.796  29.676  1.00  0.00     0.037 A 
ATOM     48  C   UNL A   1      40.856  31.780  35.476  1.00  0.00     0.049 A 
ATOM     49  C   UNL A   1      41.378  28.643  30.857  1.00  0.00     0.074 A 
ATOM     50  C   UNL A   1      41.736  31.514  36.510  1.00  0.00     0.029 A 
ATOM     51  N   UNL A   1      41.167  30.902  34.447  1.00  0.00    -0.354 N 
ATOM     52  N   UNL A   1      41.370  29.284  31.999  1.00  0.00    -0.248 NA
ATOM     53  C   UNL A   1      42.445  27.639  30.740  1.00  0.00     0.031 C 
ATOM     54  C   UNL A   1      42.600  30.495  36.096  1.00  0.00     0.029 A 
ATOM     55  C   UNL A   1      42.234  30.101  34.819  1.00  0.00     0.049 A 
ATOM     56  H   UNL A   1      40.700  30.857  33.583  1.00  0.00     0.167 HD
ATOM     57  C   UNL A   1      42.405  28.743  32.748  1.00  0.00     0.074 A 
ATOM     58  C   UNL A   1      43.018  27.714  31.933  1.00  0.00     0.031 C 
ATOM     59  C   UNL A   1      42.814  29.070  33.999  1.00  0.00     0.037 A 
BRANCH  46  60
ATOM     60  C   UNL A   1      39.620  33.677  36.592  1.00  0.00     0.064 A 
ATOM     61  C   UNL A   1      40.249  34.931  36.640  1.00  0.00     0.173 A 
ATOM     62  C   UNL A   1      38.793  33.316  37.666  1.00  0.00     0.173 A 
ATOM     63  F   UNL A   1      41.062  35.316  35.645  1.00  0.00    -0.203 F 
ATOM     64  C   UNL A   1      40.082  35.774  37.735  1.00  0.00     0.198 A 
ATOM     65  C   UNL A   1      38.604  34.175  38.745  1.00  0.00     0.198 A 
ATOM     66  F   UNL A   1      38.165  32.131  37.667  1.00  0.00    -0.203 F 
ATOM     67  F   UNL A   1      40.735  36.944  37.782  1.00  0.00    -0.200 F 
ATOM     68  C   UNL A   1      39.255  35.399  38.783  1.00  0.00     0.200 A 
ATOM     69  F   UNL A   1      37.797  33.816  39.752  1.00  0.00    -0.200 F 
ATOM     70  F   UNL A   1      39.093  36.214  39.834  1.00  0.00    -0.200 F 
ENDBRANCH  46  60
BRANCH  47  71
ATOM     71  C   UNL A   1      40.636  27.963  28.459  1.00  0.00     0.064 A 
ATOM     72  C   UNL A   1      40.033  26.702  28.361  1.00  0.00     0.173 A 
ATOM     73  C   UNL A   1      41.408  28.405  27.375  1.00  0.00     0.173 A 
ATOM     74  F   UNL A   1      39.302  26.228  29.380  1.00  0.00    -0.203 F 
ATOM     75  C   UNL A   1      40.211  25.904  27.232  1.00  0.00     0.198 A 
ATOM     76  C   UNL A   1      41.565  27.617  26.236  1.00  0.00     0.198 A 
ATOM     77  F   UNL A   1      42.001  29.607  27.417  1.00  0.00    -0.203 F 
ATOM     78  F   UNL A   1      39.656  24.685  27.182  1.00  0.00    -0.200 F 
ATOM     79  C   UNL A   1      40.973  26.364  26.168  1.00  0.00     0.200 A 
ATOM     80  F   UNL A   1      42.291  28.070  25.206  1.00  0.00    -0.200 F 
ATOM     81  F   UNL A   1      41.141  25.599  25.082  1.00  0.00    -0.200 F 
ENDBRANCH  47  71
BRANCH  59  82
ATOM     82  C   UNL A   1      43.947  28.279  34.581  1.00  0.00     0.064 A 
ATOM     83  C   UNL A   1      45.276  28.710  34.471  1.00  0.00     0.173 A 
ATOM     84  C   UNL A   1      43.691  27.106  35.306  1.00  0.00     0.173 A 
ATOM     85  F   UNL A   1      45.571  29.818  33.774  1.00  0.00    -0.203 F 
ATOM     86  C   UNL A   1      46.312  27.984  35.051  1.00  0.00     0.198 A 
ATOM     87  C   UNL A   1      44.727  26.396  35.907  1.00  0.00     0.198 A 
ATOM     88  F   UNL A   1      42.435  26.657  35.444  1.00  0.00    -0.203 F 
ATOM     89  F   UNL A   1      47.579  28.394  34.904  1.00  0.00    -0.200 F 
ATOM     90  C   UNL A   1      46.035  26.833  35.776  1.00  0.00     0.200 A 
ATOM     91  F   UNL A   1      44.457  25.292  36.615  1.00  0.00    -0.200 F 
ATOM     92  F   UNL A   1      47.034  26.142  36.343  1.00  0.00    -0.200 F 
ENDBRANCH  59  82
ENDBRANCH  33  34
ENDBRANCH  25  28
ENDBRANCH  23  24
ENDBRANCH  22  23
ENDBRANCH  21  22
ENDBRANCH   1  21
TORSDOF 16
ENDMDL
MODEL 2
REMARK VINA RESULT:     -11.4      5.486     10.012
REMARK SMILES CSc1ncccc1C(=O)NCCCC(=O)NCCCCNC(=O)c1ccc(-c2c3nc(c(-c4c(F)c(F)c(F)c(F)c4F)c4ccc([nH]4)c(-c4c(F)c(F)c(F)c(F)c4F)c4nc(c(-c5c(F)c(F)c(F)c(F)c5F)c5ccc2[nH]5)C=C4)C=C3)cc1
REMARK SMILES IDX 18 1 17 2 15 3 16 4 14 6 13 7 12 8 11 9 9 10 10 11 8 13 3 14
REMARK SMILES IDX 4 15 5 16 7 17 6 18 2 19 1 20 19 21 20 22 21 23 22 24 23 25
REMARK SMILES IDX 24 27 25 28 26 29 87 30 27 31 86 32 28 33 29 34 30 35 80 36
REMARK SMILES IDX 31 37 85 38 79 39 81 40 32 41 84 42 78 43 77 44 33 46 65 47
REMARK SMILES IDX 45 48 64 49 46 50 49 51 63 52 82 53 47 54 48 55 62 57 83 58
REMARK SMILES IDX 50 59 34 60 35 61 43 62 36 63 37 64 41 65 44 66 38 67 39 68
REMARK SMILES IDX 42 69 40 70 66 71 67 72 75 73 68 74 69 75 73 76 76 77 70 78
REMARK SMILES IDX 71 79 74 80 72 81 51 82 52 83 60 84 53 85 54 86 58 87 61 88
REMARK SMILES IDX 55 89 56 90 59 91 57 92
REMARK H PARENT 17 5 11 12 22 26 81 45 49 56
REMARK Flexibility Score: inf
ROOT
ATOM      1  C   UNL A   1      37.425  22.501  25.680  1.00  0.00     0.116 C 
ENDROOT
BRANCH   1   2
ATOM      2  N   UNL A   1      36.147  22.583  26.362  1.00  0.00    -0.356 N 
ATOM      3  C   UNL A   1      35.101  23.431  26.164  1.00  0.00     0.220 C 
ATOM      4  O   UNL A   1      34.182  23.425  26.983  1.00  0.00    -0.275 OA
ATOM      5  H   UNL A   1      36.017  21.922  27.081  1.00  0.00     0.163 HD
BRANCH   3   6
ATOM      6  C   UNL A   1      35.056  24.338  24.951  1.00  0.00     0.102 C 
BRANCH   6   7
ATOM      7  C   UNL A   1      34.137  23.851  23.825  1.00  0.00     0.031 C 
BRANCH   7   8
ATOM      8  C   UNL A   1      32.773  24.537  23.711  1.00  0.00     0.116 C 
BRANCH   8   9
ATOM      9  N   UNL A   1      32.034  24.555  24.960  1.00  0.00    -0.352 N 
ATOM     10  C   UNL A   1      31.593  25.578  25.762  1.00  0.00     0.254 C 
ATOM     11  O   UNL A   1      30.664  25.313  26.523  1.00  0.00    -0.269 OA
ATOM     12  H   UNL A   1      31.807  23.659  25.300  1.00  0.00     0.163 HD
BRANCH  10  13
ATOM     13  C   UNL A   1      32.165  26.946  25.721  1.00  0.00     0.072 A 
ATOM     14  C   UNL A   1      31.658  27.920  24.844  1.00  0.00     0.108 A 
ATOM     15  N   UNL A   1      32.188  29.173  24.775  1.00  0.00    -0.249 NA
ATOM     16  C   UNL A   1      33.243  29.470  25.559  1.00  0.00     0.112 A 
ATOM     17  C   UNL A   1      33.277  27.286  26.500  1.00  0.00     0.018 A 
ATOM     18  C   UNL A   1      33.817  28.568  26.430  1.00  0.00     0.021 A 
BRANCH  14  19
ATOM     19  S   UNL A   1      30.236  27.652  23.781  1.00  0.00    -0.109 SA
ATOM     20  C   UNL A   1      31.025  27.510  22.155  1.00  0.00     0.092 C 
ENDBRANCH  14  19
ENDBRANCH  10  13
ENDBRANCH   8   9
ENDBRANCH   7   8
ENDBRANCH   6   7
ENDBRANCH   3   6
ENDBRANCH   1   2
BRANCH   1  21
ATOM     21  C   UNL A   1      37.391  21.407  24.613  1.00  0.00     0.023 C 
BRANCH  21  22
ATOM     22  C   UNL A   1      38.126  20.127  25.001  1.00  0.00     0.023 C 
BRANCH  22  23
ATOM     23  C   UNL A   1      39.370  20.357  25.845  1.00  0.00     0.116 C 
BRANCH  23  24
ATOM     24  N   UNL A   1      40.255  19.202  25.906  1.00  0.00    -0.352 N 
ATOM     25  C   UNL A   1      41.612  19.187  26.129  1.00  0.00     0.251 C 
ATOM     26  H   UNL A   1      39.829  18.324  25.770  1.00  0.00     0.163 HD
ATOM     27  O   UNL A   1      42.258  18.148  26.050  1.00  0.00    -0.269 OA
BRANCH  25  28
ATOM     28  C   UNL A   1      42.294  20.462  26.424  1.00  0.00     0.039 A 
ATOM     29  C   UNL A   1      42.860  21.186  25.374  1.00  0.00     0.014 A 
ATOM     30  C   UNL A   1      42.305  20.970  27.725  1.00  0.00     0.014 A 
ATOM     31  C   UNL A   1      43.367  22.463  25.615  1.00  0.00     0.010 A 
ATOM     32  C   UNL A   1      42.732  22.272  27.948  1.00  0.00     0.010 A 
ATOM     33  C   UNL A   1      43.266  23.031  26.895  1.00  0.00    -0.014 A 
BRANCH  33  34
ATOM     34  C   UNL A   1      43.723  24.416  27.170  1.00  0.00     0.031 A 
ATOM     35  C   UNL A   1      42.741  25.431  27.682  1.00  0.00     0.074 A 
ATOM     36  C   UNL A   1      44.985  24.778  26.873  1.00  0.00     0.049 A 
ATOM     37  N   UNL A   1      42.898  26.717  27.862  1.00  0.00    -0.248 NA
ATOM     38  C   UNL A   1      41.391  24.940  27.997  1.00  0.00     0.031 C 
ATOM     39  C   UNL A   1      46.014  23.896  26.321  1.00  0.00     0.029 A 
ATOM     40  N   UNL A   1      45.613  25.994  26.978  1.00  0.00    -0.354 N 
ATOM     41  C   UNL A   1      41.661  27.190  28.279  1.00  0.00     0.074 A 
ATOM     42  C   UNL A   1      40.753  26.065  28.279  1.00  0.00     0.031 C 
ATOM     43  C   UNL A   1      47.150  24.594  26.155  1.00  0.00     0.029 A 
ATOM     44  C   UNL A   1      46.919  25.979  26.553  1.00  0.00     0.049 A 
ATOM     45  H   UNL A   1      45.169  26.801  27.326  1.00  0.00     0.167 HD
ATOM     46  C   UNL A   1      41.320  28.446  28.652  1.00  0.00     0.037 A 
ATOM     47  C   UNL A   1      47.823  26.974  26.487  1.00  0.00     0.037 A 
ATOM     48  C   UNL A   1      42.239  29.551  28.697  1.00  0.00     0.049 A 
ATOM     49  C   UNL A   1      47.428  28.354  26.937  1.00  0.00     0.074 A 
ATOM     50  C   UNL A   1      42.013  30.847  29.125  1.00  0.00     0.029 A 
ATOM     51  N   UNL A   1      43.569  29.484  28.306  1.00  0.00    -0.354 N 
ATOM     52  N   UNL A   1      46.272  28.778  27.386  1.00  0.00    -0.248 NA
ATOM     53  C   UNL A   1      48.466  29.393  26.877  1.00  0.00     0.031 C 
ATOM     54  C   UNL A   1      43.197  31.573  28.966  1.00  0.00     0.029 A 
ATOM     55  C   UNL A   1      44.172  30.719  28.474  1.00  0.00     0.049 A 
ATOM     56  H   UNL A   1      44.016  28.679  27.961  1.00  0.00     0.167 HD
ATOM     57  C   UNL A   1      46.450  30.121  27.690  1.00  0.00     0.074 A 
ATOM     58  C   UNL A   1      47.828  30.441  27.382  1.00  0.00     0.031 C 
ATOM     59  C   UNL A   1      45.551  31.009  28.179  1.00  0.00     0.037 A 
BRANCH  46  60
ATOM     60  C   UNL A   1      39.894  28.686  29.050  1.00  0.00     0.064 A 
ATOM     61  C   UNL A   1      38.932  29.100  28.117  1.00  0.00     0.173 A 
ATOM     62  C   UNL A   1      39.480  28.477  30.374  1.00  0.00     0.173 A 
ATOM     63  F   UNL A   1      39.281  29.328  26.842  1.00  0.00    -0.203 F 
ATOM     64  C   UNL A   1      37.613  29.329  28.501  1.00  0.00     0.198 A 
ATOM     65  C   UNL A   1      38.153  28.677  30.748  1.00  0.00     0.198 A 
ATOM     66  F   UNL A   1      40.359  28.076  31.303  1.00  0.00    -0.203 F 
ATOM     67  F   UNL A   1      36.723  29.776  27.604  1.00  0.00    -0.200 F 
ATOM     68  C   UNL A   1      37.224  29.111  29.815  1.00  0.00     0.200 A 
ATOM     69  F   UNL A   1      37.775  28.457  32.014  1.00  0.00    -0.200 F 
ATOM     70  F   UNL A   1      35.954  29.327  30.182  1.00  0.00    -0.200 F 
ENDBRANCH  46  60
BRANCH  47  71
ATOM     71  C   UNL A   1      49.201  26.695  26.007  1.00  0.00     0.064 A 
ATOM     72  C   UNL A   1      49.562  26.956  24.678  1.00  0.00     0.173 A 
ATOM     73  C   UNL A   1      50.180  26.164  26.857  1.00  0.00     0.173 A 
ATOM     74  F   UNL A   1      48.653  27.446  23.821  1.00  0.00    -0.203 F 
ATOM     75  C   UNL A   1      50.845  26.678  24.212  1.00  0.00     0.198 A 
ATOM     76  C   UNL A   1      51.471  25.909  26.398  1.00  0.00     0.198 A 
ATOM     77  F   UNL A   1      49.887  25.903  28.140  1.00  0.00    -0.203 F 
ATOM     78  F   UNL A   1      51.151  26.899  22.926  1.00  0.00    -0.200 F 
ATOM     79  C   UNL A   1      51.800  26.160  25.073  1.00  0.00     0.200 A 
ATOM     80  F   UNL A   1      52.394  25.420  27.235  1.00  0.00    -0.200 F 
ATOM     81  F   UNL A   1      53.035  25.896  24.626  1.00  0.00    -0.200 F 
ENDBRANCH  47  71
BRANCH  59  82
ATOM     82  C   UNL A   1      46.039  32.400  28.455  1.00  0.00     0.064 A 
ATOM     83  C   UNL A   1      45.957  33.412  27.488  1.00  0.00     0.173 A 
ATOM     84  C   UNL A   1      46.542  32.735  29.720  1.00  0.00     0.173 A 
ATOM     85  F   UNL A   1      45.497  33.136  26.258  1.00  0.00    -0.203 F 
ATOM     86  C   UNL A   1      46.378  34.708  27.774  1.00  0.00     0.198 A 
ATOM     87  C   UNL A   1      46.938  34.038  30.011  1.00  0.00     0.198 A 
ATOM     88  F   UNL A   1      46.634  31.803  30.680  1.00  0.00    -0.203 F 
ATOM     89  F   UNL A   1      46.325  35.652  26.824  1.00  0.00    -0.200 F 
ATOM     90  C   UNL A   1      46.860  35.021  29.037  1.00  0.00     0.200 A 
ATOM     91  F   UNL A   1      47.392  34.341  31.234  1.00  0.00    -0.200 F 
ATOM     92  F   UNL A   1      47.255  36.271  29.312  1.00  0.00    -0.200 F 
ENDBRANCH  59  82
ENDBRANCH  33  34
ENDBRANCH  25  28
ENDBRANCH  23  24
ENDBRANCH  22  23
ENDBRANCH  21  22
ENDBRANCH   1  21
TORSDOF 16
ENDMDL
MODEL 3
REMARK VINA RESULT:     -11.3      1.319      7.633
REMARK SMILES CSc1ncccc1C(=O)NCCCC(=O)NCCCCNC(=O)c1ccc(-c2c3nc(c(-c4c(F)c(F)c(F)c(F)c4F)c4ccc([nH]4)c(-c4c(F)c(F)c(F)c(F)c4F)c4nc(c(-c5c(F)c(F)c(F)c(F)c5F)c5ccc2[nH]5)C=C4)C=C3)cc1
REMARK SMILES IDX 18 1 17 2 15 3 16 4 14 6 13 7 12 8 11 9 9 10 10 11 8 13 3 14
REMARK SMILES IDX 4 15 5 16 7 17 6 18 2 19 1 20 19 21 20 22 21 23 22 24 23 25
REMARK SMILES IDX 24 27 25 28 26 29 87 30 27 31 86 32 28 33 29 34 30 35 80 36
REMARK SMILES IDX 31 37 85 38 79 39 81 40 32 41 84 42 78 43 77 44 33 46 65 47
REMARK SMILES IDX 45 48 64 49 46 50 49 51 63 52 82 53 47 54 48 55 62 57 83 58
REMARK SMILES IDX 50 59 34 60 35 61 43 62 36 63 37 64 41 65 44 66 38 67 39 68
REMARK SMILES IDX 42 69 40 70 66 71 67 72 75 73 68 74 69 75 73 76 76 77 70 78
REMARK SMILES IDX 71 79 74 80 72 81 51 82 52 83 60 84 53 85 54 86 58 87 61 88
REMARK SMILES IDX 55 89 56 90 59 91 57 92
REMARK H PARENT 17 5 11 12 22 26 81 45 49 56
REMARK Flexibility Score: inf
ROOT
ATOM      1  C   UNL A   1      33.460  29.853  26.690  1.00  0.00     0.116 C 
ENDROOT
BRANCH   1   2
ATOM      2  N   UNL A   1      33.700  29.628  25.277  1.00  0.00    -0.356 N 
ATOM      3  C   UNL A   1      33.538  28.502  24.530  1.00  0.00     0.220 C 
ATOM      4  O   UNL A   1      33.972  28.498  23.378  1.00  0.00    -0.275 OA
ATOM      5  H   UNL A   1      34.032  30.412  24.782  1.00  0.00     0.163 HD
BRANCH   3   6
ATOM      6  C   UNL A   1      32.818  27.293  25.093  1.00  0.00     0.102 C 
BRANCH   6   7
ATOM      7  C   UNL A   1      33.596  25.977  24.978  1.00  0.00     0.031 C 
BRANCH   7   8
ATOM      8  C   UNL A   1      32.785  24.688  25.132  1.00  0.00     0.116 C 
BRANCH   8   9
ATOM      9  N   UNL A   1      32.599  23.975  23.881  1.00  0.00    -0.352 N 
ATOM     10  C   UNL A   1      33.198  22.859  23.352  1.00  0.00     0.254 C 
ATOM     11  O   UNL A   1      32.568  22.262  22.481  1.00  0.00    -0.269 OA
ATOM     12  H   UNL A   1      31.910  24.369  23.298  1.00  0.00     0.163 HD
BRANCH  10  13
ATOM     13  C   UNL A   1      34.520  22.358  23.801  1.00  0.00     0.072 A 
ATOM     14  C   UNL A   1      34.623  21.321  24.744  1.00  0.00     0.108 A 
ATOM     15  N   UNL A   1      35.830  20.867  25.186  1.00  0.00    -0.249 NA
ATOM     16  C   UNL A   1      36.949  21.449  24.715  1.00  0.00     0.112 A 
ATOM     17  C   UNL A   1      35.706  22.954  23.355  1.00  0.00     0.018 A 
ATOM     18  C   UNL A   1      36.938  22.487  23.806  1.00  0.00     0.021 A 
BRANCH  14  19
ATOM     19  S   UNL A   1      33.205  20.447  25.414  1.00  0.00    -0.109 SA
ATOM     20  C   UNL A   1      33.012  19.103  24.214  1.00  0.00     0.092 C 
ENDBRANCH  14  19
ENDBRANCH  10  13
ENDBRANCH   8   9
ENDBRANCH   7   8
ENDBRANCH   6   7
ENDBRANCH   3   6
ENDBRANCH   1   2
BRANCH   1  21
ATOM     21  C   UNL A   1      32.023  30.325  26.918  1.00  0.00     0.023 C 
BRANCH  21  22
ATOM     22  C   UNL A   1      31.825  31.831  26.769  1.00  0.00     0.023 C 
BRANCH  22  23
ATOM     23  C   UNL A   1      32.895  32.670  27.452  1.00  0.00     0.116 C 
BRANCH  23  24
ATOM     24  N   UNL A   1      32.491  34.048  27.690  1.00  0.00    -0.352 N 
ATOM     25  C   UNL A   1      33.019  34.940  28.594  1.00  0.00     0.251 C 
ATOM     26  H   UNL A   1      31.748  34.383  27.136  1.00  0.00     0.163 HD
ATOM     27  O   UNL A   1      32.514  36.043  28.769  1.00  0.00    -0.269 OA
BRANCH  25  28
ATOM     28  C   UNL A   1      34.189  34.527  29.394  1.00  0.00     0.039 A 
ATOM     29  C   UNL A   1      33.981  33.944  30.645  1.00  0.00     0.014 A 
ATOM     30  C   UNL A   1      35.478  34.649  28.871  1.00  0.00     0.014 A 
ATOM     31  C   UNL A   1      35.066  33.407  31.341  1.00  0.00     0.010 A 
ATOM     32  C   UNL A   1      36.542  34.041  29.523  1.00  0.00     0.010 A 
ATOM     33  C   UNL A   1      36.346  33.414  30.763  1.00  0.00    -0.014 A 
BRANCH  33  34
ATOM     34  C   UNL A   1      37.507  32.782  31.438  1.00  0.00     0.031 A 
ATOM     35  C   UNL A   1      38.220  31.642  30.771  1.00  0.00     0.074 A 
ATOM     36  C   UNL A   1      37.854  33.171  32.679  1.00  0.00     0.049 A 
ATOM     37  N   UNL A   1      39.167  30.869  31.239  1.00  0.00    -0.248 NA
ATOM     38  C   UNL A   1      37.784  31.300  29.408  1.00  0.00     0.031 C 
ATOM     39  C   UNL A   1      37.203  34.229  33.451  1.00  0.00     0.029 A 
ATOM     40  N   UNL A   1      38.835  32.704  33.518  1.00  0.00    -0.354 N 
ATOM     41  C   UNL A   1      39.414  29.935  30.242  1.00  0.00     0.074 A 
ATOM     42  C   UNL A   1      38.488  30.205  29.165  1.00  0.00     0.031 C 
ATOM     43  C   UNL A   1      37.814  34.345  34.642  1.00  0.00     0.029 A 
ATOM     44  C   UNL A   1      38.874  33.346  34.732  1.00  0.00     0.049 A 
ATOM     45  H   UNL A   1      39.453  31.978  33.274  1.00  0.00     0.167 HD
ATOM     46  C   UNL A   1      40.348  28.954  30.218  1.00  0.00     0.037 A 
ATOM     47  C   UNL A   1      39.672  33.144  35.798  1.00  0.00     0.037 A 
ATOM     48  C   UNL A   1      41.299  28.720  31.271  1.00  0.00     0.049 A 
ATOM     49  C   UNL A   1      40.722  32.069  35.733  1.00  0.00     0.074 A 
ATOM     50  C   UNL A   1      42.329  27.799  31.316  1.00  0.00     0.029 A 
ATOM     51  N   UNL A   1      41.339  29.427  32.465  1.00  0.00    -0.354 N 
ATOM     52  N   UNL A   1      40.987  31.229  34.762  1.00  0.00    -0.248 NA
ATOM     53  C   UNL A   1      41.588  31.917  36.911  1.00  0.00     0.031 C 
ATOM     54  C   UNL A   1      42.976  27.926  32.549  1.00  0.00     0.029 A 
ATOM     55  C   UNL A   1      42.371  28.953  33.257  1.00  0.00     0.049 A 
ATOM     56  H   UNL A   1      40.725  30.155  32.712  1.00  0.00     0.167 HD
ATOM     57  C   UNL A   1      42.066  30.472  35.196  1.00  0.00     0.074 A 
ATOM     58  C   UNL A   1      42.413  30.956  36.517  1.00  0.00     0.031 C 
ATOM     59  C   UNL A   1      42.711  29.464  34.559  1.00  0.00     0.037 A 
BRANCH  46  60
ATOM     60  C   UNL A   1      40.388  28.069  29.008  1.00  0.00     0.064 A 
ATOM     61  C   UNL A   1      39.666  26.866  28.954  1.00  0.00     0.173 A 
ATOM     62  C   UNL A   1      41.139  28.436  27.882  1.00  0.00     0.173 A 
ATOM     63  F   UNL A   1      38.945  26.464  30.011  1.00  0.00    -0.203 F 
ATOM     64  C   UNL A   1      39.720  26.049  27.829  1.00  0.00     0.198 A 
ATOM     65  C   UNL A   1      41.166  27.630  26.747  1.00  0.00     0.198 A 
ATOM     66  F   UNL A   1      41.843  29.577  27.880  1.00  0.00    -0.203 F 
ATOM     67  F   UNL A   1      39.065  24.879  27.821  1.00  0.00    -0.200 F 
ATOM     68  C   UNL A   1      40.465  26.434  26.724  1.00  0.00     0.200 A 
ATOM     69  F   UNL A   1      41.877  28.008  25.676  1.00  0.00    -0.200 F 
ATOM     70  F   UNL A   1      40.513  25.647  25.640  1.00  0.00    -0.200 F 
ENDBRANCH  46  60
BRANCH  47  71
ATOM     71  C   UNL A   1      39.533  34.001  37.003  1.00  0.00     0.064 A 
ATOM     72  C   UNL A   1      40.170  35.248  37.072  1.00  0.00     0.173 A 
ATOM     73  C   UNL A   1      38.767  33.596  38.105  1.00  0.00     0.173 A 
ATOM     74  F   UNL A   1      40.929  35.669  36.050  1.00  0.00    -0.203 F 
ATOM     75  C   UNL A   1      40.062  36.050  38.206  1.00  0.00     0.198 A 
ATOM     76  C   UNL A   1      38.639  34.410  39.229  1.00  0.00     0.198 A 
ATOM     77  F   UNL A   1      38.132  32.415  38.085  1.00  0.00    -0.203 F 
ATOM     78  F   UNL A   1      40.715  37.219  38.261  1.00  0.00    -0.200 F 
ATOM     79  C   UNL A   1      39.293  35.633  39.282  1.00  0.00     0.200 A 
ATOM     80  F   UNL A   1      37.885  34.010  40.261  1.00  0.00    -0.200 F 
ATOM     81  F   UNL A   1      39.186  36.406  40.371  1.00  0.00    -0.200 F 
ENDBRANCH  47  71
BRANCH  59  82
ATOM     82  C   UNL A   1      43.884  28.847  35.260  1.00  0.00     0.064 A 
ATOM     83  C   UNL A   1      45.176  29.378  35.135  1.00  0.00     0.173 A 
ATOM     84  C   UNL A   1      43.702  27.746  36.110  1.00  0.00     0.173 A 
ATOM     85  F   UNL A   1      45.401  30.422  34.323  1.00  0.00    -0.203 F 
ATOM     86  C   UNL A   1      46.247  28.817  35.824  1.00  0.00     0.198 A 
ATOM     87  C   UNL A   1      44.771  27.204  36.817  1.00  0.00     0.198 A 
ATOM     88  F   UNL A   1      42.484  27.207  36.266  1.00  0.00    -0.203 F 
ATOM     89  F   UNL A   1      47.480  29.317  35.663  1.00  0.00    -0.200 F 
ATOM     90  C   UNL A   1      46.042  27.737  36.670  1.00  0.00     0.200 A 
ATOM     91  F   UNL A   1      44.570  26.168  37.642  1.00  0.00    -0.200 F 
ATOM     92  F   UNL A   1      47.074  27.205  37.340  1.00  0.00    -0.200 F 
ENDBRANCH  59  82
ENDBRANCH  33  34
ENDBRANCH  25  28
ENDBRANCH  23  24
ENDBRANCH  22  23
ENDBRANCH  21  22
ENDBRANCH   1  21
TORSDOF 16
ENDMDL
