MODEL 1
REMARK VINA RESULT:     -12.0      0.000      0.000
REMARK SMILES CNC(=O)C[N@@H+]1CC[C@@H](C(=O)NCCCCNC(=O)c2ccc(-c3c4nc(c(-c5c(F)c(F)c(F)c(F)c5F)c5ccc([nH]5)c(-c5c(F)c(F)c(F)c(F)c5F)c5nc(c(-c6c(F)c(F)c(F)c(F)c6F)c6ccc3[nH]6)C=C5)C=C4)cc2)[C@H]1C
REMARK SMILES IDX 14 1 13 2 12 3 10 4 11 5 9 7 6 8 7 9 83 10 8 12 84 13 5 14
REMARK SMILES IDX 3 15 1 16 2 17 4 19 15 20 16 21 17 22 18 23 19 25 20 26
REMARK SMILES IDX 21 27 82 28 22 29 81 30 23 31 24 32 25 33 75 34 26 35 80 36
REMARK SMILES IDX 74 37 76 38 27 39 79 40 73 41 72 42 28 44 60 45 40 46 59 47
REMARK SMILES IDX 41 48 44 49 58 50 77 51 42 52 43 53 57 55 78 56 45 57 29 58
REMARK SMILES IDX 30 59 38 60 31 61 32 62 36 63 39 64 33 65 34 66 37 67 35 68
REMARK SMILES IDX 61 69 62 70 70 71 63 72 64 73 68 74 71 75 65 76 66 77 69 78
REMARK SMILES IDX 67 79 46 80 47 81 55 82 48 83 49 84 53 85 56 86 50 87 51 88
REMARK SMILES IDX 54 89 52 90
REMARK H PARENT 12 6 6 11 2 18 17 24 76 43 44 54
REMARK Flexibility Score: inf
ROOT
ATOM      1  C   UNL A   1      32.031  30.290  26.956  1.00  0.00     0.023 C 
ENDROOT
BRANCH   1   2
ATOM      2  C   UNL A   1      33.480  29.833  26.768  1.00  0.00     0.116 C 
BRANCH   2   3
ATOM      3  N   UNL A   1      33.716  29.365  25.420  1.00  0.00    -0.356 N 
ATOM      4  C   UNL A   1      33.721  28.111  24.898  1.00  0.00     0.229 C 
ATOM      5  O   UNL A   1      34.008  28.021  23.699  1.00  0.00    -0.275 OA
ATOM      6  H   UNL A   1      33.904  30.079  24.768  1.00  0.00     0.163 HD
BRANCH   4   7
ATOM      7  C   UNL A   1      33.355  26.850  25.677  1.00  0.00     0.142 C 
ATOM      8  N   UNL A   1      32.166  24.971  24.878  1.00  0.00    -0.324 N 
ATOM      9  C   UNL A   1      33.397  24.446  25.475  1.00  0.00     0.263 C 
ATOM     10  C   UNL A   1      31.942  26.250  25.588  1.00  0.00     0.194 C 
ATOM     11  H   UNL A   1      32.260  25.102  23.871  1.00  0.00     0.348 HD
ATOM     12  C   UNL A   1      34.300  25.670  25.421  1.00  0.00     0.081 C 
ATOM     13  C   UNL A   1      30.830  27.111  25.011  1.00  0.00     0.076 C 
BRANCH   8  14
ATOM     14  C   UNL A   1      31.022  24.048  24.952  1.00  0.00     0.363 C 
BRANCH  14  15
ATOM     15  C   UNL A   1      31.012  23.176  26.217  1.00  0.00     0.274 C 
ATOM     16  C   UNL A   1      31.946  21.125  25.072  1.00  0.00     0.143 C 
ATOM     17  N   UNL A   1      31.404  21.869  26.180  1.00  0.00    -0.354 N 
ATOM     18  H   UNL A   1      31.300  21.368  27.021  1.00  0.00     0.163 HD
ATOM     19  O   UNL A   1      30.595  23.625  27.289  1.00  0.00    -0.269 OA
ENDBRANCH  14  15
ENDBRANCH   8  14
ENDBRANCH   4   7
ENDBRANCH   2   3
ENDBRANCH   1   2
BRANCH   1  20
ATOM     20  C   UNL A   1      31.792  31.786  26.793  1.00  0.00     0.023 C 
BRANCH  20  21
ATOM     21  C   UNL A   1      32.901  32.683  27.324  1.00  0.00     0.116 C 
BRANCH  21  22
ATOM     22  N   UNL A   1      32.467  34.035  27.652  1.00  0.00    -0.352 N 
ATOM     23  C   UNL A   1      32.986  34.913  28.577  1.00  0.00     0.251 C 
ATOM     24  H   UNL A   1      31.695  34.367  27.140  1.00  0.00     0.163 HD
ATOM     25  O   UNL A   1      32.455  35.999  28.765  1.00  0.00    -0.269 OA
BRANCH  23  26
ATOM     26  C   UNL A   1      34.159  34.509  29.385  1.00  0.00     0.039 A 
ATOM     27  C   UNL A   1      33.948  34.003  30.669  1.00  0.00     0.014 A 
ATOM     28  C   UNL A   1      35.449  34.562  28.854  1.00  0.00     0.014 A 
ATOM     29  C   UNL A   1      35.019  33.462  31.382  1.00  0.00     0.010 A 
ATOM     30  C   UNL A   1      36.495  33.937  29.524  1.00  0.00     0.010 A 
ATOM     31  C   UNL A   1      36.291  33.376  30.792  1.00  0.00    -0.014 A 
BRANCH  31  32
ATOM     32  C   UNL A   1      37.408  32.678  31.479  1.00  0.00     0.031 A 
ATOM     33  C   UNL A   1      38.111  31.526  30.814  1.00  0.00     0.074 A 
ATOM     34  C   UNL A   1      37.739  33.032  32.736  1.00  0.00     0.049 A 
ATOM     35  N   UNL A   1      39.087  30.780  31.267  1.00  0.00    -0.248 NA
ATOM     36  C   UNL A   1      37.627  31.136  29.482  1.00  0.00     0.031 C 
ATOM     37  C   UNL A   1      37.073  34.069  33.526  1.00  0.00     0.029 A 
ATOM     38  N   UNL A   1      38.717  32.554  33.574  1.00  0.00    -0.354 N 
ATOM     39  C   UNL A   1      39.316  29.824  30.287  1.00  0.00     0.074 A 
ATOM     40  C   UNL A   1      38.339  30.045  29.243  1.00  0.00     0.031 C 
ATOM     41  C   UNL A   1      37.684  34.174  34.718  1.00  0.00     0.029 A 
ATOM     42  C   UNL A   1      38.766  33.198  34.785  1.00  0.00     0.049 A 
ATOM     43  H   UNL A   1      39.324  31.819  33.329  1.00  0.00     0.167 HD
ATOM     44  C   UNL A   1      40.273  28.866  30.246  1.00  0.00     0.037 A 
ATOM     45  C   UNL A   1      39.601  33.030  35.829  1.00  0.00     0.037 A 
ATOM     46  C   UNL A   1      41.269  28.676  31.267  1.00  0.00     0.049 A 
ATOM     47  C   UNL A   1      40.700  32.008  35.732  1.00  0.00     0.074 A 
ATOM     48  C   UNL A   1      42.333  27.790  31.282  1.00  0.00     0.029 A 
ATOM     49  N   UNL A   1      41.327  29.391  32.454  1.00  0.00    -0.354 N 
ATOM     50  N   UNL A   1      40.967  31.173  34.758  1.00  0.00    -0.248 NA
ATOM     51  C   UNL A   1      41.622  31.920  36.870  1.00  0.00     0.031 C 
ATOM     52  C   UNL A   1      43.014  27.946  32.495  1.00  0.00     0.029 A 
ATOM     53  C   UNL A   1      42.401  28.957  33.216  1.00  0.00     0.049 A 
ATOM     54  H   UNL A   1      40.698  30.101  32.717  1.00  0.00     0.167 HD
ATOM     55  C   UNL A   1      42.101  30.478  35.152  1.00  0.00     0.074 A 
ATOM     56  C   UNL A   1      42.481  31.001  36.449  1.00  0.00     0.031 C 
ATOM     57  C   UNL A   1      42.769  29.494  34.500  1.00  0.00     0.037 A 
BRANCH  44  58
ATOM     58  C   UNL A   1      40.291  27.960  29.050  1.00  0.00     0.064 A 
ATOM     59  C   UNL A   1      41.029  28.279  27.899  1.00  0.00     0.173 A 
ATOM     60  C   UNL A   1      39.576  26.754  29.057  1.00  0.00     0.173 A 
ATOM     61  F   UNL A   1      41.720  29.427  27.837  1.00  0.00    -0.203 F 
ATOM     62  C   UNL A   1      41.022  27.440  26.788  1.00  0.00     0.198 A 
ATOM     63  C   UNL A   1      39.595  25.903  27.955  1.00  0.00     0.198 A 
ATOM     64  F   UNL A   1      38.856  26.400  30.132  1.00  0.00    -0.203 F 
ATOM     65  F   UNL A   1      41.688  27.793  25.681  1.00  0.00    -0.200 F 
ATOM     66  C   UNL A   1      40.310  26.251  26.819  1.00  0.00     0.200 A 
ATOM     67  F   UNL A   1      38.915  24.749  27.990  1.00  0.00    -0.200 F 
ATOM     68  F   UNL A   1      40.305  25.445  25.748  1.00  0.00    -0.200 F 
ENDBRANCH  44  58
BRANCH  45  69
ATOM     69  C   UNL A   1      39.466  33.896  37.028  1.00  0.00     0.064 A 
ATOM     70  C   UNL A   1      40.042  35.174  37.056  1.00  0.00     0.173 A 
ATOM     71  C   UNL A   1      38.751  33.477  38.157  1.00  0.00     0.173 A 
ATOM     72  F   UNL A   1      40.751  35.612  36.005  1.00  0.00    -0.203 F 
ATOM     73  C   UNL A   1      39.921  35.994  38.176  1.00  0.00     0.198 A 
ATOM     74  C   UNL A   1      38.610  34.306  39.267  1.00  0.00     0.198 A 
ATOM     75  F   UNL A   1      38.174  32.266  38.175  1.00  0.00    -0.203 F 
ATOM     76  F   UNL A   1      40.512  37.196  38.190  1.00  0.00    -0.200 F 
ATOM     77  C   UNL A   1      39.200  35.562  39.279  1.00  0.00     0.200 A 
ATOM     78  F   UNL A   1      37.901  33.891  40.326  1.00  0.00    -0.200 F 
ATOM     79  F   UNL A   1      39.078  36.352  40.353  1.00  0.00    -0.200 F 
ENDBRANCH  45  69
BRANCH  57  80
ATOM     80  C   UNL A   1      43.996  28.944  35.163  1.00  0.00     0.064 A 
ATOM     81  C   UNL A   1      43.931  27.848  36.035  1.00  0.00     0.173 A 
ATOM     82  C   UNL A   1      45.256  29.501  34.896  1.00  0.00     0.173 A 
ATOM     83  F   UNL A   1      42.748  27.291  36.333  1.00  0.00    -0.203 F 
ATOM     84  C   UNL A   1      45.081  27.347  36.639  1.00  0.00     0.198 A 
ATOM     85  C   UNL A   1      46.407  28.980  35.480  1.00  0.00     0.198 A 
ATOM     86  F   UNL A   1      45.371  30.546  34.062  1.00  0.00    -0.203 F 
ATOM     87  F   UNL A   1      44.991  26.330  37.507  1.00  0.00    -0.200 F 
ATOM     88  C   UNL A   1      46.318  27.909  36.356  1.00  0.00     0.200 A 
ATOM     89  F   UNL A   1      47.602  29.516  35.197  1.00  0.00    -0.200 F 
ATOM     90  F   UNL A   1      47.424  27.422  36.936  1.00  0.00    -0.200 F 
ENDBRANCH  57  80
ENDBRANCH  31  32
ENDBRANCH  23  26
ENDBRANCH  21  22
ENDBRANCH  20  21
ENDBRANCH   1  20
TORSDOF 13
ENDMDL
MODEL 2
REMARK VINA RESULT:     -11.9      0.644      7.545
REMARK SMILES CNC(=O)C[N@@H+]1CC[C@@H](C(=O)NCCCCNC(=O)c2ccc(-c3c4nc(c(-c5c(F)c(F)c(F)c(F)c5F)c5ccc([nH]5)c(-c5c(F)c(F)c(F)c(F)c5F)c5nc(c(-c6c(F)c(F)c(F)c(F)c6F)c6ccc3[nH]6)C=C5)C=C4)cc2)[C@H]1C
REMARK SMILES IDX 14 1 13 2 12 3 10 4 11 5 9 7 6 8 7 9 83 10 8 12 84 13 5 14
REMARK SMILES IDX 3 15 1 16 2 17 4 19 15 20 16 21 17 22 18 23 19 25 20 26
REMARK SMILES IDX 21 27 82 28 22 29 81 30 23 31 24 32 25 33 75 34 26 35 80 36
REMARK SMILES IDX 74 37 76 38 27 39 79 40 73 41 72 42 28 44 60 45 40 46 59 47
REMARK SMILES IDX 41 48 44 49 58 50 77 51 42 52 43 53 57 55 78 56 45 57 29 58
REMARK SMILES IDX 30 59 38 60 31 61 32 62 36 63 39 64 33 65 34 66 37 67 35 68
REMARK SMILES IDX 61 69 62 70 70 71 63 72 64 73 68 74 71 75 65 76 66 77 69 78
REMARK SMILES IDX 67 79 46 80 47 81 55 82 48 83 49 84 53 85 56 86 50 87 51 88
REMARK SMILES IDX 54 89 52 90
REMARK H PARENT 12 6 6 11 2 18 17 24 76 43 44 54
REMARK Flexibility Score: inf
ROOT
ATOM      1  C   UNL A   1      31.701  30.577  26.552  1.00  0.00     0.023 C 
ENDROOT
BRANCH   1   2
ATOM      2  C   UNL A   1      33.111  29.983  26.592  1.00  0.00     0.116 C 
BRANCH   2   3
ATOM      3  N   UNL A   1      33.508  29.476  25.297  1.00  0.00    -0.356 N 
ATOM      4  C   UNL A   1      33.651  28.204  24.843  1.00  0.00     0.229 C 
ATOM      5  O   UNL A   1      34.058  28.082  23.682  1.00  0.00    -0.275 OA
ATOM      6  H   UNL A   1      33.709  30.172  24.630  1.00  0.00     0.163 HD
BRANCH   4   7
ATOM      7  C   UNL A   1      33.300  26.955  25.647  1.00  0.00     0.142 C 
ATOM      8  N   UNL A   1      32.182  25.023  24.872  1.00  0.00    -0.324 N 
ATOM      9  C   UNL A   1      33.411  24.548  25.513  1.00  0.00     0.263 C 
ATOM     10  C   UNL A   1      31.906  26.313  25.541  1.00  0.00     0.194 C 
ATOM     11  H   UNL A   1      32.297  25.129  23.864  1.00  0.00     0.348 HD
ATOM     12  C   UNL A   1      34.283  25.795  25.446  1.00  0.00     0.081 C 
ATOM     13  C   UNL A   1      30.786  27.128  24.914  1.00  0.00     0.076 C 
BRANCH   8  14
ATOM     14  C   UNL A   1      31.061  24.070  24.944  1.00  0.00     0.363 C 
BRANCH  14  15
ATOM     15  C   UNL A   1      31.067  23.205  26.214  1.00  0.00     0.274 C 
ATOM     16  C   UNL A   1      31.994  21.150  25.071  1.00  0.00     0.143 C 
ATOM     17  N   UNL A   1      31.461  21.899  26.180  1.00  0.00    -0.354 N 
ATOM     18  H   UNL A   1      31.367  21.402  27.024  1.00  0.00     0.163 HD
ATOM     19  O   UNL A   1      30.660  23.659  27.288  1.00  0.00    -0.269 OA
ENDBRANCH  14  15
ENDBRANCH   8  14
ENDBRANCH   4   7
ENDBRANCH   2   3
ENDBRANCH   1   2
BRANCH   1  20
ATOM     20  C   UNL A   1      31.634  32.100  26.540  1.00  0.00     0.023 C 
BRANCH  20  21
ATOM     21  C   UNL A   1      32.669  32.803  27.407  1.00  0.00     0.116 C 
BRANCH  21  22
ATOM     22  N   UNL A   1      32.319  34.173  27.757  1.00  0.00    -0.352 N 
ATOM     23  C   UNL A   1      32.934  35.025  28.648  1.00  0.00     0.251 C 
ATOM     24  H   UNL A   1      31.534  34.542  27.292  1.00  0.00     0.163 HD
ATOM     25  O   UNL A   1      32.466  36.135  28.864  1.00  0.00    -0.269 OA
BRANCH  23  26
ATOM     26  C   UNL A   1      34.132  34.566  29.385  1.00  0.00     0.039 A 
ATOM     27  C   UNL A   1      33.964  33.974  30.639  1.00  0.00     0.014 A 
ATOM     28  C   UNL A   1      35.403  34.655  28.815  1.00  0.00     0.014 A 
ATOM     29  C   UNL A   1      35.057  33.385  31.275  1.00  0.00     0.010 A 
ATOM     30  C   UNL A   1      36.470  33.984  29.403  1.00  0.00     0.010 A 
ATOM     31  C   UNL A   1      36.308  33.338  30.637  1.00  0.00    -0.014 A 
BRANCH  31  32
ATOM     32  C   UNL A   1      37.446  32.594  31.235  1.00  0.00     0.031 A 
ATOM     33  C   UNL A   1      37.951  32.948  32.606  1.00  0.00     0.074 A 
ATOM     34  C   UNL A   1      38.076  31.650  30.510  1.00  0.00     0.049 A 
ATOM     35  N   UNL A   1      38.947  32.429  33.281  1.00  0.00    -0.248 NA
ATOM     36  C   UNL A   1      37.274  34.056  33.296  1.00  0.00     0.031 C 
ATOM     37  C   UNL A   1      37.745  31.279  29.132  1.00  0.00     0.029 A 
ATOM     38  N   UNL A   1      39.133  30.833  30.827  1.00  0.00    -0.354 N 
ATOM     39  C   UNL A   1      39.026  33.161  34.458  1.00  0.00     0.074 A 
ATOM     40  C   UNL A   1      38.020  34.197  34.380  1.00  0.00     0.031 C 
ATOM     41  C   UNL A   1      38.556  30.284  28.737  1.00  0.00     0.029 A 
ATOM     42  C   UNL A   1      39.479  29.963  29.821  1.00  0.00     0.049 A 
ATOM     43  H   UNL A   1      39.599  30.866  31.693  1.00  0.00     0.167 HD
ATOM     44  C   UNL A   1      39.845  32.969  35.519  1.00  0.00     0.037 A 
ATOM     45  C   UNL A   1      40.424  29.006  29.782  1.00  0.00     0.037 A 
ATOM     46  C   UNL A   1      40.817  31.911  35.610  1.00  0.00     0.049 A 
ATOM     47  C   UNL A   1      41.274  28.765  31.000  1.00  0.00     0.074 A 
ATOM     48  C   UNL A   1      41.636  31.580  36.675  1.00  0.00     0.029 A 
ATOM     49  N   UNL A   1      41.095  31.009  34.594  1.00  0.00    -0.354 N 
ATOM     50  N   UNL A   1      41.275  29.401  32.145  1.00  0.00    -0.248 NA
ATOM     51  C   UNL A   1      42.239  27.661  30.924  1.00  0.00     0.031 C 
ATOM     52  C   UNL A   1      42.435  30.496  36.290  1.00  0.00     0.029 A 
ATOM     53  C   UNL A   1      42.083  30.127  35.002  1.00  0.00     0.049 A 
ATOM     54  H   UNL A   1      40.656  30.997  33.713  1.00  0.00     0.167 HD
ATOM     55  C   UNL A   1      42.219  28.762  32.936  1.00  0.00     0.074 A 
ATOM     56  C   UNL A   1      42.760  27.676  32.144  1.00  0.00     0.031 C 
ATOM     57  C   UNL A   1      42.604  29.048  34.204  1.00  0.00     0.037 A 
BRANCH  44  58
ATOM     58  C   UNL A   1      39.711  33.919  36.673  1.00  0.00     0.064 A 
ATOM     59  C   UNL A   1      40.365  35.161  36.682  1.00  0.00     0.173 A 
ATOM     60  C   UNL A   1      38.911  33.591  37.778  1.00  0.00     0.173 A 
ATOM     61  F   UNL A   1      41.153  35.516  35.656  1.00  0.00    -0.203 F 
ATOM     62  C   UNL A   1      40.249  36.025  37.767  1.00  0.00     0.198 A 
ATOM     63  C   UNL A   1      38.773  34.471  38.849  1.00  0.00     0.198 A 
ATOM     64  F   UNL A   1      38.262  32.418  37.819  1.00  0.00    -0.203 F 
ATOM     65  F   UNL A   1      40.928  37.179  37.778  1.00  0.00    -0.200 F 
ATOM     66  C   UNL A   1      39.449  35.682  38.848  1.00  0.00     0.200 A 
ATOM     67  F   UNL A   1      37.992  34.143  39.887  1.00  0.00    -0.200 F 
ATOM     68  F   UNL A   1      39.339  36.514  39.891  1.00  0.00    -0.200 F 
ENDBRANCH  44  58
BRANCH  45  69
ATOM     69  C   UNL A   1      40.571  28.162  28.568  1.00  0.00     0.064 A 
ATOM     70  C   UNL A   1      41.389  28.573  27.507  1.00  0.00     0.173 A 
ATOM     71  C   UNL A   1      39.914  26.931  28.450  1.00  0.00     0.173 A 
ATOM     72  F   UNL A   1      42.024  29.752  27.568  1.00  0.00    -0.203 F 
ATOM     73  C   UNL A   1      41.533  27.788  26.365  1.00  0.00     0.198 A 
ATOM     74  C   UNL A   1      40.077  26.136  27.318  1.00  0.00     0.198 A 
ATOM     75  F   UNL A   1      39.126  26.491  29.442  1.00  0.00    -0.203 F 
ATOM     76  F   UNL A   1      42.294  28.220  25.350  1.00  0.00    -0.200 F 
ATOM     77  C   UNL A   1      40.881  26.567  26.273  1.00  0.00     0.200 A 
ATOM     78  F   UNL A   1      39.457  24.950  27.238  1.00  0.00    -0.200 F 
ATOM     79  F   UNL A   1      41.025  25.810  25.177  1.00  0.00    -0.200 F 
ENDBRANCH  45  69
BRANCH  57  80
ATOM     80  C   UNL A   1      43.636  28.153  34.824  1.00  0.00     0.064 A 
ATOM     81  C   UNL A   1      45.004  28.450  34.753  1.00  0.00     0.173 A 
ATOM     82  C   UNL A   1      43.246  27.003  35.526  1.00  0.00     0.173 A 
ATOM     83  F   UNL A   1      45.427  29.531  34.080  1.00  0.00    -0.203 F 
ATOM     84  C   UNL A   1      45.948  27.611  35.338  1.00  0.00     0.198 A 
ATOM     85  C   UNL A   1      44.191  26.181  36.134  1.00  0.00     0.198 A 
ATOM     86  F   UNL A   1      41.948  26.681  35.629  1.00  0.00    -0.203 F 
ATOM     87  F   UNL A   1      47.254  27.887  35.216  1.00  0.00    -0.200 F 
ATOM     88  C   UNL A   1      45.541  26.481  36.032  1.00  0.00     0.200 A 
ATOM     89  F   UNL A   1      43.795  25.096  36.814  1.00  0.00    -0.200 F 
ATOM     90  F   UNL A   1      46.451  25.677  36.598  1.00  0.00    -0.200 F 
ENDBRANCH  57  80
ENDBRANCH  31  32
ENDBRANCH  23  26
ENDBRANCH  21  22
ENDBRANCH  20  21
ENDBRANCH   1  20
TORSDOF 13
ENDMDL
MODEL 3
REMARK VINA RESULT:     -11.7      0.870      7.572
REMARK SMILES CNC(=O)C[N@@H+]1CC[C@@H](C(=O)NCCCCNC(=O)c2ccc(-c3c4nc(c(-c5c(F)c(F)c(F)c(F)c5F)c5ccc([nH]5)c(-c5c(F)c(F)c(F)c(F)c5F)c5nc(c(-c6c(F)c(F)c(F)c(F)c6F)c6ccc3[nH]6)C=C5)C=C4)cc2)[C@H]1C
REMARK SMILES IDX 14 1 13 2 12 3 10 4 11 5 9 7 6 8 7 9 83 10 8 12 84 13 5 14
REMARK SMILES IDX 3 15 1 16 2 17 4 19 15 20 16 21 17 22 18 23 19 25 20 26
REMARK SMILES IDX 21 27 82 28 22 29 81 30 23 31 24 32 25 33 75 34 26 35 80 36
REMARK SMILES IDX 74 37 76 38 27 39 79 40 73 41 72 42 28 44 60 45 40 46 59 47
REMARK SMILES IDX 41 48 44 49 58 50 77 51 42 52 43 53 57 55 78 56 45 57 29 58
REMARK SMILES IDX 30 59 38 60 31 61 32 62 36 63 39 64 33 65 34 66 37 67 35 68
REMARK SMILES IDX 61 69 62 70 70 71 63 72 64 73 68 74 71 75 65 76 66 77 69 78
REMARK SMILES IDX 67 79 46 80 47 81 55 82 48 83 49 84 53 85 56 86 50 87 51 88
REMARK SMILES IDX 54 89 52 90
REMARK H PARENT 12 6 6 11 2 18 17 24 76 43 44 54
REMARK Flexibility Score: inf
ROOT
ATOM      1  C   UNL A   1      31.873  30.488  26.749  1.00  0.00     0.023 C 
ENDROOT
BRANCH   1   2
ATOM      2  C   UNL A   1      32.863  30.088  25.653  1.00  0.00     0.116 C 
BRANCH   2   3
ATOM      3  N   UNL A   1      32.204  29.379  24.579  1.00  0.00    -0.356 N 
ATOM      4  C   UNL A   1      32.357  28.108  24.124  1.00  0.00     0.229 C 
ATOM      5  O   UNL A   1      31.675  27.796  23.141  1.00  0.00    -0.275 OA
ATOM      6  H   UNL A   1      31.529  29.907  24.095  1.00  0.00     0.163 HD
BRANCH   4   7
ATOM      7  C   UNL A   1      33.261  27.061  24.770  1.00  0.00     0.142 C 
ATOM      8  N   UNL A   1      32.637  24.920  25.549  1.00  0.00    -0.324 N 
ATOM      9  C   UNL A   1      33.779  24.708  24.655  1.00  0.00     0.263 C 
ATOM     10  C   UNL A   1      32.816  26.306  26.034  1.00  0.00     0.194 C 
ATOM     11  H   UNL A   1      31.749  24.793  25.064  1.00  0.00     0.348 HD
ATOM     12  C   UNL A   1      33.728  25.967  23.802  1.00  0.00     0.081 C 
ATOM     13  C   UNL A   1      31.642  26.859  26.825  1.00  0.00     0.076 C 
BRANCH   8  14
ATOM     14  C   UNL A   1      32.530  23.926  26.631  1.00  0.00     0.363 C 
BRANCH  14  15
ATOM     15  C   UNL A   1      31.196  23.163  26.637  1.00  0.00     0.274 C 
ATOM     16  C   UNL A   1      32.018  21.283  25.161  1.00  0.00     0.143 C 
ATOM     17  N   UNL A   1      31.036  22.010  25.924  1.00  0.00    -0.354 N 
ATOM     18  H   UNL A   1      30.130  21.626  25.930  1.00  0.00     0.163 HD
ATOM     19  O   UNL A   1      30.218  23.607  27.245  1.00  0.00    -0.269 OA
ENDBRANCH  14  15
ENDBRANCH   8  14
ENDBRANCH   4   7
ENDBRANCH   2   3
ENDBRANCH   1   2
BRANCH   1  20
ATOM     20  C   UNL A   1      31.590  31.982  26.860  1.00  0.00     0.023 C 
BRANCH  20  21
ATOM     21  C   UNL A   1      32.759  32.832  27.334  1.00  0.00     0.116 C 
BRANCH  21  22
ATOM     22  N   UNL A   1      32.391  34.188  27.720  1.00  0.00    -0.352 N 
ATOM     23  C   UNL A   1      32.986  35.020  28.642  1.00  0.00     0.251 C 
ATOM     24  H   UNL A   1      31.609  34.562  27.255  1.00  0.00     0.163 HD
ATOM     25  O   UNL A   1      32.504  36.119  28.885  1.00  0.00    -0.269 OA
BRANCH  23  26
ATOM     26  C   UNL A   1      34.180  34.552  29.381  1.00  0.00     0.039 A 
ATOM     27  C   UNL A   1      34.003  33.931  30.619  1.00  0.00     0.014 A 
ATOM     28  C   UNL A   1      35.456  34.660  28.826  1.00  0.00     0.014 A 
ATOM     29  C   UNL A   1      35.094  33.333  31.254  1.00  0.00     0.010 A 
ATOM     30  C   UNL A   1      36.521  33.983  29.410  1.00  0.00     0.010 A 
ATOM     31  C   UNL A   1      36.351  33.309  30.627  1.00  0.00    -0.014 A 
BRANCH  31  32
ATOM     32  C   UNL A   1      37.487  32.558  31.219  1.00  0.00     0.031 A 
ATOM     33  C   UNL A   1      37.992  32.900  32.594  1.00  0.00     0.074 A 
ATOM     34  C   UNL A   1      38.117  31.619  30.487  1.00  0.00     0.049 A 
ATOM     35  N   UNL A   1      38.986  32.374  33.265  1.00  0.00    -0.248 NA
ATOM     36  C   UNL A   1      37.316  34.003  33.293  1.00  0.00     0.031 C 
ATOM     37  C   UNL A   1      37.786  31.260  29.106  1.00  0.00     0.029 A 
ATOM     38  N   UNL A   1      39.173  30.798  30.798  1.00  0.00    -0.354 N 
ATOM     39  C   UNL A   1      39.066  33.096  34.448  1.00  0.00     0.074 A 
ATOM     40  C   UNL A   1      38.061  34.134  34.379  1.00  0.00     0.031 C 
ATOM     41  C   UNL A   1      38.596  30.267  28.703  1.00  0.00     0.029 A 
ATOM     42  C   UNL A   1      39.518  29.937  29.785  1.00  0.00     0.049 A 
ATOM     43  H   UNL A   1      39.638  30.824  31.665  1.00  0.00     0.167 HD
ATOM     44  C   UNL A   1      39.883  32.894  35.509  1.00  0.00     0.037 A 
ATOM     45  C   UNL A   1      40.463  28.979  29.739  1.00  0.00     0.037 A 
ATOM     46  C   UNL A   1      40.854  31.834  35.592  1.00  0.00     0.049 A 
ATOM     47  C   UNL A   1      41.310  28.726  30.955  1.00  0.00     0.074 A 
ATOM     48  C   UNL A   1      41.672  31.493  36.655  1.00  0.00     0.029 A 
ATOM     49  N   UNL A   1      41.132  30.940  34.568  1.00  0.00    -0.354 N 
ATOM     50  N   UNL A   1      41.312  29.353  32.106  1.00  0.00    -0.248 NA
ATOM     51  C   UNL A   1      42.274  27.621  30.871  1.00  0.00     0.031 C 
ATOM     52  C   UNL A   1      42.470  30.412  36.261  1.00  0.00     0.029 A 
ATOM     53  C   UNL A   1      42.119  30.054  34.970  1.00  0.00     0.049 A 
ATOM     54  H   UNL A   1      40.694  30.936  33.687  1.00  0.00     0.167 HD
ATOM     55  C   UNL A   1      42.254  28.706  32.892  1.00  0.00     0.074 A 
ATOM     56  C   UNL A   1      42.794  27.626  32.091  1.00  0.00     0.031 C 
ATOM     57  C   UNL A   1      42.638  28.980  34.163  1.00  0.00     0.037 A 
BRANCH  44  58
ATOM     58  C   UNL A   1      39.750  33.834  36.671  1.00  0.00     0.064 A 
ATOM     59  C   UNL A   1      38.939  33.527  37.775  1.00  0.00     0.173 A 
ATOM     60  C   UNL A   1      40.450  35.050  36.689  1.00  0.00     0.173 A 
ATOM     61  F   UNL A   1      38.238  32.384  37.800  1.00  0.00    -0.203 F 
ATOM     62  C   UNL A   1      38.808  34.417  38.837  1.00  0.00     0.198 A 
ATOM     63  C   UNL A   1      40.339  35.924  37.768  1.00  0.00     0.198 A 
ATOM     64  F   UNL A   1      41.241  35.391  35.661  1.00  0.00    -0.203 F 
ATOM     65  F   UNL A   1      37.984  34.127  39.853  1.00  0.00    -0.200 F 
ATOM     66  C   UNL A   1      39.512  35.612  38.836  1.00  0.00     0.200 A 
ATOM     67  F   UNL A   1      41.029  37.073  37.770  1.00  0.00    -0.200 F 
ATOM     68  F   UNL A   1      39.384  36.467  39.860  1.00  0.00    -0.200 F 
ENDBRANCH  44  58
BRANCH  45  69
ATOM     69  C   UNL A   1      40.609  28.145  28.519  1.00  0.00     0.064 A 
ATOM     70  C   UNL A   1      41.421  28.568  27.457  1.00  0.00     0.173 A 
ATOM     71  C   UNL A   1      39.958  26.911  28.393  1.00  0.00     0.173 A 
ATOM     72  F   UNL A   1      42.050  29.750  27.525  1.00  0.00    -0.203 F 
ATOM     73  C   UNL A   1      41.565  27.793  26.308  1.00  0.00     0.198 A 
ATOM     74  C   UNL A   1      40.121  26.126  27.254  1.00  0.00     0.198 A 
ATOM     75  F   UNL A   1      39.177  26.459  29.385  1.00  0.00    -0.203 F 
ATOM     76  F   UNL A   1      42.319  28.237  25.294  1.00  0.00    -0.200 F 
ATOM     77  C   UNL A   1      40.919  26.569  26.210  1.00  0.00     0.200 A 
ATOM     78  F   UNL A   1      39.507  24.937  27.168  1.00  0.00    -0.200 F 
ATOM     79  F   UNL A   1      41.063  25.821  25.108  1.00  0.00    -0.200 F 
ENDBRANCH  45  69
BRANCH  57  80
ATOM     80  C   UNL A   1      43.668  28.079  34.776  1.00  0.00     0.064 A 
ATOM     81  C   UNL A   1      43.312  26.879  35.408  1.00  0.00     0.173 A 
ATOM     82  C   UNL A   1      45.031  28.406  34.700  1.00  0.00     0.173 A 
ATOM     83  F   UNL A   1      42.021  26.531  35.519  1.00  0.00    -0.203 F 
ATOM     84  C   UNL A   1      44.282  26.052  35.968  1.00  0.00     0.198 A 
ATOM     85  C   UNL A   1      46.000  27.563  35.237  1.00  0.00     0.198 A 
ATOM     86  F   UNL A   1      45.422  29.539  34.099  1.00  0.00    -0.203 F 
ATOM     87  F   UNL A   1      43.916  24.934  36.611  1.00  0.00    -0.200 F 
ATOM     88  C   UNL A   1      45.624  26.391  35.877  1.00  0.00     0.200 A 
ATOM     89  F   UNL A   1      47.296  27.886  35.138  1.00  0.00    -0.200 F 
ATOM     90  F   UNL A   1      46.556  25.591  36.413  1.00  0.00    -0.200 F 
ENDBRANCH  57  80
ENDBRANCH  31  32
ENDBRANCH  23  26
ENDBRANCH  21  22
ENDBRANCH  20  21
ENDBRANCH   1  20
TORSDOF 13
ENDMDL
