MODEL 1
REMARK VINA RESULT:     -13.2      0.000      0.000
REMARK SMILES Cc1ccccc1CSCC(=O)Nc1ccc(C)c(C(=O)NCCCCNC(=O)c2ccc(-c3c4nc(c(-c5c(F)c(F)c(F)c(F)c5F)c5ccc([nH]5)c(-c5c(F)c(F)c(F)c(F)c5F)c5nc(c(-c6c(F)c(F)c(F)c(F)c6F)c6ccc3[nH]6)C=C5)C=C4)cc2)c1
REMARK SMILES IDX 23 1 22 2 20 3 21 4 19 6 14 7 15 8 93 9 16 10 17 11 18 12
REMARK SMILES IDX 13 13 11 14 12 15 10 17 9 18 8 19 7 20 1 21 2 22 3 23 4 24
REMARK SMILES IDX 6 25 5 26 24 27 25 28 26 29 27 30 28 31 29 33 30 34 31 35
REMARK SMILES IDX 92 36 32 37 91 38 33 39 34 40 35 41 85 42 36 43 90 44 84 45
REMARK SMILES IDX 86 46 37 47 89 48 83 49 82 50 38 52 70 53 50 54 69 55 51 56
REMARK SMILES IDX 54 57 68 58 87 59 52 60 53 61 67 63 88 64 55 65 39 66 40 67
REMARK SMILES IDX 48 68 41 69 42 70 46 71 49 72 43 73 44 74 47 75 45 76 71 77
REMARK SMILES IDX 72 78 80 79 73 80 74 81 78 82 81 83 75 84 76 85 79 86 77 87
REMARK SMILES IDX 56 88 57 89 65 90 58 91 59 92 63 93 66 94 60 95 61 96 64 97
REMARK SMILES IDX 62 98
REMARK H PARENT 22 5 13 16 27 32 86 51 54 62
REMARK Flexibility Score: inf
ROOT
ATOM      1  C   UNL A   1      36.857  22.690  24.791  1.00  0.00     0.116 C 
ENDROOT
BRANCH   1   2
ATOM      2  N   UNL A   1      35.930  21.646  25.171  1.00  0.00    -0.352 N 
ATOM      3  C   UNL A   1      34.626  21.323  24.918  1.00  0.00     0.251 C 
ATOM      4  O   UNL A   1      34.364  20.136  25.162  1.00  0.00    -0.269 OA
ATOM      5  H   UNL A   1      36.354  20.993  25.773  1.00  0.00     0.163 HD
BRANCH   3   6
ATOM      6  C   UNL A   1      33.488  22.223  24.518  1.00  0.00     0.044 A 
ATOM      7  C   UNL A   1      32.642  23.508  22.595  1.00  0.00     0.042 A 
ATOM      8  C   UNL A   1      31.427  23.650  23.231  1.00  0.00     0.026 A 
ATOM      9  C   UNL A   1      33.606  22.692  23.177  1.00  0.00     0.040 A 
ATOM     10  C   UNL A   1      31.297  23.264  24.553  1.00  0.00     0.006 A 
ATOM     11  C   UNL A   1      32.369  22.670  25.245  1.00  0.00    -0.038 A 
ATOM     12  C   UNL A   1      32.217  22.703  26.730  1.00  0.00     0.045 C 
BRANCH   7  13
ATOM     13  N   UNL A   1      32.872  24.114  21.358  1.00  0.00    -0.325 N 
ATOM     14  C   UNL A   1      32.715  25.440  21.027  1.00  0.00     0.234 C 
ATOM     15  O   UNL A   1      32.613  25.729  19.831  1.00  0.00    -0.274 OA
ATOM     16  H   UNL A   1      33.184  23.520  20.637  1.00  0.00     0.169 HD
BRANCH  14  17
ATOM     17  C   UNL A   1      32.930  26.538  22.071  1.00  0.00     0.170 C 
BRANCH  17  18
ATOM     18  S   UNL A   1      31.527  27.561  22.574  1.00  0.00    -0.147 SA
BRANCH  18  19
ATOM     19  C   UNL A   1      31.334  27.087  24.322  1.00  0.00     0.105 C 
BRANCH  19  20
ATOM     20  C   UNL A   1      32.192  27.905  25.250  1.00  0.00    -0.035 A 
ATOM     21  C   UNL A   1      33.951  26.056  25.620  1.00  0.00     0.044 C 
ATOM     22  C   UNL A   1      33.376  27.427  25.848  1.00  0.00    -0.047 A 
ATOM     23  C   UNL A   1      34.070  28.263  26.742  1.00  0.00     0.004 A 
ATOM     24  C   UNL A   1      33.637  29.561  27.010  1.00  0.00     0.000 A 
ATOM     25  C   UNL A   1      31.791  29.234  25.510  1.00  0.00     0.005 A 
ATOM     26  C   UNL A   1      32.503  30.053  26.383  1.00  0.00     0.000 A 
ENDBRANCH  19  20
ENDBRANCH  18  19
ENDBRANCH  17  18
ENDBRANCH  14  17
ENDBRANCH   7  13
ENDBRANCH   3   6
ENDBRANCH   1   2
BRANCH   1  27
ATOM     27  C   UNL A   1      37.880  23.097  25.860  1.00  0.00     0.023 C 
BRANCH  27  28
ATOM     28  C   UNL A   1      39.006  22.082  26.094  1.00  0.00     0.023 C 
BRANCH  28  29
ATOM     29  C   UNL A   1      40.021  22.518  27.151  1.00  0.00     0.116 C 
BRANCH  29  30
ATOM     30  N   UNL A   1      41.301  23.022  26.673  1.00  0.00    -0.352 N 
ATOM     31  C   UNL A   1      41.639  24.340  26.388  1.00  0.00     0.251 C 
ATOM     32  H   UNL A   1      42.010  22.353  26.536  1.00  0.00     0.163 HD
ATOM     33  O   UNL A   1      42.732  24.619  25.906  1.00  0.00    -0.269 OA
BRANCH  31  34
ATOM     34  C   UNL A   1      40.710  25.427  26.799  1.00  0.00     0.039 A 
ATOM     35  C   UNL A   1      40.881  26.689  26.222  1.00  0.00     0.014 A 
ATOM     36  C   UNL A   1      39.880  25.273  27.908  1.00  0.00     0.014 A 
ATOM     37  C   UNL A   1      40.452  27.820  26.917  1.00  0.00     0.010 A 
ATOM     38  C   UNL A   1      39.540  26.395  28.646  1.00  0.00     0.010 A 
ATOM     39  C   UNL A   1      39.895  27.667  28.190  1.00  0.00    -0.014 A 
BRANCH  39  40
ATOM     40  C   UNL A   1      39.789  28.774  29.138  1.00  0.00     0.031 A 
ATOM     41  C   UNL A   1      38.756  29.819  28.990  1.00  0.00     0.074 A 
ATOM     42  C   UNL A   1      40.649  28.885  30.180  1.00  0.00     0.049 A 
ATOM     43  N   UNL A   1      38.968  31.065  29.265  1.00  0.00    -0.248 NA
ATOM     44  C   UNL A   1      37.406  29.545  28.515  1.00  0.00     0.031 C 
ATOM     45  C   UNL A   1      40.542  29.817  31.301  1.00  0.00     0.029 A 
ATOM     46  N   UNL A   1      41.908  28.289  30.343  1.00  0.00    -0.354 N 
ATOM     47  C   UNL A   1      37.746  31.691  29.275  1.00  0.00     0.074 A 
ATOM     48  C   UNL A   1      36.817  30.729  28.723  1.00  0.00     0.031 C 
ATOM     49  C   UNL A   1      41.751  29.973  31.856  1.00  0.00     0.029 A 
ATOM     50  C   UNL A   1      42.699  29.222  31.058  1.00  0.00     0.049 A 
ATOM     51  H   UNL A   1      42.186  27.400  30.026  1.00  0.00     0.167 HD
ATOM     52  C   UNL A   1      37.596  32.900  29.886  1.00  0.00     0.037 A 
ATOM     53  C   UNL A   1      43.892  29.687  30.591  1.00  0.00     0.037 A 
ATOM     54  C   UNL A   1      38.819  33.353  30.534  1.00  0.00     0.049 A 
ATOM     55  C   UNL A   1      43.959  31.185  30.443  1.00  0.00     0.074 A 
ATOM     56  C   UNL A   1      39.245  33.288  31.852  1.00  0.00     0.029 A 
ATOM     57  N   UNL A   1      39.933  33.698  29.779  1.00  0.00    -0.354 N 
ATOM     58  N   UNL A   1      42.910  31.957  30.474  1.00  0.00    -0.248 NA
ATOM     59  C   UNL A   1      45.188  31.928  30.179  1.00  0.00     0.031 C 
ATOM     60  C   UNL A   1      40.619  33.612  31.891  1.00  0.00     0.029 A 
ATOM     61  C   UNL A   1      41.036  33.862  30.597  1.00  0.00     0.049 A 
ATOM     62  H   UNL A   1      39.937  33.810  28.801  1.00  0.00     0.167 HD
ATOM     63  C   UNL A   1      43.278  33.246  30.184  1.00  0.00     0.074 A 
ATOM     64  C   UNL A   1      44.720  33.182  30.045  1.00  0.00     0.031 C 
ATOM     65  C   UNL A   1      42.338  34.232  30.062  1.00  0.00     0.037 A 
BRANCH  52  66
ATOM     66  C   UNL A   1      36.235  33.493  30.146  1.00  0.00     0.064 A 
ATOM     67  C   UNL A   1      35.459  34.058  29.114  1.00  0.00     0.173 A 
ATOM     68  C   UNL A   1      35.667  33.562  31.431  1.00  0.00     0.173 A 
ATOM     69  F   UNL A   1      35.833  33.985  27.831  1.00  0.00    -0.203 F 
ATOM     70  C   UNL A   1      34.268  34.741  29.365  1.00  0.00     0.198 A 
ATOM     71  C   UNL A   1      34.500  34.287  31.690  1.00  0.00     0.198 A 
ATOM     72  F   UNL A   1      36.235  32.923  32.467  1.00  0.00    -0.203 F 
ATOM     73  F   UNL A   1      33.582  35.278  28.346  1.00  0.00    -0.200 F 
ATOM     74  C   UNL A   1      33.807  34.889  30.657  1.00  0.00     0.200 A 
ATOM     75  F   UNL A   1      34.060  34.413  32.950  1.00  0.00    -0.200 F 
ATOM     76  F   UNL A   1      32.698  35.597  30.904  1.00  0.00    -0.200 F 
ENDBRANCH  52  66
BRANCH  53  77
ATOM     77  C   UNL A   1      44.574  28.709  29.708  1.00  0.00     0.064 A 
ATOM     78  C   UNL A   1      45.205  27.611  30.323  1.00  0.00     0.173 A 
ATOM     79  C   UNL A   1      44.219  28.592  28.360  1.00  0.00     0.173 A 
ATOM     80  F   UNL A   1      45.568  27.682  31.615  1.00  0.00    -0.203 F 
ATOM     81  C   UNL A   1      45.309  26.387  29.671  1.00  0.00     0.198 A 
ATOM     82  C   UNL A   1      44.354  27.371  27.701  1.00  0.00     0.198 A 
ATOM     83  F   UNL A   1      43.617  29.608  27.725  1.00  0.00    -0.203 F 
ATOM     84  F   UNL A   1      45.752  25.313  30.340  1.00  0.00    -0.200 F 
ATOM     85  C   UNL A   1      44.850  26.260  28.371  1.00  0.00     0.200 A 
ATOM     86  F   UNL A   1      43.898  27.240  26.446  1.00  0.00    -0.200 F 
ATOM     87  F   UNL A   1      44.833  25.056  27.785  1.00  0.00    -0.200 F 
ENDBRANCH  53  77
BRANCH  65  88
ATOM     88  C   UNL A   1      42.546  35.647  29.562  1.00  0.00     0.064 A 
ATOM     89  C   UNL A   1      43.327  36.618  30.211  1.00  0.00     0.173 A 
ATOM     90  C   UNL A   1      42.028  36.043  28.301  1.00  0.00     0.173 A 
ATOM     91  F   UNL A   1      43.992  36.342  31.339  1.00  0.00    -0.203 F 
ATOM     92  C   UNL A   1      43.505  37.904  29.685  1.00  0.00     0.198 A 
ATOM     93  C   UNL A   1      42.258  37.304  27.752  1.00  0.00     0.198 A 
ATOM     94  F   UNL A   1      41.299  35.208  27.544  1.00  0.00    -0.203 F 
ATOM     95  F   UNL A   1      44.218  38.807  30.374  1.00  0.00    -0.200 F 
ATOM     96  C   UNL A   1      42.979  38.244  28.454  1.00  0.00     0.200 A 
ATOM     97  F   UNL A   1      41.788  37.593  26.530  1.00  0.00    -0.200 F 
ATOM     98  F   UNL A   1      43.187  39.462  27.938  1.00  0.00    -0.200 F 
ENDBRANCH  65  88
ENDBRANCH  39  40
ENDBRANCH  31  34
ENDBRANCH  29  30
ENDBRANCH  28  29
ENDBRANCH  27  28
ENDBRANCH   1  27
TORSDOF 16
ENDMDL
MODEL 2
REMARK VINA RESULT:     -13.1      3.882     10.123
REMARK SMILES Cc1ccccc1CSCC(=O)Nc1ccc(C)c(C(=O)NCCCCNC(=O)c2ccc(-c3c4nc(c(-c5c(F)c(F)c(F)c(F)c5F)c5ccc([nH]5)c(-c5c(F)c(F)c(F)c(F)c5F)c5nc(c(-c6c(F)c(F)c(F)c(F)c6F)c6ccc3[nH]6)C=C5)C=C4)cc2)c1
REMARK SMILES IDX 23 1 22 2 20 3 21 4 19 6 14 7 15 8 93 9 16 10 17 11 18 12
REMARK SMILES IDX 13 13 11 14 12 15 10 17 9 18 8 19 7 20 1 21 2 22 3 23 4 24
REMARK SMILES IDX 6 25 5 26 24 27 25 28 26 29 27 30 28 31 29 33 30 34 31 35
REMARK SMILES IDX 92 36 32 37 91 38 33 39 34 40 35 41 85 42 36 43 90 44 84 45
REMARK SMILES IDX 86 46 37 47 89 48 83 49 82 50 38 52 70 53 50 54 69 55 51 56
REMARK SMILES IDX 54 57 68 58 87 59 52 60 53 61 67 63 88 64 55 65 39 66 40 67
REMARK SMILES IDX 48 68 41 69 42 70 46 71 49 72 43 73 44 74 47 75 45 76 71 77
REMARK SMILES IDX 72 78 80 79 73 80 74 81 78 82 81 83 75 84 76 85 79 86 77 87
REMARK SMILES IDX 56 88 57 89 65 90 58 91 59 92 63 93 66 94 60 95 61 96 64 97
REMARK SMILES IDX 62 98
REMARK H PARENT 22 5 13 16 27 32 86 51 54 62
REMARK Flexibility Score: inf
ROOT
ATOM      1  C   UNL A   1      31.648  29.599  25.239  1.00  0.00     0.116 C 
ENDROOT
BRANCH   1   2
ATOM      2  N   UNL A   1      31.251  29.438  23.857  1.00  0.00    -0.352 N 
ATOM      3  C   UNL A   1      30.788  28.430  23.058  1.00  0.00     0.251 C 
ATOM      4  O   UNL A   1      30.230  28.843  22.031  1.00  0.00    -0.269 OA
ATOM      5  H   UNL A   1      31.339  30.283  23.359  1.00  0.00     0.163 HD
BRANCH   3   6
ATOM      6  C   UNL A   1      30.975  26.944  23.204  1.00  0.00     0.044 A 
ATOM      7  C   UNL A   1      30.316  25.058  24.644  1.00  0.00     0.042 A 
ATOM      8  C   UNL A   1      30.762  24.175  23.684  1.00  0.00     0.026 A 
ATOM      9  C   UNL A   1      30.302  26.417  24.344  1.00  0.00     0.040 A 
ATOM     10  C   UNL A   1      31.475  24.649  22.598  1.00  0.00     0.006 A 
ATOM     11  C   UNL A   1      31.701  26.028  22.421  1.00  0.00    -0.038 A 
ATOM     12  C   UNL A   1      32.810  26.337  21.471  1.00  0.00     0.045 C 
BRANCH   7  13
ATOM     13  N   UNL A   1      29.821  24.592  25.864  1.00  0.00    -0.325 N 
ATOM     14  C   UNL A   1      30.428  23.725  26.743  1.00  0.00     0.234 C 
ATOM     15  O   UNL A   1      29.715  23.150  27.572  1.00  0.00    -0.274 OA
ATOM     16  H   UNL A   1      28.932  24.925  26.126  1.00  0.00     0.169 HD
BRANCH  14  17
ATOM     17  C   UNL A   1      31.951  23.678  26.870  1.00  0.00     0.170 C 
BRANCH  17  18
ATOM     18  S   UNL A   1      32.793  22.080  26.784  1.00  0.00    -0.147 SA
BRANCH  18  19
ATOM     19  C   UNL A   1      32.975  21.857  24.985  1.00  0.00     0.105 C 
BRANCH  19  20
ATOM     20  C   UNL A   1      32.817  20.422  24.554  1.00  0.00    -0.035 A 
ATOM     21  C   UNL A   1      32.050  20.992  22.158  1.00  0.00     0.044 C 
ATOM     22  C   UNL A   1      32.384  20.035  23.270  1.00  0.00    -0.047 A 
ATOM     23  C   UNL A   1      32.220  18.664  22.994  1.00  0.00     0.004 A 
ATOM     24  C   UNL A   1      32.520  17.690  23.946  1.00  0.00     0.000 A 
ATOM     25  C   UNL A   1      33.147  19.418  25.490  1.00  0.00     0.005 A 
ATOM     26  C   UNL A   1      32.997  18.066  25.192  1.00  0.00     0.000 A 
ENDBRANCH  19  20
ENDBRANCH  18  19
ENDBRANCH  17  18
ENDBRANCH  14  17
ENDBRANCH   7  13
ENDBRANCH   3   6
ENDBRANCH   1   2
BRANCH   1  27
ATOM     27  C   UNL A   1      32.858  28.770  25.688  1.00  0.00     0.023 C 
BRANCH  27  28
ATOM     28  C   UNL A   1      33.998  29.583  26.318  1.00  0.00     0.023 C 
BRANCH  28  29
ATOM     29  C   UNL A   1      33.981  29.589  27.847  1.00  0.00     0.116 C 
BRANCH  29  30
ATOM     30  N   UNL A   1      34.557  30.751  28.511  1.00  0.00    -0.352 N 
ATOM     31  C   UNL A   1      35.821  30.860  29.081  1.00  0.00     0.251 C 
ATOM     32  H   UNL A   1      33.987  31.551  28.561  1.00  0.00     0.163 HD
ATOM     33  O   UNL A   1      36.149  31.874  29.689  1.00  0.00    -0.269 OA
BRANCH  31  34
ATOM     34  C   UNL A   1      36.819  29.786  28.831  1.00  0.00     0.039 A 
ATOM     35  C   UNL A   1      37.204  28.986  29.910  1.00  0.00     0.014 A 
ATOM     36  C   UNL A   1      37.544  29.751  27.642  1.00  0.00     0.014 A 
ATOM     37  C   UNL A   1      38.459  28.375  29.892  1.00  0.00     0.010 A 
ATOM     38  C   UNL A   1      38.827  29.229  27.659  1.00  0.00     0.010 A 
ATOM     39  C   UNL A   1      39.315  28.608  28.812  1.00  0.00    -0.014 A 
BRANCH  39  40
ATOM     40  C   UNL A   1      40.752  28.355  28.881  1.00  0.00     0.031 A 
ATOM     41  C   UNL A   1      41.352  27.151  28.273  1.00  0.00     0.074 A 
ATOM     42  C   UNL A   1      41.582  29.214  29.521  1.00  0.00     0.049 A 
ATOM     43  N   UNL A   1      42.338  26.505  28.807  1.00  0.00    -0.248 NA
ATOM     44  C   UNL A   1      40.886  26.573  27.018  1.00  0.00     0.031 C 
ATOM     45  C   UNL A   1      43.044  29.189  29.502  1.00  0.00     0.029 A 
ATOM     46  N   UNL A   1      41.265  30.189  30.477  1.00  0.00    -0.354 N 
ATOM     47  C   UNL A   1      42.807  25.627  27.862  1.00  0.00     0.074 A 
ATOM     48  C   UNL A   1      41.825  25.645  26.800  1.00  0.00     0.031 C 
ATOM     49  C   UNL A   1      43.506  29.848  30.574  1.00  0.00     0.029 A 
ATOM     50  C   UNL A   1      42.363  30.240  31.372  1.00  0.00     0.049 A 
ATOM     51  H   UNL A   1      40.443  30.730  30.519  1.00  0.00     0.167 HD
ATOM     52  C   UNL A   1      44.051  25.081  27.985  1.00  0.00     0.037 A 
ATOM     53  C   UNL A   1      42.228  30.058  32.716  1.00  0.00     0.037 A 
ATOM     54  C   UNL A   1      44.770  25.590  29.144  1.00  0.00     0.049 A 
ATOM     55  C   UNL A   1      43.053  28.926  33.273  1.00  0.00     0.074 A 
ATOM     56  C   UNL A   1      45.727  26.585  29.274  1.00  0.00     0.029 A 
ATOM     57  N   UNL A   1      44.341  25.290  30.431  1.00  0.00    -0.354 N 
ATOM     58  N   UNL A   1      43.621  28.018  32.530  1.00  0.00    -0.248 NA
ATOM     59  C   UNL A   1      43.248  28.680  34.698  1.00  0.00     0.031 C 
ATOM     60  C   UNL A   1      45.886  26.872  30.647  1.00  0.00     0.029 A 
ATOM     61  C   UNL A   1      45.017  26.063  31.356  1.00  0.00     0.049 A 
ATOM     62  H   UNL A   1      43.653  24.621  30.652  1.00  0.00     0.167 HD
ATOM     63  C   UNL A   1      44.187  27.058  33.330  1.00  0.00     0.074 A 
ATOM     64  C   UNL A   1      43.960  27.538  34.678  1.00  0.00     0.031 C 
ATOM     65  C   UNL A   1      44.765  25.945  32.784  1.00  0.00     0.037 A 
BRANCH  52  66
ATOM     66  C   UNL A   1      44.700  24.327  26.853  1.00  0.00     0.064 A 
ATOM     67  C   UNL A   1      44.443  22.960  26.624  1.00  0.00     0.173 A 
ATOM     68  C   UNL A   1      45.632  24.918  25.980  1.00  0.00     0.173 A 
ATOM     69  F   UNL A   1      43.515  22.292  27.320  1.00  0.00    -0.203 F 
ATOM     70  C   UNL A   1      45.148  22.217  25.677  1.00  0.00     0.198 A 
ATOM     71  C   UNL A   1      46.372  24.164  25.064  1.00  0.00     0.198 A 
ATOM     72  F   UNL A   1      45.842  26.243  25.996  1.00  0.00    -0.203 F 
ATOM     73  F   UNL A   1      44.877  20.913  25.518  1.00  0.00    -0.200 F 
ATOM     74  C   UNL A   1      46.140  22.809  24.923  1.00  0.00     0.200 A 
ATOM     75  F   UNL A   1      47.326  24.756  24.332  1.00  0.00    -0.200 F 
ATOM     76  F   UNL A   1      46.859  22.083  24.058  1.00  0.00    -0.200 F 
ENDBRANCH  52  66
BRANCH  53  77
ATOM     77  C   UNL A   1      40.890  30.466  33.211  1.00  0.00     0.064 A 
ATOM     78  C   UNL A   1      40.568  31.835  33.153  1.00  0.00     0.173 A 
ATOM     79  C   UNL A   1      39.838  29.546  33.275  1.00  0.00     0.173 A 
ATOM     80  F   UNL A   1      41.547  32.753  33.096  1.00  0.00    -0.203 F 
ATOM     81  C   UNL A   1      39.254  32.254  32.980  1.00  0.00     0.198 A 
ATOM     82  C   UNL A   1      38.520  29.974  33.132  1.00  0.00     0.198 A 
ATOM     83  F   UNL A   1      40.089  28.230  33.333  1.00  0.00    -0.203 F 
ATOM     84  F   UNL A   1      38.994  33.550  32.750  1.00  0.00    -0.200 F 
ATOM     85  C   UNL A   1      38.234  31.319  32.934  1.00  0.00     0.200 A 
ATOM     86  F   UNL A   1      37.530  29.071  33.073  1.00  0.00    -0.200 F 
ATOM     87  F   UNL A   1      36.986  31.708  32.642  1.00  0.00    -0.200 F 
ENDBRANCH  53  77
BRANCH  65  88
ATOM     88  C   UNL A   1      45.257  24.711  33.513  1.00  0.00     0.064 A 
ATOM     89  C   UNL A   1      44.503  23.542  33.704  1.00  0.00     0.173 A 
ATOM     90  C   UNL A   1      46.602  24.634  33.959  1.00  0.00     0.173 A 
ATOM     91  F   UNL A   1      43.265  23.419  33.212  1.00  0.00    -0.203 F 
ATOM     92  C   UNL A   1      45.023  22.420  34.363  1.00  0.00     0.198 A 
ATOM     93  C   UNL A   1      47.135  23.493  34.560  1.00  0.00     0.198 A 
ATOM     94  F   UNL A   1      47.457  25.657  33.804  1.00  0.00    -0.203 F 
ATOM     95  F   UNL A   1      44.240  21.350  34.564  1.00  0.00    -0.200 F 
ATOM     96  C   UNL A   1      46.338  22.392  34.783  1.00  0.00     0.200 A 
ATOM     97  F   UNL A   1      48.430  23.467  34.906  1.00  0.00    -0.200 F 
ATOM     98  F   UNL A   1      46.841  21.302  35.375  1.00  0.00    -0.200 F 
ENDBRANCH  65  88
ENDBRANCH  39  40
ENDBRANCH  31  34
ENDBRANCH  29  30
ENDBRANCH  28  29
ENDBRANCH  27  28
ENDBRANCH   1  27
TORSDOF 16
ENDMDL
MODEL 3
REMARK VINA RESULT:     -12.8      3.563      9.224
REMARK SMILES Cc1ccccc1CSCC(=O)Nc1ccc(C)c(C(=O)NCCCCNC(=O)c2ccc(-c3c4nc(c(-c5c(F)c(F)c(F)c(F)c5F)c5ccc([nH]5)c(-c5c(F)c(F)c(F)c(F)c5F)c5nc(c(-c6c(F)c(F)c(F)c(F)c6F)c6ccc3[nH]6)C=C5)C=C4)cc2)c1
REMARK SMILES IDX 23 1 22 2 20 3 21 4 19 6 14 7 15 8 93 9 16 10 17 11 18 12
REMARK SMILES IDX 13 13 11 14 12 15 10 17 9 18 8 19 7 20 1 21 2 22 3 23 4 24
REMARK SMILES IDX 6 25 5 26 24 27 25 28 26 29 27 30 28 31 29 33 30 34 31 35
REMARK SMILES IDX 92 36 32 37 91 38 33 39 34 40 35 41 85 42 36 43 90 44 84 45
REMARK SMILES IDX 86 46 37 47 89 48 83 49 82 50 38 52 70 53 50 54 69 55 51 56
REMARK SMILES IDX 54 57 68 58 87 59 52 60 53 61 67 63 88 64 55 65 39 66 40 67
REMARK SMILES IDX 48 68 41 69 42 70 46 71 49 72 43 73 44 74 47 75 45 76 71 77
REMARK SMILES IDX 72 78 80 79 73 80 74 81 78 82 81 83 75 84 76 85 79 86 77 87
REMARK SMILES IDX 56 88 57 89 65 90 58 91 59 92 63 93 66 94 60 95 61 96 64 97
REMARK SMILES IDX 62 98
REMARK H PARENT 22 5 13 16 27 32 86 51 54 62
REMARK Flexibility Score: inf
ROOT
ATOM      1  C   UNL A   1      33.242  29.663  26.290  1.00  0.00     0.116 C 
ENDROOT
BRANCH   1   2
ATOM      2  N   UNL A   1      33.457  29.392  24.886  1.00  0.00    -0.352 N 
ATOM      3  C   UNL A   1      32.718  28.942  23.827  1.00  0.00     0.251 C 
ATOM      4  O   UNL A   1      33.222  29.221  22.730  1.00  0.00    -0.269 OA
ATOM      5  H   UNL A   1      34.386  29.583  24.623  1.00  0.00     0.163 HD
BRANCH   3   6
ATOM      6  C   UNL A   1      31.485  28.079  23.832  1.00  0.00     0.044 A 
ATOM      7  C   UNL A   1      30.612  25.983  24.787  1.00  0.00     0.042 A 
ATOM      8  C   UNL A   1      29.337  26.347  24.409  1.00  0.00     0.026 A 
ATOM      9  C   UNL A   1      31.644  26.901  24.618  1.00  0.00     0.040 A 
ATOM     10  C   UNL A   1      29.154  27.449  23.592  1.00  0.00     0.006 A 
ATOM     11  C   UNL A   1      30.244  28.244  23.189  1.00  0.00    -0.038 A 
ATOM     12  C   UNL A   1      29.951  29.108  22.007  1.00  0.00     0.045 C 
BRANCH   7  13
ATOM     13  N   UNL A   1      30.849  24.747  25.393  1.00  0.00    -0.325 N 
ATOM     14  C   UNL A   1      30.920  23.513  24.788  1.00  0.00     0.234 C 
ATOM     15  O   UNL A   1      30.775  22.513  25.498  1.00  0.00    -0.274 OA
ATOM     16  H   UNL A   1      30.982  24.762  26.368  1.00  0.00     0.169 HD
BRANCH  14  17
ATOM     17  C   UNL A   1      31.425  23.373  23.351  1.00  0.00     0.170 C 
BRANCH  17  18
ATOM     18  S   UNL A   1      32.887  22.360  23.026  1.00  0.00    -0.147 SA
BRANCH  18  19
ATOM     19  C   UNL A   1      34.193  23.626  22.915  1.00  0.00     0.105 C 
BRANCH  19  20
ATOM     20  C   UNL A   1      35.304  23.412  23.909  1.00  0.00    -0.035 A 
ATOM     21  C   UNL A   1      34.460  25.190  25.575  1.00  0.00     0.044 C 
ATOM     22  C   UNL A   1      35.428  24.135  25.112  1.00  0.00    -0.047 A 
ATOM     23  C   UNL A   1      36.538  23.888  25.941  1.00  0.00     0.004 A 
ATOM     24  C   UNL A   1      37.485  22.917  25.618  1.00  0.00     0.000 A 
ATOM     25  C   UNL A   1      36.256  22.410  23.619  1.00  0.00     0.005 A 
ATOM     26  C   UNL A   1      37.338  22.167  24.462  1.00  0.00     0.000 A 
ENDBRANCH  19  20
ENDBRANCH  18  19
ENDBRANCH  17  18
ENDBRANCH  14  17
ENDBRANCH   7  13
ENDBRANCH   3   6
ENDBRANCH   1   2
BRANCH   1  27
ATOM     27  C   UNL A   1      34.198  28.959  27.262  1.00  0.00     0.023 C 
BRANCH  27  28
ATOM     28  C   UNL A   1      35.023  29.900  28.150  1.00  0.00     0.023 C 
BRANCH  28  29
ATOM     29  C   UNL A   1      35.121  31.329  27.614  1.00  0.00     0.116 C 
BRANCH  29  30
ATOM     30  N   UNL A   1      34.258  32.328  28.228  1.00  0.00    -0.352 N 
ATOM     31  C   UNL A   1      34.514  33.084  29.366  1.00  0.00     0.251 C 
ATOM     32  H   UNL A   1      33.393  32.487  27.786  1.00  0.00     0.163 HD
ATOM     33  O   UNL A   1      33.659  33.833  29.828  1.00  0.00    -0.269 OA
BRANCH  31  34
ATOM     34  C   UNL A   1      35.886  33.077  29.942  1.00  0.00     0.039 A 
ATOM     35  C   UNL A   1      36.881  33.796  29.273  1.00  0.00     0.014 A 
ATOM     36  C   UNL A   1      36.230  32.176  30.947  1.00  0.00     0.014 A 
ATOM     37  C   UNL A   1      38.214  33.408  29.416  1.00  0.00     0.010 A 
ATOM     38  C   UNL A   1      37.539  31.725  31.017  1.00  0.00     0.010 A 
ATOM     39  C   UNL A   1      38.518  32.289  30.194  1.00  0.00    -0.014 A 
BRANCH  39  40
ATOM     40  C   UNL A   1      39.792  31.580  30.087  1.00  0.00     0.031 A 
ATOM     41  C   UNL A   1      39.883  30.254  29.442  1.00  0.00     0.074 A 
ATOM     42  C   UNL A   1      40.932  32.112  30.590  1.00  0.00     0.049 A 
ATOM     43  N   UNL A   1      40.667  29.316  29.865  1.00  0.00    -0.248 NA
ATOM     44  C   UNL A   1      39.096  29.878  28.275  1.00  0.00     0.031 C 
ATOM     45  C   UNL A   1      42.290  31.612  30.385  1.00  0.00     0.029 A 
ATOM     46  N   UNL A   1      41.076  33.125  31.549  1.00  0.00    -0.354 N 
ATOM     47  C   UNL A   1      40.697  28.345  28.895  1.00  0.00     0.074 A 
ATOM     48  C   UNL A   1      39.644  28.697  27.967  1.00  0.00     0.031 C 
ATOM     49  C   UNL A   1      43.077  32.070  31.369  1.00  0.00     0.029 A 
ATOM     50  C   UNL A   1      42.237  32.803  32.294  1.00  0.00     0.049 A 
ATOM     51  H   UNL A   1      40.487  33.904  31.680  1.00  0.00     0.167 HD
ATOM     52  C   UNL A   1      41.701  27.423  28.874  1.00  0.00     0.037 A 
ATOM     53  C   UNL A   1      42.227  32.656  33.650  1.00  0.00     0.037 A 
ATOM     54  C   UNL A   1      42.692  27.654  29.916  1.00  0.00     0.049 A 
ATOM     55  C   UNL A   1      42.704  31.310  34.130  1.00  0.00     0.074 A 
ATOM     56  C   UNL A   1      43.928  28.280  29.894  1.00  0.00     0.029 A 
ATOM     57  N   UNL A   1      42.359  27.491  31.256  1.00  0.00    -0.354 N 
ATOM     58  N   UNL A   1      42.845  30.277  33.349  1.00  0.00    -0.248 NA
ATOM     59  C   UNL A   1      42.993  30.994  35.526  1.00  0.00     0.031 C 
ATOM     60  C   UNL A   1      44.349  28.481  31.226  1.00  0.00     0.029 A 
ATOM     61  C   UNL A   1      43.365  27.989  32.064  1.00  0.00     0.049 A 
ATOM     62  H   UNL A   1      41.527  27.081  31.583  1.00  0.00     0.167 HD
ATOM     63  C   UNL A   1      43.167  29.173  34.097  1.00  0.00     0.074 A 
ATOM     64  C   UNL A   1      43.287  29.683  35.449  1.00  0.00     0.031 C 
ATOM     65  C   UNL A   1      43.276  27.940  33.516  1.00  0.00     0.037 A 
BRANCH  52  66
ATOM     66  C   UNL A   1      41.917  26.513  27.692  1.00  0.00     0.064 A 
ATOM     67  C   UNL A   1      41.207  25.305  27.542  1.00  0.00     0.173 A 
ATOM     68  C   UNL A   1      42.863  26.784  26.686  1.00  0.00     0.173 A 
ATOM     69  F   UNL A   1      40.217  24.962  28.374  1.00  0.00    -0.203 F 
ATOM     70  C   UNL A   1      41.504  24.386  26.534  1.00  0.00     0.198 A 
ATOM     71  C   UNL A   1      43.193  25.843  25.705  1.00  0.00     0.198 A 
ATOM     72  F   UNL A   1      43.486  27.971  26.633  1.00  0.00    -0.203 F 
ATOM     73  F   UNL A   1      40.810  23.241  26.454  1.00  0.00    -0.200 F 
ATOM     74  C   UNL A   1      42.522  24.637  25.639  1.00  0.00     0.200 A 
ATOM     75  F   UNL A   1      44.179  26.106  24.837  1.00  0.00    -0.200 F 
ATOM     76  F   UNL A   1      42.848  23.728  24.711  1.00  0.00    -0.200 F 
ENDBRANCH  52  66
BRANCH  53  77
ATOM     77  C   UNL A   1      41.170  33.471  34.299  1.00  0.00     0.064 A 
ATOM     78  C   UNL A   1      39.963  32.824  34.627  1.00  0.00     0.173 A 
ATOM     79  C   UNL A   1      41.492  34.647  34.985  1.00  0.00     0.173 A 
ATOM     80  F   UNL A   1      39.612  31.695  33.989  1.00  0.00    -0.203 F 
ATOM     81  C   UNL A   1      39.205  33.234  35.717  1.00  0.00     0.198 A 
ATOM     82  C   UNL A   1      40.712  35.071  36.059  1.00  0.00     0.198 A 
ATOM     83  F   UNL A   1      42.629  35.303  34.711  1.00  0.00    -0.203 F 
ATOM     84  F   UNL A   1      38.158  32.495  36.114  1.00  0.00    -0.200 F 
ATOM     85  C   UNL A   1      39.601  34.337  36.454  1.00  0.00     0.200 A 
ATOM     86  F   UNL A   1      41.098  36.131  36.783  1.00  0.00    -0.200 F 
ATOM     87  F   UNL A   1      38.945  34.658  37.577  1.00  0.00    -0.200 F 
ENDBRANCH  53  77
BRANCH  65  88
ATOM     88  C   UNL A   1      43.431  26.603  34.211  1.00  0.00     0.064 A 
ATOM     89  C   UNL A   1      42.389  25.908  34.847  1.00  0.00     0.173 A 
ATOM     90  C   UNL A   1      44.667  25.908  34.156  1.00  0.00     0.173 A 
ATOM     91  F   UNL A   1      41.136  26.377  34.855  1.00  0.00    -0.203 F 
ATOM     92  C   UNL A   1      42.588  24.659  35.450  1.00  0.00     0.198 A 
ATOM     93  C   UNL A   1      44.845  24.638  34.705  1.00  0.00     0.198 A 
ATOM     94  F   UNL A   1      45.742  26.427  33.543  1.00  0.00    -0.203 F 
ATOM     95  F   UNL A   1      41.569  24.064  36.088  1.00  0.00    -0.200 F 
ATOM     96  C   UNL A   1      43.811  24.022  35.372  1.00  0.00     0.200 A 
ATOM     97  F   UNL A   1      46.023  24.013  34.566  1.00  0.00    -0.200 F 
ATOM     98  F   UNL A   1      43.983  22.810  35.916  1.00  0.00    -0.200 F 
ENDBRANCH  65  88
ENDBRANCH  39  40
ENDBRANCH  31  34
ENDBRANCH  29  30
ENDBRANCH  28  29
ENDBRANCH  27  28
ENDBRANCH   1  27
TORSDOF 16
ENDMDL
