MODEL 1
REMARK VINA RESULT:     -11.8      0.000      0.000
REMARK SMILES CCN(CC)C(=O)C[C@](C)(C(=O)NCCCCNC(=O)c1ccc(-c2c3nc(c(-c4c(F)c(F)c(F)c(F)c4F)c4ccc([nH]4)c(-c4c(F)c(F)c(F)c(F)c4F)c4nc(c(-c5c(F)c(F)c(F)c(F)c5F)c5ccc2[nH]5)C=C4)C=C3)cc1)c1ccccc1
REMARK SMILES IDX 15 1 14 2 13 3 11 4 12 5 9 7 10 8 8 9 6 10 3 11 7 12 2 13
REMARK SMILES IDX 1 14 4 15 5 16 84 17 85 18 89 19 86 20 88 21 87 22 16 23
REMARK SMILES IDX 17 24 18 25 19 26 20 28 21 29 22 30 83 31 23 32 82 33 24 34
REMARK SMILES IDX 25 35 26 36 76 37 27 38 81 39 75 40 77 41 28 42 80 43 74 44
REMARK SMILES IDX 73 45 29 47 61 48 41 49 60 50 42 51 45 52 59 53 78 54 43 55
REMARK SMILES IDX 44 56 58 58 79 59 46 60 30 61 31 62 39 63 32 64 33 65 37 66
REMARK SMILES IDX 40 67 34 68 35 69 38 70 36 71 62 72 63 73 71 74 64 75 65 76
REMARK SMILES IDX 69 77 72 78 66 79 67 80 70 81 68 82 47 83 48 84 56 85 49 86
REMARK SMILES IDX 50 87 54 88 57 89 51 90 52 91 55 92 53 93
REMARK H PARENT 13 6 18 27 77 46 45 57
REMARK Flexibility Score: inf
ROOT
ATOM      1  C   UNL A   1      31.475  31.060  25.817  1.00  0.00     0.023 C 
ENDROOT
BRANCH   1   2
ATOM      2  C   UNL A   1      32.448  29.886  25.905  1.00  0.00     0.116 C 
BRANCH   2   3
ATOM      3  N   UNL A   1      33.134  29.666  24.638  1.00  0.00    -0.355 N 
ATOM      4  C   UNL A   1      32.932  28.778  23.613  1.00  0.00     0.230 C 
ATOM      5  O   UNL A   1      33.828  28.780  22.764  1.00  0.00    -0.274 OA
ATOM      6  H   UNL A   1      33.893  30.274  24.490  1.00  0.00     0.163 HD
BRANCH   4   7
ATOM      7  C   UNL A   1      31.678  27.850  23.550  1.00  0.00     0.080 C 
ATOM      8  C   UNL A   1      32.048  26.826  22.429  1.00  0.00     0.027 C 
BRANCH   7   9
ATOM      9  C   UNL A   1      31.488  27.139  24.926  1.00  0.00     0.121 C 
BRANCH   9  10
ATOM     10  C   UNL A   1      32.572  26.204  25.448  1.00  0.00     0.223 C 
ATOM     11  N   UNL A   1      32.300  24.847  25.599  1.00  0.00    -0.343 N 
ATOM     12  O   UNL A   1      33.648  26.696  25.803  1.00  0.00    -0.275 OA
BRANCH  11  13
ATOM     13  C   UNL A   1      33.356  24.003  26.163  1.00  0.00     0.116 C 
ATOM     14  C   UNL A   1      32.819  22.767  26.871  1.00  0.00     0.027 C 
ENDBRANCH  11  13
BRANCH  11  15
ATOM     15  C   UNL A   1      31.016  24.198  25.334  1.00  0.00     0.116 C 
ATOM     16  C   UNL A   1      30.921  23.631  23.927  1.00  0.00     0.027 C 
ENDBRANCH  11  15
ENDBRANCH   9  10
ENDBRANCH   7   9
BRANCH   7  17
ATOM     17  C   UNL A   1      30.344  28.529  23.123  1.00  0.00    -0.032 A 
ATOM     18  C   UNL A   1      29.080  27.975  23.384  1.00  0.00     0.005 A 
ATOM     19  C   UNL A   1      30.365  29.711  22.351  1.00  0.00     0.005 A 
ATOM     20  C   UNL A   1      27.902  28.581  22.928  1.00  0.00     0.000 A 
ATOM     21  C   UNL A   1      29.192  30.324  21.902  1.00  0.00     0.000 A 
ATOM     22  C   UNL A   1      27.959  29.758  22.191  1.00  0.00     0.000 A 
ENDBRANCH   7  17
ENDBRANCH   4   7
ENDBRANCH   2   3
ENDBRANCH   1   2
BRANCH   1  23
ATOM     23  C   UNL A   1      31.445  31.953  27.058  1.00  0.00     0.023 C 
BRANCH  23  24
ATOM     24  C   UNL A   1      32.713  32.765  27.302  1.00  0.00     0.116 C 
BRANCH  24  25
ATOM     25  N   UNL A   1      32.444  34.173  27.563  1.00  0.00    -0.352 N 
ATOM     26  C   UNL A   1      33.021  35.010  28.488  1.00  0.00     0.251 C 
ATOM     27  H   UNL A   1      31.752  34.583  26.997  1.00  0.00     0.163 HD
ATOM     28  O   UNL A   1      32.578  36.140  28.670  1.00  0.00    -0.269 OA
BRANCH  26  29
ATOM     29  C   UNL A   1      34.160  34.525  29.293  1.00  0.00     0.039 A 
ATOM     30  C   UNL A   1      33.912  33.994  30.562  1.00  0.00     0.014 A 
ATOM     31  C   UNL A   1      35.455  34.542  28.771  1.00  0.00     0.014 A 
ATOM     32  C   UNL A   1      34.951  33.385  31.266  1.00  0.00     0.010 A 
ATOM     33  C   UNL A   1      36.475  33.878  29.445  1.00  0.00     0.010 A 
ATOM     34  C   UNL A   1      36.226  33.273  30.687  1.00  0.00    -0.014 A 
BRANCH  34  35
ATOM     35  C   UNL A   1      37.296  32.468  31.326  1.00  0.00     0.031 A 
ATOM     36  C   UNL A   1      37.809  32.829  32.687  1.00  0.00     0.074 A 
ATOM     37  C   UNL A   1      37.875  31.471  30.627  1.00  0.00     0.049 A 
ATOM     38  N   UNL A   1      38.814  32.322  33.354  1.00  0.00    -0.248 NA
ATOM     39  C   UNL A   1      37.117  33.925  33.383  1.00  0.00     0.031 C 
ATOM     40  C   UNL A   1      37.497  31.058  29.273  1.00  0.00     0.029 A 
ATOM     41  N   UNL A   1      38.920  30.641  30.946  1.00  0.00    -0.354 N 
ATOM     42  C   UNL A   1      38.884  33.041  34.539  1.00  0.00     0.074 A 
ATOM     43  C   UNL A   1      37.846  34.049  34.484  1.00  0.00     0.031 C 
ATOM     44  C   UNL A   1      38.290  30.049  28.884  1.00  0.00     0.029 A 
ATOM     45  C   UNL A   1      39.260  29.772  29.938  1.00  0.00     0.049 A 
ATOM     46  H   UNL A   1      39.382  30.665  31.815  1.00  0.00     0.167 HD
ATOM     47  C   UNL A   1      39.727  32.862  35.583  1.00  0.00     0.037 A 
ATOM     48  C   UNL A   1      40.255  28.867  29.863  1.00  0.00     0.037 A 
ATOM     49  C   UNL A   1      40.741  31.843  35.643  1.00  0.00     0.049 A 
ATOM     50  C   UNL A   1      41.191  28.707  31.029  1.00  0.00     0.074 A 
ATOM     51  C   UNL A   1      41.585  31.526  36.693  1.00  0.00     0.029 A 
ATOM     52  N   UNL A   1      41.054  30.978  34.605  1.00  0.00    -0.354 N 
ATOM     53  N   UNL A   1      41.199  29.342  32.175  1.00  0.00    -0.248 NA
ATOM     54  C   UNL A   1      42.261  27.709  30.888  1.00  0.00     0.031 C 
ATOM     55  C   UNL A   1      42.441  30.504  36.274  1.00  0.00     0.029 A 
ATOM     56  C   UNL A   1      42.103  30.152  34.978  1.00  0.00     0.049 A 
ATOM     57  H   UNL A   1      40.598  30.954  33.733  1.00  0.00     0.167 HD
ATOM     58  C   UNL A   1      42.259  28.811  32.897  1.00  0.00     0.074 A 
ATOM     59  C   UNL A   1      42.861  27.790  32.067  1.00  0.00     0.031 C 
ATOM     60  C   UNL A   1      42.697  29.145  34.135  1.00  0.00     0.037 A 
BRANCH  47  61
ATOM     61  C   UNL A   1      39.589  33.790  36.754  1.00  0.00     0.064 A 
ATOM     62  C   UNL A   1      40.192  35.056  36.762  1.00  0.00     0.173 A 
ATOM     63  C   UNL A   1      38.803  33.429  37.859  1.00  0.00     0.173 A 
ATOM     64  F   UNL A   1      40.962  35.444  35.734  1.00  0.00    -0.203 F 
ATOM     65  C   UNL A   1      40.035  35.918  37.844  1.00  0.00     0.198 A 
ATOM     66  C   UNL A   1      38.626  34.304  38.928  1.00  0.00     0.198 A 
ATOM     67  F   UNL A   1      38.201  32.232  37.898  1.00  0.00    -0.203 F 
ATOM     68  F   UNL A   1      40.655  37.106  37.848  1.00  0.00    -0.200 F 
ATOM     69  C   UNL A   1      39.246  35.544  38.922  1.00  0.00     0.200 A 
ATOM     70  F   UNL A   1      37.855  33.946  39.964  1.00  0.00    -0.200 F 
ATOM     71  F   UNL A   1      39.089  36.379  39.959  1.00  0.00    -0.200 F 
ENDBRANCH  47  61
BRANCH  48  72
ATOM     72  C   UNL A   1      40.417  28.044  28.637  1.00  0.00     0.064 A 
ATOM     73  C   UNL A   1      39.813  26.783  28.534  1.00  0.00     0.173 A 
ATOM     74  C   UNL A   1      41.174  28.498  27.548  1.00  0.00     0.173 A 
ATOM     75  F   UNL A   1      39.097  26.299  29.559  1.00  0.00    -0.203 F 
ATOM     76  C   UNL A   1      39.974  26.000  27.393  1.00  0.00     0.198 A 
ATOM     77  C   UNL A   1      41.313  27.724  26.397  1.00  0.00     0.198 A 
ATOM     78  F   UNL A   1      41.770  29.698  27.597  1.00  0.00    -0.203 F 
ATOM     79  F   UNL A   1      39.420  24.781  27.336  1.00  0.00    -0.200 F 
ATOM     80  C   UNL A   1      40.718  26.474  26.323  1.00  0.00     0.200 A 
ATOM     81  F   UNL A   1      42.022  28.192  25.360  1.00  0.00    -0.200 F 
ATOM     82  F   UNL A   1      40.868  25.722  25.224  1.00  0.00    -0.200 F 
ENDBRANCH  48  72
BRANCH  60  83
ATOM     83  C   UNL A   1      43.881  28.396  34.670  1.00  0.00     0.064 A 
ATOM     84  C   UNL A   1      43.729  27.174  35.339  1.00  0.00     0.173 A 
ATOM     85  C   UNL A   1      45.181  28.883  34.472  1.00  0.00     0.173 A 
ATOM     86  F   UNL A   1      42.503  26.677  35.568  1.00  0.00    -0.203 F 
ATOM     87  C   UNL A   1      44.836  26.472  35.807  1.00  0.00     0.198 A 
ATOM     88  C   UNL A   1      46.289  28.165  34.918  1.00  0.00     0.198 A 
ATOM     89  F   UNL A   1      45.380  30.045  33.834  1.00  0.00    -0.203 F 
ATOM     90  F   UNL A   1      44.666  25.326  36.479  1.00  0.00    -0.200 F 
ATOM     91  C   UNL A   1      46.115  26.964  35.589  1.00  0.00     0.200 A 
ATOM     92  F   UNL A   1      47.523  28.636  34.697  1.00  0.00    -0.200 F 
ATOM     93  F   UNL A   1      47.180  26.282  36.031  1.00  0.00    -0.200 F 
ENDBRANCH  60  83
ENDBRANCH  34  35
ENDBRANCH  26  29
ENDBRANCH  24  25
ENDBRANCH  23  24
ENDBRANCH   1  23
TORSDOF 16
ENDMDL
MODEL 2
REMARK VINA RESULT:     -11.8      5.566     10.158
REMARK SMILES CCN(CC)C(=O)C[C@](C)(C(=O)NCCCCNC(=O)c1ccc(-c2c3nc(c(-c4c(F)c(F)c(F)c(F)c4F)c4ccc([nH]4)c(-c4c(F)c(F)c(F)c(F)c4F)c4nc(c(-c5c(F)c(F)c(F)c(F)c5F)c5ccc2[nH]5)C=C4)C=C3)cc1)c1ccccc1
REMARK SMILES IDX 15 1 14 2 13 3 11 4 12 5 9 7 10 8 8 9 6 10 3 11 7 12 2 13
REMARK SMILES IDX 1 14 4 15 5 16 84 17 85 18 89 19 86 20 88 21 87 22 16 23
REMARK SMILES IDX 17 24 18 25 19 26 20 28 21 29 22 30 83 31 23 32 82 33 24 34
REMARK SMILES IDX 25 35 26 36 76 37 27 38 81 39 75 40 77 41 28 42 80 43 74 44
REMARK SMILES IDX 73 45 29 47 61 48 41 49 60 50 42 51 45 52 59 53 78 54 43 55
REMARK SMILES IDX 44 56 58 58 79 59 46 60 30 61 31 62 39 63 32 64 33 65 37 66
REMARK SMILES IDX 40 67 34 68 35 69 38 70 36 71 62 72 63 73 71 74 64 75 65 76
REMARK SMILES IDX 69 77 72 78 66 79 67 80 70 81 68 82 47 83 48 84 56 85 49 86
REMARK SMILES IDX 50 87 54 88 57 89 51 90 52 91 55 92 53 93
REMARK H PARENT 13 6 18 27 77 46 45 57
REMARK Flexibility Score: inf
ROOT
ATOM      1  C   UNL A   1      36.608  20.679  25.339  1.00  0.00     0.023 C 
ENDROOT
BRANCH   1   2
ATOM      2  C   UNL A   1      36.275  22.099  25.792  1.00  0.00     0.116 C 
BRANCH   2   3
ATOM      3  N   UNL A   1      35.341  22.096  26.911  1.00  0.00    -0.355 N 
ATOM      4  C   UNL A   1      33.986  22.286  26.992  1.00  0.00     0.230 C 
ATOM      5  O   UNL A   1      33.560  22.376  28.146  1.00  0.00    -0.274 OA
ATOM      6  H   UNL A   1      35.768  21.923  27.781  1.00  0.00     0.163 HD
BRANCH   4   7
ATOM      7  C   UNL A   1      33.082  22.387  25.722  1.00  0.00     0.080 C 
ATOM      8  C   UNL A   1      31.703  22.840  26.301  1.00  0.00     0.027 C 
BRANCH   7   9
ATOM      9  C   UNL A   1      33.668  23.457  24.751  1.00  0.00     0.121 C 
BRANCH   9  10
ATOM     10  C   UNL A   1      33.317  24.927  24.948  1.00  0.00     0.223 C 
ATOM     11  N   UNL A   1      32.424  25.547  24.079  1.00  0.00    -0.343 N 
ATOM     12  O   UNL A   1      33.904  25.555  25.835  1.00  0.00    -0.275 OA
BRANCH  11  13
ATOM     13  C   UNL A   1      32.169  26.976  24.275  1.00  0.00     0.116 C 
ATOM     14  C   UNL A   1      30.878  27.254  25.034  1.00  0.00     0.027 C 
ENDBRANCH  11  13
BRANCH  11  15
ATOM     15  C   UNL A   1      31.785  24.921  22.921  1.00  0.00     0.116 C 
ATOM     16  C   UNL A   1      30.455  24.269  23.262  1.00  0.00     0.027 C 
ENDBRANCH  11  15
ENDBRANCH   9  10
ENDBRANCH   7   9
BRANCH   7  17
ATOM     17  C   UNL A   1      32.835  21.058  24.950  1.00  0.00    -0.032 A 
ATOM     18  C   UNL A   1      33.062  19.789  25.509  1.00  0.00     0.005 A 
ATOM     19  C   UNL A   1      32.458  21.088  23.589  1.00  0.00     0.005 A 
ATOM     20  C   UNL A   1      32.891  18.616  24.762  1.00  0.00     0.000 A 
ATOM     21  C   UNL A   1      32.278  19.919  22.845  1.00  0.00     0.000 A 
ATOM     22  C   UNL A   1      32.495  18.681  23.432  1.00  0.00     0.000 A 
ENDBRANCH   7  17
ENDBRANCH   4   7
ENDBRANCH   2   3
ENDBRANCH   1   2
BRANCH   1  23
ATOM     23  C   UNL A   1      38.027  20.504  24.796  1.00  0.00     0.023 C 
BRANCH  23  24
ATOM     24  C   UNL A   1      39.137  20.609  25.838  1.00  0.00     0.116 C 
BRANCH  24  25
ATOM     25  N   UNL A   1      39.987  19.426  25.883  1.00  0.00    -0.352 N 
ATOM     26  C   UNL A   1      41.342  19.340  26.098  1.00  0.00     0.251 C 
ATOM     27  H   UNL A   1      39.526  18.569  25.739  1.00  0.00     0.163 HD
ATOM     28  O   UNL A   1      41.927  18.269  25.966  1.00  0.00    -0.269 OA
BRANCH  26  29
ATOM     29  C   UNL A   1      42.098  20.556  26.453  1.00  0.00     0.039 A 
ATOM     30  C   UNL A   1      42.629  21.344  25.429  1.00  0.00     0.014 A 
ATOM     31  C   UNL A   1      42.229  20.943  27.789  1.00  0.00     0.014 A 
ATOM     32  C   UNL A   1      43.204  22.577  25.739  1.00  0.00     0.010 A 
ATOM     33  C   UNL A   1      42.744  22.200  28.090  1.00  0.00     0.010 A 
ATOM     34  C   UNL A   1      43.214  23.038  27.066  1.00  0.00    -0.014 A 
BRANCH  34  35
ATOM     35  C   UNL A   1      43.643  24.418  27.401  1.00  0.00     0.031 A 
ATOM     36  C   UNL A   1      42.645  25.430  27.878  1.00  0.00     0.074 A 
ATOM     37  C   UNL A   1      44.921  24.782  27.175  1.00  0.00     0.049 A 
ATOM     38  N   UNL A   1      42.806  26.709  28.105  1.00  0.00    -0.248 NA
ATOM     39  C   UNL A   1      41.274  24.947  28.107  1.00  0.00     0.031 C 
ATOM     40  C   UNL A   1      45.973  23.900  26.664  1.00  0.00     0.029 A 
ATOM     41  N   UNL A   1      45.547  25.995  27.319  1.00  0.00    -0.354 N 
ATOM     42  C   UNL A   1      41.562  27.185  28.489  1.00  0.00     0.074 A 
ATOM     43  C   UNL A   1      40.642  26.069  28.425  1.00  0.00     0.031 C 
ATOM     44  C   UNL A   1      47.113  24.598  26.548  1.00  0.00     0.029 A 
ATOM     45  C   UNL A   1      46.865  25.983  26.932  1.00  0.00     0.049 A 
ATOM     46  H   UNL A   1      45.095  26.797  27.668  1.00  0.00     0.167 HD
ATOM     47  C   UNL A   1      41.223  28.438  28.877  1.00  0.00     0.037 A 
ATOM     48  C   UNL A   1      47.767  26.982  26.873  1.00  0.00     0.037 A 
ATOM     49  C   UNL A   1      42.145  29.539  28.962  1.00  0.00     0.049 A 
ATOM     50  C   UNL A   1      47.356  28.368  27.287  1.00  0.00     0.074 A 
ATOM     51  C   UNL A   1      41.917  30.822  29.427  1.00  0.00     0.029 A 
ATOM     52  N   UNL A   1      43.474  29.489  28.565  1.00  0.00    -0.354 N 
ATOM     53  N   UNL A   1      46.194  28.790  27.721  1.00  0.00    -0.248 NA
ATOM     54  C   UNL A   1      48.381  29.418  27.195  1.00  0.00     0.031 C 
ATOM     55  C   UNL A   1      43.092  31.562  29.265  1.00  0.00     0.029 A 
ATOM     56  C   UNL A   1      44.067  30.729  28.741  1.00  0.00     0.049 A 
ATOM     57  H   UNL A   1      43.928  28.690  28.211  1.00  0.00     0.167 HD
ATOM     58  C   UNL A   1      46.351  30.147  27.970  1.00  0.00     0.074 A 
ATOM     59  C   UNL A   1      47.725  30.474  27.655  1.00  0.00     0.031 C 
ATOM     60  C   UNL A   1      45.435  31.041  28.414  1.00  0.00     0.037 A 
BRANCH  47  61
ATOM     61  C   UNL A   1      39.789  28.688  29.243  1.00  0.00     0.064 A 
ATOM     62  C   UNL A   1      39.320  28.491  30.550  1.00  0.00     0.173 A 
ATOM     63  C   UNL A   1      38.887  29.179  28.287  1.00  0.00     0.173 A 
ATOM     64  F   UNL A   1      40.141  28.013  31.497  1.00  0.00    -0.203 F 
ATOM     65  C   UNL A   1      37.994  28.752  30.882  1.00  0.00     0.198 A 
ATOM     66  C   UNL A   1      37.568  29.465  28.629  1.00  0.00     0.198 A 
ATOM     67  F   UNL A   1      39.287  29.390  27.025  1.00  0.00    -0.203 F 
ATOM     68  F   UNL A   1      37.558  28.516  32.127  1.00  0.00    -0.200 F 
ATOM     69  C   UNL A   1      37.121  29.245  29.923  1.00  0.00     0.200 A 
ATOM     70  F   UNL A   1      36.728  29.952  27.705  1.00  0.00    -0.200 F 
ATOM     71  F   UNL A   1      35.846  29.504  30.247  1.00  0.00    -0.200 F 
ENDBRANCH  47  61
BRANCH  48  72
ATOM     72  C   UNL A   1      49.148  26.705  26.401  1.00  0.00     0.064 A 
ATOM     73  C   UNL A   1      50.129  26.240  27.287  1.00  0.00     0.173 A 
ATOM     74  C   UNL A   1      49.515  26.899  25.062  1.00  0.00     0.173 A 
ATOM     75  F   UNL A   1      49.830  26.059  28.582  1.00  0.00    -0.203 F 
ATOM     76  C   UNL A   1      51.431  25.993  26.854  1.00  0.00     0.198 A 
ATOM     77  C   UNL A   1      50.810  26.627  24.625  1.00  0.00     0.198 A 
ATOM     78  F   UNL A   1      48.612  27.341  24.175  1.00  0.00    -0.203 F 
ATOM     79  F   UNL A   1      52.360  25.587  27.730  1.00  0.00    -0.200 F 
ATOM     80  C   UNL A   1      51.768  26.180  25.522  1.00  0.00     0.200 A 
ATOM     81  F   UNL A   1      51.128  26.797  23.334  1.00  0.00    -0.200 F 
ATOM     82  F   UNL A   1      53.018  25.939  25.106  1.00  0.00    -0.200 F 
ENDBRANCH  48  72
BRANCH  60  83
ATOM     83  C   UNL A   1      45.890  32.458  28.592  1.00  0.00     0.064 A 
ATOM     84  C   UNL A   1      45.751  33.403  27.566  1.00  0.00     0.173 A 
ATOM     85  C   UNL A   1      46.430  32.886  29.814  1.00  0.00     0.173 A 
ATOM     86  F   UNL A   1      45.258  33.037  26.373  1.00  0.00    -0.203 F 
ATOM     87  C   UNL A   1      46.152  34.724  27.751  1.00  0.00     0.198 A 
ATOM     88  C   UNL A   1      46.805  34.214  30.005  1.00  0.00     0.198 A 
ATOM     89  F   UNL A   1      46.580  32.021  30.828  1.00  0.00    -0.203 F 
ATOM     90  F   UNL A   1      46.047  35.601  26.744  1.00  0.00    -0.200 F 
ATOM     91  C   UNL A   1      46.671  35.129  28.972  1.00  0.00     0.200 A 
ATOM     92  F   UNL A   1      47.295  34.607  31.188  1.00  0.00    -0.200 F 
ATOM     93  F   UNL A   1      47.046  36.403  29.151  1.00  0.00    -0.200 F 
ENDBRANCH  60  83
ENDBRANCH  34  35
ENDBRANCH  26  29
ENDBRANCH  24  25
ENDBRANCH  23  24
ENDBRANCH   1  23
TORSDOF 16
ENDMDL
MODEL 3
REMARK VINA RESULT:     -11.8      5.525      9.986
REMARK SMILES CCN(CC)C(=O)C[C@](C)(C(=O)NCCCCNC(=O)c1ccc(-c2c3nc(c(-c4c(F)c(F)c(F)c(F)c4F)c4ccc([nH]4)c(-c4c(F)c(F)c(F)c(F)c4F)c4nc(c(-c5c(F)c(F)c(F)c(F)c5F)c5ccc2[nH]5)C=C4)C=C3)cc1)c1ccccc1
REMARK SMILES IDX 15 1 14 2 13 3 11 4 12 5 9 7 10 8 8 9 6 10 3 11 7 12 2 13
REMARK SMILES IDX 1 14 4 15 5 16 84 17 85 18 89 19 86 20 88 21 87 22 16 23
REMARK SMILES IDX 17 24 18 25 19 26 20 28 21 29 22 30 83 31 23 32 82 33 24 34
REMARK SMILES IDX 25 35 26 36 76 37 27 38 81 39 75 40 77 41 28 42 80 43 74 44
REMARK SMILES IDX 73 45 29 47 61 48 41 49 60 50 42 51 45 52 59 53 78 54 43 55
REMARK SMILES IDX 44 56 58 58 79 59 46 60 30 61 31 62 39 63 32 64 33 65 37 66
REMARK SMILES IDX 40 67 34 68 35 69 38 70 36 71 62 72 63 73 71 74 64 75 65 76
REMARK SMILES IDX 69 77 72 78 66 79 67 80 70 81 68 82 47 83 48 84 56 85 49 86
REMARK SMILES IDX 50 87 54 88 57 89 51 90 52 91 55 92 53 93
REMARK H PARENT 13 6 18 27 77 46 45 57
REMARK Flexibility Score: inf
ROOT
ATOM      1  C   UNL A   1      37.022  21.747  24.362  1.00  0.00     0.023 C 
ENDROOT
BRANCH   1   2
ATOM      2  C   UNL A   1      36.772  22.996  25.205  1.00  0.00     0.116 C 
BRANCH   2   3
ATOM      3  N   UNL A   1      36.014  22.684  26.409  1.00  0.00    -0.355 N 
ATOM      4  C   UNL A   1      34.670  22.634  26.675  1.00  0.00     0.230 C 
ATOM      5  O   UNL A   1      34.400  22.491  27.871  1.00  0.00    -0.274 OA
ATOM      6  H   UNL A   1      36.578  22.465  27.186  1.00  0.00     0.163 HD
BRANCH   4   7
ATOM      7  C   UNL A   1      33.593  22.759  25.551  1.00  0.00     0.080 C 
ATOM      8  C   UNL A   1      32.298  23.137  26.338  1.00  0.00     0.027 C 
BRANCH   7   9
ATOM      9  C   UNL A   1      34.006  23.891  24.560  1.00  0.00     0.121 C 
BRANCH   9  10
ATOM     10  C   UNL A   1      33.549  25.322  24.818  1.00  0.00     0.223 C 
ATOM     11  N   UNL A   1      32.524  25.870  24.053  1.00  0.00    -0.343 N 
ATOM     12  O   UNL A   1      34.166  25.990  25.655  1.00  0.00    -0.275 OA
BRANCH  11  13
ATOM     13  C   UNL A   1      32.167  27.269  24.301  1.00  0.00     0.116 C 
ATOM     14  C   UNL A   1      31.249  27.448  25.503  1.00  0.00     0.027 C 
ENDBRANCH  11  13
BRANCH  11  15
ATOM     15  C   UNL A   1      31.829  25.202  22.952  1.00  0.00     0.116 C 
ATOM     16  C   UNL A   1      30.536  24.533  23.390  1.00  0.00     0.027 C 
ENDBRANCH  11  15
ENDBRANCH   9  10
ENDBRANCH   7   9
BRANCH   7  17
ATOM     17  C   UNL A   1      33.278  21.457  24.756  1.00  0.00    -0.032 A 
ATOM     18  C   UNL A   1      32.564  21.448  23.546  1.00  0.00     0.005 A 
ATOM     19  C   UNL A   1      33.626  20.198  25.292  1.00  0.00     0.005 A 
ATOM     20  C   UNL A   1      32.243  20.252  22.892  1.00  0.00     0.000 A 
ATOM     21  C   UNL A   1      33.316  19.003  24.636  1.00  0.00     0.000 A 
ATOM     22  C   UNL A   1      32.622  19.030  23.435  1.00  0.00     0.000 A 
ENDBRANCH   7  17
ENDBRANCH   4   7
ENDBRANCH   2   3
ENDBRANCH   1   2
BRANCH   1  23
ATOM     23  C   UNL A   1      37.623  20.571  25.134  1.00  0.00     0.023 C 
BRANCH  23  24
ATOM     24  C   UNL A   1      39.000  20.830  25.737  1.00  0.00     0.116 C 
BRANCH  24  25
ATOM     25  N   UNL A   1      39.818  19.626  25.822  1.00  0.00    -0.352 N 
ATOM     26  C   UNL A   1      41.165  19.508  26.065  1.00  0.00     0.251 C 
ATOM     27  H   UNL A   1      39.337  18.779  25.688  1.00  0.00     0.163 HD
ATOM     28  O   UNL A   1      41.724  18.420  25.966  1.00  0.00    -0.269 OA
BRANCH  26  29
ATOM     29  C   UNL A   1      41.948  20.712  26.409  1.00  0.00     0.039 A 
ATOM     30  C   UNL A   1      42.407  21.536  25.378  1.00  0.00     0.014 A 
ATOM     31  C   UNL A   1      42.175  21.050  27.744  1.00  0.00     0.014 A 
ATOM     32  C   UNL A   1      43.005  22.757  25.691  1.00  0.00     0.010 A 
ATOM     33  C   UNL A   1      42.712  22.296  28.054  1.00  0.00     0.010 A 
ATOM     34  C   UNL A   1      43.109  23.170  27.030  1.00  0.00    -0.014 A 
BRANCH  34  35
ATOM     35  C   UNL A   1      43.564  24.538  27.383  1.00  0.00     0.031 A 
ATOM     36  C   UNL A   1      42.587  25.557  27.887  1.00  0.00     0.074 A 
ATOM     37  C   UNL A   1      44.846  24.885  27.149  1.00  0.00     0.049 A 
ATOM     38  N   UNL A   1      42.772  26.829  28.132  1.00  0.00    -0.248 NA
ATOM     39  C   UNL A   1      41.212  25.093  28.121  1.00  0.00     0.031 C 
ATOM     40  C   UNL A   1      45.879  23.995  26.614  1.00  0.00     0.029 A 
ATOM     41  N   UNL A   1      45.493  26.085  27.307  1.00  0.00    -0.354 N 
ATOM     42  C   UNL A   1      41.539  27.319  28.537  1.00  0.00     0.074 A 
ATOM     43  C   UNL A   1      40.601  26.219  28.464  1.00  0.00     0.031 C 
ATOM     44  C   UNL A   1      47.029  24.676  26.497  1.00  0.00     0.029 A 
ATOM     45  C   UNL A   1      46.806  26.058  26.907  1.00  0.00     0.049 A 
ATOM     46  H   UNL A   1      45.058  26.888  27.674  1.00  0.00     0.167 HD
ATOM     47  C   UNL A   1      41.224  28.571  28.948  1.00  0.00     0.037 A 
ATOM     48  C   UNL A   1      47.724  27.043  26.855  1.00  0.00     0.037 A 
ATOM     49  C   UNL A   1      42.165  29.655  29.042  1.00  0.00     0.049 A 
ATOM     50  C   UNL A   1      47.340  28.428  27.295  1.00  0.00     0.074 A 
ATOM     51  C   UNL A   1      41.963  30.934  29.530  1.00  0.00     0.029 A 
ATOM     52  N   UNL A   1      43.489  29.591  28.631  1.00  0.00    -0.354 N 
ATOM     53  N   UNL A   1      46.189  28.862  27.748  1.00  0.00    -0.248 NA
ATOM     54  C   UNL A   1      48.380  29.463  27.211  1.00  0.00     0.031 C 
ATOM     55  C   UNL A   1      43.148  31.658  29.369  1.00  0.00     0.029 A 
ATOM     56  C   UNL A   1      44.104  30.818  28.821  1.00  0.00     0.049 A 
ATOM     57  H   UNL A   1      43.927  28.791  28.260  1.00  0.00     0.167 HD
ATOM     58  C   UNL A   1      46.370  30.212  28.018  1.00  0.00     0.074 A 
ATOM     59  C   UNL A   1      47.747  30.522  27.695  1.00  0.00     0.031 C 
ATOM     60  C   UNL A   1      45.473  31.113  28.486  1.00  0.00     0.037 A 
BRANCH  47  61
ATOM     61  C   UNL A   1      39.799  28.838  29.333  1.00  0.00     0.064 A 
ATOM     62  C   UNL A   1      38.863  29.307  28.399  1.00  0.00     0.173 A 
ATOM     63  C   UNL A   1      39.353  28.576  30.637  1.00  0.00     0.173 A 
ATOM     64  F   UNL A   1      39.242  29.583  27.142  1.00  0.00    -0.203 F 
ATOM     65  C   UNL A   1      37.537  29.526  28.762  1.00  0.00     0.198 A 
ATOM     66  C   UNL A   1      38.020  28.770  30.990  1.00  0.00     0.198 A 
ATOM     67  F   UNL A   1      40.207  28.121  31.564  1.00  0.00    -0.203 F 
ATOM     68  F   UNL A   1      36.670  30.014  27.864  1.00  0.00    -0.200 F 
ATOM     69  C   UNL A   1      37.115  29.251  30.055  1.00  0.00     0.200 A 
ATOM     70  F   UNL A   1      37.611  28.494  32.236  1.00  0.00    -0.200 F 
ATOM     71  F   UNL A   1      35.836  29.455  30.401  1.00  0.00    -0.200 F 
ENDBRANCH  47  61
BRANCH  48  72
ATOM     72  C   UNL A   1      49.095  26.752  26.365  1.00  0.00     0.064 A 
ATOM     73  C   UNL A   1      50.081  26.267  27.236  1.00  0.00     0.173 A 
ATOM     74  C   UNL A   1      49.449  26.951  25.023  1.00  0.00     0.173 A 
ATOM     75  F   UNL A   1      49.795  26.081  28.533  1.00  0.00    -0.203 F 
ATOM     76  C   UNL A   1      51.374  26.006  26.785  1.00  0.00     0.198 A 
ATOM     77  C   UNL A   1      50.735  26.665  24.568  1.00  0.00     0.198 A 
ATOM     78  F   UNL A   1      48.541  27.411  24.150  1.00  0.00    -0.203 F 
ATOM     79  F   UNL A   1      52.308  25.582  27.647  1.00  0.00    -0.200 F 
ATOM     80  C   UNL A   1      51.698  26.200  25.451  1.00  0.00     0.200 A 
ATOM     81  F   UNL A   1      51.040  26.841  23.275  1.00  0.00    -0.200 F 
ATOM     82  F   UNL A   1      52.940  25.945  25.018  1.00  0.00    -0.200 F 
ENDBRANCH  48  72
BRANCH  60  83
ATOM     83  C   UNL A   1      45.954  32.520  28.682  1.00  0.00     0.064 A 
ATOM     84  C   UNL A   1      46.554  32.925  29.883  1.00  0.00     0.173 A 
ATOM     85  C   UNL A   1      45.853  33.460  27.646  1.00  0.00     0.173 A 
ATOM     86  F   UNL A   1      46.656  32.067  30.910  1.00  0.00    -0.203 F 
ATOM     87  C   UNL A   1      47.022  34.226  30.045  1.00  0.00     0.198 A 
ATOM     88  C   UNL A   1      46.347  34.753  27.802  1.00  0.00     0.198 A 
ATOM     89  F   UNL A   1      45.291  33.120  26.477  1.00  0.00    -0.203 F 
ATOM     90  F   UNL A   1      47.556  34.603  31.215  1.00  0.00    -0.200 F 
ATOM     91  C   UNL A   1      46.925  35.136  29.003  1.00  0.00     0.200 A 
ATOM     92  F   UNL A   1      46.263  35.627  26.790  1.00  0.00    -0.200 F 
ATOM     93  F   UNL A   1      47.385  36.384  29.158  1.00  0.00    -0.200 F 
ENDBRANCH  60  83
ENDBRANCH  34  35
ENDBRANCH  26  29
ENDBRANCH  24  25
ENDBRANCH  23  24
ENDBRANCH   1  23
TORSDOF 16
ENDMDL
