MODEL 1
REMARK VINA RESULT:     -13.7      0.000      0.000
REMARK SMILES C[C@H]1c2ccc(O)cc2OC(=O)[C@@H]1CC(=O)N[C@@H](CC1=c2ccccc2=NC1)C(=O)NCCCCNC(=O)c1ccc(-c2c3nc(c(-c4c(F)c(F)c(F)c(F)c4F)c4ccc([nH]4)c(-c4c(F)c(F)c(F)c(F)c4F)c4nc(c(-c5c(F)c(F)c(F)c(F)c5F)c5ccc2[nH]5)C=C4)C=C3)cc1
REMARK SMILES IDX 32 1 31 2 29 3 30 4 18 6 17 7 15 8 16 9 14 11 13 12 1 13
REMARK SMILES IDX 2 14 3 15 4 16 9 17 11 18 5 19 8 20 10 21 12 22 6 23 7 24
REMARK SMILES IDX 19 26 20 27 21 28 28 29 22 30 26 31 27 32 23 33 25 34 24 35
REMARK SMILES IDX 33 36 34 37 35 38 36 39 37 40 38 42 39 43 40 44 101 45 41 46
REMARK SMILES IDX 100 47 42 48 43 49 44 50 94 51 45 52 99 53 93 54 95 55 46 56
REMARK SMILES IDX 98 57 92 58 91 59 47 61 79 62 59 63 78 64 60 65 63 66 77 67
REMARK SMILES IDX 96 68 61 69 62 70 76 72 97 73 64 74 48 75 49 76 57 77 50 78
REMARK SMILES IDX 51 79 55 80 58 81 52 82 53 83 56 84 54 85 80 86 81 87 89 88
REMARK SMILES IDX 82 89 83 90 87 91 90 92 84 93 85 94 88 95 86 96 65 97 66 98
REMARK SMILES IDX 74 99 67 100 68 101 72 102 75 103 69 104 70 105 73 106
REMARK SMILES IDX 71 107
REMARK H PARENT 31 5 17 10 7 25 36 41 95 60 63 71
REMARK Flexibility Score: inf
ROOT
ATOM      1  C   UNL A   1      34.460  28.948  27.347  1.00  0.00     0.116 C 
ENDROOT
BRANCH   1   2
ATOM      2  N   UNL A   1      33.201  28.669  27.977  1.00  0.00    -0.354 N 
ATOM      3  C   UNL A   1      32.072  28.188  27.371  1.00  0.00     0.242 C 
ATOM      4  O   UNL A   1      31.168  27.786  28.110  1.00  0.00    -0.273 OA
ATOM      5  H   UNL A   1      33.144  28.841  28.945  1.00  0.00     0.163 HD
BRANCH   3   6
ATOM      6  C   UNL A   1      31.950  28.041  25.822  1.00  0.00     0.175 C 
BRANCH   6   7
ATOM      7  N   UNL A   1      30.942  27.049  25.408  1.00  0.00    -0.344 N 
ATOM      8  C   UNL A   1      31.055  25.786  24.920  1.00  0.00     0.221 C 
ATOM      9  O   UNL A   1      30.020  25.160  24.681  1.00  0.00    -0.275 OA
ATOM     10  H   UNL A   1      30.011  27.361  25.501  1.00  0.00     0.164 HD
BRANCH   8  11
ATOM     11  C   UNL A   1      32.406  25.157  24.655  1.00  0.00     0.116 C 
BRANCH  11  12
ATOM     12  C   UNL A   1      32.360  24.180  23.462  1.00  0.00     0.116 C 
ATOM     13  C   UNL A   1      32.266  21.764  22.655  1.00  0.00     0.014 C 
ATOM     14  C   UNL A   1      32.493  22.696  23.856  1.00  0.00     0.034 C 
ATOM     15  C   UNL A   1      33.864  22.477  24.442  1.00  0.00    -0.001 A 
ATOM     16  C   UNL A   1      34.109  21.519  25.429  1.00  0.00     0.011 A 
ATOM     17  C   UNL A   1      34.923  23.283  24.015  1.00  0.00     0.138 A 
ATOM     18  C   UNL A   1      33.485  24.473  22.506  1.00  0.00     0.315 C 
ATOM     19  C   UNL A   1      35.380  21.418  26.003  1.00  0.00     0.047 A 
ATOM     20  C   UNL A   1      36.185  23.206  24.587  1.00  0.00     0.093 A 
ATOM     21  O   UNL A   1      34.759  24.200  22.967  1.00  0.00    -0.426 OA
ATOM     22  O   UNL A   1      33.307  24.959  21.400  1.00  0.00    -0.251 OA
ATOM     23  C   UNL A   1      36.400  22.274  25.590  1.00  0.00     0.119 A 
BRANCH  23  24
ATOM     24  O   UNL A   1      37.641  22.227  26.152  1.00  0.00    -0.508 OA
ATOM     25  H   UNL A   1      37.732  22.187  27.083  1.00  0.00     0.293 HD
ENDBRANCH  23  24
ENDBRANCH  11  12
ENDBRANCH   8  11
ENDBRANCH   6   7
BRANCH   6  26
ATOM     26  C   UNL A   1      31.844  29.431  25.089  1.00  0.00     0.068 C 
BRANCH  26  27
ATOM     27  C   UNL A   1      31.053  29.451  23.803  1.00  0.00    -0.037 C 
ATOM     28  C   UNL A   1      29.934  30.092  23.474  1.00  0.00     0.001 A 
ATOM     29  C   UNL A   1      31.430  28.583  22.633  1.00  0.00     0.174 C 
ATOM     30  C   UNL A   1      29.170  31.198  23.936  1.00  0.00     0.010 A 
ATOM     31  C   UNL A   1      29.355  29.141  22.503  1.00  0.00     0.065 A 
ATOM     32  N   UNL A   1      30.153  28.281  21.953  1.00  0.00    -0.280 NA
ATOM     33  C   UNL A   1      27.855  31.247  23.667  1.00  0.00     0.001 A 
ATOM     34  C   UNL A   1      27.881  29.164  22.379  1.00  0.00     0.028 A 
ATOM     35  C   UNL A   1      27.196  30.146  22.990  1.00  0.00     0.002 A 
ENDBRANCH  26  27
ENDBRANCH   6  26
ENDBRANCH   3   6
ENDBRANCH   1   2
BRANCH   1  36
ATOM     36  C   UNL A   1      35.071  30.312  27.638  1.00  0.00     0.023 C 
BRANCH  36  37
ATOM     37  C   UNL A   1      34.089  31.398  28.065  1.00  0.00     0.023 C 
BRANCH  37  38
ATOM     38  C   UNL A   1      34.205  32.734  27.338  1.00  0.00     0.116 C 
BRANCH  38  39
ATOM     39  N   UNL A   1      33.225  33.738  27.749  1.00  0.00    -0.352 N 
ATOM     40  C   UNL A   1      33.272  34.641  28.790  1.00  0.00     0.251 C 
ATOM     41  H   UNL A   1      32.409  33.774  27.200  1.00  0.00     0.163 HD
ATOM     42  O   UNL A   1      32.362  35.427  28.983  1.00  0.00    -0.269 OA
BRANCH  40  43
ATOM     43  C   UNL A   1      34.408  34.556  29.731  1.00  0.00     0.039 A 
ATOM     44  C   UNL A   1      35.693  34.872  29.294  1.00  0.00     0.014 A 
ATOM     45  C   UNL A   1      34.197  33.932  30.961  1.00  0.00     0.014 A 
ATOM     46  C   UNL A   1      36.774  34.312  29.961  1.00  0.00     0.010 A 
ATOM     47  C   UNL A   1      35.295  33.465  31.683  1.00  0.00     0.010 A 
ATOM     48  C   UNL A   1      36.584  33.561  31.137  1.00  0.00    -0.014 A 
BRANCH  48  49
ATOM     49  C   UNL A   1      37.725  32.805  31.718  1.00  0.00     0.031 A 
ATOM     50  C   UNL A   1      38.216  33.106  33.113  1.00  0.00     0.074 A 
ATOM     51  C   UNL A   1      38.263  31.785  31.024  1.00  0.00     0.049 A 
ATOM     52  N   UNL A   1      39.213  32.567  33.773  1.00  0.00    -0.248 NA
ATOM     53  C   UNL A   1      37.501  34.148  33.870  1.00  0.00     0.031 C 
ATOM     54  C   UNL A   1      37.848  31.371  29.684  1.00  0.00     0.029 A 
ATOM     55  N   UNL A   1      39.245  30.892  31.362  1.00  0.00    -0.354 N 
ATOM     56  C   UNL A   1      39.266  33.228  34.995  1.00  0.00     0.074 A 
ATOM     57  C   UNL A   1      38.212  34.218  34.988  1.00  0.00     0.031 C 
ATOM     58  C   UNL A   1      38.519  30.262  29.342  1.00  0.00     0.029 A 
ATOM     59  C   UNL A   1      39.467  29.937  30.402  1.00  0.00     0.049 A 
ATOM     60  H   UNL A   1      39.742  30.931  32.211  1.00  0.00     0.167 HD
ATOM     61  C   UNL A   1      40.115  33.022  36.032  1.00  0.00     0.037 A 
ATOM     62  C   UNL A   1      40.351  28.922  30.367  1.00  0.00     0.037 A 
ATOM     63  C   UNL A   1      41.130  32.001  36.060  1.00  0.00     0.049 A 
ATOM     64  C   UNL A   1      41.298  28.734  31.515  1.00  0.00     0.074 A 
ATOM     65  C   UNL A   1      42.025  31.702  37.072  1.00  0.00     0.029 A 
ATOM     66  N   UNL A   1      41.372  31.101  35.033  1.00  0.00    -0.354 N 
ATOM     67  N   UNL A   1      41.369  29.399  32.642  1.00  0.00    -0.248 NA
ATOM     68  C   UNL A   1      42.304  27.673  31.374  1.00  0.00     0.031 C 
ATOM     69  C   UNL A   1      42.831  30.642  36.645  1.00  0.00     0.029 A 
ATOM     70  C   UNL A   1      42.413  30.256  35.382  1.00  0.00     0.049 A 
ATOM     71  H   UNL A   1      40.877  31.067  34.183  1.00  0.00     0.167 HD
ATOM     72  C   UNL A   1      42.428  28.842  33.344  1.00  0.00     0.074 A 
ATOM     73  C   UNL A   1      42.951  27.765  32.528  1.00  0.00     0.031 C 
ATOM     74  C   UNL A   1      42.928  29.198  34.552  1.00  0.00     0.037 A 
BRANCH  61  75
ATOM     75  C   UNL A   1      39.998  33.919  37.229  1.00  0.00     0.064 A 
ATOM     76  C   UNL A   1      40.654  35.157  37.291  1.00  0.00     0.173 A 
ATOM     77  C   UNL A   1      39.153  33.570  38.295  1.00  0.00     0.173 A 
ATOM     78  F   UNL A   1      41.482  35.532  36.305  1.00  0.00    -0.203 F 
ATOM     79  C   UNL A   1      40.475  36.008  38.380  1.00  0.00     0.198 A 
ATOM     80  C   UNL A   1      38.960  34.432  39.371  1.00  0.00     0.198 A 
ATOM     81  F   UNL A   1      38.498  32.399  38.282  1.00  0.00    -0.203 F 
ATOM     82  F   UNL A   1      41.132  37.175  38.430  1.00  0.00    -0.200 F 
ATOM     83  C   UNL A   1      39.622  35.650  39.413  1.00  0.00     0.200 A 
ATOM     84  F   UNL A   1      38.126  34.089  40.362  1.00  0.00    -0.200 F 
ATOM     85  F   UNL A   1      39.439  36.477  40.452  1.00  0.00    -0.200 F 
ENDBRANCH  61  75
BRANCH  62  86
ATOM     86  C   UNL A   1      40.375  28.020  29.190  1.00  0.00     0.064 A 
ATOM     87  C   UNL A   1      39.609  26.847  29.170  1.00  0.00     0.173 A 
ATOM     88  C   UNL A   1      41.121  28.338  28.046  1.00  0.00     0.173 A 
ATOM     89  F   UNL A   1      38.896  26.494  30.249  1.00  0.00    -0.203 F 
ATOM     90  C   UNL A   1      39.587  26.026  28.044  1.00  0.00     0.198 A 
ATOM     91  C   UNL A   1      41.075  27.531  26.912  1.00  0.00     0.198 A 
ATOM     92  F   UNL A   1      41.865  29.453  28.017  1.00  0.00    -0.203 F 
ATOM     93  F   UNL A   1      38.864  24.899  28.055  1.00  0.00    -0.200 F 
ATOM     94  C   UNL A   1      40.311  26.374  26.913  1.00  0.00     0.200 A 
ATOM     95  F   UNL A   1      41.762  27.881  25.816  1.00  0.00    -0.200 F 
ATOM     96  F   UNL A   1      40.272  25.595  25.824  1.00  0.00    -0.200 F 
ENDBRANCH  62  86
BRANCH  74  97
ATOM     97  C   UNL A   1      44.103  28.423  35.062  1.00  0.00     0.064 A 
ATOM     98  C   UNL A   1      43.927  27.238  35.791  1.00  0.00     0.173 A 
ATOM     99  C   UNL A   1      45.412  28.837  34.778  1.00  0.00     0.173 A 
ATOM    100  F   UNL A   1      42.693  26.811  36.099  1.00  0.00    -0.203 F 
ATOM    101  C   UNL A   1      45.023  26.502  36.231  1.00  0.00     0.198 A 
ATOM    102  C   UNL A   1      46.505  28.087  35.201  1.00  0.00     0.198 A 
ATOM    103  F   UNL A   1      45.628  29.961  34.079  1.00  0.00    -0.203 F 
ATOM    104  F   UNL A   1      44.835  25.389  36.955  1.00  0.00    -0.200 F 
ATOM    105  C   UNL A   1      46.310  26.923  35.930  1.00  0.00     0.200 A 
ATOM    106  F   UNL A   1      47.747  28.489  34.901  1.00  0.00    -0.200 F 
ATOM    107  F   UNL A   1      47.365  26.210  36.347  1.00  0.00    -0.200 F 
ENDBRANCH  74  97
ENDBRANCH  48  49
ENDBRANCH  40  43
ENDBRANCH  38  39
ENDBRANCH  37  38
ENDBRANCH  36  37
ENDBRANCH   1  36
TORSDOF 17
ENDMDL
MODEL 2
REMARK VINA RESULT:     -13.6      0.466      6.946
REMARK SMILES C[C@H]1c2ccc(O)cc2OC(=O)[C@@H]1CC(=O)N[C@@H](CC1=c2ccccc2=NC1)C(=O)NCCCCNC(=O)c1ccc(-c2c3nc(c(-c4c(F)c(F)c(F)c(F)c4F)c4ccc([nH]4)c(-c4c(F)c(F)c(F)c(F)c4F)c4nc(c(-c5c(F)c(F)c(F)c(F)c5F)c5ccc2[nH]5)C=C4)C=C3)cc1
REMARK SMILES IDX 32 1 31 2 29 3 30 4 18 6 17 7 15 8 16 9 14 11 13 12 1 13
REMARK SMILES IDX 2 14 3 15 4 16 9 17 11 18 5 19 8 20 10 21 12 22 6 23 7 24
REMARK SMILES IDX 19 26 20 27 21 28 28 29 22 30 26 31 27 32 23 33 25 34 24 35
REMARK SMILES IDX 33 36 34 37 35 38 36 39 37 40 38 42 39 43 40 44 101 45 41 46
REMARK SMILES IDX 100 47 42 48 43 49 44 50 94 51 45 52 99 53 93 54 95 55 46 56
REMARK SMILES IDX 98 57 92 58 91 59 47 61 79 62 59 63 78 64 60 65 63 66 77 67
REMARK SMILES IDX 96 68 61 69 62 70 76 72 97 73 64 74 48 75 49 76 57 77 50 78
REMARK SMILES IDX 51 79 55 80 58 81 52 82 53 83 56 84 54 85 80 86 81 87 89 88
REMARK SMILES IDX 82 89 83 90 87 91 90 92 84 93 85 94 88 95 86 96 65 97 66 98
REMARK SMILES IDX 74 99 67 100 68 101 72 102 75 103 69 104 70 105 73 106
REMARK SMILES IDX 71 107
REMARK H PARENT 31 5 17 10 7 25 36 41 95 60 63 71
REMARK Flexibility Score: inf
ROOT
ATOM      1  C   UNL A   1      34.644  28.923  27.261  1.00  0.00     0.116 C 
ENDROOT
BRANCH   1   2
ATOM      2  N   UNL A   1      33.414  28.672  27.956  1.00  0.00    -0.354 N 
ATOM      3  C   UNL A   1      32.247  28.207  27.412  1.00  0.00     0.242 C 
ATOM      4  O   UNL A   1      31.375  27.828  28.199  1.00  0.00    -0.273 OA
ATOM      5  H   UNL A   1      33.410  28.852  28.924  1.00  0.00     0.163 HD
BRANCH   3   6
ATOM      6  C   UNL A   1      32.044  28.052  25.873  1.00  0.00     0.175 C 
BRANCH   6   7
ATOM      7  N   UNL A   1      31.026  27.046  25.517  1.00  0.00    -0.344 N 
ATOM      8  C   UNL A   1      31.128  25.770  25.063  1.00  0.00     0.221 C 
ATOM      9  O   UNL A   1      30.087  25.135  24.873  1.00  0.00    -0.275 OA
ATOM     10  H   UNL A   1      30.098  27.359  25.630  1.00  0.00     0.164 HD
BRANCH   8  11
ATOM     11  C   UNL A   1      32.472  25.136  24.775  1.00  0.00     0.116 C 
BRANCH  11  12
ATOM     12  C   UNL A   1      32.402  24.155  23.587  1.00  0.00     0.116 C 
ATOM     13  C   UNL A   1      32.309  21.735  22.791  1.00  0.00     0.014 C 
ATOM     14  C   UNL A   1      32.561  22.674  23.981  1.00  0.00     0.034 C 
ATOM     15  C   UNL A   1      33.951  22.471  24.528  1.00  0.00    -0.001 A 
ATOM     16  C   UNL A   1      34.236  21.519  25.509  1.00  0.00     0.011 A 
ATOM     17  C   UNL A   1      34.989  23.287  24.066  1.00  0.00     0.138 A 
ATOM     18  C   UNL A   1      33.494  24.456  22.597  1.00  0.00     0.315 C 
ATOM     19  C   UNL A   1      35.524  21.433  26.046  1.00  0.00     0.047 A 
ATOM     20  C   UNL A   1      36.268  23.225  24.601  1.00  0.00     0.093 A 
ATOM     21  O   UNL A   1      34.784  24.198  23.021  1.00  0.00    -0.426 OA
ATOM     22  O   UNL A   1      33.278  24.937  21.495  1.00  0.00    -0.251 OA
ATOM     23  C   UNL A   1      36.522  22.299  25.601  1.00  0.00     0.119 A 
BRANCH  23  24
ATOM     24  O   UNL A   1      37.780  22.267  26.125  1.00  0.00    -0.508 OA
ATOM     25  H   UNL A   1      37.969  21.710  26.853  1.00  0.00     0.293 HD
ENDBRANCH  23  24
ENDBRANCH  11  12
ENDBRANCH   8  11
ENDBRANCH   6   7
BRANCH   6  26
ATOM     26  C   UNL A   1      31.883  29.436  25.140  1.00  0.00     0.068 C 
BRANCH  26  27
ATOM     27  C   UNL A   1      31.119  29.420  23.837  1.00  0.00    -0.037 C 
ATOM     28  C   UNL A   1      30.005  30.049  23.468  1.00  0.00     0.001 A 
ATOM     29  C   UNL A   1      31.523  28.523  22.699  1.00  0.00     0.174 C 
ATOM     30  C   UNL A   1      29.229  31.164  23.884  1.00  0.00     0.010 A 
ATOM     31  C   UNL A   1      29.450  29.071  22.510  1.00  0.00     0.065 A 
ATOM     32  N   UNL A   1      30.262  28.199  22.001  1.00  0.00    -0.280 NA
ATOM     33  C   UNL A   1      27.920  31.202  23.587  1.00  0.00     0.001 A 
ATOM     34  C   UNL A   1      27.979  29.086  22.354  1.00  0.00     0.028 A 
ATOM     35  C   UNL A   1      27.278  30.081  22.925  1.00  0.00     0.002 A 
ENDBRANCH  26  27
ENDBRANCH   6  26
ENDBRANCH   3   6
ENDBRANCH   1   2
BRANCH   1  36
ATOM     36  C   UNL A   1      35.295  30.276  27.511  1.00  0.00     0.023 C 
BRANCH  36  37
ATOM     37  C   UNL A   1      34.386  31.347  28.105  1.00  0.00     0.023 C 
BRANCH  37  38
ATOM     38  C   UNL A   1      34.626  32.775  27.626  1.00  0.00     0.116 C 
BRANCH  38  39
ATOM     39  N   UNL A   1      33.583  33.727  28.006  1.00  0.00    -0.352 N 
ATOM     40  C   UNL A   1      33.467  34.499  29.143  1.00  0.00     0.251 C 
ATOM     41  H   UNL A   1      32.855  33.833  27.353  1.00  0.00     0.163 HD
ATOM     42  O   UNL A   1      32.528  35.261  29.293  1.00  0.00    -0.269 OA
BRANCH  40  43
ATOM     43  C   UNL A   1      34.456  34.298  30.222  1.00  0.00     0.039 A 
ATOM     44  C   UNL A   1      35.735  34.835  30.098  1.00  0.00     0.014 A 
ATOM     45  C   UNL A   1      34.155  33.372  31.224  1.00  0.00     0.014 A 
ATOM     46  C   UNL A   1      36.774  34.237  30.798  1.00  0.00     0.010 A 
ATOM     47  C   UNL A   1      35.191  32.852  31.999  1.00  0.00     0.010 A 
ATOM     48  C   UNL A   1      36.519  33.205  31.722  1.00  0.00    -0.014 A 
BRANCH  48  49
ATOM     49  C   UNL A   1      37.657  32.445  32.305  1.00  0.00     0.031 A 
ATOM     50  C   UNL A   1      38.354  31.372  31.504  1.00  0.00     0.074 A 
ATOM     51  C   UNL A   1      38.121  32.781  33.522  1.00  0.00     0.049 A 
ATOM     52  N   UNL A   1      39.346  30.590  31.857  1.00  0.00    -0.248 NA
ATOM     53  C   UNL A   1      37.880  31.140  30.129  1.00  0.00     0.031 C 
ATOM     54  C   UNL A   1      37.559  33.827  34.375  1.00  0.00     0.029 A 
ATOM     55  N   UNL A   1      39.191  32.306  34.235  1.00  0.00    -0.354 N 
ATOM     56  C   UNL A   1      39.583  29.755  30.771  1.00  0.00     0.074 A 
ATOM     57  C   UNL A   1      38.627  30.112  29.746  1.00  0.00     0.031 C 
ATOM     58  C   UNL A   1      38.329  33.964  35.464  1.00  0.00     0.029 A 
ATOM     59  C   UNL A   1      39.389  32.963  35.423  1.00  0.00     0.049 A 
ATOM     60  H   UNL A   1      39.761  31.566  33.924  1.00  0.00     0.167 HD
ATOM     61  C   UNL A   1      40.519  28.784  30.639  1.00  0.00     0.037 A 
ATOM     62  C   UNL A   1      40.308  32.769  36.386  1.00  0.00     0.037 A 
ATOM     63  C   UNL A   1      41.505  28.465  31.639  1.00  0.00     0.049 A 
ATOM     64  C   UNL A   1      41.315  31.668  36.227  1.00  0.00     0.074 A 
ATOM     65  C   UNL A   1      42.506  27.511  31.590  1.00  0.00     0.029 A 
ATOM     66  N   UNL A   1      41.623  29.106  32.863  1.00  0.00    -0.354 N 
ATOM     67  N   UNL A   1      41.494  30.854  35.216  1.00  0.00    -0.248 NA
ATOM     68  C   UNL A   1      42.228  31.440  37.356  1.00  0.00     0.031 C 
ATOM     69  C   UNL A   1      43.210  27.552  32.797  1.00  0.00     0.029 A 
ATOM     70  C   UNL A   1      42.672  28.557  33.583  1.00  0.00     0.049 A 
ATOM     71  H   UNL A   1      41.048  29.842  33.173  1.00  0.00     0.167 HD
ATOM     72  C   UNL A   1      42.537  30.016  35.585  1.00  0.00     0.074 A 
ATOM     73  C   UNL A   1      42.968  30.438  36.901  1.00  0.00     0.031 C 
ATOM     74  C   UNL A   1      43.079  28.982  34.897  1.00  0.00     0.037 A 
BRANCH  61  75
ATOM     75  C   UNL A   1      40.529  27.979  29.372  1.00  0.00     0.064 A 
ATOM     76  C   UNL A   1      39.697  26.864  29.200  1.00  0.00     0.173 A 
ATOM     77  C   UNL A   1      41.323  28.381  28.285  1.00  0.00     0.173 A 
ATOM     78  F   UNL A   1      38.929  26.432  30.211  1.00  0.00    -0.203 F 
ATOM     79  C   UNL A   1      39.667  26.173  27.990  1.00  0.00     0.198 A 
ATOM     80  C   UNL A   1      41.273  27.702  27.071  1.00  0.00     0.198 A 
ATOM     81  F   UNL A   1      42.131  29.446  28.397  1.00  0.00    -0.203 F 
ATOM     82  F   UNL A   1      38.884  25.094  27.856  1.00  0.00    -0.200 F 
ATOM     83  C   UNL A   1      40.447  26.598  26.924  1.00  0.00     0.200 A 
ATOM     84  F   UNL A   1      42.019  28.121  26.039  1.00  0.00    -0.200 F 
ATOM     85  F   UNL A   1      40.405  25.942  25.756  1.00  0.00    -0.200 F 
ENDBRANCH  61  75
BRANCH  62  86
ATOM     86  C   UNL A   1      40.299  33.640  37.586  1.00  0.00     0.064 A 
ATOM     87  C   UNL A   1      41.129  34.766  37.661  1.00  0.00     0.173 A 
ATOM     88  C   UNL A   1      39.426  33.395  38.656  1.00  0.00     0.173 A 
ATOM     89  F   UNL A   1      41.993  35.029  36.670  1.00  0.00    -0.203 F 
ATOM     90  C   UNL A   1      41.083  35.618  38.763  1.00  0.00     0.198 A 
ATOM     91  C   UNL A   1      39.361  34.262  39.743  1.00  0.00     0.198 A 
ATOM     92  F   UNL A   1      38.610  32.332  38.626  1.00  0.00    -0.203 F 
ATOM     93  F   UNL A   1      41.901  36.676  38.822  1.00  0.00    -0.200 F 
ATOM     94  C   UNL A   1      40.192  35.371  39.798  1.00  0.00     0.200 A 
ATOM     95  F   UNL A   1      38.487  34.030  40.731  1.00  0.00    -0.200 F 
ATOM     96  F   UNL A   1      40.134  36.203  40.846  1.00  0.00    -0.200 F 
ENDBRANCH  62  86
BRANCH  74  97
ATOM     97  C   UNL A   1      44.194  28.232  35.557  1.00  0.00     0.064 A 
ATOM     98  C   UNL A   1      43.936  27.131  36.385  1.00  0.00     0.173 A 
ATOM     99  C   UNL A   1      45.531  28.584  35.321  1.00  0.00     0.173 A 
ATOM    100  F   UNL A   1      42.672  26.767  36.651  1.00  0.00    -0.203 F 
ATOM    101  C   UNL A   1      44.979  26.415  36.966  1.00  0.00     0.198 A 
ATOM    102  C   UNL A   1      46.571  27.853  35.886  1.00  0.00     0.198 A 
ATOM    103  F   UNL A   1      45.827  29.627  34.531  1.00  0.00    -0.203 F 
ATOM    104  F   UNL A   1      44.711  25.385  37.781  1.00  0.00    -0.200 F 
ATOM    105  C   UNL A   1      46.295  26.772  36.711  1.00  0.00     0.200 A 
ATOM    106  F   UNL A   1      47.842  28.192  35.631  1.00  0.00    -0.200 F 
ATOM    107  F   UNL A   1      47.298  26.078  37.264  1.00  0.00    -0.200 F 
ENDBRANCH  74  97
ENDBRANCH  48  49
ENDBRANCH  40  43
ENDBRANCH  38  39
ENDBRANCH  37  38
ENDBRANCH  36  37
ENDBRANCH   1  36
TORSDOF 17
ENDMDL
MODEL 3
REMARK VINA RESULT:     -13.5      5.510     11.158
REMARK SMILES C[C@H]1c2ccc(O)cc2OC(=O)[C@@H]1CC(=O)N[C@@H](CC1=c2ccccc2=NC1)C(=O)NCCCCNC(=O)c1ccc(-c2c3nc(c(-c4c(F)c(F)c(F)c(F)c4F)c4ccc([nH]4)c(-c4c(F)c(F)c(F)c(F)c4F)c4nc(c(-c5c(F)c(F)c(F)c(F)c5F)c5ccc2[nH]5)C=C4)C=C3)cc1
REMARK SMILES IDX 32 1 31 2 29 3 30 4 18 6 17 7 15 8 16 9 14 11 13 12 1 13
REMARK SMILES IDX 2 14 3 15 4 16 9 17 11 18 5 19 8 20 10 21 12 22 6 23 7 24
REMARK SMILES IDX 19 26 20 27 21 28 28 29 22 30 26 31 27 32 23 33 25 34 24 35
REMARK SMILES IDX 33 36 34 37 35 38 36 39 37 40 38 42 39 43 40 44 101 45 41 46
REMARK SMILES IDX 100 47 42 48 43 49 44 50 94 51 45 52 99 53 93 54 95 55 46 56
REMARK SMILES IDX 98 57 92 58 91 59 47 61 79 62 59 63 78 64 60 65 63 66 77 67
REMARK SMILES IDX 96 68 61 69 62 70 76 72 97 73 64 74 48 75 49 76 57 77 50 78
REMARK SMILES IDX 51 79 55 80 58 81 52 82 53 83 56 84 54 85 80 86 81 87 89 88
REMARK SMILES IDX 82 89 83 90 87 91 90 92 84 93 85 94 88 95 86 96 65 97 66 98
REMARK SMILES IDX 74 99 67 100 68 101 72 102 75 103 69 104 70 105 73 106
REMARK SMILES IDX 71 107
REMARK H PARENT 31 5 17 10 7 25 36 41 95 60 63 71
REMARK Flexibility Score: inf
ROOT
ATOM      1  C   UNL A   1      37.652  23.813  25.749  1.00  0.00     0.116 C 
ENDROOT
BRANCH   1   2
ATOM      2  N   UNL A   1      37.613  23.478  24.354  1.00  0.00    -0.354 N 
ATOM      3  C   UNL A   1      36.553  22.950  23.668  1.00  0.00     0.242 C 
ATOM      4  O   UNL A   1      36.626  22.954  22.436  1.00  0.00    -0.273 OA
ATOM      5  H   UNL A   1      38.434  23.647  23.837  1.00  0.00     0.163 HD
BRANCH   3   6
ATOM      6  C   UNL A   1      35.255  22.460  24.382  1.00  0.00     0.175 C 
BRANCH   6   7
ATOM      7  N   UNL A   1      34.056  22.533  23.526  1.00  0.00    -0.344 N 
ATOM      8  C   UNL A   1      32.960  23.335  23.562  1.00  0.00     0.221 C 
ATOM      9  O   UNL A   1      32.106  23.193  22.683  1.00  0.00    -0.275 OA
ATOM     10  H   UNL A   1      34.048  21.877  22.791  1.00  0.00     0.164 HD
BRANCH   8  11
ATOM     11  C   UNL A   1      32.769  24.367  24.654  1.00  0.00     0.116 C 
BRANCH  11  12
ATOM     12  C   UNL A   1      31.292  24.789  24.791  1.00  0.00     0.116 C 
ATOM     13  C   UNL A   1      29.422  26.362  24.064  1.00  0.00     0.014 C 
ATOM     14  C   UNL A   1      30.933  26.085  24.038  1.00  0.00     0.034 C 
ATOM     15  C   UNL A   1      31.690  27.228  24.665  1.00  0.00    -0.001 A 
ATOM     16  C   UNL A   1      32.110  28.338  23.929  1.00  0.00     0.011 A 
ATOM     17  C   UNL A   1      32.018  27.163  26.022  1.00  0.00     0.138 A 
ATOM     18  C   UNL A   1      30.949  25.024  26.237  1.00  0.00     0.315 C 
ATOM     19  C   UNL A   1      32.886  29.328  24.539  1.00  0.00     0.047 A 
ATOM     20  C   UNL A   1      32.802  28.129  26.638  1.00  0.00     0.093 A 
ATOM     21  O   UNL A   1      31.549  26.119  26.832  1.00  0.00    -0.426 OA
ATOM     22  O   UNL A   1      30.219  24.283  26.876  1.00  0.00    -0.251 OA
ATOM     23  C   UNL A   1      33.241  29.204  25.882  1.00  0.00     0.119 A 
BRANCH  23  24
ATOM     24  O   UNL A   1      34.025  30.131  26.501  1.00  0.00    -0.508 OA
ATOM     25  H   UNL A   1      34.952  30.006  26.545  1.00  0.00     0.293 HD
ENDBRANCH  23  24
ENDBRANCH  11  12
ENDBRANCH   8  11
ENDBRANCH   6   7
BRANCH   6  26
ATOM     26  C   UNL A   1      35.452  21.082  25.119  1.00  0.00     0.068 C 
BRANCH  26  27
ATOM     27  C   UNL A   1      34.249  20.170  25.166  1.00  0.00    -0.037 C 
ATOM     28  C   UNL A   1      34.065  18.941  24.689  1.00  0.00     0.001 A 
ATOM     29  C   UNL A   1      32.939  20.624  25.749  1.00  0.00     0.174 C 
ATOM     30  C   UNL A   1      34.853  17.843  24.251  1.00  0.00     0.010 A 
ATOM     31  C   UNL A   1      32.617  18.982  24.395  1.00  0.00     0.065 A 
ATOM     32  N   UNL A   1      31.907  19.886  24.992  1.00  0.00    -0.280 NA
ATOM     33  C   UNL A   1      34.332  16.965  23.379  1.00  0.00     0.001 A 
ATOM     34  C   UNL A   1      32.154  18.083  23.315  1.00  0.00     0.028 A 
ATOM     35  C   UNL A   1      33.010  17.175  22.817  1.00  0.00     0.002 A 
ENDBRANCH  26  27
ENDBRANCH   6  26
ENDBRANCH   3   6
ENDBRANCH   1   2
BRANCH   1  36
ATOM     36  C   UNL A   1      38.903  23.394  26.508  1.00  0.00     0.023 C 
BRANCH  36  37
ATOM     37  C   UNL A   1      39.631  22.171  25.959  1.00  0.00     0.023 C 
BRANCH  37  38
ATOM     38  C   UNL A   1      39.665  20.944  26.864  1.00  0.00     0.116 C 
BRANCH  38  39
ATOM     39  N   UNL A   1      40.316  19.774  26.278  1.00  0.00    -0.352 N 
ATOM     40  C   UNL A   1      41.658  19.495  26.130  1.00  0.00     0.251 C 
ATOM     41  H   UNL A   1      39.705  19.081  25.939  1.00  0.00     0.163 HD
ATOM     42  O   UNL A   1      42.032  18.450  25.626  1.00  0.00    -0.269 OA
BRANCH  40  43
ATOM     43  C   UNL A   1      42.630  20.544  26.500  1.00  0.00     0.039 A 
ATOM     44  C   UNL A   1      42.693  20.996  27.816  1.00  0.00     0.014 A 
ATOM     45  C   UNL A   1      43.289  21.220  25.471  1.00  0.00     0.014 A 
ATOM     46  C   UNL A   1      43.181  22.275  28.053  1.00  0.00     0.010 A 
ATOM     47  C   UNL A   1      43.874  22.458  25.738  1.00  0.00     0.010 A 
ATOM     48  C   UNL A   1      43.733  23.039  27.007  1.00  0.00    -0.014 A 
BRANCH  48  49
ATOM     49  C   UNL A   1      44.061  24.471  27.239  1.00  0.00     0.031 A 
ATOM     50  C   UNL A   1      45.436  25.006  26.924  1.00  0.00     0.074 A 
ATOM     51  C   UNL A   1      43.093  25.311  27.649  1.00  0.00     0.049 A 
ATOM     52  N   UNL A   1      45.909  26.218  27.085  1.00  0.00    -0.248 NA
ATOM     53  C   UNL A   1      46.414  24.061  26.356  1.00  0.00     0.031 C 
ATOM     54  C   UNL A   1      41.715  24.923  27.947  1.00  0.00     0.029 A 
ATOM     55  N   UNL A   1      43.111  26.667  27.850  1.00  0.00    -0.354 N 
ATOM     56  C   UNL A   1      47.238  26.170  26.679  1.00  0.00     0.074 A 
ATOM     57  C   UNL A   1      47.507  24.808  26.274  1.00  0.00     0.031 C 
ATOM     58  C   UNL A   1      41.001  26.024  28.223  1.00  0.00     0.029 A 
ATOM     59  C   UNL A   1      41.888  27.181  28.202  1.00  0.00     0.049 A 
ATOM     60  H   UNL A   1      43.920  27.217  27.751  1.00  0.00     0.167 HD
ATOM     61  C   UNL A   1      48.148  27.173  26.642  1.00  0.00     0.037 A 
ATOM     62  C   UNL A   1      41.523  28.443  28.496  1.00  0.00     0.037 A 
ATOM     63  C   UNL A   1      47.865  28.540  26.994  1.00  0.00     0.049 A 
ATOM     64  C   UNL A   1      42.557  29.529  28.475  1.00  0.00     0.074 A 
ATOM     65  C   UNL A   1      48.716  29.632  26.972  1.00  0.00     0.029 A 
ATOM     66  N   UNL A   1      46.630  29.005  27.420  1.00  0.00    -0.354 N 
ATOM     67  N   UNL A   1      43.821  29.458  28.138  1.00  0.00    -0.248 NA
ATOM     68  C   UNL A   1      42.120  30.865  28.903  1.00  0.00     0.031 C 
ATOM     69  C   UNL A   1      48.005  30.751  27.413  1.00  0.00     0.029 A 
ATOM     70  C   UNL A   1      46.701  30.365  27.676  1.00  0.00     0.049 A 
ATOM     71  H   UNL A   1      45.823  28.452  27.523  1.00  0.00     0.167 HD
ATOM     72  C   UNL A   1      44.333  30.736  28.314  1.00  0.00     0.074 A 
ATOM     73  C   UNL A   1      43.235  31.568  28.761  1.00  0.00     0.031 C 
ATOM     74  C   UNL A   1      45.601  31.175  28.132  1.00  0.00     0.037 A 
BRANCH  61  75
ATOM     75  C   UNL A   1      49.548  26.842  26.212  1.00  0.00     0.064 A 
ATOM     76  C   UNL A   1      49.954  26.952  24.874  1.00  0.00     0.173 A 
ATOM     77  C   UNL A   1      50.517  26.490  27.165  1.00  0.00     0.173 A 
ATOM     78  F   UNL A   1      49.064  27.273  23.923  1.00  0.00    -0.203 F 
ATOM     79  C   UNL A   1      51.276  26.711  24.505  1.00  0.00     0.198 A 
ATOM     80  C   UNL A   1      51.841  26.272  26.796  1.00  0.00     0.198 A 
ATOM     81  F   UNL A   1      50.181  26.378  28.459  1.00  0.00    -0.203 F 
ATOM     82  F   UNL A   1      51.636  26.795  23.217  1.00  0.00    -0.200 F 
ATOM     83  C   UNL A   1      52.220  26.380  25.467  1.00  0.00     0.200 A 
ATOM     84  F   UNL A   1      52.753  25.965  27.729  1.00  0.00    -0.200 F 
ATOM     85  F   UNL A   1      53.494  26.164  25.112  1.00  0.00    -0.200 F 
ENDBRANCH  61  75
BRANCH  62  86
ATOM     86  C   UNL A   1      40.110  28.727  28.845  1.00  0.00     0.064 A 
ATOM     87  C   UNL A   1      39.656  28.596  30.164  1.00  0.00     0.173 A 
ATOM     88  C   UNL A   1      39.200  29.184  27.879  1.00  0.00     0.173 A 
ATOM     89  F   UNL A   1      40.486  28.146  31.116  1.00  0.00    -0.203 F 
ATOM     90  C   UNL A   1      38.343  28.916  30.505  1.00  0.00     0.198 A 
ATOM     91  C   UNL A   1      37.897  29.529  28.227  1.00  0.00     0.198 A 
ATOM     92  F   UNL A   1      39.590  29.328  26.605  1.00  0.00    -0.203 F 
ATOM     93  F   UNL A   1      37.927  28.763  31.768  1.00  0.00    -0.200 F 
ATOM     94  C   UNL A   1      37.468  29.392  29.538  1.00  0.00     0.200 A 
ATOM     95  F   UNL A   1      37.061  30.004  27.295  1.00  0.00    -0.200 F 
ATOM     96  F   UNL A   1      36.213  29.719  29.872  1.00  0.00    -0.200 F 
ENDBRANCH  62  86
BRANCH  74  97
ATOM     97  C   UNL A   1      45.873  32.618  28.421  1.00  0.00     0.064 A 
ATOM     98  C   UNL A   1      45.681  33.602  27.441  1.00  0.00     0.173 A 
ATOM     99  C   UNL A   1      46.279  33.028  29.700  1.00  0.00     0.173 A 
ATOM    100  F   UNL A   1      45.308  33.255  26.200  1.00  0.00    -0.203 F 
ATOM    101  C   UNL A   1      45.900  34.947  27.727  1.00  0.00     0.198 A 
ATOM    102  C   UNL A   1      46.476  34.375  29.987  1.00  0.00     0.198 A 
ATOM    103  F   UNL A   1      46.469  32.123  30.671  1.00  0.00    -0.203 F 
ATOM    104  F   UNL A   1      45.743  35.869  26.767  1.00  0.00    -0.200 F 
ATOM    105  C   UNL A   1      46.291  35.333  29.001  1.00  0.00     0.200 A 
ATOM    106  F   UNL A   1      46.843  34.748  31.221  1.00  0.00    -0.200 F 
ATOM    107  F   UNL A   1      46.494  36.628  29.277  1.00  0.00    -0.200 F 
ENDBRANCH  74  97
ENDBRANCH  48  49
ENDBRANCH  40  43
ENDBRANCH  38  39
ENDBRANCH  37  38
ENDBRANCH  36  37
ENDBRANCH   1  36
TORSDOF 17
ENDMDL
