MODEL 1
REMARK VINA RESULT:     -12.3      0.000      0.000
REMARK SMILES CC(C)C[C@H](CNC(=O)NC[C@H]1CCC(=O)N1)C(=O)NCCCCNC(=O)c1ccc(-c2c3nc(c(-c4c(F)c(F)c(F)c(F)c4F)c4ccc([nH]4)c(-c4c(F)c(F)c(F)c(F)c4F)c4nc(c(-c5c(F)c(F)c(F)c(F)c5F)c5ccc2[nH]5)C=C4)C=C3)cc1
REMARK SMILES IDX 21 1 20 2 18 3 19 4 5 6 4 7 2 8 1 9 3 10 6 11 7 12 8 13 9 15
REMARK SMILES IDX 10 16 11 18 12 19 13 20 17 21 14 22 15 23 16 25 22 26 23 27
REMARK SMILES IDX 24 28 25 29 26 30 27 32 28 33 29 34 90 35 30 36 89 37 31 38
REMARK SMILES IDX 32 39 33 40 83 41 34 42 88 43 82 44 84 45 35 46 87 47 81 48
REMARK SMILES IDX 80 49 36 51 68 52 48 53 67 54 49 55 52 56 66 57 85 58 50 59
REMARK SMILES IDX 51 60 65 62 86 63 53 64 37 65 38 66 46 67 39 68 40 69 44 70
REMARK SMILES IDX 47 71 41 72 42 73 45 74 43 75 69 76 70 77 78 78 71 79 72 80
REMARK SMILES IDX 76 81 79 82 73 83 74 84 77 85 75 86 54 87 55 88 63 89 56 90
REMARK SMILES IDX 57 91 61 92 64 93 58 94 59 95 62 96 60 97
REMARK H PARENT 20 5 7 14 10 17 17 24 25 31 84 50 52 61
REMARK Flexibility Score: inf
ROOT
ATOM      1  C   UNL A   1      31.893  29.494  27.186  1.00  0.00     0.116 C 
ENDROOT
BRANCH   1   2
ATOM      2  N   UNL A   1      32.904  28.542  26.771  1.00  0.00    -0.356 N 
ATOM      3  C   UNL A   1      32.794  27.334  26.154  1.00  0.00     0.224 C 
ATOM      4  O   UNL A   1      33.824  26.672  26.020  1.00  0.00    -0.275 OA
ATOM      5  H   UNL A   1      33.829  28.816  26.969  1.00  0.00     0.163 HD
BRANCH   3   6
ATOM      6  C   UNL A   1      31.464  26.813  25.616  1.00  0.00     0.098 C 
BRANCH   6   7
ATOM      7  C   UNL A   1      31.065  25.476  26.282  1.00  0.00     0.018 C 
BRANCH   7   8
ATOM      8  C   UNL A   1      31.824  24.234  25.761  1.00  0.00    -0.017 C 
ATOM      9  C   UNL A   1      32.467  23.441  26.898  1.00  0.00     0.007 C 
ATOM     10  C   UNL A   1      30.856  23.332  24.987  1.00  0.00     0.007 C 
ENDBRANCH   7   8
ENDBRANCH   6   7
BRANCH   6  11
ATOM     11  C   UNL A   1      31.476  26.773  24.078  1.00  0.00     0.131 C 
BRANCH  11  12
ATOM     12  N   UNL A   1      32.539  27.570  23.495  1.00  0.00    -0.337 N 
ATOM     13  C   UNL A   1      32.586  28.651  22.716  1.00  0.00     0.314 C 
ATOM     14  H   UNL A   1      33.434  27.235  23.731  1.00  0.00     0.165 HD
ATOM     15  O   UNL A   1      33.670  28.947  22.212  1.00  0.00    -0.249 OA
ATOM     16  N   UNL A   1      31.538  29.434  22.457  1.00  0.00    -0.336 N 
ATOM     17  H   UNL A   1      31.695  30.058  21.710  1.00  0.00     0.165 HD
BRANCH  16  18
ATOM     18  C   UNL A   1      30.214  29.562  23.036  1.00  0.00     0.142 C 
BRANCH  18  19
ATOM     19  C   UNL A   1      29.211  30.210  22.058  1.00  0.00     0.101 C 
ATOM     20  C   UNL A   1      27.775  30.178  22.589  1.00  0.00     0.036 C 
ATOM     21  N   UNL A   1      29.440  31.626  21.916  1.00  0.00    -0.352 N 
ATOM     22  C   UNL A   1      27.672  31.447  23.433  1.00  0.00     0.102 C 
ATOM     23  C   UNL A   1      28.598  32.388  22.703  1.00  0.00     0.220 C 
ATOM     24  H   UNL A   1      30.124  32.009  21.322  1.00  0.00     0.163 HD
ATOM     25  O   UNL A   1      28.641  33.596  22.811  1.00  0.00    -0.275 OA
ENDBRANCH  18  19
ENDBRANCH  16  18
ENDBRANCH  11  12
ENDBRANCH   6  11
ENDBRANCH   3   6
ENDBRANCH   1   2
BRANCH   1  26
ATOM     26  C   UNL A   1      31.790  30.650  26.194  1.00  0.00     0.023 C 
BRANCH  26  27
ATOM     27  C   UNL A   1      31.481  31.997  26.843  1.00  0.00     0.023 C 
BRANCH  27  28
ATOM     28  C   UNL A   1      32.710  32.786  27.275  1.00  0.00     0.116 C 
BRANCH  28  29
ATOM     29  N   UNL A   1      32.411  34.168  27.621  1.00  0.00    -0.352 N 
ATOM     30  C   UNL A   1      32.996  34.948  28.588  1.00  0.00     0.251 C 
ATOM     31  H   UNL A   1      31.699  34.598  27.094  1.00  0.00     0.163 HD
ATOM     32  O   UNL A   1      32.550  36.056  28.857  1.00  0.00    -0.269 OA
BRANCH  30  33
ATOM     33  C   UNL A   1      34.152  34.405  29.325  1.00  0.00     0.039 A 
ATOM     34  C   UNL A   1      33.925  33.640  30.470  1.00  0.00     0.014 A 
ATOM     35  C   UNL A   1      35.446  34.592  28.834  1.00  0.00     0.014 A 
ATOM     36  C   UNL A   1      35.000  33.003  31.087  1.00  0.00     0.010 A 
ATOM     37  C   UNL A   1      36.500  33.886  29.397  1.00  0.00     0.010 A 
ATOM     38  C   UNL A   1      36.289  33.087  30.531  1.00  0.00    -0.014 A 
BRANCH  38  39
ATOM     39  C   UNL A   1      37.430  32.351  31.126  1.00  0.00     0.031 A 
ATOM     40  C   UNL A   1      37.934  32.726  32.490  1.00  0.00     0.074 A 
ATOM     41  C   UNL A   1      38.048  31.390  30.412  1.00  0.00     0.049 A 
ATOM     42  N   UNL A   1      38.955  32.249  33.156  1.00  0.00    -0.248 NA
ATOM     43  C   UNL A   1      37.214  33.803  33.189  1.00  0.00     0.031 C 
ATOM     44  C   UNL A   1      37.683  30.974  29.057  1.00  0.00     0.029 A 
ATOM     45  N   UNL A   1      39.121  30.593  30.724  1.00  0.00    -0.354 N 
ATOM     46  C   UNL A   1      39.002  32.970  34.341  1.00  0.00     0.074 A 
ATOM     47  C   UNL A   1      37.953  33.962  34.276  1.00  0.00     0.031 C 
ATOM     48  C   UNL A   1      38.500  29.984  28.665  1.00  0.00     0.029 A 
ATOM     49  C   UNL A   1      39.473  29.725  29.720  1.00  0.00     0.049 A 
ATOM     50  H   UNL A   1      39.594  30.641  31.586  1.00  0.00     0.167 HD
ATOM     51  C   UNL A   1      39.828  32.799  35.401  1.00  0.00     0.037 A 
ATOM     52  C   UNL A   1      40.474  28.826  29.658  1.00  0.00     0.037 A 
ATOM     53  C   UNL A   1      40.860  31.799  35.464  1.00  0.00     0.049 A 
ATOM     54  C   UNL A   1      41.390  28.670  30.842  1.00  0.00     0.074 A 
ATOM     55  C   UNL A   1      41.718  31.510  36.511  1.00  0.00     0.029 A 
ATOM     56  N   UNL A   1      41.178  30.926  34.433  1.00  0.00    -0.354 N 
ATOM     57  N   UNL A   1      41.380  29.307  31.988  1.00  0.00    -0.248 NA
ATOM     58  C   UNL A   1      42.453  27.662  30.728  1.00  0.00     0.031 C 
ATOM     59  C   UNL A   1      42.591  30.501  36.094  1.00  0.00     0.029 A 
ATOM     60  C   UNL A   1      42.236  30.114  34.811  1.00  0.00     0.049 A 
ATOM     61  H   UNL A   1      40.720  30.888  33.563  1.00  0.00     0.167 HD
ATOM     62  C   UNL A   1      42.409  28.759  32.741  1.00  0.00     0.074 A 
ATOM     63  C   UNL A   1      43.014  27.724  31.927  1.00  0.00     0.031 C 
ATOM     64  C   UNL A   1      42.820  29.082  33.991  1.00  0.00     0.037 A 
BRANCH  51  65
ATOM     65  C   UNL A   1      39.644  33.713  36.578  1.00  0.00     0.064 A 
ATOM     66  C   UNL A   1      38.843  33.351  37.672  1.00  0.00     0.173 A 
ATOM     67  C   UNL A   1      40.304  34.949  36.632  1.00  0.00     0.173 A 
ATOM     68  F   UNL A   1      38.178  32.185  37.668  1.00  0.00    -0.203 F 
ATOM     69  C   UNL A   1      38.685  34.207  38.761  1.00  0.00     0.198 A 
ATOM     70  C   UNL A   1      40.172  35.787  37.736  1.00  0.00     0.198 A 
ATOM     71  F   UNL A   1      41.085  35.344  35.614  1.00  0.00    -0.203 F 
ATOM     72  F   UNL A   1      37.870  33.862  39.768  1.00  0.00    -0.200 F 
ATOM     73  C   UNL A   1      39.356  35.419  38.795  1.00  0.00     0.200 A 
ATOM     74  F   UNL A   1      40.833  36.952  37.775  1.00  0.00    -0.200 F 
ATOM     75  F   UNL A   1      39.210  36.237  39.847  1.00  0.00    -0.200 F 
ENDBRANCH  51  65
BRANCH  52  76
ATOM     76  C   UNL A   1      40.655  27.994  28.438  1.00  0.00     0.064 A 
ATOM     77  C   UNL A   1      40.062  26.729  28.331  1.00  0.00     0.173 A 
ATOM     78  C   UNL A   1      41.436  28.440  27.360  1.00  0.00     0.173 A 
ATOM     79  F   UNL A   1      39.320  26.249  29.342  1.00  0.00    -0.203 F 
ATOM     80  C   UNL A   1      40.265  25.930  27.207  1.00  0.00     0.198 A 
ATOM     81  C   UNL A   1      41.610  27.655  26.223  1.00  0.00     0.198 A 
ATOM     82  F   UNL A   1      42.020  29.646  27.407  1.00  0.00    -0.203 F 
ATOM     83  F   UNL A   1      39.730  24.702  27.156  1.00  0.00    -0.200 F 
ATOM     84  C   UNL A   1      41.034  26.395  26.152  1.00  0.00     0.200 A 
ATOM     85  F   UNL A   1      42.340  28.116  25.198  1.00  0.00    -0.200 F 
ATOM     86  F   UNL A   1      41.227  25.628  25.071  1.00  0.00    -0.200 F 
ENDBRANCH  52  76
BRANCH  64  87
ATOM     87  C   UNL A   1      43.948  28.283  34.576  1.00  0.00     0.064 A 
ATOM     88  C   UNL A   1      43.726  27.080  35.264  1.00  0.00     0.173 A 
ATOM     89  C   UNL A   1      45.277  28.706  34.410  1.00  0.00     0.173 A 
ATOM     90  F   UNL A   1      42.475  26.638  35.463  1.00  0.00    -0.203 F 
ATOM     91  C   UNL A   1      44.788  26.349  35.788  1.00  0.00     0.198 A 
ATOM     92  C   UNL A   1      46.338  27.954  34.904  1.00  0.00     0.198 A 
ATOM     93  F   UNL A   1      45.546  29.844  33.752  1.00  0.00    -0.203 F 
ATOM     94  F   UNL A   1      44.548  25.231  36.489  1.00  0.00    -0.200 F 
ATOM     95  C   UNL A   1      46.093  26.781  35.601  1.00  0.00     0.200 A 
ATOM     96  F   UNL A   1      47.597  28.364  34.705  1.00  0.00    -0.200 F 
ATOM     97  F   UNL A   1      47.113  26.069  36.097  1.00  0.00    -0.200 F 
ENDBRANCH  64  87
ENDBRANCH  38  39
ENDBRANCH  30  33
ENDBRANCH  28  29
ENDBRANCH  27  28
ENDBRANCH  26  27
ENDBRANCH   1  26
TORSDOF 17
ENDMDL
MODEL 2
REMARK VINA RESULT:     -12.0      0.859      7.328
REMARK SMILES CC(C)C[C@H](CNC(=O)NC[C@H]1CCC(=O)N1)C(=O)NCCCCNC(=O)c1ccc(-c2c3nc(c(-c4c(F)c(F)c(F)c(F)c4F)c4ccc([nH]4)c(-c4c(F)c(F)c(F)c(F)c4F)c4nc(c(-c5c(F)c(F)c(F)c(F)c5F)c5ccc2[nH]5)C=C4)C=C3)cc1
REMARK SMILES IDX 21 1 20 2 18 3 19 4 5 6 4 7 2 8 1 9 3 10 6 11 7 12 8 13 9 15
REMARK SMILES IDX 10 16 11 18 12 19 13 20 17 21 14 22 15 23 16 25 22 26 23 27
REMARK SMILES IDX 24 28 25 29 26 30 27 32 28 33 29 34 90 35 30 36 89 37 31 38
REMARK SMILES IDX 32 39 33 40 83 41 34 42 88 43 82 44 84 45 35 46 87 47 81 48
REMARK SMILES IDX 80 49 36 51 68 52 48 53 67 54 49 55 52 56 66 57 85 58 50 59
REMARK SMILES IDX 51 60 65 62 86 63 53 64 37 65 38 66 46 67 39 68 40 69 44 70
REMARK SMILES IDX 47 71 41 72 42 73 45 74 43 75 69 76 70 77 78 78 71 79 72 80
REMARK SMILES IDX 76 81 79 82 73 83 74 84 77 85 75 86 54 87 55 88 63 89 56 90
REMARK SMILES IDX 57 91 61 92 64 93 58 94 59 95 62 96 60 97
REMARK H PARENT 20 5 7 14 10 17 17 24 25 31 84 50 52 61
REMARK Flexibility Score: inf
ROOT
ATOM      1  C   UNL A   1      31.685  29.739  25.605  1.00  0.00     0.116 C 
ENDROOT
BRANCH   1   2
ATOM      2  N   UNL A   1      32.659  28.694  25.357  1.00  0.00    -0.356 N 
ATOM      3  C   UNL A   1      32.572  27.342  25.494  1.00  0.00     0.224 C 
ATOM      4  O   UNL A   1      33.603  26.690  25.322  1.00  0.00    -0.275 OA
ATOM      5  H   UNL A   1      33.531  29.016  25.035  1.00  0.00     0.163 HD
BRANCH   3   6
ATOM      6  C   UNL A   1      31.257  26.639  25.818  1.00  0.00     0.098 C 
BRANCH   6   7
ATOM      7  C   UNL A   1      31.494  25.296  26.546  1.00  0.00     0.018 C 
BRANCH   7   8
ATOM      8  C   UNL A   1      30.888  24.058  25.846  1.00  0.00    -0.017 C 
ATOM      9  C   UNL A   1      31.958  23.219  25.148  1.00  0.00     0.007 C 
ATOM     10  C   UNL A   1      30.152  23.197  26.878  1.00  0.00     0.007 C 
ENDBRANCH   7   8
ENDBRANCH   6   7
BRANCH   6  11
ATOM     11  C   UNL A   1      30.372  26.530  24.564  1.00  0.00     0.131 C 
BRANCH  11  12
ATOM     12  N   UNL A   1      31.133  26.316  23.347  1.00  0.00    -0.337 N 
ATOM     13  C   UNL A   1      31.183  26.906  22.153  1.00  0.00     0.314 C 
ATOM     14  H   UNL A   1      31.757  25.560  23.421  1.00  0.00     0.165 HD
ATOM     15  O   UNL A   1      31.790  26.326  21.252  1.00  0.00    -0.249 OA
ATOM     16  N   UNL A   1      30.625  28.086  21.876  1.00  0.00    -0.336 N 
ATOM     17  H   UNL A   1      30.578  28.275  20.910  1.00  0.00     0.165 HD
BRANCH  16  18
ATOM     18  C   UNL A   1      30.070  29.149  22.692  1.00  0.00     0.142 C 
BRANCH  18  19
ATOM     19  C   UNL A   1      29.017  29.979  21.928  1.00  0.00     0.101 C 
ATOM     20  C   UNL A   1      27.685  30.065  22.678  1.00  0.00     0.036 C 
ATOM     21  N   UNL A   1      29.393  31.368  21.837  1.00  0.00    -0.352 N 
ATOM     22  C   UNL A   1      27.867  31.268  23.603  1.00  0.00     0.102 C 
ATOM     23  C   UNL A   1      28.779  32.154  22.793  1.00  0.00     0.220 C 
ATOM     24  H   UNL A   1      30.021  31.719  21.165  1.00  0.00     0.163 HD
ATOM     25  O   UNL A   1      28.986  33.338  22.966  1.00  0.00    -0.275 OA
ENDBRANCH  18  19
ENDBRANCH  16  18
ENDBRANCH  11  12
ENDBRANCH   6  11
ENDBRANCH   3   6
ENDBRANCH   1   2
BRANCH   1  26
ATOM     26  C   UNL A   1      31.983  30.466  26.914  1.00  0.00     0.023 C 
BRANCH  26  27
ATOM     27  C   UNL A   1      31.726  31.970  26.859  1.00  0.00     0.023 C 
BRANCH  27  28
ATOM     28  C   UNL A   1      32.879  32.825  27.366  1.00  0.00     0.116 C 
BRANCH  28  29
ATOM     29  N   UNL A   1      32.486  34.193  27.675  1.00  0.00    -0.352 N 
ATOM     30  C   UNL A   1      32.992  35.025  28.643  1.00  0.00     0.251 C 
ATOM     31  H   UNL A   1      31.765  34.568  27.119  1.00  0.00     0.163 HD
ATOM     32  O   UNL A   1      32.471  36.108  28.877  1.00  0.00    -0.269 OA
BRANCH  30  33
ATOM     33  C   UNL A   1      34.156  34.568  29.425  1.00  0.00     0.039 A 
ATOM     34  C   UNL A   1      33.948  34.030  30.695  1.00  0.00     0.014 A 
ATOM     35  C   UNL A   1      35.435  34.605  28.863  1.00  0.00     0.014 A 
ATOM     36  C   UNL A   1      35.022  33.463  31.379  1.00  0.00     0.010 A 
ATOM     37  C   UNL A   1      36.483  33.962  29.507  1.00  0.00     0.010 A 
ATOM     38  C   UNL A   1      36.288  33.388  30.773  1.00  0.00    -0.014 A 
BRANCH  38  39
ATOM     39  C   UNL A   1      37.424  32.716  31.449  1.00  0.00     0.031 A 
ATOM     40  C   UNL A   1      38.106  31.552  30.789  1.00  0.00     0.074 A 
ATOM     41  C   UNL A   1      37.798  33.116  32.680  1.00  0.00     0.049 A 
ATOM     42  N   UNL A   1      39.072  30.793  31.242  1.00  0.00    -0.248 NA
ATOM     43  C   UNL A   1      37.618  31.168  29.455  1.00  0.00     0.031 C 
ATOM     44  C   UNL A   1      37.177  34.200  33.444  1.00  0.00     0.029 A 
ATOM     45  N   UNL A   1      38.786  32.651  33.510  1.00  0.00    -0.354 N 
ATOM     46  C   UNL A   1      39.298  29.844  30.255  1.00  0.00     0.074 A 
ATOM     47  C   UNL A   1      38.326  30.076  29.211  1.00  0.00     0.031 C 
ATOM     48  C   UNL A   1      37.814  34.332  34.617  1.00  0.00     0.029 A 
ATOM     49  C   UNL A   1      38.858  33.317  34.709  1.00  0.00     0.049 A 
ATOM     50  H   UNL A   1      39.386  31.908  33.270  1.00  0.00     0.167 HD
ATOM     51  C   UNL A   1      40.252  28.882  30.211  1.00  0.00     0.037 A 
ATOM     52  C   UNL A   1      39.670  33.123  35.766  1.00  0.00     0.037 A 
ATOM     53  C   UNL A   1      41.226  28.667  31.247  1.00  0.00     0.049 A 
ATOM     54  C   UNL A   1      40.708  32.035  35.699  1.00  0.00     0.074 A 
ATOM     55  C   UNL A   1      42.265  27.754  31.277  1.00  0.00     0.029 A 
ATOM     56  N   UNL A   1      41.277  29.372  32.442  1.00  0.00    -0.354 N 
ATOM     57  N   UNL A   1      40.962  31.190  34.730  1.00  0.00    -0.248 NA
ATOM     58  C   UNL A   1      41.580  31.880  36.871  1.00  0.00     0.031 C 
ATOM     59  C   UNL A   1      42.910  27.867  32.512  1.00  0.00     0.029 A 
ATOM     60  C   UNL A   1      42.316  28.896  33.226  1.00  0.00     0.049 A 
ATOM     61  H   UNL A   1      40.667  30.102  32.694  1.00  0.00     0.167 HD
ATOM     62  C   UNL A   1      42.038  30.425  35.159  1.00  0.00     0.074 A 
ATOM     63  C   UNL A   1      42.401  30.919  36.472  1.00  0.00     0.031 C 
ATOM     64  C   UNL A   1      42.669  29.406  34.527  1.00  0.00     0.037 A 
BRANCH  51  65
ATOM     65  C   UNL A   1      40.288  27.995  28.999  1.00  0.00     0.064 A 
ATOM     66  C   UNL A   1      41.023  28.341  27.855  1.00  0.00     0.173 A 
ATOM     67  C   UNL A   1      39.608  26.768  28.994  1.00  0.00     0.173 A 
ATOM     68  F   UNL A   1      41.681  29.510  27.802  1.00  0.00    -0.203 F 
ATOM     69  C   UNL A   1      41.052  27.507  26.740  1.00  0.00     0.198 A 
ATOM     70  C   UNL A   1      39.667  25.920  27.890  1.00  0.00     0.198 A 
ATOM     71  F   UNL A   1      38.892  26.386  30.062  1.00  0.00    -0.203 F 
ATOM     72  F   UNL A   1      41.716  27.885  25.639  1.00  0.00    -0.200 F 
ATOM     73  C   UNL A   1      40.381  26.294  26.762  1.00  0.00     0.200 A 
ATOM     74  F   UNL A   1      39.031  24.741  27.919  1.00  0.00    -0.200 F 
ATOM     75  F   UNL A   1      40.417  25.487  25.692  1.00  0.00    -0.200 F 
ENDBRANCH  51  65
BRANCH  52  76
ATOM     76  C   UNL A   1      39.545  33.986  36.971  1.00  0.00     0.064 A 
ATOM     77  C   UNL A   1      38.788  33.577  38.078  1.00  0.00     0.173 A 
ATOM     78  C   UNL A   1      40.168  35.242  37.037  1.00  0.00     0.173 A 
ATOM     79  F   UNL A   1      38.158  32.392  38.058  1.00  0.00    -0.203 F 
ATOM     80  C   UNL A   1      38.635  34.402  39.191  1.00  0.00     0.198 A 
ATOM     81  C   UNL A   1      40.042  36.051  38.164  1.00  0.00     0.198 A 
ATOM     82  F   UNL A   1      40.910  35.678  36.009  1.00  0.00    -0.203 F 
ATOM     83  F   UNL A   1      37.860  34.008  40.211  1.00  0.00    -0.200 F 
ATOM     84  C   UNL A   1      39.266  35.635  39.236  1.00  0.00     0.200 A 
ATOM     85  F   UNL A   1      40.668  37.235  38.209  1.00  0.00    -0.200 F 
ATOM     86  F   UNL A   1      39.121  36.427  40.307  1.00  0.00    -0.200 F 
ENDBRANCH  52  76
BRANCH  64  87
ATOM     87  C   UNL A   1      43.844  28.782  35.225  1.00  0.00     0.064 A 
ATOM     88  C   UNL A   1      43.689  27.732  36.141  1.00  0.00     0.173 A 
ATOM     89  C   UNL A   1      45.149  29.215  34.939  1.00  0.00     0.173 A 
ATOM     90  F   UNL A   1      42.463  27.289  36.460  1.00  0.00    -0.203 F 
ATOM     91  C   UNL A   1      44.792  27.160  36.767  1.00  0.00     0.198 A 
ATOM     92  C   UNL A   1      46.252  28.618  35.540  1.00  0.00     0.198 A 
ATOM     93  F   UNL A   1      45.354  30.211  34.063  1.00  0.00    -0.203 F 
ATOM     94  F   UNL A   1      44.617  26.194  37.680  1.00  0.00    -0.200 F 
ATOM     95  C   UNL A   1      46.073  27.597  36.461  1.00  0.00     0.200 A 
ATOM     96  F   UNL A   1      47.488  29.029  35.228  1.00  0.00    -0.200 F 
ATOM     97  F   UNL A   1      47.134  27.037  37.057  1.00  0.00    -0.200 F 
ENDBRANCH  64  87
ENDBRANCH  38  39
ENDBRANCH  30  33
ENDBRANCH  28  29
ENDBRANCH  27  28
ENDBRANCH  26  27
ENDBRANCH   1  26
TORSDOF 17
ENDMDL
MODEL 3
REMARK VINA RESULT:     -11.9      5.815     10.001
REMARK SMILES CC(C)C[C@H](CNC(=O)NC[C@H]1CCC(=O)N1)C(=O)NCCCCNC(=O)c1ccc(-c2c3nc(c(-c4c(F)c(F)c(F)c(F)c4F)c4ccc([nH]4)c(-c4c(F)c(F)c(F)c(F)c4F)c4nc(c(-c5c(F)c(F)c(F)c(F)c5F)c5ccc2[nH]5)C=C4)C=C3)cc1
REMARK SMILES IDX 21 1 20 2 18 3 19 4 5 6 4 7 2 8 1 9 3 10 6 11 7 12 8 13 9 15
REMARK SMILES IDX 10 16 11 18 12 19 13 20 17 21 14 22 15 23 16 25 22 26 23 27
REMARK SMILES IDX 24 28 25 29 26 30 27 32 28 33 29 34 90 35 30 36 89 37 31 38
REMARK SMILES IDX 32 39 33 40 83 41 34 42 88 43 82 44 84 45 35 46 87 47 81 48
REMARK SMILES IDX 80 49 36 51 68 52 48 53 67 54 49 55 52 56 66 57 85 58 50 59
REMARK SMILES IDX 51 60 65 62 86 63 53 64 37 65 38 66 46 67 39 68 40 69 44 70
REMARK SMILES IDX 47 71 41 72 42 73 45 74 43 75 69 76 70 77 78 78 71 79 72 80
REMARK SMILES IDX 76 81 79 82 73 83 74 84 77 85 75 86 54 87 55 88 63 89 56 90
REMARK SMILES IDX 57 91 61 92 64 93 58 94 59 95 62 96 60 97
REMARK H PARENT 20 5 7 14 10 17 17 24 25 31 84 50 52 61
REMARK Flexibility Score: inf
ROOT
ATOM      1  C   UNL A   1      35.904  21.134  24.714  1.00  0.00     0.116 C 
ENDROOT
BRANCH   1   2
ATOM      2  N   UNL A   1      35.327  21.310  26.032  1.00  0.00    -0.356 N 
ATOM      3  C   UNL A   1      34.080  21.038  26.504  1.00  0.00     0.224 C 
ATOM      4  O   UNL A   1      33.820  21.399  27.653  1.00  0.00    -0.275 OA
ATOM      5  H   UNL A   1      35.942  21.691  26.700  1.00  0.00     0.163 HD
BRANCH   3   6
ATOM      6  C   UNL A   1      33.039  20.293  25.673  1.00  0.00     0.098 C 
BRANCH   6   7
ATOM      7  C   UNL A   1      33.701  19.365  24.629  1.00  0.00     0.018 C 
BRANCH   7   8
ATOM      8  C   UNL A   1      32.916  18.071  24.316  1.00  0.00    -0.017 C 
ATOM      9  C   UNL A   1      33.700  17.139  23.391  1.00  0.00     0.007 C 
ATOM     10  C   UNL A   1      32.590  17.341  25.624  1.00  0.00     0.007 C 
ENDBRANCH   7   8
ENDBRANCH   6   7
BRANCH   6  11
ATOM     11  C   UNL A   1      32.008  21.272  25.084  1.00  0.00     0.131 C 
BRANCH  11  12
ATOM     12  N   UNL A   1      31.156  21.877  26.091  1.00  0.00    -0.337 N 
ATOM     13  C   UNL A   1      30.598  23.075  26.254  1.00  0.00     0.314 C 
ATOM     14  H   UNL A   1      30.939  21.256  26.824  1.00  0.00     0.165 HD
ATOM     15  O   UNL A   1      30.104  23.333  27.353  1.00  0.00    -0.249 OA
ATOM     16  N   UNL A   1      30.533  24.008  25.303  1.00  0.00    -0.336 N 
ATOM     17  H   UNL A   1      30.278  24.896  25.646  1.00  0.00     0.165 HD
BRANCH  16  18
ATOM     18  C   UNL A   1      30.759  23.996  23.870  1.00  0.00     0.142 C 
BRANCH  18  19
ATOM     19  C   UNL A   1      30.868  25.420  23.286  1.00  0.00     0.101 C 
ATOM     20  C   UNL A   1      31.897  26.278  24.028  1.00  0.00     0.036 C 
ATOM     21  N   UNL A   1      31.405  25.410  21.948  1.00  0.00    -0.352 N 
ATOM     22  C   UNL A   1      33.214  25.958  23.322  1.00  0.00     0.102 C 
ATOM     23  C   UNL A   1      32.757  25.691  21.909  1.00  0.00     0.220 C 
ATOM     24  H   UNL A   1      30.864  25.224  21.147  1.00  0.00     0.163 HD
ATOM     25  O   UNL A   1      33.449  25.673  20.912  1.00  0.00    -0.275 OA
ENDBRANCH  18  19
ENDBRANCH  16  18
ENDBRANCH  11  12
ENDBRANCH   6  11
ENDBRANCH   3   6
ENDBRANCH   1   2
BRANCH   1  26
ATOM     26  C   UNL A   1      37.410  21.384  24.738  1.00  0.00     0.023 C 
BRANCH  26  27
ATOM     27  C   UNL A   1      38.243  20.127  24.977  1.00  0.00     0.023 C 
BRANCH  27  28
ATOM     28  C   UNL A   1      39.407  20.317  25.939  1.00  0.00     0.116 C 
BRANCH  28  29
ATOM     29  N   UNL A   1      40.329  19.189  25.953  1.00  0.00    -0.352 N 
ATOM     30  C   UNL A   1      41.693  19.209  26.108  1.00  0.00     0.251 C 
ATOM     31  H   UNL A   1      39.922  18.300  25.836  1.00  0.00     0.163 HD
ATOM     32  O   UNL A   1      42.356  18.189  25.965  1.00  0.00    -0.269 OA
BRANCH  30  33
ATOM     33  C   UNL A   1      42.348  20.494  26.413  1.00  0.00     0.039 A 
ATOM     34  C   UNL A   1      42.894  21.239  25.367  1.00  0.00     0.014 A 
ATOM     35  C   UNL A   1      42.349  20.987  27.720  1.00  0.00     0.014 A 
ATOM     36  C   UNL A   1      43.384  22.518  25.625  1.00  0.00     0.010 A 
ATOM     37  C   UNL A   1      42.755  22.293  27.957  1.00  0.00     0.010 A 
ATOM     38  C   UNL A   1      43.280  23.070  26.914  1.00  0.00    -0.014 A 
BRANCH  38  39
ATOM     39  C   UNL A   1      43.719  24.459  27.191  1.00  0.00     0.031 A 
ATOM     40  C   UNL A   1      42.731  25.470  27.699  1.00  0.00     0.074 A 
ATOM     41  C   UNL A   1      44.990  24.821  26.928  1.00  0.00     0.049 A 
ATOM     42  N   UNL A   1      42.901  26.745  27.941  1.00  0.00    -0.248 NA
ATOM     43  C   UNL A   1      41.359  24.993  27.936  1.00  0.00     0.031 C 
ATOM     44  C   UNL A   1      46.026  23.942  26.383  1.00  0.00     0.029 A 
ATOM     45  N   UNL A   1      45.624  26.029  27.074  1.00  0.00    -0.354 N 
ATOM     46  C   UNL A   1      41.663  27.219  28.351  1.00  0.00     0.074 A 
ATOM     47  C   UNL A   1      40.734  26.115  28.259  1.00  0.00     0.031 C 
ATOM     48  C   UNL A   1      47.171  24.632  26.266  1.00  0.00     0.029 A 
ATOM     49  C   UNL A   1      46.941  26.011  26.683  1.00  0.00     0.049 A 
ATOM     50  H   UNL A   1      45.178  26.833  27.424  1.00  0.00     0.167 HD
ATOM     51  C   UNL A   1      41.336  28.457  28.792  1.00  0.00     0.037 A 
ATOM     52  C   UNL A   1      47.856  26.999  26.658  1.00  0.00     0.037 A 
ATOM     53  C   UNL A   1      42.270  29.547  28.896  1.00  0.00     0.049 A 
ATOM     54  C   UNL A   1      47.461  28.371  27.136  1.00  0.00     0.074 A 
ATOM     55  C   UNL A   1      42.052  30.826  29.377  1.00  0.00     0.029 A 
ATOM     56  N   UNL A   1      43.600  29.487  28.504  1.00  0.00    -0.354 N 
ATOM     57  N   UNL A   1      46.306  28.790  27.591  1.00  0.00    -0.248 NA
ATOM     58  C   UNL A   1      48.503  29.407  27.106  1.00  0.00     0.031 C 
ATOM     59  C   UNL A   1      43.235  31.555  29.226  1.00  0.00     0.029 A 
ATOM     60  C   UNL A   1      44.208  30.714  28.712  1.00  0.00     0.049 A 
ATOM     61  H   UNL A   1      44.046  28.690  28.135  1.00  0.00     0.167 HD
ATOM     62  C   UNL A   1      46.487  30.124  27.929  1.00  0.00     0.074 A 
ATOM     63  C   UNL A   1      47.871  30.440  27.642  1.00  0.00     0.031 C 
ATOM     64  C   UNL A   1      45.591  31.009  28.429  1.00  0.00     0.037 A 
BRANCH  51  65
ATOM     65  C   UNL A   1      39.910  28.695  29.200  1.00  0.00     0.064 A 
ATOM     66  C   UNL A   1      39.471  28.460  30.512  1.00  0.00     0.173 A 
ATOM     67  C   UNL A   1      38.980  29.198  28.279  1.00  0.00     0.173 A 
ATOM     68  F   UNL A   1      40.317  27.967  31.430  1.00  0.00    -0.203 F 
ATOM     69  C   UNL A   1      38.147  28.690  30.878  1.00  0.00     0.198 A 
ATOM     70  C   UNL A   1      37.665  29.459  28.657  1.00  0.00     0.198 A 
ATOM     71  F   UNL A   1      39.346  29.443  27.012  1.00  0.00    -0.203 F 
ATOM     72  F   UNL A   1      37.739  28.405  32.122  1.00  0.00    -0.200 F 
ATOM     73  C   UNL A   1      37.248  29.197  29.952  1.00  0.00     0.200 A 
ATOM     74  F   UNL A   1      36.801  29.964  27.765  1.00  0.00    -0.200 F 
ATOM     75  F   UNL A   1      35.976  29.426  30.308  1.00  0.00    -0.200 F 
ENDBRANCH  51  65
BRANCH  52  76
ATOM     76  C   UNL A   1      49.237  26.726  26.178  1.00  0.00     0.064 A 
ATOM     77  C   UNL A   1      49.602  26.973  24.847  1.00  0.00     0.173 A 
ATOM     78  C   UNL A   1      50.216  26.199  27.034  1.00  0.00     0.173 A 
ATOM     79  F   UNL A   1      48.697  27.460  23.984  1.00  0.00    -0.203 F 
ATOM     80  C   UNL A   1      50.883  26.678  24.385  1.00  0.00     0.198 A 
ATOM     81  C   UNL A   1      51.506  25.936  26.578  1.00  0.00     0.198 A 
ATOM     82  F   UNL A   1      49.923  25.951  28.318  1.00  0.00    -0.203 F 
ATOM     83  F   UNL A   1      51.187  26.873  23.094  1.00  0.00    -0.200 F 
ATOM     84  C   UNL A   1      51.835  26.165  25.251  1.00  0.00     0.200 A 
ATOM     85  F   UNL A   1      52.428  25.457  27.424  1.00  0.00    -0.200 F 
ATOM     86  F   UNL A   1      53.067  25.884  24.806  1.00  0.00    -0.200 F 
ENDBRANCH  52  76
BRANCH  64  87
ATOM     87  C   UNL A   1      46.086  32.393  28.741  1.00  0.00     0.064 A 
ATOM     88  C   UNL A   1      46.643  32.717  29.986  1.00  0.00     0.173 A 
ATOM     89  C   UNL A   1      46.039  33.398  27.762  1.00  0.00     0.173 A 
ATOM     90  F   UNL A   1      46.699  31.797  30.961  1.00  0.00    -0.203 F 
ATOM     91  C   UNL A   1      47.107  34.002  30.250  1.00  0.00     0.198 A 
ATOM     92  C   UNL A   1      46.536  34.672  28.017  1.00  0.00     0.198 A 
ATOM     93  F   UNL A   1      45.524  33.139  26.550  1.00  0.00    -0.203 F 
ATOM     94  F   UNL A   1      47.586  34.304  31.465  1.00  0.00    -0.200 F 
ATOM     95  C   UNL A   1      47.061  34.977  29.263  1.00  0.00     0.200 A 
ATOM     96  F   UNL A   1      46.508  35.605  27.056  1.00  0.00    -0.200 F 
ATOM     97  F   UNL A   1      47.518  36.210  29.516  1.00  0.00    -0.200 F 
ENDBRANCH  64  87
ENDBRANCH  38  39
ENDBRANCH  30  33
ENDBRANCH  28  29
ENDBRANCH  27  28
ENDBRANCH  26  27
ENDBRANCH   1  26
TORSDOF 17
ENDMDL
