MODEL 1
REMARK VINA RESULT:     -10.7      0.000      0.000
REMARK SMILES CC(C)C[C@H](C[NH3+])C(=O)N1CCSC[C@@H]1CC(=O)NCCCCNC(=O)c1ccc(-c2c3nc(c(-c4c(F)c(F)c(F)c(F)c4F)c4ccc([nH]4)c(-c4c(F)c(F)c(F)c(F)c4F)c4nc(c(-c5c(F)c(F)c(F)c(F)c5F)c5ccc2[nH]5)C=C4)C=C3)cc1
REMARK SMILES IDX 20 1 19 2 17 3 18 4 16 6 15 7 10 8 11 9 12 10 14 11 13 12
REMARK SMILES IDX 8 13 9 14 5 15 4 16 2 17 1 18 3 19 6 20 7 21 21 25 22 26
REMARK SMILES IDX 23 27 24 28 25 29 26 31 27 32 28 33 89 34 29 35 88 36 30 37
REMARK SMILES IDX 31 38 32 39 82 40 33 41 87 42 81 43 83 44 34 45 86 46 80 47
REMARK SMILES IDX 79 48 35 50 67 51 47 52 66 53 48 54 51 55 65 56 84 57 49 58
REMARK SMILES IDX 50 59 64 61 85 62 52 63 36 64 37 65 45 66 38 67 39 68 43 69
REMARK SMILES IDX 46 70 40 71 41 72 44 73 42 74 68 75 69 76 77 77 70 78 71 79
REMARK SMILES IDX 75 80 78 81 72 82 73 83 76 84 74 85 53 86 54 87 62 88 55 89
REMARK SMILES IDX 56 90 60 91 63 92 57 93 58 94 61 95 59 96
REMARK H PARENT 19 5 7 22 7 23 7 24 24 30 83 49 51 60
REMARK Flexibility Score: inf
ROOT
ATOM      1  C   UNL A   1      32.575  29.914  26.786  1.00  0.00     0.116 C 
ENDROOT
BRANCH   1   2
ATOM      2  N   UNL A   1      33.647  29.554  25.879  1.00  0.00    -0.356 N 
ATOM      3  C   UNL A   1      33.868  28.360  25.256  1.00  0.00     0.222 C 
ATOM      4  O   UNL A   1      34.404  28.377  24.148  1.00  0.00    -0.275 OA
ATOM      5  H   UNL A   1      34.301  30.264  25.686  1.00  0.00     0.163 HD
BRANCH   3   6
ATOM      6  C   UNL A   1      33.486  27.057  25.921  1.00  0.00     0.126 C 
BRANCH   6   7
ATOM      7  C   UNL A   1      32.616  26.196  24.993  1.00  0.00     0.104 C 
ATOM      8  N   UNL A   1      31.195  26.618  24.979  1.00  0.00    -0.337 N 
ATOM      9  C   UNL A   1      30.345  26.128  26.066  1.00  0.00     0.130 C 
ATOM     10  C   UNL A   1      30.280  24.600  26.124  1.00  0.00     0.091 C 
ATOM     11  C   UNL A   1      32.843  24.684  25.210  1.00  0.00     0.095 C 
ATOM     12  S   UNL A   1      31.916  23.954  26.593  1.00  0.00    -0.158 SA
BRANCH   8  13
ATOM     13  C   UNL A   1      30.643  26.936  23.750  1.00  0.00     0.231 C 
ATOM     14  O   UNL A   1      30.429  26.042  22.923  1.00  0.00    -0.274 OA
BRANCH  13  15
ATOM     15  C   UNL A   1      30.385  28.406  23.362  1.00  0.00     0.133 C 
BRANCH  15  16
ATOM     16  C   UNL A   1      28.942  28.922  23.127  1.00  0.00     0.022 C 
BRANCH  16  17
ATOM     17  C   UNL A   1      28.672  30.370  22.668  1.00  0.00    -0.016 C 
ATOM     18  C   UNL A   1      28.064  30.450  21.270  1.00  0.00     0.007 C 
ATOM     19  C   UNL A   1      27.656  31.035  23.615  1.00  0.00     0.007 C 
ENDBRANCH  16  17
ENDBRANCH  15  16
BRANCH  15  20
ATOM     20  C   UNL A   1      31.504  29.065  22.542  1.00  0.00     0.272 C 
BRANCH  20  21
ATOM     21  N   UNL A   1      32.544  28.204  21.999  1.00  0.00    -0.357 N 
ATOM     22  H   UNL A   1      33.410  28.734  21.907  1.00  0.00     0.344 HD
ATOM     23  H   UNL A   1      32.256  27.859  21.083  1.00  0.00     0.344 HD
ATOM     24  H   UNL A   1      32.693  27.415  22.628  1.00  0.00     0.344 HD
ENDBRANCH  20  21
ENDBRANCH  15  20
ENDBRANCH  13  15
ENDBRANCH   8  13
ENDBRANCH   6   7
ENDBRANCH   3   6
ENDBRANCH   1   2
BRANCH   1  25
ATOM     25  C   UNL A   1      31.464  30.806  26.232  1.00  0.00     0.023 C 
BRANCH  25  26
ATOM     26  C   UNL A   1      31.335  32.214  26.811  1.00  0.00     0.023 C 
BRANCH  26  27
ATOM     27  C   UNL A   1      32.621  33.014  26.956  1.00  0.00     0.116 C 
BRANCH  27  28
ATOM     28  N   UNL A   1      32.432  34.288  27.627  1.00  0.00    -0.352 N 
ATOM     29  C   UNL A   1      33.053  34.822  28.728  1.00  0.00     0.251 C 
ATOM     30  H   UNL A   1      31.742  34.865  27.227  1.00  0.00     0.163 HD
ATOM     31  O   UNL A   1      32.641  35.876  29.202  1.00  0.00    -0.269 OA
BRANCH  29  32
ATOM     32  C   UNL A   1      34.198  34.134  29.366  1.00  0.00     0.039 A 
ATOM     33  C   UNL A   1      35.489  34.442  28.924  1.00  0.00     0.014 A 
ATOM     34  C   UNL A   1      34.015  33.171  30.361  1.00  0.00     0.014 A 
ATOM     35  C   UNL A   1      36.594  33.829  29.516  1.00  0.00     0.010 A 
ATOM     36  C   UNL A   1      35.119  32.617  31.004  1.00  0.00     0.010 A 
ATOM     37  C   UNL A   1      36.419  32.934  30.584  1.00  0.00    -0.014 A 
BRANCH  37  38
ATOM     38  C   UNL A   1      37.583  32.304  31.255  1.00  0.00     0.031 A 
ATOM     39  C   UNL A   1      38.328  31.187  30.580  1.00  0.00     0.074 A 
ATOM     40  C   UNL A   1      37.934  32.699  32.495  1.00  0.00     0.049 A 
ATOM     41  N   UNL A   1      39.318  30.458  31.031  1.00  0.00    -0.248 NA
ATOM     42  C   UNL A   1      37.882  30.820  29.226  1.00  0.00     0.031 C 
ATOM     43  C   UNL A   1      37.258  33.737  33.273  1.00  0.00     0.029 A 
ATOM     44  N   UNL A   1      38.938  32.262  33.323  1.00  0.00    -0.354 N 
ATOM     45  C   UNL A   1      39.599  29.540  30.027  1.00  0.00     0.074 A 
ATOM     46  C   UNL A   1      38.643  29.767  28.966  1.00  0.00     0.031 C 
ATOM     47  C   UNL A   1      37.874  33.868  34.459  1.00  0.00     0.029 A 
ATOM     48  C   UNL A   1      38.967  32.902  34.537  1.00  0.00     0.049 A 
ATOM     49  H   UNL A   1      39.575  31.556  33.070  1.00  0.00     0.167 HD
ATOM     50  C   UNL A   1      40.581  28.608  29.985  1.00  0.00     0.037 A 
ATOM     51  C   UNL A   1      39.780  32.726  35.596  1.00  0.00     0.037 A 
ATOM     52  C   UNL A   1      41.550  28.406  31.029  1.00  0.00     0.049 A 
ATOM     53  C   UNL A   1      40.873  31.696  35.517  1.00  0.00     0.074 A 
ATOM     54  C   UNL A   1      42.618  27.526  31.059  1.00  0.00     0.029 A 
ATOM     55  N   UNL A   1      41.569  29.101  32.229  1.00  0.00    -0.354 N 
ATOM     56  N   UNL A   1      41.165  30.874  34.539  1.00  0.00    -0.248 NA
ATOM     57  C   UNL A   1      41.754  31.574  36.687  1.00  0.00     0.031 C 
ATOM     58  C   UNL A   1      43.263  27.664  32.292  1.00  0.00     0.029 A 
ATOM     59  C   UNL A   1      42.624  28.660  33.013  1.00  0.00     0.049 A 
ATOM     60  H   UNL A   1      40.930  29.803  32.486  1.00  0.00     0.167 HD
ATOM     61  C   UNL A   1      42.273  30.154  34.963  1.00  0.00     0.074 A 
ATOM     62  C   UNL A   1      42.614  30.649  36.281  1.00  0.00     0.031 C 
ATOM     63  C   UNL A   1      42.949  29.170  34.320  1.00  0.00     0.037 A 
BRANCH  50  64
ATOM     64  C   UNL A   1      40.662  27.745  28.760  1.00  0.00     0.064 A 
ATOM     65  C   UNL A   1      41.469  28.095  27.667  1.00  0.00     0.173 A 
ATOM     66  C   UNL A   1      39.948  26.539  28.688  1.00  0.00     0.173 A 
ATOM     67  F   UNL A   1      42.161  29.244  27.681  1.00  0.00    -0.203 F 
ATOM     68  C   UNL A   1      41.535  27.288  26.534  1.00  0.00     0.198 A 
ATOM     69  C   UNL A   1      40.040  25.719  27.566  1.00  0.00     0.198 A 
ATOM     70  F   UNL A   1      39.167  26.153  29.707  1.00  0.00    -0.203 F 
ATOM     71  F   UNL A   1      42.273  27.669  25.483  1.00  0.00    -0.200 F 
ATOM     72  C   UNL A   1      40.826  26.097  26.488  1.00  0.00     0.200 A 
ATOM     73  F   UNL A   1      39.362  24.562  27.526  1.00  0.00    -0.200 F 
ATOM     74  F   UNL A   1      40.894  25.318  25.399  1.00  0.00    -0.200 F 
ENDBRANCH  50  64
BRANCH  51  75
ATOM     75  C   UNL A   1      39.602  33.559  36.812  1.00  0.00     0.064 A 
ATOM     76  C   UNL A   1      40.252  34.795  36.939  1.00  0.00     0.173 A 
ATOM     77  C   UNL A   1      38.781  33.142  37.869  1.00  0.00     0.173 A 
ATOM     78  F   UNL A   1      41.064  35.227  35.963  1.00  0.00    -0.203 F 
ATOM     79  C   UNL A   1      40.102  35.572  38.085  1.00  0.00     0.198 A 
ATOM     80  C   UNL A   1      38.611  33.933  39.004  1.00  0.00     0.198 A 
ATOM     81  F   UNL A   1      38.134  31.970  37.795  1.00  0.00    -0.203 F 
ATOM     82  F   UNL A   1      40.769  36.730  38.199  1.00  0.00    -0.200 F 
ATOM     83  C   UNL A   1      39.277  35.144  39.114  1.00  0.00     0.200 A 
ATOM     84  F   UNL A   1      37.803  33.521  39.991  1.00  0.00    -0.200 F 
ATOM     85  F   UNL A   1      39.130  35.894  40.215  1.00  0.00    -0.200 F 
ENDBRANCH  51  75
BRANCH  63  86
ATOM     86  C   UNL A   1      44.136  28.582  35.021  1.00  0.00     0.064 A 
ATOM     87  C   UNL A   1      44.017  27.456  35.847  1.00  0.00     0.173 A 
ATOM     88  C   UNL A   1      45.416  29.125  34.828  1.00  0.00     0.173 A 
ATOM     89  F   UNL A   1      42.812  26.910  36.074  1.00  0.00    -0.203 F 
ATOM     90  C   UNL A   1      45.133  26.906  36.472  1.00  0.00     0.198 A 
ATOM     91  C   UNL A   1      46.533  28.557  35.432  1.00  0.00     0.198 A 
ATOM     92  F   UNL A   1      45.582  30.200  34.042  1.00  0.00    -0.203 F 
ATOM     93  F   UNL A   1      44.991  25.855  37.290  1.00  0.00    -0.200 F 
ATOM     94  C   UNL A   1      46.390  27.452  36.258  1.00  0.00     0.200 A 
ATOM     95  F   UNL A   1      47.748  29.079  35.217  1.00  0.00    -0.200 F 
ATOM     96  F   UNL A   1      47.465  26.917  36.855  1.00  0.00    -0.200 F 
ENDBRANCH  63  86
ENDBRANCH  37  38
ENDBRANCH  29  32
ENDBRANCH  27  28
ENDBRANCH  26  27
ENDBRANCH  25  26
ENDBRANCH   1  25
TORSDOF 18
ENDMDL
MODEL 2
REMARK VINA RESULT:     -10.7      5.620     10.976
REMARK SMILES CC(C)C[C@H](C[NH3+])C(=O)N1CCSC[C@@H]1CC(=O)NCCCCNC(=O)c1ccc(-c2c3nc(c(-c4c(F)c(F)c(F)c(F)c4F)c4ccc([nH]4)c(-c4c(F)c(F)c(F)c(F)c4F)c4nc(c(-c5c(F)c(F)c(F)c(F)c5F)c5ccc2[nH]5)C=C4)C=C3)cc1
REMARK SMILES IDX 20 1 19 2 17 3 18 4 16 6 15 7 10 8 11 9 12 10 14 11 13 12
REMARK SMILES IDX 8 13 9 14 5 15 4 16 2 17 1 18 3 19 6 20 7 21 21 25 22 26
REMARK SMILES IDX 23 27 24 28 25 29 26 31 27 32 28 33 89 34 29 35 88 36 30 37
REMARK SMILES IDX 31 38 32 39 82 40 33 41 87 42 81 43 83 44 34 45 86 46 80 47
REMARK SMILES IDX 79 48 35 50 67 51 47 52 66 53 48 54 51 55 65 56 84 57 49 58
REMARK SMILES IDX 50 59 64 61 85 62 52 63 36 64 37 65 45 66 38 67 39 68 43 69
REMARK SMILES IDX 46 70 40 71 41 72 44 73 42 74 68 75 69 76 77 77 70 78 71 79
REMARK SMILES IDX 75 80 78 81 72 82 73 83 76 84 74 85 53 86 54 87 62 88 55 89
REMARK SMILES IDX 56 90 60 91 63 92 57 93 58 94 61 95 59 96
REMARK H PARENT 19 5 7 22 7 23 7 24 24 30 83 49 51 60
REMARK Flexibility Score: inf
ROOT
ATOM      1  C   UNL A   1      37.506  22.418  25.276  1.00  0.00     0.116 C 
ENDROOT
BRANCH   1   2
ATOM      2  N   UNL A   1      36.581  22.780  26.333  1.00  0.00    -0.356 N 
ATOM      3  C   UNL A   1      35.324  23.297  26.221  1.00  0.00     0.222 C 
ATOM      4  O   UNL A   1      34.501  23.008  27.091  1.00  0.00    -0.275 OA
ATOM      5  H   UNL A   1      36.903  22.632  27.252  1.00  0.00     0.163 HD
BRANCH   3   6
ATOM      6  C   UNL A   1      34.963  24.217  25.077  1.00  0.00     0.126 C 
BRANCH   6   7
ATOM      7  C   UNL A   1      33.518  24.722  25.207  1.00  0.00     0.104 C 
ATOM      8  N   UNL A   1      32.668  24.342  24.053  1.00  0.00    -0.337 N 
ATOM      9  C   UNL A   1      32.750  25.187  22.861  1.00  0.00     0.130 C 
ATOM     10  C   UNL A   1      32.372  26.644  23.139  1.00  0.00     0.091 C 
ATOM     11  C   UNL A   1      33.449  26.212  25.602  1.00  0.00     0.095 C 
ATOM     12  S   UNL A   1      33.630  27.386  24.225  1.00  0.00    -0.158 SA
BRANCH   8  13
ATOM     13  C   UNL A   1      31.513  23.630  24.327  1.00  0.00     0.231 C 
ATOM     14  O   UNL A   1      30.491  23.839  23.661  1.00  0.00    -0.274 OA
BRANCH  13  15
ATOM     15  C   UNL A   1      31.456  22.653  25.518  1.00  0.00     0.133 C 
BRANCH  15  16
ATOM     16  C   UNL A   1      31.967  21.197  25.373  1.00  0.00     0.022 C 
BRANCH  16  17
ATOM     17  C   UNL A   1      33.030  20.820  24.320  1.00  0.00    -0.016 C 
ATOM     18  C   UNL A   1      33.873  19.614  24.727  1.00  0.00     0.007 C 
ATOM     19  C   UNL A   1      32.338  20.432  23.000  1.00  0.00     0.007 C 
ENDBRANCH  16  17
ENDBRANCH  15  16
BRANCH  15  20
ATOM     20  C   UNL A   1      30.295  22.891  26.496  1.00  0.00     0.272 C 
BRANCH  20  21
ATOM     21  N   UNL A   1      29.806  24.253  26.648  1.00  0.00    -0.357 N 
ATOM     22  H   UNL A   1      29.890  24.746  25.759  1.00  0.00     0.344 HD
ATOM     23  H   UNL A   1      30.358  24.736  27.358  1.00  0.00     0.344 HD
ATOM     24  H   UNL A   1      28.827  24.233  26.934  1.00  0.00     0.344 HD
ENDBRANCH  20  21
ENDBRANCH  15  20
ENDBRANCH  13  15
ENDBRANCH   8  13
ENDBRANCH   6   7
ENDBRANCH   3   6
ENDBRANCH   1   2
BRANCH   1  25
ATOM     25  C   UNL A   1      37.234  21.112  24.530  1.00  0.00     0.023 C 
BRANCH  25  26
ATOM     26  C   UNL A   1      38.025  19.876  24.959  1.00  0.00     0.023 C 
BRANCH  26  27
ATOM     27  C   UNL A   1      39.075  20.079  26.042  1.00  0.00     0.116 C 
BRANCH  27  28
ATOM     28  N   UNL A   1      40.190  19.154  25.941  1.00  0.00    -0.352 N 
ATOM     29  C   UNL A   1      41.542  19.368  26.026  1.00  0.00     0.251 C 
ATOM     30  H   UNL A   1      39.933  18.217  25.783  1.00  0.00     0.163 HD
ATOM     31  O   UNL A   1      42.315  18.447  25.781  1.00  0.00    -0.269 OA
BRANCH  29  32
ATOM     32  C   UNL A   1      42.083  20.698  26.385  1.00  0.00     0.039 A 
ATOM     33  C   UNL A   1      42.331  21.613  25.357  1.00  0.00     0.014 A 
ATOM     34  C   UNL A   1      42.380  21.037  27.707  1.00  0.00     0.014 A 
ATOM     35  C   UNL A   1      42.823  22.885  25.660  1.00  0.00     0.010 A 
ATOM     36  C   UNL A   1      42.797  22.330  28.015  1.00  0.00     0.010 A 
ATOM     37  C   UNL A   1      43.029  23.264  26.995  1.00  0.00    -0.014 A 
BRANCH  37  38
ATOM     38  C   UNL A   1      43.511  24.626  27.341  1.00  0.00     0.031 A 
ATOM     39  C   UNL A   1      42.558  25.640  27.906  1.00  0.00     0.074 A 
ATOM     40  C   UNL A   1      44.791  24.964  27.094  1.00  0.00     0.049 A 
ATOM     41  N   UNL A   1      42.764  26.900  28.199  1.00  0.00    -0.248 NA
ATOM     42  C   UNL A   1      41.178  25.188  28.147  1.00  0.00     0.031 C 
ATOM     43  C   UNL A   1      45.799  24.082  26.502  1.00  0.00     0.029 A 
ATOM     44  N   UNL A   1      45.460  26.145  27.296  1.00  0.00    -0.354 N 
ATOM     45  C   UNL A   1      41.542  27.390  28.640  1.00  0.00     0.074 A 
ATOM     46  C   UNL A   1      40.586  26.311  28.528  1.00  0.00     0.031 C 
ATOM     47  C   UNL A   1      46.961  24.748  26.402  1.00  0.00     0.029 A 
ATOM     48  C   UNL A   1      46.772  26.111  26.893  1.00  0.00     0.049 A 
ATOM     49  H   UNL A   1      45.039  26.942  27.692  1.00  0.00     0.167 HD
ATOM     50  C   UNL A   1      41.250  28.623  29.119  1.00  0.00     0.037 A 
ATOM     51  C   UNL A   1      47.715  27.072  26.911  1.00  0.00     0.037 A 
ATOM     52  C   UNL A   1      42.209  29.686  29.259  1.00  0.00     0.049 A 
ATOM     53  C   UNL A   1      47.369  28.428  27.463  1.00  0.00     0.074 A 
ATOM     54  C   UNL A   1      42.026  30.953  29.783  1.00  0.00     0.029 A 
ATOM     55  N   UNL A   1      43.539  29.600  28.873  1.00  0.00    -0.354 N 
ATOM     56  N   UNL A   1      46.224  28.861  27.932  1.00  0.00    -0.248 NA
ATOM     57  C   UNL A   1      48.447  29.425  27.495  1.00  0.00     0.031 C 
ATOM     58  C   UNL A   1      43.237  31.647  29.684  1.00  0.00     0.029 A 
ATOM     59  C   UNL A   1      44.185  30.797  29.137  1.00  0.00     0.049 A 
ATOM     60  H   UNL A   1      43.962  28.807  28.473  1.00  0.00     0.167 HD
ATOM     61  C   UNL A   1      46.448  30.171  28.334  1.00  0.00     0.074 A 
ATOM     62  C   UNL A   1      47.844  30.456  28.071  1.00  0.00     0.031 C 
ATOM     63  C   UNL A   1      45.577  31.059  28.872  1.00  0.00     0.037 A 
BRANCH  50  64
ATOM     64  C   UNL A   1      39.833  28.883  29.539  1.00  0.00     0.064 A 
ATOM     65  C   UNL A   1      38.872  29.355  28.631  1.00  0.00     0.173 A 
ATOM     66  C   UNL A   1      39.420  28.631  30.857  1.00  0.00     0.173 A 
ATOM     67  F   UNL A   1      39.219  29.625  27.364  1.00  0.00    -0.203 F 
ATOM     68  C   UNL A   1      37.561  29.595  29.032  1.00  0.00     0.198 A 
ATOM     69  C   UNL A   1      38.100  28.844  31.247  1.00  0.00     0.198 A 
ATOM     70  F   UNL A   1      40.296  28.174  31.763  1.00  0.00    -0.203 F 
ATOM     71  F   UNL A   1      36.675  30.094  28.160  1.00  0.00    -0.200 F 
ATOM     72  C   UNL A   1      37.175  29.333  30.338  1.00  0.00     0.200 A 
ATOM     73  F   UNL A   1      37.725  28.580  32.507  1.00  0.00    -0.200 F 
ATOM     74  F   UNL A   1      35.910  29.559  30.722  1.00  0.00    -0.200 F 
ENDBRANCH  50  64
BRANCH  51  75
ATOM     75  C   UNL A   1      49.082  26.778  26.410  1.00  0.00     0.064 A 
ATOM     76  C   UNL A   1      50.064  26.257  27.263  1.00  0.00     0.173 A 
ATOM     77  C   UNL A   1      49.434  27.008  25.073  1.00  0.00     0.173 A 
ATOM     78  F   UNL A   1      49.781  26.039  28.555  1.00  0.00    -0.203 F 
ATOM     79  C   UNL A   1      51.352  25.995  26.802  1.00  0.00     0.198 A 
ATOM     80  C   UNL A   1      50.715  26.722  24.606  1.00  0.00     0.198 A 
ATOM     81  F   UNL A   1      48.528  27.502  24.215  1.00  0.00    -0.203 F 
ATOM     82  F   UNL A   1      52.285  25.538  27.648  1.00  0.00    -0.200 F 
ATOM     83  C   UNL A   1      51.675  26.222  25.472  1.00  0.00     0.200 A 
ATOM     84  F   UNL A   1      51.019  26.931  23.317  1.00  0.00    -0.200 F 
ATOM     85  F   UNL A   1      52.914  25.967  25.028  1.00  0.00    -0.200 F 
ENDBRANCH  51  75
BRANCH  63  86
ATOM     86  C   UNL A   1      46.111  32.412  29.235  1.00  0.00     0.064 A 
ATOM     87  C   UNL A   1      46.080  33.480  28.328  1.00  0.00     0.173 A 
ATOM     88  C   UNL A   1      46.621  32.653  30.520  1.00  0.00     0.173 A 
ATOM     89  F   UNL A   1      45.616  33.294  27.082  1.00  0.00    -0.203 F 
ATOM     90  C   UNL A   1      46.558  34.737  28.687  1.00  0.00     0.198 A 
ATOM     91  C   UNL A   1      47.073  33.917  30.885  1.00  0.00     0.198 A 
ATOM     92  F   UNL A   1      46.667  31.664  31.425  1.00  0.00    -0.203 F 
ATOM     93  F   UNL A   1      46.557  35.734  27.792  1.00  0.00    -0.200 F 
ATOM     94  C   UNL A   1      47.047  34.957  29.967  1.00  0.00     0.200 A 
ATOM     95  F   UNL A   1      47.535  34.131  32.124  1.00  0.00    -0.200 F 
ATOM     96  F   UNL A   1      47.500  36.169  30.314  1.00  0.00    -0.200 F 
ENDBRANCH  63  86
ENDBRANCH  37  38
ENDBRANCH  29  32
ENDBRANCH  27  28
ENDBRANCH  26  27
ENDBRANCH  25  26
ENDBRANCH   1  25
TORSDOF 18
ENDMDL
MODEL 3
REMARK VINA RESULT:     -10.6      6.034     11.351
REMARK SMILES CC(C)C[C@H](C[NH3+])C(=O)N1CCSC[C@@H]1CC(=O)NCCCCNC(=O)c1ccc(-c2c3nc(c(-c4c(F)c(F)c(F)c(F)c4F)c4ccc([nH]4)c(-c4c(F)c(F)c(F)c(F)c4F)c4nc(c(-c5c(F)c(F)c(F)c(F)c5F)c5ccc2[nH]5)C=C4)C=C3)cc1
REMARK SMILES IDX 20 1 19 2 17 3 18 4 16 6 15 7 10 8 11 9 12 10 14 11 13 12
REMARK SMILES IDX 8 13 9 14 5 15 4 16 2 17 1 18 3 19 6 20 7 21 21 25 22 26
REMARK SMILES IDX 23 27 24 28 25 29 26 31 27 32 28 33 89 34 29 35 88 36 30 37
REMARK SMILES IDX 31 38 32 39 82 40 33 41 87 42 81 43 83 44 34 45 86 46 80 47
REMARK SMILES IDX 79 48 35 50 67 51 47 52 66 53 48 54 51 55 65 56 84 57 49 58
REMARK SMILES IDX 50 59 64 61 85 62 52 63 36 64 37 65 45 66 38 67 39 68 43 69
REMARK SMILES IDX 46 70 40 71 41 72 44 73 42 74 68 75 69 76 77 77 70 78 71 79
REMARK SMILES IDX 75 80 78 81 72 82 73 83 76 84 74 85 53 86 54 87 62 88 55 89
REMARK SMILES IDX 56 90 60 91 63 92 57 93 58 94 61 95 59 96
REMARK H PARENT 19 5 7 22 7 23 7 24 24 30 83 49 51 60
REMARK Flexibility Score: inf
ROOT
ATOM      1  C   UNL A   1      37.652  22.143  25.469  1.00  0.00     0.116 C 
ENDROOT
BRANCH   1   2
ATOM      2  N   UNL A   1      36.665  22.482  26.475  1.00  0.00    -0.356 N 
ATOM      3  C   UNL A   1      35.437  23.054  26.302  1.00  0.00     0.222 C 
ATOM      4  O   UNL A   1      34.542  22.750  27.092  1.00  0.00    -0.275 OA
ATOM      5  H   UNL A   1      36.911  22.272  27.405  1.00  0.00     0.163 HD
BRANCH   3   6
ATOM      6  C   UNL A   1      35.195  24.048  25.190  1.00  0.00     0.126 C 
BRANCH   6   7
ATOM      7  C   UNL A   1      33.711  24.089  24.797  1.00  0.00     0.104 C 
ATOM      8  N   UNL A   1      33.355  23.071  23.780  1.00  0.00    -0.337 N 
ATOM      9  C   UNL A   1      33.632  23.404  22.381  1.00  0.00     0.130 C 
ATOM     10  C   UNL A   1      32.901  24.667  21.917  1.00  0.00     0.091 C 
ATOM     11  C   UNL A   1      33.226  25.520  24.482  1.00  0.00     0.095 C 
ATOM     12  S   UNL A   1      33.585  26.105  22.799  1.00  0.00    -0.158 SA
BRANCH   8  13
ATOM     13  C   UNL A   1      32.339  22.187  24.099  1.00  0.00     0.231 C 
ATOM     14  O   UNL A   1      31.312  22.604  24.646  1.00  0.00    -0.274 OA
BRANCH  13  15
ATOM     15  C   UNL A   1      32.517  20.672  23.873  1.00  0.00     0.133 C 
BRANCH  15  16
ATOM     16  C   UNL A   1      33.608  19.879  24.637  1.00  0.00     0.022 C 
BRANCH  16  17
ATOM     17  C   UNL A   1      33.699  18.342  24.542  1.00  0.00    -0.016 C 
ATOM     18  C   UNL A   1      35.132  17.821  24.629  1.00  0.00     0.007 C 
ATOM     19  C   UNL A   1      32.940  17.703  25.719  1.00  0.00     0.007 C 
ENDBRANCH  16  17
ENDBRANCH  15  16
BRANCH  15  20
ATOM     20  C   UNL A   1      32.158  20.182  22.462  1.00  0.00     0.272 C 
BRANCH  20  21
ATOM     21  N   UNL A   1      31.413  21.086  21.600  1.00  0.00    -0.357 N 
ATOM     22  H   UNL A   1      31.224  20.628  20.708  1.00  0.00     0.344 HD
ATOM     23  H   UNL A   1      31.961  21.932  21.438  1.00  0.00     0.344 HD
ATOM     24  H   UNL A   1      30.531  21.334  22.048  1.00  0.00     0.344 HD
ENDBRANCH  20  21
ENDBRANCH  15  20
ENDBRANCH  13  15
ENDBRANCH   8  13
ENDBRANCH   6   7
ENDBRANCH   3   6
ENDBRANCH   1   2
BRANCH   1  25
ATOM     25  C   UNL A   1      37.411  20.870  24.659  1.00  0.00     0.023 C 
BRANCH  25  26
ATOM     26  C   UNL A   1      38.288  19.657  24.972  1.00  0.00     0.023 C 
BRANCH  26  27
ATOM     27  C   UNL A   1      39.292  19.814  26.104  1.00  0.00     0.116 C 
BRANCH  27  28
ATOM     28  N   UNL A   1      40.433  18.924  25.987  1.00  0.00    -0.352 N 
ATOM     29  C   UNL A   1      41.779  19.185  26.016  1.00  0.00     0.251 C 
ATOM     30  H   UNL A   1      40.203  17.975  25.864  1.00  0.00     0.163 HD
ATOM     31  O   UNL A   1      42.574  18.284  25.768  1.00  0.00    -0.269 OA
BRANCH  29  32
ATOM     32  C   UNL A   1      42.287  20.542  26.319  1.00  0.00     0.039 A 
ATOM     33  C   UNL A   1      42.610  21.384  25.250  1.00  0.00     0.014 A 
ATOM     34  C   UNL A   1      42.483  20.977  27.632  1.00  0.00     0.014 A 
ATOM     35  C   UNL A   1      43.073  22.678  25.498  1.00  0.00     0.010 A 
ATOM     36  C   UNL A   1      42.871  22.291  27.878  1.00  0.00     0.010 A 
ATOM     37  C   UNL A   1      43.177  23.153  26.814  1.00  0.00    -0.014 A 
BRANCH  37  38
ATOM     38  C   UNL A   1      43.626  24.539  27.096  1.00  0.00     0.031 A 
ATOM     39  C   UNL A   1      42.646  25.561  27.599  1.00  0.00     0.074 A 
ATOM     40  C   UNL A   1      44.903  24.891  26.847  1.00  0.00     0.049 A 
ATOM     41  N   UNL A   1      42.823  26.838  27.831  1.00  0.00    -0.248 NA
ATOM     42  C   UNL A   1      41.273  25.093  27.847  1.00  0.00     0.031 C 
ATOM     43  C   UNL A   1      45.935  24.003  26.312  1.00  0.00     0.029 A 
ATOM     44  N   UNL A   1      45.545  26.095  26.998  1.00  0.00    -0.354 N 
ATOM     45  C   UNL A   1      41.586  27.324  28.233  1.00  0.00     0.074 A 
ATOM     46  C   UNL A   1      40.654  26.221  28.164  1.00  0.00     0.031 C 
ATOM     47  C   UNL A   1      47.085  24.686  26.193  1.00  0.00     0.029 A 
ATOM     48  C   UNL A   1      46.862  26.068  26.613  1.00  0.00     0.049 A 
ATOM     49  H   UNL A   1      45.103  26.901  27.349  1.00  0.00     0.167 HD
ATOM     50  C   UNL A   1      41.263  28.573  28.646  1.00  0.00     0.037 A 
ATOM     51  C   UNL A   1      47.785  27.048  26.594  1.00  0.00     0.037 A 
ATOM     52  C   UNL A   1      42.199  29.661  28.743  1.00  0.00     0.049 A 
ATOM     53  C   UNL A   1      47.405  28.422  27.073  1.00  0.00     0.074 A 
ATOM     54  C   UNL A   1      41.984  30.949  29.202  1.00  0.00     0.029 A 
ATOM     55  N   UNL A   1      43.535  29.583  28.378  1.00  0.00    -0.354 N 
ATOM     56  N   UNL A   1      46.246  28.855  27.506  1.00  0.00    -0.248 NA
ATOM     57  C   UNL A   1      48.463  29.442  27.068  1.00  0.00     0.031 C 
ATOM     58  C   UNL A   1      43.181  31.661  29.081  1.00  0.00     0.029 A 
ATOM     59  C   UNL A   1      44.154  30.806  28.589  1.00  0.00     0.049 A 
ATOM     60  H   UNL A   1      43.979  28.780  28.023  1.00  0.00     0.167 HD
ATOM     61  C   UNL A   1      46.439  30.187  27.845  1.00  0.00     0.074 A 
ATOM     62  C   UNL A   1      47.831  30.488  27.585  1.00  0.00     0.031 C 
ATOM     63  C   UNL A   1      45.543  31.083  28.328  1.00  0.00     0.037 A 
BRANCH  50  64
ATOM     64  C   UNL A   1      39.836  28.824  29.036  1.00  0.00     0.064 A 
ATOM     65  C   UNL A   1      39.392  28.640  30.355  1.00  0.00     0.173 A 
ATOM     66  C   UNL A   1      38.906  29.281  28.089  1.00  0.00     0.173 A 
ATOM     67  F   UNL A   1      40.237  28.191  31.294  1.00  0.00    -0.203 F 
ATOM     68  C   UNL A   1      38.064  28.873  30.705  1.00  0.00     0.198 A 
ATOM     69  C   UNL A   1      37.586  29.543  28.450  1.00  0.00     0.198 A 
ATOM     70  F   UNL A   1      39.279  29.480  26.817  1.00  0.00    -0.203 F 
ATOM     71  F   UNL A   1      37.653  28.641  31.958  1.00  0.00    -0.200 F 
ATOM     72  C   UNL A   1      37.165  29.331  29.754  1.00  0.00     0.200 A 
ATOM     73  F   UNL A   1      36.720  29.995  27.532  1.00  0.00    -0.200 F 
ATOM     74  F   UNL A   1      35.888  29.560  30.093  1.00  0.00    -0.200 F 
ENDBRANCH  50  64
BRANCH  51  75
ATOM     75  C   UNL A   1      49.164  26.758  26.124  1.00  0.00     0.064 A 
ATOM     76  C   UNL A   1      50.130  26.246  27.001  1.00  0.00     0.173 A 
ATOM     77  C   UNL A   1      49.544  26.983  24.793  1.00  0.00     0.173 A 
ATOM     78  F   UNL A   1      49.820  26.033  28.288  1.00  0.00    -0.203 F 
ATOM     79  C   UNL A   1      51.429  25.988  26.569  1.00  0.00     0.198 A 
ATOM     80  C   UNL A   1      50.836  26.700  24.356  1.00  0.00     0.198 A 
ATOM     81  F   UNL A   1      48.655  27.468  23.914  1.00  0.00    -0.203 F 
ATOM     82  F   UNL A   1      52.346  25.539  27.438  1.00  0.00    -0.200 F 
ATOM     83  C   UNL A   1      51.780  26.209  25.246  1.00  0.00     0.200 A 
ATOM     84  F   UNL A   1      51.168  26.903  23.074  1.00  0.00    -0.200 F 
ATOM     85  F   UNL A   1      53.029  25.957  24.830  1.00  0.00    -0.200 F 
ENDBRANCH  51  75
BRANCH  63  86
ATOM     86  C   UNL A   1      46.046  32.462  28.629  1.00  0.00     0.064 A 
ATOM     87  C   UNL A   1      46.588  32.789  29.879  1.00  0.00     0.173 A 
ATOM     88  C   UNL A   1      46.025  33.457  27.639  1.00  0.00     0.173 A 
ATOM     89  F   UNL A   1      46.615  31.876  30.862  1.00  0.00    -0.203 F 
ATOM     90  C   UNL A   1      47.074  34.068  30.136  1.00  0.00     0.198 A 
ATOM     91  C   UNL A   1      46.536  34.727  27.889  1.00  0.00     0.198 A 
ATOM     92  F   UNL A   1      45.521  33.192  26.424  1.00  0.00    -0.203 F 
ATOM     93  F   UNL A   1      47.550  34.371  31.351  1.00  0.00    -0.200 F 
ATOM     94  C   UNL A   1      47.054  35.033  29.139  1.00  0.00     0.200 A 
ATOM     95  F   UNL A   1      46.527  35.655  26.923  1.00  0.00    -0.200 F 
ATOM     96  F   UNL A   1      47.529  36.262  29.385  1.00  0.00    -0.200 F 
ENDBRANCH  63  86
ENDBRANCH  37  38
ENDBRANCH  29  32
ENDBRANCH  27  28
ENDBRANCH  26  27
ENDBRANCH  25  26
ENDBRANCH   1  25
TORSDOF 18
ENDMDL
