MODEL 1
REMARK VINA RESULT:     -13.3      0.000      0.000
REMARK SMILES CC(C)(C)c1cc2c(cc1Cl)C=C(C(=O)NCCCCNC(=O)c1ccc(-c3c4nc(c(-c5c(F)c(F)c(F)c(F)c5F)c5ccc([nH]5)c(-c5c(F)c(F)c(F)c(F)c5F)c5nc(c(-c6c(F)c(F)c(F)c(F)c6F)c6ccc3[nH]6)C=C5)C=C4)cc1)[C@@H](C(F)(F)F)O2
REMARK SMILES IDX 19 1 18 2 17 3 16 4 14 5 15 6 13 8 5 9 6 10 10 11 7 12 9 13
REMARK SMILES IDX 11 14 8 15 92 16 12 17 87 18 2 19 1 20 3 21 4 22 88 23 89 24
REMARK SMILES IDX 90 25 91 26 20 27 21 28 22 29 23 31 24 32 25 33 86 34 26 35
REMARK SMILES IDX 85 36 27 37 28 38 29 39 79 40 30 41 84 42 78 43 80 44 31 45
REMARK SMILES IDX 83 46 77 47 76 48 32 50 64 51 44 52 63 53 45 54 48 55 62 56
REMARK SMILES IDX 81 57 46 58 47 59 61 61 82 62 49 63 33 64 34 65 42 66 35 67
REMARK SMILES IDX 36 68 40 69 43 70 37 71 38 72 41 73 39 74 65 75 66 76 74 77
REMARK SMILES IDX 67 78 68 79 72 80 75 81 69 82 70 83 73 84 71 85 50 86 51 87
REMARK SMILES IDX 59 88 52 89 53 90 57 91 60 92 54 93 55 94 58 95 56 96
REMARK H PARENT 16 7 21 30 80 49 48 60
REMARK Flexibility Score: inf
ROOT
ATOM      1  C   UNL A   1      38.512  20.815  24.894  1.00  0.00     0.023 C 
ENDROOT
BRANCH   1   2
ATOM      2  C   UNL A   1      37.214  20.042  24.650  1.00  0.00     0.023 C 
BRANCH   2   3
ATOM      3  C   UNL A   1      36.003  20.597  25.396  1.00  0.00     0.116 C 
BRANCH   3   4
ATOM      4  N   UNL A   1      34.766  20.396  24.660  1.00  0.00    -0.352 N 
ATOM      5  C   UNL A   1      33.616  21.081  24.456  1.00  0.00     0.251 C 
ATOM      6  O   UNL A   1      32.794  20.519  23.726  1.00  0.00    -0.270 OA
ATOM      7  H   UNL A   1      34.764  19.533  24.184  1.00  0.00     0.163 HD
BRANCH   5   8
ATOM      8  C   UNL A   1      33.293  22.417  25.039  1.00  0.00     0.067 C 
ATOM      9  C   UNL A   1      32.692  27.425  25.783  1.00  0.00    -0.020 A 
ATOM     10  C   UNL A   1      32.217  26.239  26.385  1.00  0.00     0.053 A 
ATOM     11  C   UNL A   1      33.539  27.249  24.662  1.00  0.00     0.045 A 
ATOM     12  C   UNL A   1      32.565  24.970  25.915  1.00  0.00     0.128 A 
ATOM     13  C   UNL A   1      33.888  25.965  24.197  1.00  0.00     0.032 A 
ATOM     14  Cl  UNL A   1      34.189  28.549  23.723  1.00  0.00    -0.084 Cl
ATOM     15  C   UNL A   1      33.398  24.820  24.819  1.00  0.00     0.019 A 
ATOM     16  O   UNL A   1      31.991  23.914  26.560  1.00  0.00    -0.475 OA
ATOM     17  C   UNL A   1      33.682  23.483  24.313  1.00  0.00     0.025 C 
ATOM     18  C   UNL A   1      32.615  22.617  26.365  1.00  0.00     0.314 C 
BRANCH   9  19
ATOM     19  C   UNL A   1      32.226  28.794  26.340  1.00  0.00    -0.012 C 
ATOM     20  C   UNL A   1      31.407  29.605  25.311  1.00  0.00     0.016 C 
ATOM     21  C   UNL A   1      33.402  29.730  26.743  1.00  0.00     0.016 C 
ATOM     22  C   UNL A   1      31.402  28.569  27.626  1.00  0.00     0.016 C 
ENDBRANCH   9  19
BRANCH  18  23
ATOM     23  C   UNL A   1      33.546  22.328  27.557  1.00  0.00     0.429 C 
ATOM     24  F   UNL A   1      33.795  20.998  27.650  1.00  0.00    -0.167 F 
ATOM     25  F   UNL A   1      34.751  22.935  27.434  1.00  0.00    -0.167 F 
ATOM     26  F   UNL A   1      33.022  22.728  28.737  1.00  0.00    -0.167 F 
ENDBRANCH  18  23
ENDBRANCH   5   8
ENDBRANCH   3   4
ENDBRANCH   2   3
ENDBRANCH   1   2
BRANCH   1  27
ATOM     27  C   UNL A   1      39.302  20.399  26.133  1.00  0.00     0.116 C 
BRANCH  27  28
ATOM     28  N   UNL A   1      40.178  19.251  25.932  1.00  0.00    -0.352 N 
ATOM     29  C   UNL A   1      41.551  19.208  26.020  1.00  0.00     0.251 C 
ATOM     30  H   UNL A   1      39.732  18.402  25.707  1.00  0.00     0.163 HD
ATOM     31  O   UNL A   1      42.166  18.181  25.756  1.00  0.00    -0.269 OA
BRANCH  29  32
ATOM     32  C   UNL A   1      42.277  20.443  26.377  1.00  0.00     0.039 A 
ATOM     33  C   UNL A   1      42.317  20.875  27.703  1.00  0.00     0.014 A 
ATOM     34  C   UNL A   1      42.839  21.219  25.360  1.00  0.00     0.014 A 
ATOM     35  C   UNL A   1      42.750  22.163  27.987  1.00  0.00     0.010 A 
ATOM     36  C   UNL A   1      43.350  22.484  25.661  1.00  0.00     0.010 A 
ATOM     37  C   UNL A   1      43.251  22.989  26.966  1.00  0.00    -0.014 A 
BRANCH  37  38
ATOM     38  C   UNL A   1      43.631  24.386  27.296  1.00  0.00     0.031 A 
ATOM     39  C   UNL A   1      45.015  24.896  27.000  1.00  0.00     0.074 A 
ATOM     40  C   UNL A   1      42.692  25.221  27.777  1.00  0.00     0.049 A 
ATOM     41  N   UNL A   1      45.498  26.105  27.148  1.00  0.00    -0.248 NA
ATOM     42  C   UNL A   1      45.990  23.927  26.471  1.00  0.00     0.031 C 
ATOM     43  C   UNL A   1      41.314  24.842  28.091  1.00  0.00     0.029 A 
ATOM     44  N   UNL A   1      42.738  26.566  28.045  1.00  0.00    -0.354 N 
ATOM     45  C   UNL A   1      46.826  26.037  26.751  1.00  0.00     0.074 A 
ATOM     46  C   UNL A   1      47.088  24.665  26.377  1.00  0.00     0.031 C 
ATOM     47  C   UNL A   1      40.626  25.939  28.439  1.00  0.00     0.029 A 
ATOM     48  C   UNL A   1      41.527  27.088  28.428  1.00  0.00     0.049 A 
ATOM     49  H   UNL A   1      43.559  27.104  27.971  1.00  0.00     0.167 HD
ATOM     50  C   UNL A   1      47.741  27.035  26.690  1.00  0.00     0.037 A 
ATOM     51  C   UNL A   1      41.178  28.351  28.735  1.00  0.00     0.037 A 
ATOM     52  C   UNL A   1      47.470  28.407  27.027  1.00  0.00     0.049 A 
ATOM     53  C   UNL A   1      42.220  29.432  28.683  1.00  0.00     0.074 A 
ATOM     54  C   UNL A   1      48.324  29.494  26.966  1.00  0.00     0.029 A 
ATOM     55  N   UNL A   1      46.249  28.882  27.481  1.00  0.00    -0.354 N 
ATOM     56  N   UNL A   1      43.470  29.354  28.302  1.00  0.00    -0.248 NA
ATOM     57  C   UNL A   1      41.805  30.772  29.121  1.00  0.00     0.031 C 
ATOM     58  C   UNL A   1      47.631  30.621  27.417  1.00  0.00     0.029 A 
ATOM     59  C   UNL A   1      46.334  30.243  27.725  1.00  0.00     0.049 A 
ATOM     60  H   UNL A   1      45.442  28.333  27.612  1.00  0.00     0.167 HD
ATOM     61  C   UNL A   1      43.993  30.629  28.451  1.00  0.00     0.074 A 
ATOM     62  C   UNL A   1      42.919  31.469  28.936  1.00  0.00     0.031 C 
ATOM     63  C   UNL A   1      45.255  31.061  28.214  1.00  0.00     0.037 A 
BRANCH  50  64
ATOM     64  C   UNL A   1      49.129  26.688  26.240  1.00  0.00     0.064 A 
ATOM     65  C   UNL A   1      49.528  26.838  24.905  1.00  0.00     0.173 A 
ATOM     66  C   UNL A   1      50.094  26.275  27.173  1.00  0.00     0.173 A 
ATOM     67  F   UNL A   1      48.638  27.219  23.975  1.00  0.00    -0.203 F 
ATOM     68  C   UNL A   1      50.838  26.575  24.515  1.00  0.00     0.198 A 
ATOM     69  C   UNL A   1      51.409  26.035  26.784  1.00  0.00     0.198 A 
ATOM     70  F   UNL A   1      49.765  26.123  28.464  1.00  0.00    -0.203 F 
ATOM     71  F   UNL A   1      51.190  26.701  23.229  1.00  0.00    -0.200 F 
ATOM     72  C   UNL A   1      51.780  26.183  25.456  1.00  0.00     0.200 A 
ATOM     73  F   UNL A   1      52.320  25.666  27.696  1.00  0.00    -0.200 F 
ATOM     74  F   UNL A   1      53.044  25.946  25.081  1.00  0.00    -0.200 F 
ENDBRANCH  50  64
BRANCH  51  75
ATOM     75  C   UNL A   1      39.772  28.652  29.100  1.00  0.00     0.064 A 
ATOM     76  C   UNL A   1      39.323  28.487  30.416  1.00  0.00     0.173 A 
ATOM     77  C   UNL A   1      38.865  29.150  28.154  1.00  0.00     0.173 A 
ATOM     78  F   UNL A   1      40.151  27.997  31.350  1.00  0.00    -0.203 F 
ATOM     79  C   UNL A   1      38.017  28.814  30.774  1.00  0.00     0.198 A 
ATOM     80  C   UNL A   1      37.567  29.499  28.518  1.00  0.00     0.198 A 
ATOM     81  F   UNL A   1      39.251  29.327  26.882  1.00  0.00    -0.203 F 
ATOM     82  F   UNL A   1      37.604  28.629  32.036  1.00  0.00    -0.200 F 
ATOM     83  C   UNL A   1      37.143  29.328  29.827  1.00  0.00     0.200 A 
ATOM     84  F   UNL A   1      36.731  30.010  27.604  1.00  0.00    -0.200 F 
ATOM     85  F   UNL A   1      35.893  29.658  30.177  1.00  0.00    -0.200 F 
ENDBRANCH  51  75
BRANCH  63  86
ATOM     86  C   UNL A   1      45.552  32.504  28.480  1.00  0.00     0.064 A 
ATOM     87  C   UNL A   1      46.122  32.915  29.694  1.00  0.00     0.173 A 
ATOM     88  C   UNL A   1      45.339  33.473  27.488  1.00  0.00     0.173 A 
ATOM     89  F   UNL A   1      46.330  32.025  30.676  1.00  0.00    -0.203 F 
ATOM     90  C   UNL A   1      46.463  34.247  29.906  1.00  0.00     0.198 A 
ATOM     91  C   UNL A   1      45.702  34.800  27.697  1.00  0.00     0.198 A 
ATOM     92  F   UNL A   1      44.802  33.125  26.308  1.00  0.00    -0.203 F 
ATOM     93  F   UNL A   1      46.987  34.622  31.081  1.00  0.00    -0.200 F 
ATOM     94  C   UNL A   1      46.263  35.186  28.905  1.00  0.00     0.200 A 
ATOM     95  F   UNL A   1      45.517  35.704  26.725  1.00  0.00    -0.200 F 
ATOM     96  F   UNL A   1      46.607  36.465  29.107  1.00  0.00    -0.200 F 
ENDBRANCH  63  86
ENDBRANCH  37  38
ENDBRANCH  29  32
ENDBRANCH  27  28
ENDBRANCH   1  27
TORSDOF 13
ENDMDL
MODEL 2
REMARK VINA RESULT:     -13.3      5.865     10.281
REMARK SMILES CC(C)(C)c1cc2c(cc1Cl)C=C(C(=O)NCCCCNC(=O)c1ccc(-c3c4nc(c(-c5c(F)c(F)c(F)c(F)c5F)c5ccc([nH]5)c(-c5c(F)c(F)c(F)c(F)c5F)c5nc(c(-c6c(F)c(F)c(F)c(F)c6F)c6ccc3[nH]6)C=C5)C=C4)cc1)[C@@H](C(F)(F)F)O2
REMARK SMILES IDX 19 1 18 2 17 3 16 4 14 5 15 6 13 8 5 9 6 10 10 11 7 12 9 13
REMARK SMILES IDX 11 14 8 15 92 16 12 17 87 18 2 19 1 20 3 21 4 22 88 23 89 24
REMARK SMILES IDX 90 25 91 26 20 27 21 28 22 29 23 31 24 32 25 33 86 34 26 35
REMARK SMILES IDX 85 36 27 37 28 38 29 39 79 40 30 41 84 42 78 43 80 44 31 45
REMARK SMILES IDX 83 46 77 47 76 48 32 50 64 51 44 52 63 53 45 54 48 55 62 56
REMARK SMILES IDX 81 57 46 58 47 59 61 61 82 62 49 63 33 64 34 65 42 66 35 67
REMARK SMILES IDX 36 68 40 69 43 70 37 71 38 72 41 73 39 74 65 75 66 76 74 77
REMARK SMILES IDX 67 78 68 79 72 80 75 81 69 82 70 83 73 84 71 85 50 86 51 87
REMARK SMILES IDX 59 88 52 89 53 90 57 91 60 92 54 93 55 94 58 95 56 96
REMARK H PARENT 16 7 21 30 80 49 48 60
REMARK Flexibility Score: inf
ROOT
ATOM      1  C   UNL A   1      31.689  32.059  26.937  1.00  0.00     0.023 C 
ENDROOT
BRANCH   1   2
ATOM      2  C   UNL A   1      32.005  30.564  26.853  1.00  0.00     0.023 C 
BRANCH   2   3
ATOM      3  C   UNL A   1      32.915  30.177  25.690  1.00  0.00     0.116 C 
BRANCH   3   4
ATOM      4  N   UNL A   1      32.163  29.806  24.504  1.00  0.00    -0.352 N 
ATOM      5  C   UNL A   1      31.791  28.658  23.889  1.00  0.00     0.251 C 
ATOM      6  O   UNL A   1      31.125  28.806  22.860  1.00  0.00    -0.270 OA
ATOM      7  H   UNL A   1      31.835  30.599  24.020  1.00  0.00     0.163 HD
BRANCH   5   8
ATOM      8  C   UNL A   1      32.130  27.281  24.357  1.00  0.00     0.067 C 
ATOM      9  C   UNL A   1      34.399  22.775  25.095  1.00  0.00    -0.020 A 
ATOM     10  C   UNL A   1      33.397  23.533  25.742  1.00  0.00     0.053 A 
ATOM     11  C   UNL A   1      34.983  23.375  23.954  1.00  0.00     0.045 A 
ATOM     12  C   UNL A   1      32.997  24.790  25.284  1.00  0.00     0.128 A 
ATOM     13  C   UNL A   1      34.571  24.644  23.496  1.00  0.00     0.032 A 
ATOM     14  Cl  UNL A   1      36.271  22.671  23.038  1.00  0.00    -0.084 Cl
ATOM     15  C   UNL A   1      33.580  25.358  24.164  1.00  0.00     0.019 A 
ATOM     16  O   UNL A   1      32.058  25.431  26.037  1.00  0.00    -0.475 OA
ATOM     17  C   UNL A   1      33.188  26.702  23.757  1.00  0.00     0.025 C 
ATOM     18  C   UNL A   1      31.351  26.528  25.398  1.00  0.00     0.314 C 
BRANCH   9  19
ATOM     19  C   UNL A   1      34.813  21.406  25.691  1.00  0.00    -0.012 C 
ATOM     20  C   UNL A   1      36.346  21.230  25.763  1.00  0.00     0.016 C 
ATOM     21  C   UNL A   1      34.310  20.191  24.857  1.00  0.00     0.016 C 
ATOM     22  C   UNL A   1      34.188  21.247  27.093  1.00  0.00     0.016 C 
ENDBRANCH   9  19
BRANCH  18  23
ATOM     23  C   UNL A   1      30.001  26.009  24.869  1.00  0.00     0.429 C 
ATOM     24  F   UNL A   1      29.318  25.379  25.858  1.00  0.00    -0.167 F 
ATOM     25  F   UNL A   1      29.199  27.007  24.427  1.00  0.00    -0.167 F 
ATOM     26  F   UNL A   1      30.142  25.134  23.850  1.00  0.00    -0.167 F 
ENDBRANCH  18  23
ENDBRANCH   5   8
ENDBRANCH   3   4
ENDBRANCH   2   3
ENDBRANCH   1   2
BRANCH   1  27
ATOM     27  C   UNL A   1      32.812  32.938  27.484  1.00  0.00     0.116 C 
BRANCH  27  28
ATOM     28  N   UNL A   1      32.434  34.327  27.711  1.00  0.00    -0.352 N 
ATOM     29  C   UNL A   1      32.978  35.216  28.612  1.00  0.00     0.251 C 
ATOM     30  H   UNL A   1      31.701  34.672  27.151  1.00  0.00     0.163 HD
ATOM     31  O   UNL A   1      32.512  36.341  28.743  1.00  0.00    -0.269 OA
BRANCH  29  32
ATOM     32  C   UNL A   1      34.096  34.766  29.464  1.00  0.00     0.039 A 
ATOM     33  C   UNL A   1      35.386  34.676  28.940  1.00  0.00     0.014 A 
ATOM     34  C   UNL A   1      33.828  34.343  30.768  1.00  0.00     0.014 A 
ATOM     35  C   UNL A   1      36.364  33.993  29.650  1.00  0.00     0.010 A 
ATOM     36  C   UNL A   1      34.837  33.729  31.515  1.00  0.00     0.010 A 
ATOM     37  C   UNL A   1      36.094  33.494  30.936  1.00  0.00    -0.014 A 
BRANCH  37  38
ATOM     38  C   UNL A   1      37.139  32.701  31.632  1.00  0.00     0.031 A 
ATOM     39  C   UNL A   1      37.843  31.572  30.928  1.00  0.00     0.074 A 
ATOM     40  C   UNL A   1      37.518  33.065  32.871  1.00  0.00     0.049 A 
ATOM     41  N   UNL A   1      38.832  30.825  31.353  1.00  0.00    -0.248 NA
ATOM     42  C   UNL A   1      37.379  31.232  29.574  1.00  0.00     0.031 C 
ATOM     43  C   UNL A   1      36.917  34.151  33.646  1.00  0.00     0.029 A 
ATOM     44  N   UNL A   1      38.523  32.595  33.678  1.00  0.00    -0.354 N 
ATOM     45  C   UNL A   1      39.094  29.922  30.331  1.00  0.00     0.074 A 
ATOM     46  C   UNL A   1      38.146  30.192  29.273  1.00  0.00     0.031 C 
ATOM     47  C   UNL A   1      37.608  34.312  34.783  1.00  0.00     0.029 A 
ATOM     48  C   UNL A   1      38.664  33.306  34.844  1.00  0.00     0.049 A 
ATOM     49  H   UNL A   1      39.087  31.823  33.444  1.00  0.00     0.167 HD
ATOM     50  C   UNL A   1      40.049  28.962  30.277  1.00  0.00     0.037 A 
ATOM     51  C   UNL A   1      39.547  33.166  35.850  1.00  0.00     0.037 A 
ATOM     52  C   UNL A   1      41.014  28.719  31.315  1.00  0.00     0.049 A 
ATOM     53  C   UNL A   1      40.579  32.078  35.774  1.00  0.00     0.074 A 
ATOM     54  C   UNL A   1      42.041  27.790  31.336  1.00  0.00     0.029 A 
ATOM     55  N   UNL A   1      41.078  29.412  32.514  1.00  0.00    -0.354 N 
ATOM     56  N   UNL A   1      40.816  31.234  34.801  1.00  0.00    -0.248 NA
ATOM     57  C   UNL A   1      41.453  31.911  36.944  1.00  0.00     0.031 C 
ATOM     58  C   UNL A   1      42.704  27.899  32.562  1.00  0.00     0.029 A 
ATOM     59  C   UNL A   1      42.112  28.918  33.291  1.00  0.00     0.049 A 
ATOM     60  H   UNL A   1      40.476  30.147  32.774  1.00  0.00     0.167 HD
ATOM     61  C   UNL A   1      41.865  30.438  35.236  1.00  0.00     0.074 A 
ATOM     62  C   UNL A   1      42.234  30.913  36.553  1.00  0.00     0.031 C 
ATOM     63  C   UNL A   1      42.462  29.400  34.602  1.00  0.00     0.037 A 
BRANCH  50  64
ATOM     64  C   UNL A   1      40.106  28.097  29.054  1.00  0.00     0.064 A 
ATOM     65  C   UNL A   1      40.846  28.471  27.923  1.00  0.00     0.173 A 
ATOM     66  C   UNL A   1      39.475  26.842  29.043  1.00  0.00     0.173 A 
ATOM     67  F   UNL A   1      41.457  29.665  27.882  1.00  0.00    -0.203 F 
ATOM     68  C   UNL A   1      40.944  27.626  26.821  1.00  0.00     0.198 A 
ATOM     69  C   UNL A   1      39.594  25.991  27.947  1.00  0.00     0.198 A 
ATOM     70  F   UNL A   1      38.760  26.436  30.102  1.00  0.00    -0.203 F 
ATOM     71  F   UNL A   1      41.635  28.015  25.741  1.00  0.00    -0.200 F 
ATOM     72  C   UNL A   1      40.326  26.384  26.837  1.00  0.00     0.200 A 
ATOM     73  F   UNL A   1      39.004  24.788  27.969  1.00  0.00    -0.200 F 
ATOM     74  F   UNL A   1      40.433  25.567  25.781  1.00  0.00    -0.200 F 
ENDBRANCH  50  64
BRANCH  51  75
ATOM     75  C   UNL A   1      39.494  34.099  37.003  1.00  0.00     0.064 A 
ATOM     76  C   UNL A   1      38.765  33.775  38.154  1.00  0.00     0.173 A 
ATOM     77  C   UNL A   1      40.203  35.308  36.994  1.00  0.00     0.173 A 
ATOM     78  F   UNL A   1      38.057  32.637  38.200  1.00  0.00    -0.203 F 
ATOM     79  C   UNL A   1      38.751  34.625  39.257  1.00  0.00     0.198 A 
ATOM     80  C   UNL A   1      40.209  36.147  38.106  1.00  0.00     0.198 A 
ATOM     81  F   UNL A   1      40.918  35.660  35.915  1.00  0.00    -0.203 F 
ATOM     82  F   UNL A   1      38.030  34.303  40.340  1.00  0.00    -0.200 F 
ATOM     83  C   UNL A   1      39.480  35.806  39.236  1.00  0.00     0.200 A 
ATOM     84  F   UNL A   1      40.926  37.277  38.088  1.00  0.00    -0.200 F 
ATOM     85  F   UNL A   1      39.480  36.614  40.304  1.00  0.00    -0.200 F 
ENDBRANCH  51  75
BRANCH  63  86
ATOM     86  C   UNL A   1      43.572  28.698  35.320  1.00  0.00     0.064 A 
ATOM     87  C   UNL A   1      44.909  29.081  35.136  1.00  0.00     0.173 A 
ATOM     88  C   UNL A   1      43.295  27.690  36.255  1.00  0.00     0.173 A 
ATOM     89  F   UNL A   1      45.222  30.031  34.242  1.00  0.00    -0.203 F 
ATOM     90  C   UNL A   1      45.930  28.475  35.862  1.00  0.00     0.198 A 
ATOM     91  C   UNL A   1      44.316  27.102  36.993  1.00  0.00     0.198 A 
ATOM     92  F   UNL A   1      42.030  27.296  36.468  1.00  0.00    -0.203 F 
ATOM     93  F   UNL A   1      47.203  28.841  35.656  1.00  0.00    -0.200 F 
ATOM     94  C   UNL A   1      45.633  27.493  36.796  1.00  0.00     0.200 A 
ATOM     95  F   UNL A   1      44.027  26.161  37.903  1.00  0.00    -0.200 F 
ATOM     96  F   UNL A   1      46.616  26.922  37.504  1.00  0.00    -0.200 F 
ENDBRANCH  63  86
ENDBRANCH  37  38
ENDBRANCH  29  32
ENDBRANCH  27  28
ENDBRANCH   1  27
TORSDOF 13
ENDMDL
MODEL 3
REMARK VINA RESULT:     -13.3      5.733     11.104
REMARK SMILES CC(C)(C)c1cc2c(cc1Cl)C=C(C(=O)NCCCCNC(=O)c1ccc(-c3c4nc(c(-c5c(F)c(F)c(F)c(F)c5F)c5ccc([nH]5)c(-c5c(F)c(F)c(F)c(F)c5F)c5nc(c(-c6c(F)c(F)c(F)c(F)c6F)c6ccc3[nH]6)C=C5)C=C4)cc1)[C@@H](C(F)(F)F)O2
REMARK SMILES IDX 19 1 18 2 17 3 16 4 14 5 15 6 13 8 5 9 6 10 10 11 7 12 9 13
REMARK SMILES IDX 11 14 8 15 92 16 12 17 87 18 2 19 1 20 3 21 4 22 88 23 89 24
REMARK SMILES IDX 90 25 91 26 20 27 21 28 22 29 23 31 24 32 25 33 86 34 26 35
REMARK SMILES IDX 85 36 27 37 28 38 29 39 79 40 30 41 84 42 78 43 80 44 31 45
REMARK SMILES IDX 83 46 77 47 76 48 32 50 64 51 44 52 63 53 45 54 48 55 62 56
REMARK SMILES IDX 81 57 46 58 47 59 61 61 82 62 49 63 33 64 34 65 42 66 35 67
REMARK SMILES IDX 36 68 40 69 43 70 37 71 38 72 41 73 39 74 65 75 66 76 74 77
REMARK SMILES IDX 67 78 68 79 72 80 75 81 69 82 70 83 73 84 71 85 50 86 51 87
REMARK SMILES IDX 59 88 52 89 53 90 57 91 60 92 54 93 55 94 58 95 56 96
REMARK H PARENT 16 7 21 30 80 49 48 60
REMARK Flexibility Score: inf
ROOT
ATOM      1  C   UNL A   1      31.889  31.739  26.895  1.00  0.00     0.023 C 
ENDROOT
BRANCH   1   2
ATOM      2  C   UNL A   1      32.233  30.251  26.986  1.00  0.00     0.023 C 
BRANCH   2   3
ATOM      3  C   UNL A   1      33.356  29.807  26.051  1.00  0.00     0.116 C 
BRANCH   3   4
ATOM      4  N   UNL A   1      32.927  29.751  24.665  1.00  0.00    -0.352 N 
ATOM      5  C   UNL A   1      32.601  28.788  23.771  1.00  0.00     0.251 C 
ATOM      6  O   UNL A   1      32.275  29.199  22.653  1.00  0.00    -0.270 OA
ATOM      7  H   UNL A   1      32.852  30.651  24.272  1.00  0.00     0.163 HD
BRANCH   5   8
ATOM      8  C   UNL A   1      32.617  27.319  24.040  1.00  0.00     0.067 C 
ATOM      9  C   UNL A   1      34.043  22.460  24.635  1.00  0.00    -0.020 A 
ATOM     10  C   UNL A   1      32.932  23.252  25.004  1.00  0.00     0.053 A 
ATOM     11  C   UNL A   1      35.075  23.136  23.940  1.00  0.00     0.045 A 
ATOM     12  C   UNL A   1      32.847  24.612  24.696  1.00  0.00     0.128 A 
ATOM     13  C   UNL A   1      34.979  24.508  23.630  1.00  0.00     0.032 A 
ATOM     14  Cl  UNL A   1      36.557  22.395  23.444  1.00  0.00    -0.084 Cl
ATOM     15  C   UNL A   1      33.866  25.252  24.012  1.00  0.00     0.019 A 
ATOM     16  O   UNL A   1      31.742  25.262  25.161  1.00  0.00    -0.475 OA
ATOM     17  C   UNL A   1      33.775  26.686  23.771  1.00  0.00     0.025 C 
ATOM     18  C   UNL A   1      31.434  26.541  24.542  1.00  0.00     0.314 C 
BRANCH   9  19
ATOM     19  C   UNL A   1      34.078  20.968  25.051  1.00  0.00    -0.012 C 
ATOM     20  C   UNL A   1      35.512  20.395  25.080  1.00  0.00     0.016 C 
ATOM     21  C   UNL A   1      33.295  20.037  24.079  1.00  0.00     0.016 C 
ATOM     22  C   UNL A   1      33.406  20.805  26.430  1.00  0.00     0.016 C 
ENDBRANCH   9  19
BRANCH  18  23
ATOM     23  C   UNL A   1      30.363  26.323  23.457  1.00  0.00     0.429 C 
ATOM     24  F   UNL A   1      29.775  25.110  23.610  1.00  0.00    -0.167 F 
ATOM     25  F   UNL A   1      29.367  27.240  23.519  1.00  0.00    -0.167 F 
ATOM     26  F   UNL A   1      30.870  26.375  22.206  1.00  0.00    -0.167 F 
ENDBRANCH  18  23
ENDBRANCH   5   8
ENDBRANCH   3   4
ENDBRANCH   2   3
ENDBRANCH   1   2
BRANCH   1  27
ATOM     27  C   UNL A   1      32.950  32.693  27.440  1.00  0.00     0.116 C 
BRANCH  27  28
ATOM     28  N   UNL A   1      32.462  34.035  27.732  1.00  0.00    -0.352 N 
ATOM     29  C   UNL A   1      32.982  34.952  28.618  1.00  0.00     0.251 C 
ATOM     30  H   UNL A   1      31.662  34.321  27.233  1.00  0.00     0.163 HD
ATOM     31  O   UNL A   1      32.424  36.025  28.813  1.00  0.00    -0.269 OA
BRANCH  29  32
ATOM     32  C   UNL A   1      34.195  34.591  29.379  1.00  0.00     0.039 A 
ATOM     33  C   UNL A   1      35.457  34.743  28.803  1.00  0.00     0.014 A 
ATOM     34  C   UNL A   1      34.056  34.009  30.642  1.00  0.00     0.014 A 
ATOM     35  C   UNL A   1      36.556  34.146  29.405  1.00  0.00     0.010 A 
ATOM     36  C   UNL A   1      35.178  33.482  31.285  1.00  0.00     0.010 A 
ATOM     37  C   UNL A   1      36.425  33.491  30.641  1.00  0.00    -0.014 A 
BRANCH  37  38
ATOM     38  C   UNL A   1      37.606  32.798  31.214  1.00  0.00     0.031 A 
ATOM     39  C   UNL A   1      38.073  33.103  32.612  1.00  0.00     0.074 A 
ATOM     40  C   UNL A   1      38.200  31.823  30.502  1.00  0.00     0.049 A 
ATOM     41  N   UNL A   1      39.036  32.542  33.301  1.00  0.00    -0.248 NA
ATOM     42  C   UNL A   1      37.375  34.179  33.334  1.00  0.00     0.031 C 
ATOM     43  C   UNL A   1      37.826  31.431  29.143  1.00  0.00     0.029 A 
ATOM     44  N   UNL A   1      39.210  30.956  30.833  1.00  0.00    -0.354 N 
ATOM     45  C   UNL A   1      39.068  33.204  34.521  1.00  0.00     0.074 A 
ATOM     46  C   UNL A   1      38.048  34.227  34.475  1.00  0.00     0.031 C 
ATOM     47  C   UNL A   1      38.544  30.358  28.783  1.00  0.00     0.029 A 
ATOM     48  C   UNL A   1      39.468  30.021  29.861  1.00  0.00     0.049 A 
ATOM     49  H   UNL A   1      39.703  31.001  31.685  1.00  0.00     0.167 HD
ATOM     50  C   UNL A   1      39.869  32.968  35.588  1.00  0.00     0.037 A 
ATOM     51  C   UNL A   1      40.348  29.003  29.841  1.00  0.00     0.037 A 
ATOM     52  C   UNL A   1      40.858  31.925  35.646  1.00  0.00     0.049 A 
ATOM     53  C   UNL A   1      41.241  28.781  31.028  1.00  0.00     0.074 A 
ATOM     54  C   UNL A   1      41.695  31.588  36.696  1.00  0.00     0.029 A 
ATOM     55  N   UNL A   1      41.140  31.045  34.613  1.00  0.00    -0.354 N 
ATOM     56  N   UNL A   1      41.258  29.413  32.175  1.00  0.00    -0.248 NA
ATOM     57  C   UNL A   1      42.248  27.717  30.910  1.00  0.00     0.031 C 
ATOM     58  C   UNL A   1      42.507  30.527  36.286  1.00  0.00     0.029 A 
ATOM     59  C   UNL A   1      42.152  30.180  34.992  1.00  0.00     0.049 A 
ATOM     60  H   UNL A   1      40.687  31.037  33.738  1.00  0.00     0.167 HD
ATOM     61  C   UNL A   1      42.272  28.825  32.917  1.00  0.00     0.074 A 
ATOM     62  C   UNL A   1      42.833  27.771  32.099  1.00  0.00     0.031 C 
ATOM     63  C   UNL A   1      42.702  29.139  34.162  1.00  0.00     0.037 A 
BRANCH  50  64
ATOM     64  C   UNL A   1      39.715  33.851  36.791  1.00  0.00     0.064 A 
ATOM     65  C   UNL A   1      40.320  35.113  36.857  1.00  0.00     0.173 A 
ATOM     66  C   UNL A   1      38.889  33.459  37.856  1.00  0.00     0.173 A 
ATOM     67  F   UNL A   1      41.128  35.527  35.868  1.00  0.00    -0.203 F 
ATOM     68  C   UNL A   1      40.114  35.949  37.951  1.00  0.00     0.198 A 
ATOM     69  C   UNL A   1      38.667  34.307  38.939  1.00  0.00     0.198 A 
ATOM     70  F   UNL A   1      38.283  32.263  37.838  1.00  0.00    -0.203 F 
ATOM     71  F   UNL A   1      40.722  37.141  38.005  1.00  0.00    -0.200 F 
ATOM     72  C   UNL A   1      39.281  35.549  38.987  1.00  0.00     0.200 A 
ATOM     73  F   UNL A   1      37.854  33.923  39.933  1.00  0.00    -0.200 F 
ATOM     74  F   UNL A   1      39.072  36.361  40.032  1.00  0.00    -0.200 F 
ENDBRANCH  50  64
BRANCH  51  75
ATOM     75  C   UNL A   1      40.407  28.113  28.655  1.00  0.00     0.064 A 
ATOM     76  C   UNL A   1      41.184  28.454  27.541  1.00  0.00     0.173 A 
ATOM     77  C   UNL A   1      39.726  26.888  28.630  1.00  0.00     0.173 A 
ATOM     78  F   UNL A   1      41.839  29.624  27.513  1.00  0.00    -0.203 F 
ATOM     79  C   UNL A   1      41.280  27.600  26.445  1.00  0.00     0.198 A 
ATOM     80  C   UNL A   1      39.842  26.023  27.545  1.00  0.00     0.198 A 
ATOM     81  F   UNL A   1      38.972  26.517  29.675  1.00  0.00    -0.203 F 
ATOM     82  F   UNL A   1      42.014  27.956  25.382  1.00  0.00    -0.200 F 
ATOM     83  C   UNL A   1      40.617  26.380  26.452  1.00  0.00     0.200 A 
ATOM     84  F   UNL A   1      39.213  24.840  27.562  1.00  0.00    -0.200 F 
ATOM     85  F   UNL A   1      40.725  25.552  25.405  1.00  0.00    -0.200 F 
ENDBRANCH  51  75
BRANCH  63  86
ATOM     86  C   UNL A   1      43.840  28.342  34.721  1.00  0.00     0.064 A 
ATOM     87  C   UNL A   1      45.164  28.785  34.597  1.00  0.00     0.173 A 
ATOM     88  C   UNL A   1      43.600  27.169  35.452  1.00  0.00     0.173 A 
ATOM     89  F   UNL A   1      45.442  29.894  33.895  1.00  0.00    -0.203 F 
ATOM     90  C   UNL A   1      46.210  28.078  35.182  1.00  0.00     0.198 A 
ATOM     91  C   UNL A   1      44.646  26.477  36.053  1.00  0.00     0.198 A 
ATOM     92  F   UNL A   1      42.348  26.711  35.603  1.00  0.00    -0.203 F 
ATOM     93  F   UNL A   1      47.471  28.507  35.034  1.00  0.00    -0.200 F 
ATOM     94  C   UNL A   1      45.950  26.931  35.918  1.00  0.00     0.200 A 
ATOM     95  F   UNL A   1      44.393  25.375  36.773  1.00  0.00    -0.200 F 
ATOM     96  F   UNL A   1      46.957  26.261  36.493  1.00  0.00    -0.200 F 
ENDBRANCH  63  86
ENDBRANCH  37  38
ENDBRANCH  29  32
ENDBRANCH  27  28
ENDBRANCH   1  27
TORSDOF 13
ENDMDL
