MODEL 1
REMARK VINA RESULT:     -14.3      0.000      0.000
REMARK SMILES Cc1cccc(N2CCN(c3ncc(NC(=O)c4ccccc4F)cc3C(=O)NCCCCNC(=O)c3ccc(-c4c5nc(c(-c6c(F)c(F)c(F)c(F)c6F)c6ccc([nH]6)c(-c6c(F)c(F)c(F)c(F)c6F)c6nc(c(-c7c(F)c(F)c(F)c(F)c7F)c7ccc4[nH]7)C=C6)C=C5)cc3)C[C@@H]2C)c1
REMARK SMILES IDX 31 1 30 2 29 3 27 4 28 5 26 7 11 8 12 9 13 10 25 11 14 12
REMARK SMILES IDX 10 13 7 14 8 15 101 16 9 17 100 18 102 19 6 20 1 21 2 22
REMARK SMILES IDX 3 23 103 24 4 25 5 26 15 27 16 28 17 30 18 31 19 32 23 33
REMARK SMILES IDX 20 34 22 35 24 36 21 37 32 38 33 39 34 40 35 41 36 43 37 44
REMARK SMILES IDX 38 45 99 46 39 47 98 48 40 49 41 50 42 51 92 52 43 53 97 54
REMARK SMILES IDX 91 55 93 56 44 57 96 58 90 59 89 60 45 62 77 63 57 64 76 65
REMARK SMILES IDX 58 66 61 67 75 68 94 69 59 70 60 71 74 73 95 74 62 75 46 76
REMARK SMILES IDX 47 77 55 78 48 79 49 80 53 81 56 82 50 83 51 84 54 85 52 86
REMARK SMILES IDX 78 87 79 88 87 89 80 90 81 91 85 92 88 93 82 94 83 95 86 96
REMARK SMILES IDX 84 97 63 98 64 99 72 100 65 101 66 102 70 103 73 104 67 105
REMARK SMILES IDX 68 106 71 107 69 108
REMARK H PARENT 29 6 15 29 34 42 93 61 61 72
REMARK Flexibility Score: inf
ROOT
ATOM      1  C   UNL A   1      32.055  28.732  27.738  1.00  0.00     0.023 C 
ENDROOT
BRANCH   1   2
ATOM      2  C   UNL A   1      31.538  27.695  26.721  1.00  0.00     0.116 C 
BRANCH   2   3
ATOM      3  N   UNL A   1      32.387  27.625  25.545  1.00  0.00    -0.352 N 
ATOM      4  C   UNL A   1      33.031  26.500  25.075  1.00  0.00     0.255 C 
ATOM      5  O   UNL A   1      34.254  26.547  24.992  1.00  0.00    -0.269 OA
ATOM      6  H   UNL A   1      32.515  28.458  25.036  1.00  0.00     0.163 HD
BRANCH   4   7
ATOM      7  C   UNL A   1      32.270  25.286  24.692  1.00  0.00     0.084 A 
ATOM      8  C   UNL A   1      31.176  25.332  23.806  1.00  0.00     0.141 A 
ATOM      9  N   UNL A   1      30.502  24.188  23.495  1.00  0.00    -0.236 NA
ATOM     10  C   UNL A   1      30.893  23.011  24.049  1.00  0.00     0.139 A 
ATOM     11  C   UNL A   1      32.633  24.058  25.254  1.00  0.00     0.045 A 
ATOM     12  C   UNL A   1      31.938  22.900  24.946  1.00  0.00     0.060 A 
BRANCH   8  13
ATOM     13  N   UNL A   1      30.634  26.512  23.331  1.00  0.00    -0.352 N 
ATOM     14  N   UNL A   1      29.486  28.976  22.452  1.00  0.00    -0.365 N 
ATOM     15  C   UNL A   1      29.025  28.343  23.703  1.00  0.00     0.138 C 
ATOM     16  C   UNL A   1      30.834  28.581  21.956  1.00  0.00     0.098 C 
ATOM     17  C   UNL A   1      29.236  26.812  23.681  1.00  0.00     0.139 C 
ATOM     18  C   UNL A   1      30.986  27.027  21.992  1.00  0.00     0.142 C 
ATOM     19  C   UNL A   1      31.924  29.278  22.780  1.00  0.00     0.033 C 
BRANCH  14  20
ATOM     20  C   UNL A   1      28.976  30.215  22.091  1.00  0.00     0.037 A 
ATOM     21  C   UNL A   1      29.105  33.816  23.371  1.00  0.00     0.044 C 
ATOM     22  C   UNL A   1      28.768  32.619  22.533  1.00  0.00    -0.049 A 
ATOM     23  C   UNL A   1      28.046  32.776  21.348  1.00  0.00     0.003 A 
ATOM     24  C   UNL A   1      29.213  31.338  22.897  1.00  0.00     0.029 A 
ATOM     25  C   UNL A   1      27.776  31.672  20.543  1.00  0.00     0.002 A 
ATOM     26  C   UNL A   1      28.244  30.409  20.911  1.00  0.00     0.026 A 
ENDBRANCH  14  20
ENDBRANCH   8  13
BRANCH  12  27
ATOM     27  N   UNL A   1      32.325  21.726  25.610  1.00  0.00    -0.320 N 
ATOM     28  C   UNL A   1      33.544  21.099  25.670  1.00  0.00     0.258 C 
ATOM     29  H   UNL A   1      31.607  21.281  26.114  1.00  0.00     0.170 HD
ATOM     30  O   UNL A   1      33.603  19.914  26.001  1.00  0.00    -0.269 OA
BRANCH  28  31
ATOM     31  C   UNL A   1      34.800  21.845  25.461  1.00  0.00     0.075 A 
ATOM     32  C   UNL A   1      35.552  21.577  24.311  1.00  0.00     0.017 A 
ATOM     33  C   UNL A   1      35.314  22.711  26.428  1.00  0.00     0.135 A 
ATOM     34  C   UNL A   1      36.774  22.224  24.112  1.00  0.00     0.001 A 
ATOM     35  C   UNL A   1      36.520  23.375  26.221  1.00  0.00     0.040 A 
ATOM     36  F   UNL A   1      34.689  22.901  27.599  1.00  0.00    -0.206 F 
ATOM     37  C   UNL A   1      37.249  23.134  25.058  1.00  0.00     0.003 A 
ENDBRANCH  28  31
ENDBRANCH  12  27
ENDBRANCH   4   7
ENDBRANCH   2   3
ENDBRANCH   1   2
BRANCH   1  38
ATOM     38  C   UNL A   1      32.099  30.175  27.220  1.00  0.00     0.023 C 
BRANCH  38  39
ATOM     39  C   UNL A   1      33.496  30.628  26.827  1.00  0.00     0.116 C 
BRANCH  39  40
ATOM     40  N   UNL A   1      34.086  31.597  27.740  1.00  0.00    -0.352 N 
ATOM     41  C   UNL A   1      35.085  31.434  28.687  1.00  0.00     0.251 C 
ATOM     42  H   UNL A   1      33.717  32.507  27.676  1.00  0.00     0.163 HD
ATOM     43  O   UNL A   1      35.367  32.346  29.442  1.00  0.00    -0.269 OA
BRANCH  41  44
ATOM     44  C   UNL A   1      35.922  30.206  28.662  1.00  0.00     0.039 A 
ATOM     45  C   UNL A   1      36.297  29.665  29.900  1.00  0.00     0.014 A 
ATOM     46  C   UNL A   1      36.541  29.776  27.494  1.00  0.00     0.014 A 
ATOM     47  C   UNL A   1      37.480  28.942  29.993  1.00  0.00     0.010 A 
ATOM     48  C   UNL A   1      37.771  29.161  27.597  1.00  0.00     0.010 A 
ATOM     49  C   UNL A   1      38.277  28.832  28.859  1.00  0.00    -0.014 A 
BRANCH  49  50
ATOM     50  C   UNL A   1      39.697  28.517  28.902  1.00  0.00     0.031 A 
ATOM     51  C   UNL A   1      40.149  27.135  28.668  1.00  0.00     0.074 A 
ATOM     52  C   UNL A   1      40.581  29.535  29.008  1.00  0.00     0.049 A 
ATOM     53  N   UNL A   1      41.352  26.722  28.868  1.00  0.00    -0.248 NA
ATOM     54  C   UNL A   1      39.239  26.070  28.257  1.00  0.00     0.031 C 
ATOM     55  C   UNL A   1      42.015  29.511  28.727  1.00  0.00     0.029 A 
ATOM     56  N   UNL A   1      40.371  30.783  29.622  1.00  0.00    -0.354 N 
ATOM     57  C   UNL A   1      41.452  25.451  28.353  1.00  0.00     0.074 A 
ATOM     58  C   UNL A   1      40.092  25.051  28.108  1.00  0.00     0.031 C 
ATOM     59  C   UNL A   1      42.606  30.504  29.410  1.00  0.00     0.029 A 
ATOM     60  C   UNL A   1      41.591  31.082  30.272  1.00  0.00     0.049 A 
ATOM     61  H   UNL A   1      39.553  31.329  29.603  1.00  0.00     0.167 HD
ATOM     62  C   UNL A   1      42.698  24.970  28.076  1.00  0.00     0.037 A 
ATOM     63  C   UNL A   1      41.672  31.133  31.634  1.00  0.00     0.037 A 
ATOM     64  C   UNL A   1      43.710  25.783  28.762  1.00  0.00     0.049 A 
ATOM     65  C   UNL A   1      42.663  30.152  32.221  1.00  0.00     0.074 A 
ATOM     66  C   UNL A   1      44.612  26.748  28.346  1.00  0.00     0.029 A 
ATOM     67  N   UNL A   1      43.671  25.861  30.155  1.00  0.00    -0.354 N 
ATOM     68  N   UNL A   1      43.080  29.078  31.609  1.00  0.00    -0.248 NA
ATOM     69  C   UNL A   1      43.248  30.301  33.551  1.00  0.00     0.031 C 
ATOM     70  C   UNL A   1      45.040  27.470  29.494  1.00  0.00     0.029 A 
ATOM     71  C   UNL A   1      44.433  26.918  30.610  1.00  0.00     0.049 A 
ATOM     72  H   UNL A   1      43.166  25.245  30.734  1.00  0.00     0.167 HD
ATOM     73  C   UNL A   1      43.953  28.397  32.418  1.00  0.00     0.074 A 
ATOM     74  C   UNL A   1      44.038  29.215  33.615  1.00  0.00     0.031 C 
ATOM     75  C   UNL A   1      44.521  27.213  32.036  1.00  0.00     0.037 A 
BRANCH  62  76
ATOM     76  C   UNL A   1      43.026  23.928  27.015  1.00  0.00     0.064 A 
ATOM     77  C   UNL A   1      42.720  22.565  27.242  1.00  0.00     0.173 A 
ATOM     78  C   UNL A   1      43.748  24.158  25.824  1.00  0.00     0.173 A 
ATOM     79  F   UNL A   1      42.014  22.177  28.313  1.00  0.00    -0.203 F 
ATOM     80  C   UNL A   1      43.146  21.536  26.390  1.00  0.00     0.198 A 
ATOM     81  C   UNL A   1      44.158  23.133  24.964  1.00  0.00     0.198 A 
ATOM     82  F   UNL A   1      44.118  25.374  25.427  1.00  0.00    -0.203 F 
ATOM     83  F   UNL A   1      42.864  20.261  26.692  1.00  0.00    -0.200 F 
ATOM     84  C   UNL A   1      43.872  21.820  25.253  1.00  0.00     0.200 A 
ATOM     85  F   UNL A   1      44.857  23.440  23.860  1.00  0.00    -0.200 F 
ATOM     86  F   UNL A   1      44.296  20.840  24.444  1.00  0.00    -0.200 F 
ENDBRANCH  62  76
BRANCH  63  87
ATOM     87  C   UNL A   1      40.404  31.569  32.280  1.00  0.00     0.064 A 
ATOM     88  C   UNL A   1      39.555  30.579  32.816  1.00  0.00     0.173 A 
ATOM     89  C   UNL A   1      40.206  32.887  32.706  1.00  0.00     0.173 A 
ATOM     90  F   UNL A   1      39.702  29.297  32.445  1.00  0.00    -0.203 F 
ATOM     91  C   UNL A   1      38.641  30.873  33.826  1.00  0.00     0.198 A 
ATOM     92  C   UNL A   1      39.273  33.181  33.704  1.00  0.00     0.198 A 
ATOM     93  F   UNL A   1      40.990  33.873  32.250  1.00  0.00    -0.203 F 
ATOM     94  F   UNL A   1      37.941  29.885  34.403  1.00  0.00    -0.200 F 
ATOM     95  C   UNL A   1      38.520  32.171  34.288  1.00  0.00     0.200 A 
ATOM     96  F   UNL A   1      39.178  34.432  34.177  1.00  0.00    -0.200 F 
ATOM     97  F   UNL A   1      37.716  32.445  35.325  1.00  0.00    -0.200 F 
ENDBRANCH  63  87
BRANCH  75  98
ATOM     98  C   UNL A   1      45.279  26.254  32.932  1.00  0.00     0.064 A 
ATOM     99  C   UNL A   1      44.672  25.372  33.842  1.00  0.00     0.173 A 
ATOM    100  C   UNL A   1      46.680  26.091  32.782  1.00  0.00     0.173 A 
ATOM    101  F   UNL A   1      43.342  25.321  33.988  1.00  0.00    -0.203 F 
ATOM    102  C   UNL A   1      45.412  24.453  34.593  1.00  0.00     0.198 A 
ATOM    103  C   UNL A   1      47.405  25.129  33.484  1.00  0.00     0.198 A 
ATOM    104  F   UNL A   1      47.386  26.841  31.923  1.00  0.00    -0.203 F 
ATOM    105  F   UNL A   1      44.787  23.668  35.483  1.00  0.00    -0.200 F 
ATOM    106  C   UNL A   1      46.775  24.321  34.405  1.00  0.00     0.200 A 
ATOM    107  F   UNL A   1      48.715  24.976  33.242  1.00  0.00    -0.200 F 
ATOM    108  F   UNL A   1      47.470  23.405  35.089  1.00  0.00    -0.200 F 
ENDBRANCH  75  98
ENDBRANCH  49  50
ENDBRANCH  41  44
ENDBRANCH  39  40
ENDBRANCH  38  39
ENDBRANCH   1  38
TORSDOF 15
ENDMDL
MODEL 2
REMARK VINA RESULT:     -14.0      1.100      1.994
REMARK SMILES Cc1cccc(N2CCN(c3ncc(NC(=O)c4ccccc4F)cc3C(=O)NCCCCNC(=O)c3ccc(-c4c5nc(c(-c6c(F)c(F)c(F)c(F)c6F)c6ccc([nH]6)c(-c6c(F)c(F)c(F)c(F)c6F)c6nc(c(-c7c(F)c(F)c(F)c(F)c7F)c7ccc4[nH]7)C=C6)C=C5)cc3)C[C@@H]2C)c1
REMARK SMILES IDX 31 1 30 2 29 3 27 4 28 5 26 7 11 8 12 9 13 10 25 11 14 12
REMARK SMILES IDX 10 13 7 14 8 15 101 16 9 17 100 18 102 19 6 20 1 21 2 22
REMARK SMILES IDX 3 23 103 24 4 25 5 26 15 27 16 28 17 30 18 31 19 32 23 33
REMARK SMILES IDX 20 34 22 35 24 36 21 37 32 38 33 39 34 40 35 41 36 43 37 44
REMARK SMILES IDX 38 45 99 46 39 47 98 48 40 49 41 50 42 51 92 52 43 53 97 54
REMARK SMILES IDX 91 55 93 56 44 57 96 58 90 59 89 60 45 62 77 63 57 64 76 65
REMARK SMILES IDX 58 66 61 67 75 68 94 69 59 70 60 71 74 73 95 74 62 75 46 76
REMARK SMILES IDX 47 77 55 78 48 79 49 80 53 81 56 82 50 83 51 84 54 85 52 86
REMARK SMILES IDX 78 87 79 88 87 89 80 90 81 91 85 92 88 93 82 94 83 95 86 96
REMARK SMILES IDX 84 97 63 98 64 99 72 100 65 101 66 102 70 103 73 104 67 105
REMARK SMILES IDX 68 106 71 107 69 108
REMARK H PARENT 29 6 15 29 34 42 93 61 61 72
REMARK Flexibility Score: inf
ROOT
ATOM      1  C   UNL A   1      32.543  28.630  27.926  1.00  0.00     0.023 C 
ENDROOT
BRANCH   1   2
ATOM      2  C   UNL A   1      32.004  27.509  27.014  1.00  0.00     0.116 C 
BRANCH   2   3
ATOM      3  N   UNL A   1      32.726  27.445  25.756  1.00  0.00    -0.352 N 
ATOM      4  C   UNL A   1      33.254  26.308  25.180  1.00  0.00     0.255 C 
ATOM      5  O   UNL A   1      34.464  26.295  24.975  1.00  0.00    -0.269 OA
ATOM      6  H   UNL A   1      32.850  28.291  25.268  1.00  0.00     0.163 HD
BRANCH   4   7
ATOM      7  C   UNL A   1      32.391  25.155  24.832  1.00  0.00     0.084 A 
ATOM      8  C   UNL A   1      31.245  25.289  24.023  1.00  0.00     0.141 A 
ATOM      9  N   UNL A   1      30.478  24.197  23.743  1.00  0.00    -0.236 NA
ATOM     10  C   UNL A   1      30.827  22.987  24.250  1.00  0.00     0.139 A 
ATOM     11  C   UNL A   1      32.710  23.894  25.348  1.00  0.00     0.045 A 
ATOM     12  C   UNL A   1      31.921  22.791  25.070  1.00  0.00     0.060 A 
BRANCH   8  13
ATOM     13  N   UNL A   1      30.751  26.511  23.606  1.00  0.00    -0.352 N 
ATOM     14  N   UNL A   1      29.699  29.056  22.845  1.00  0.00    -0.365 N 
ATOM     15  C   UNL A   1      29.178  28.359  24.038  1.00  0.00     0.138 C 
ATOM     16  C   UNL A   1      31.053  28.654  22.371  1.00  0.00     0.098 C 
ATOM     17  C   UNL A   1      29.350  26.828  23.926  1.00  0.00     0.139 C 
ATOM     18  C   UNL A   1      31.164  27.098  22.315  1.00  0.00     0.142 C 
ATOM     19  C   UNL A   1      32.131  29.269  23.275  1.00  0.00     0.033 C 
BRANCH  14  20
ATOM     20  C   UNL A   1      29.235  30.329  22.545  1.00  0.00     0.037 A 
ATOM     21  C   UNL A   1      27.683  32.149  19.562  1.00  0.00     0.044 C 
ATOM     22  C   UNL A   1      28.240  31.883  20.928  1.00  0.00    -0.049 A 
ATOM     23  C   UNL A   1      28.186  32.873  21.911  1.00  0.00     0.003 A 
ATOM     24  C   UNL A   1      28.777  30.626  21.253  1.00  0.00     0.029 A 
ATOM     25  C   UNL A   1      28.657  32.610  23.195  1.00  0.00     0.002 A 
ATOM     26  C   UNL A   1      29.169  31.348  23.505  1.00  0.00     0.026 A 
ENDBRANCH  14  20
ENDBRANCH   8  13
BRANCH  12  27
ATOM     27  N   UNL A   1      32.274  21.580  25.688  1.00  0.00    -0.320 N 
ATOM     28  C   UNL A   1      33.415  20.826  25.579  1.00  0.00     0.258 C 
ATOM     29  H   UNL A   1      31.594  21.214  26.297  1.00  0.00     0.170 HD
ATOM     30  O   UNL A   1      33.395  19.642  25.915  1.00  0.00    -0.269 OA
BRANCH  28  31
ATOM     31  C   UNL A   1      34.700  21.434  25.179  1.00  0.00     0.075 A 
ATOM     32  C   UNL A   1      35.694  21.592  26.151  1.00  0.00     0.017 A 
ATOM     33  C   UNL A   1      34.901  21.960  23.901  1.00  0.00     0.135 A 
ATOM     34  C   UNL A   1      36.899  22.216  25.818  1.00  0.00     0.001 A 
ATOM     35  C   UNL A   1      36.110  22.560  23.561  1.00  0.00     0.040 A 
ATOM     36  F   UNL A   1      33.930  21.943  22.977  1.00  0.00    -0.206 F 
ATOM     37  C   UNL A   1      37.113  22.684  24.520  1.00  0.00     0.003 A 
ENDBRANCH  28  31
ENDBRANCH  12  27
ENDBRANCH   4   7
ENDBRANCH   2   3
ENDBRANCH   1   2
BRANCH   1  38
ATOM     38  C   UNL A   1      32.696  29.995  27.244  1.00  0.00     0.023 C 
BRANCH  38  39
ATOM     39  C   UNL A   1      34.142  30.362  26.954  1.00  0.00     0.116 C 
BRANCH  39  40
ATOM     40  N   UNL A   1      34.739  31.254  27.939  1.00  0.00    -0.352 N 
ATOM     41  C   UNL A   1      35.701  30.999  28.903  1.00  0.00     0.251 C 
ATOM     42  H   UNL A   1      34.407  32.180  27.916  1.00  0.00     0.163 HD
ATOM     43  O   UNL A   1      35.992  31.856  29.718  1.00  0.00    -0.269 OA
BRANCH  41  44
ATOM     44  C   UNL A   1      36.492  29.744  28.833  1.00  0.00     0.039 A 
ATOM     45  C   UNL A   1      36.775  29.100  30.046  1.00  0.00     0.014 A 
ATOM     46  C   UNL A   1      37.160  29.373  27.672  1.00  0.00     0.014 A 
ATOM     47  C   UNL A   1      37.924  28.324  30.149  1.00  0.00     0.010 A 
ATOM     48  C   UNL A   1      38.359  28.703  27.795  1.00  0.00     0.010 A 
ATOM     49  C   UNL A   1      38.780  28.263  29.054  1.00  0.00    -0.014 A 
BRANCH  49  50
ATOM     50  C   UNL A   1      40.182  27.888  29.151  1.00  0.00     0.031 A 
ATOM     51  C   UNL A   1      40.614  26.548  28.717  1.00  0.00     0.074 A 
ATOM     52  C   UNL A   1      41.082  28.836  29.499  1.00  0.00     0.049 A 
ATOM     53  N   UNL A   1      41.785  26.059  28.934  1.00  0.00    -0.248 NA
ATOM     54  C   UNL A   1      39.714  25.607  28.060  1.00  0.00     0.031 C 
ATOM     55  C   UNL A   1      42.532  28.802  29.329  1.00  0.00     0.029 A 
ATOM     56  N   UNL A   1      40.855  29.969  30.302  1.00  0.00    -0.354 N 
ATOM     57  C   UNL A   1      41.893  24.892  28.216  1.00  0.00     0.074 A 
ATOM     58  C   UNL A   1      40.548  24.595  27.802  1.00  0.00     0.031 C 
ATOM     59  C   UNL A   1      43.092  29.640  30.217  1.00  0.00     0.029 A 
ATOM     60  C   UNL A   1      42.025  30.103  31.086  1.00  0.00     0.049 A 
ATOM     61  H   UNL A   1      40.056  30.543  30.315  1.00  0.00     0.167 HD
ATOM     62  C   UNL A   1      43.144  24.415  27.957  1.00  0.00     0.037 A 
ATOM     63  C   UNL A   1      41.995  29.917  32.438  1.00  0.00     0.037 A 
ATOM     64  C   UNL A   1      44.118  25.056  28.848  1.00  0.00     0.049 A 
ATOM     65  C   UNL A   1      42.907  28.812  32.921  1.00  0.00     0.074 A 
ATOM     66  C   UNL A   1      45.077  26.041  28.676  1.00  0.00     0.029 A 
ATOM     67  N   UNL A   1      43.966  24.898  30.226  1.00  0.00    -0.354 N 
ATOM     68  N   UNL A   1      43.344  27.842  32.166  1.00  0.00    -0.248 NA
ATOM     69  C   UNL A   1      43.383  28.708  34.297  1.00  0.00     0.031 C 
ATOM     70  C   UNL A   1      45.427  26.539  29.961  1.00  0.00     0.029 A 
ATOM     71  C   UNL A   1      44.716  25.830  30.915  1.00  0.00     0.049 A 
ATOM     72  H   UNL A   1      43.399  24.214  30.650  1.00  0.00     0.167 HD
ATOM     73  C   UNL A   1      44.128  26.998  32.910  1.00  0.00     0.074 A 
ATOM     74  C   UNL A   1      44.136  27.596  34.233  1.00  0.00     0.031 C 
ATOM     75  C   UNL A   1      44.694  25.874  32.373  1.00  0.00     0.037 A 
BRANCH  62  76
ATOM     76  C   UNL A   1      43.531  23.556  26.760  1.00  0.00     0.064 A 
ATOM     77  C   UNL A   1      43.149  22.194  26.711  1.00  0.00     0.173 A 
ATOM     78  C   UNL A   1      44.374  23.948  25.697  1.00  0.00     0.173 A 
ATOM     79  F   UNL A   1      42.327  21.667  27.630  1.00  0.00    -0.203 F 
ATOM     80  C   UNL A   1      43.614  21.307  25.730  1.00  0.00     0.198 A 
ATOM     81  C   UNL A   1      44.823  23.066  24.707  1.00  0.00     0.198 A 
ATOM     82  F   UNL A   1      44.830  25.191  25.558  1.00  0.00    -0.203 F 
ATOM     83  F   UNL A   1      43.252  20.017  25.773  1.00  0.00    -0.200 F 
ATOM     84  C   UNL A   1      44.457  21.742  24.731  1.00  0.00     0.200 A 
ATOM     85  F   UNL A   1      45.637  23.520  23.742  1.00  0.00    -0.200 F 
ATOM     86  F   UNL A   1      44.916  20.895  23.800  1.00  0.00    -0.200 F 
ENDBRANCH  62  76
BRANCH  63  87
ATOM     87  C   UNL A   1      40.689  30.288  33.050  1.00  0.00     0.064 A 
ATOM     88  C   UNL A   1      40.357  31.656  33.133  1.00  0.00     0.173 A 
ATOM     89  C   UNL A   1      39.649  29.363  33.191  1.00  0.00     0.173 A 
ATOM     90  F   UNL A   1      41.315  32.588  33.001  1.00  0.00    -0.203 F 
ATOM     91  C   UNL A   1      39.032  32.079  33.220  1.00  0.00     0.198 A 
ATOM     92  C   UNL A   1      38.323  29.792  33.300  1.00  0.00     0.198 A 
ATOM     93  F   UNL A   1      39.893  28.048  33.104  1.00  0.00    -0.203 F 
ATOM     94  F   UNL A   1      38.743  33.388  33.167  1.00  0.00    -0.200 F 
ATOM     95  C   UNL A   1      38.013  31.145  33.277  1.00  0.00     0.200 A 
ATOM     96  F   UNL A   1      37.332  28.889  33.321  1.00  0.00    -0.200 F 
ATOM     97  F   UNL A   1      36.733  31.543  33.261  1.00  0.00    -0.200 F 
ENDBRANCH  63  87
BRANCH  75  98
ATOM     98  C   UNL A   1      45.349  24.747  33.145  1.00  0.00     0.064 A 
ATOM     99  C   UNL A   1      46.636  24.813  33.706  1.00  0.00     0.173 A 
ATOM    100  C   UNL A   1      44.610  23.583  33.477  1.00  0.00     0.173 A 
ATOM    101  F   UNL A   1      47.396  25.909  33.588  1.00  0.00    -0.203 F 
ATOM    102  C   UNL A   1      47.168  23.771  34.474  1.00  0.00     0.198 A 
ATOM    103  C   UNL A   1      45.118  22.576  34.297  1.00  0.00     0.198 A 
ATOM    104  F   UNL A   1      43.355  23.400  33.040  1.00  0.00    -0.203 F 
ATOM    105  F   UNL A   1      48.420  23.867  34.944  1.00  0.00    -0.200 F 
ATOM    106  C   UNL A   1      46.405  22.660  34.781  1.00  0.00     0.200 A 
ATOM    107  F   UNL A   1      44.342  21.536  34.633  1.00  0.00    -0.200 F 
ATOM    108  F   UNL A   1      46.901  21.690  35.559  1.00  0.00    -0.200 F 
ENDBRANCH  75  98
ENDBRANCH  49  50
ENDBRANCH  41  44
ENDBRANCH  39  40
ENDBRANCH  38  39
ENDBRANCH   1  38
TORSDOF 15
ENDMDL
MODEL 3
REMARK VINA RESULT:     -13.7      1.585      2.289
REMARK SMILES Cc1cccc(N2CCN(c3ncc(NC(=O)c4ccccc4F)cc3C(=O)NCCCCNC(=O)c3ccc(-c4c5nc(c(-c6c(F)c(F)c(F)c(F)c6F)c6ccc([nH]6)c(-c6c(F)c(F)c(F)c(F)c6F)c6nc(c(-c7c(F)c(F)c(F)c(F)c7F)c7ccc4[nH]7)C=C6)C=C5)cc3)C[C@@H]2C)c1
REMARK SMILES IDX 31 1 30 2 29 3 27 4 28 5 26 7 11 8 12 9 13 10 25 11 14 12
REMARK SMILES IDX 10 13 7 14 8 15 101 16 9 17 100 18 102 19 6 20 1 21 2 22
REMARK SMILES IDX 3 23 103 24 4 25 5 26 15 27 16 28 17 30 18 31 19 32 23 33
REMARK SMILES IDX 20 34 22 35 24 36 21 37 32 38 33 39 34 40 35 41 36 43 37 44
REMARK SMILES IDX 38 45 99 46 39 47 98 48 40 49 41 50 42 51 92 52 43 53 97 54
REMARK SMILES IDX 91 55 93 56 44 57 96 58 90 59 89 60 45 62 77 63 57 64 76 65
REMARK SMILES IDX 58 66 61 67 75 68 94 69 59 70 60 71 74 73 95 74 62 75 46 76
REMARK SMILES IDX 47 77 55 78 48 79 49 80 53 81 56 82 50 83 51 84 54 85 52 86
REMARK SMILES IDX 78 87 79 88 87 89 80 90 81 91 85 92 88 93 82 94 83 95 86 96
REMARK SMILES IDX 84 97 63 98 64 99 72 100 65 101 66 102 70 103 73 104 67 105
REMARK SMILES IDX 68 106 71 107 69 108
REMARK H PARENT 29 6 15 29 34 42 93 61 61 72
REMARK Flexibility Score: inf
ROOT
ATOM      1  C   UNL A   1      33.005  28.731  27.502  1.00  0.00     0.023 C 
ENDROOT
BRANCH   1   2
ATOM      2  C   UNL A   1      32.306  27.616  26.697  1.00  0.00     0.116 C 
BRANCH   2   3
ATOM      3  N   UNL A   1      32.794  27.553  25.331  1.00  0.00    -0.352 N 
ATOM      4  C   UNL A   1      33.238  26.421  24.679  1.00  0.00     0.255 C 
ATOM      5  O   UNL A   1      34.392  26.432  24.262  1.00  0.00    -0.269 OA
ATOM      6  H   UNL A   1      32.809  28.396  24.822  1.00  0.00     0.163 HD
BRANCH   4   7
ATOM      7  C   UNL A   1      32.354  25.245  24.500  1.00  0.00     0.084 A 
ATOM      8  C   UNL A   1      31.142  25.315  23.785  1.00  0.00     0.141 A 
ATOM      9  N   UNL A   1      30.360  24.206  23.659  1.00  0.00    -0.236 NA
ATOM     10  C   UNL A   1      30.757  23.040  24.230  1.00  0.00     0.139 A 
ATOM     11  C   UNL A   1      32.723  24.029  25.086  1.00  0.00     0.045 A 
ATOM     12  C   UNL A   1      31.919  22.908  24.967  1.00  0.00     0.060 A 
BRANCH   8  13
ATOM     13  N   UNL A   1      30.608  26.501  23.314  1.00  0.00    -0.352 N 
ATOM     14  N   UNL A   1      29.471  28.973  22.443  1.00  0.00    -0.365 N 
ATOM     15  C   UNL A   1      28.957  28.300  23.653  1.00  0.00     0.138 C 
ATOM     16  C   UNL A   1      30.847  28.608  22.005  1.00  0.00     0.098 C 
ATOM     17  C   UNL A   1      29.190  26.774  23.602  1.00  0.00     0.139 C 
ATOM     18  C   UNL A   1      31.019  27.057  22.009  1.00  0.00     0.142 C 
ATOM     19  C   UNL A   1      31.885  29.297  22.901  1.00  0.00     0.033 C 
BRANCH  14  20
ATOM     20  C   UNL A   1      28.962  30.215  22.089  1.00  0.00     0.037 A 
ATOM     21  C   UNL A   1      29.136  33.816  23.361  1.00  0.00     0.044 C 
ATOM     22  C   UNL A   1      28.777  32.620  22.531  1.00  0.00    -0.049 A 
ATOM     23  C   UNL A   1      28.034  32.780  21.359  1.00  0.00     0.003 A 
ATOM     24  C   UNL A   1      29.221  31.337  22.889  1.00  0.00     0.029 A 
ATOM     25  C   UNL A   1      27.744  31.677  20.561  1.00  0.00     0.002 A 
ATOM     26  C   UNL A   1      28.210  30.411  20.923  1.00  0.00     0.026 A 
ENDBRANCH  14  20
ENDBRANCH   8  13
BRANCH  12  27
ATOM     27  N   UNL A   1      32.330  21.751  25.646  1.00  0.00    -0.320 N 
ATOM     28  C   UNL A   1      33.558  21.142  25.704  1.00  0.00     0.258 C 
ATOM     29  H   UNL A   1      31.623  21.305  26.166  1.00  0.00     0.170 HD
ATOM     30  O   UNL A   1      33.637  19.965  26.054  1.00  0.00    -0.269 OA
BRANCH  28  31
ATOM     31  C   UNL A   1      34.801  21.902  25.468  1.00  0.00     0.075 A 
ATOM     32  C   UNL A   1      35.516  21.664  24.289  1.00  0.00     0.017 A 
ATOM     33  C   UNL A   1      35.340  22.753  26.435  1.00  0.00     0.135 A 
ATOM     34  C   UNL A   1      36.726  22.324  24.063  1.00  0.00     0.001 A 
ATOM     35  C   UNL A   1      36.533  23.431  26.203  1.00  0.00     0.040 A 
ATOM     36  F   UNL A   1      34.753  22.915  27.631  1.00  0.00    -0.206 F 
ATOM     37  C   UNL A   1      37.225  23.219  25.012  1.00  0.00     0.003 A 
ENDBRANCH  28  31
ENDBRANCH  12  27
ENDBRANCH   4   7
ENDBRANCH   2   3
ENDBRANCH   1   2
BRANCH   1  38
ATOM     38  C   UNL A   1      34.443  29.036  27.062  1.00  0.00     0.023 C 
BRANCH  38  39
ATOM     39  C   UNL A   1      35.093  30.148  27.869  1.00  0.00     0.116 C 
BRANCH  39  40
ATOM     40  N   UNL A   1      34.292  31.360  27.965  1.00  0.00    -0.352 N 
ATOM     41  C   UNL A   1      34.471  32.486  28.754  1.00  0.00     0.251 C 
ATOM     42  H   UNL A   1      33.501  31.384  27.379  1.00  0.00     0.163 HD
ATOM     43  O   UNL A   1      33.622  33.358  28.777  1.00  0.00    -0.269 OA
BRANCH  41  44
ATOM     44  C   UNL A   1      35.773  32.701  29.436  1.00  0.00     0.039 A 
ATOM     45  C   UNL A   1      36.809  33.256  28.672  1.00  0.00     0.014 A 
ATOM     46  C   UNL A   1      36.046  32.127  30.673  1.00  0.00     0.014 A 
ATOM     47  C   UNL A   1      38.127  32.959  28.999  1.00  0.00     0.010 A 
ATOM     48  C   UNL A   1      37.341  31.732  30.936  1.00  0.00     0.010 A 
ATOM     49  C   UNL A   1      38.363  32.072  30.045  1.00  0.00    -0.014 A 
BRANCH  49  50
ATOM     50  C   UNL A   1      39.607  31.336  30.208  1.00  0.00     0.031 A 
ATOM     51  C   UNL A   1      39.715  29.956  29.704  1.00  0.00     0.074 A 
ATOM     52  C   UNL A   1      40.688  31.993  30.688  1.00  0.00     0.049 A 
ATOM     53  N   UNL A   1      40.697  29.165  29.962  1.00  0.00    -0.248 NA
ATOM     54  C   UNL A   1      38.662  29.323  28.917  1.00  0.00     0.031 C 
ATOM     55  C   UNL A   1      42.090  31.588  30.615  1.00  0.00     0.029 A 
ATOM     56  N   UNL A   1      40.693  33.099  31.557  1.00  0.00    -0.354 N 
ATOM     57  C   UNL A   1      40.562  28.052  29.167  1.00  0.00     0.074 A 
ATOM     58  C   UNL A   1      39.226  28.143  28.641  1.00  0.00     0.031 C 
ATOM     59  C   UNL A   1      42.768  32.198  31.601  1.00  0.00     0.029 A 
ATOM     60  C   UNL A   1      41.787  32.877  32.427  1.00  0.00     0.049 A 
ATOM     61  H   UNL A   1      40.071  33.862  31.560  1.00  0.00     0.167 HD
ATOM     62  C   UNL A   1      41.665  27.278  28.959  1.00  0.00     0.037 A 
ATOM     63  C   UNL A   1      41.593  32.631  33.756  1.00  0.00     0.037 A 
ATOM     64  C   UNL A   1      42.691  27.590  29.961  1.00  0.00     0.049 A 
ATOM     65  C   UNL A   1      42.145  31.299  34.215  1.00  0.00     0.074 A 
ATOM     66  C   UNL A   1      43.883  28.296  29.930  1.00  0.00     0.029 A 
ATOM     67  N   UNL A   1      42.385  27.401  31.309  1.00  0.00    -0.354 N 
ATOM     68  N   UNL A   1      42.380  30.292  33.419  1.00  0.00    -0.248 NA
ATOM     69  C   UNL A   1      42.458  30.998  35.608  1.00  0.00     0.031 C 
ATOM     70  C   UNL A   1      44.238  28.612  31.270  1.00  0.00     0.029 A 
ATOM     71  C   UNL A   1      43.289  28.063  32.116  1.00  0.00     0.049 A 
ATOM     72  H   UNL A   1      41.627  26.868  31.640  1.00  0.00     0.167 HD
ATOM     73  C   UNL A   1      42.853  29.232  34.149  1.00  0.00     0.074 A 
ATOM     74  C   UNL A   1      42.901  29.732  35.512  1.00  0.00     0.031 C 
ATOM     75  C   UNL A   1      43.154  28.031  33.568  1.00  0.00     0.037 A 
BRANCH  62  76
ATOM     76  C   UNL A   1      41.918  26.415  27.729  1.00  0.00     0.064 A 
ATOM     77  C   UNL A   1      41.221  25.195  27.563  1.00  0.00     0.173 A 
ATOM     78  C   UNL A   1      42.907  26.643  26.746  1.00  0.00     0.173 A 
ATOM     79  F   UNL A   1      40.231  24.838  28.393  1.00  0.00    -0.203 F 
ATOM     80  C   UNL A   1      41.527  24.274  26.551  1.00  0.00     0.198 A 
ATOM     81  C   UNL A   1      43.200  25.732  25.725  1.00  0.00     0.198 A 
ATOM     82  F   UNL A   1      43.660  27.741  26.721  1.00  0.00    -0.203 F 
ATOM     83  F   UNL A   1      40.861  23.113  26.483  1.00  0.00    -0.200 F 
ATOM     84  C   UNL A   1      42.522  24.540  25.635  1.00  0.00     0.200 A 
ATOM     85  F   UNL A   1      44.168  26.022  24.843  1.00  0.00    -0.200 F 
ATOM     86  F   UNL A   1      42.829  23.657  24.676  1.00  0.00    -0.200 F 
ENDBRANCH  62  76
BRANCH  63  87
ATOM     87  C   UNL A   1      40.380  33.298  34.304  1.00  0.00     0.064 A 
ATOM     88  C   UNL A   1      39.197  32.540  34.417  1.00  0.00     0.173 A 
ATOM     89  C   UNL A   1      40.458  34.484  35.042  1.00  0.00     0.173 A 
ATOM     90  F   UNL A   1      39.069  31.391  33.734  1.00  0.00    -0.203 F 
ATOM     91  C   UNL A   1      38.196  32.883  35.324  1.00  0.00     0.198 A 
ATOM     92  C   UNL A   1      39.442  34.836  35.935  1.00  0.00     0.198 A 
ATOM     93  F   UNL A   1      41.562  35.242  34.995  1.00  0.00    -0.203 F 
ATOM     94  F   UNL A   1      37.144  32.070  35.498  1.00  0.00    -0.200 F 
ATOM     95  C   UNL A   1      38.333  34.018  36.102  1.00  0.00     0.200 A 
ATOM     96  F   UNL A   1      39.588  35.917  36.715  1.00  0.00    -0.200 F 
ATOM     97  F   UNL A   1      37.424  34.301  37.046  1.00  0.00    -0.200 F 
ENDBRANCH  63  87
BRANCH  75  98
ATOM     98  C   UNL A   1      43.427  26.729  34.295  1.00  0.00     0.064 A 
ATOM     99  C   UNL A   1      42.432  25.907  34.851  1.00  0.00     0.173 A 
ATOM    100  C   UNL A   1      44.737  26.185  34.319  1.00  0.00     0.173 A 
ATOM    101  F   UNL A   1      41.135  26.231  34.779  1.00  0.00    -0.203 F 
ATOM    102  C   UNL A   1      42.730  24.677  35.447  1.00  0.00     0.198 A 
ATOM    103  C   UNL A   1      45.021  24.929  34.855  1.00  0.00     0.198 A 
ATOM    104  F   UNL A   1      45.781  26.843  33.794  1.00  0.00    -0.203 F 
ATOM    105  F   UNL A   1      41.747  23.956  36.005  1.00  0.00    -0.200 F 
ATOM    106  C   UNL A   1      44.021  24.182  35.437  1.00  0.00     0.200 A 
ATOM    107  F   UNL A   1      46.267  24.440  34.781  1.00  0.00    -0.200 F 
ATOM    108  F   UNL A   1      44.292  22.981  35.963  1.00  0.00    -0.200 F 
ENDBRANCH  75  98
ENDBRANCH  49  50
ENDBRANCH  41  44
ENDBRANCH  39  40
ENDBRANCH  38  39
ENDBRANCH   1  38
TORSDOF 15
ENDMDL
