MODEL 1
REMARK VINA RESULT:     -12.9      0.000      0.000
REMARK SMILES Cc1onc(-c2cccc(Br)c2)c1C(=O)NCCCCNC(=O)c1ccc(-c2c3nc(c(-c4c(F)c(F)c(F)c(F)c4F)c4ccc([nH]4)c(-c4c(F)c(F)c(F)c(F)c4F)c4nc(c(-c5c(F)c(F)c(F)c(F)c5F)c5ccc2[nH]5)C=C4)C=C3)cc1
REMARK SMILES IDX 19 1 18 2 17 3 16 4 14 5 15 6 13 8 1 9 2 10 3 11 4 12 5 13
REMARK SMILES IDX 6 14 7 15 12 16 8 17 10 18 9 19 11 20 20 21 21 22 22 23
REMARK SMILES IDX 23 25 24 26 25 27 86 28 26 29 85 30 27 31 28 32 29 33 79 34
REMARK SMILES IDX 30 35 84 36 78 37 80 38 31 39 83 40 77 41 76 42 32 44 64 45
REMARK SMILES IDX 44 46 63 47 45 48 48 49 62 50 81 51 46 52 47 53 61 55 82 56
REMARK SMILES IDX 49 57 33 58 34 59 42 60 35 61 36 62 40 63 43 64 37 65 38 66
REMARK SMILES IDX 41 67 39 68 65 69 66 70 74 71 67 72 68 73 72 74 75 75 69 76
REMARK SMILES IDX 70 77 73 78 71 79 50 80 51 81 59 82 52 83 53 84 57 85 60 86
REMARK SMILES IDX 54 87 55 88 58 89 56 90
REMARK H PARENT 16 7 21 24 80 43 48 54
REMARK Flexibility Score: inf
ROOT
ATOM      1  C   UNL A   1      31.597  31.797  26.869  1.00  0.00     0.023 C 
ENDROOT
BRANCH   1   2
ATOM      2  C   UNL A   1      31.987  30.509  26.137  1.00  0.00     0.023 C 
BRANCH   2   3
ATOM      3  C   UNL A   1      32.510  29.391  27.040  1.00  0.00     0.116 C 
BRANCH   3   4
ATOM      4  N   UNL A   1      31.594  28.282  27.054  1.00  0.00    -0.352 N 
ATOM      5  C   UNL A   1      31.233  27.315  26.161  1.00  0.00     0.257 C 
ATOM      6  O   UNL A   1      30.365  26.560  26.610  1.00  0.00    -0.269 OA
ATOM      7  H   UNL A   1      31.115  28.202  27.910  1.00  0.00     0.163 HD
BRANCH   5   8
ATOM      8  C   UNL A   1      31.789  27.112  24.824  1.00  0.00     0.110 A 
ATOM      9  C   UNL A   1      34.209  25.937  24.809  1.00  0.00     0.092 C 
ATOM     10  C   UNL A   1      32.956  26.545  24.324  1.00  0.00     0.147 A 
ATOM     11  O   UNL A   1      32.933  26.580  22.964  1.00  0.00    -0.360 OA
ATOM     12  N   UNL A   1      31.806  27.199  22.519  1.00  0.00    -0.079 NA
ATOM     13  C   UNL A   1      31.125  27.561  23.611  1.00  0.00     0.126 A 
BRANCH  13  14
ATOM     14  C   UNL A   1      29.883  28.306  23.438  1.00  0.00     0.006 A 
ATOM     15  C   UNL A   1      28.652  27.638  23.387  1.00  0.00     0.010 A 
ATOM     16  C   UNL A   1      29.911  29.704  23.371  1.00  0.00     0.026 A 
ATOM     17  C   UNL A   1      27.464  28.355  23.235  1.00  0.00     0.002 A 
ATOM     18  C   UNL A   1      28.721  30.414  23.225  1.00  0.00     0.018 A 
ATOM     19  C   UNL A   1      27.498  29.747  23.151  1.00  0.00     0.016 A 
ATOM     20  Br  UNL A   1      28.762  32.302  23.127  1.00  0.00    -0.051 Br
ENDBRANCH  13  14
ENDBRANCH   5   8
ENDBRANCH   3   4
ENDBRANCH   2   3
ENDBRANCH   1   2
BRANCH   1  21
ATOM     21  C   UNL A   1      32.766  32.664  27.322  1.00  0.00     0.116 C 
BRANCH  21  22
ATOM     22  N   UNL A   1      32.394  34.041  27.610  1.00  0.00    -0.352 N 
ATOM     23  C   UNL A   1      32.966  34.905  28.512  1.00  0.00     0.251 C 
ATOM     24  H   UNL A   1      31.637  34.398  27.094  1.00  0.00     0.163 HD
ATOM     25  O   UNL A   1      32.485  36.017  28.703  1.00  0.00    -0.269 OA
BRANCH  23  26
ATOM     26  C   UNL A   1      34.139  34.460  29.288  1.00  0.00     0.039 A 
ATOM     27  C   UNL A   1      33.932  33.840  30.522  1.00  0.00     0.014 A 
ATOM     28  C   UNL A   1      35.430  34.608  28.774  1.00  0.00     0.014 A 
ATOM     29  C   UNL A   1      35.019  33.299  31.210  1.00  0.00     0.010 A 
ATOM     30  C   UNL A   1      36.501  34.011  29.428  1.00  0.00     0.010 A 
ATOM     31  C   UNL A   1      36.305  33.347  30.648  1.00  0.00    -0.014 A 
BRANCH  31  32
ATOM     32  C   UNL A   1      37.459  32.698  31.315  1.00  0.00     0.031 A 
ATOM     33  C   UNL A   1      38.173  31.562  30.643  1.00  0.00     0.074 A 
ATOM     34  C   UNL A   1      37.810  33.081  32.558  1.00  0.00     0.049 A 
ATOM     35  N   UNL A   1      39.144  30.810  31.096  1.00  0.00    -0.248 NA
ATOM     36  C   UNL A   1      37.714  31.202  29.292  1.00  0.00     0.031 C 
ATOM     37  C   UNL A   1      37.156  34.136  33.334  1.00  0.00     0.029 A 
ATOM     38  N   UNL A   1      38.795  32.616  33.392  1.00  0.00    -0.354 N 
ATOM     39  C   UNL A   1      39.397  29.880  30.096  1.00  0.00     0.074 A 
ATOM     40  C   UNL A   1      38.446  30.129  29.034  1.00  0.00     0.031 C 
ATOM     41  C   UNL A   1      37.770  34.250  34.524  1.00  0.00     0.029 A 
ATOM     42  C   UNL A   1      38.837  33.258  34.606  1.00  0.00     0.049 A 
ATOM     43  H   UNL A   1      39.414  31.892  33.144  1.00  0.00     0.167 HD
ATOM     44  C   UNL A   1      40.351  28.920  30.060  1.00  0.00     0.037 A 
ATOM     45  C   UNL A   1      39.643  33.061  35.667  1.00  0.00     0.037 A 
ATOM     46  C   UNL A   1      41.315  28.699  31.105  1.00  0.00     0.049 A 
ATOM     47  C   UNL A   1      40.707  32.001  35.592  1.00  0.00     0.074 A 
ATOM     48  C   UNL A   1      42.363  27.795  31.136  1.00  0.00     0.029 A 
ATOM     49  N   UNL A   1      41.351  29.394  32.304  1.00  0.00    -0.354 N 
ATOM     50  N   UNL A   1      40.981  31.172  34.615  1.00  0.00    -0.248 NA
ATOM     51  C   UNL A   1      41.579  31.853  36.766  1.00  0.00     0.031 C 
ATOM     52  C   UNL A   1      43.011  27.920  32.369  1.00  0.00     0.029 A 
ATOM     53  C   UNL A   1      42.394  28.930  33.088  1.00  0.00     0.049 A 
ATOM     54  H   UNL A   1      40.727  30.112  32.561  1.00  0.00     0.167 HD
ATOM     55  C   UNL A   1      42.072  30.427  35.041  1.00  0.00     0.074 A 
ATOM     56  C   UNL A   1      42.416  30.909  36.363  1.00  0.00     0.031 C 
ATOM     57  C   UNL A   1      42.730  29.433  34.396  1.00  0.00     0.037 A 
BRANCH  44  58
ATOM     58  C   UNL A   1      40.403  28.042  28.846  1.00  0.00     0.064 A 
ATOM     59  C   UNL A   1      41.157  28.395  27.717  1.00  0.00     0.173 A 
ATOM     60  C   UNL A   1      39.716  26.819  28.821  1.00  0.00     0.173 A 
ATOM     61  F   UNL A   1      41.821  29.561  27.686  1.00  0.00    -0.203 F 
ATOM     62  C   UNL A   1      41.200  27.569  26.596  1.00  0.00     0.198 A 
ATOM     63  C   UNL A   1      39.784  25.982  27.710  1.00  0.00     0.198 A 
ATOM     64  F   UNL A   1      38.983  26.432  29.875  1.00  0.00    -0.203 F 
ATOM     65  F   UNL A   1      41.887  27.950  25.512  1.00  0.00    -0.200 F 
ATOM     66  C   UNL A   1      40.519  26.361  26.597  1.00  0.00     0.200 A 
ATOM     67  F   UNL A   1      39.134  24.810  27.715  1.00  0.00    -0.200 F 
ATOM     68  F   UNL A   1      40.566  25.564  25.519  1.00  0.00    -0.200 F 
ENDBRANCH  44  58
BRANCH  45  69
ATOM     69  C   UNL A   1      39.498  33.911  36.875  1.00  0.00     0.064 A 
ATOM     70  C   UNL A   1      40.122  35.165  36.949  1.00  0.00     0.173 A 
ATOM     71  C   UNL A   1      38.738  33.494  37.977  1.00  0.00     0.173 A 
ATOM     72  F   UNL A   1      40.875  35.597  35.928  1.00  0.00    -0.203 F 
ATOM     73  C   UNL A   1      40.008  35.959  38.089  1.00  0.00     0.198 A 
ATOM     74  C   UNL A   1      38.603  34.300  39.104  1.00  0.00     0.198 A 
ATOM     75  F   UNL A   1      38.115  32.306  37.952  1.00  0.00    -0.203 F 
ATOM     76  F   UNL A   1      40.650  37.134  38.149  1.00  0.00    -0.200 F 
ATOM     77  C   UNL A   1      39.245  35.529  39.163  1.00  0.00     0.200 A 
ATOM     78  F   UNL A   1      37.854  33.887  40.136  1.00  0.00    -0.200 F 
ATOM     79  F   UNL A   1      39.132  36.295  40.257  1.00  0.00    -0.200 F 
ENDBRANCH  45  69
BRANCH  57  80
ATOM     80  C   UNL A   1      43.913  28.827  35.090  1.00  0.00     0.064 A 
ATOM     81  C   UNL A   1      43.781  27.711  35.928  1.00  0.00     0.173 A 
ATOM     82  C   UNL A   1      45.199  29.343  34.876  1.00  0.00     0.173 A 
ATOM     83  F   UNL A   1      42.568  27.193  36.175  1.00  0.00    -0.203 F 
ATOM     84  C   UNL A   1      44.895  27.144  36.542  1.00  0.00     0.198 A 
ATOM     85  C   UNL A   1      46.313  28.757  35.471  1.00  0.00     0.198 A 
ATOM     86  F   UNL A   1      45.378  30.407  34.079  1.00  0.00    -0.203 F 
ATOM     87  F   UNL A   1      44.741  26.102  37.370  1.00  0.00    -0.200 F 
ATOM     88  C   UNL A   1      46.159  27.663  36.307  1.00  0.00     0.200 A 
ATOM     89  F   UNL A   1      47.536  29.253  35.233  1.00  0.00    -0.200 F 
ATOM     90  F   UNL A   1      47.231  27.110  36.892  1.00  0.00    -0.200 F 
ENDBRANCH  57  80
ENDBRANCH  31  32
ENDBRANCH  23  26
ENDBRANCH  21  22
ENDBRANCH   1  21
TORSDOF 12
ENDMDL
MODEL 2
REMARK VINA RESULT:     -12.8      0.481      7.538
REMARK SMILES Cc1onc(-c2cccc(Br)c2)c1C(=O)NCCCCNC(=O)c1ccc(-c2c3nc(c(-c4c(F)c(F)c(F)c(F)c4F)c4ccc([nH]4)c(-c4c(F)c(F)c(F)c(F)c4F)c4nc(c(-c5c(F)c(F)c(F)c(F)c5F)c5ccc2[nH]5)C=C4)C=C3)cc1
REMARK SMILES IDX 19 1 18 2 17 3 16 4 14 5 15 6 13 8 1 9 2 10 3 11 4 12 5 13
REMARK SMILES IDX 6 14 7 15 12 16 8 17 10 18 9 19 11 20 20 21 21 22 22 23
REMARK SMILES IDX 23 25 24 26 25 27 86 28 26 29 85 30 27 31 28 32 29 33 79 34
REMARK SMILES IDX 30 35 84 36 78 37 80 38 31 39 83 40 77 41 76 42 32 44 64 45
REMARK SMILES IDX 44 46 63 47 45 48 48 49 62 50 81 51 46 52 47 53 61 55 82 56
REMARK SMILES IDX 49 57 33 58 34 59 42 60 35 61 36 62 40 63 43 64 37 65 38 66
REMARK SMILES IDX 41 67 39 68 65 69 66 70 74 71 67 72 68 73 72 74 75 75 69 76
REMARK SMILES IDX 70 77 73 78 71 79 50 80 51 81 59 82 52 83 53 84 57 85 60 86
REMARK SMILES IDX 54 87 55 88 58 89 56 90
REMARK H PARENT 16 7 21 24 80 43 48 54
REMARK Flexibility Score: inf
ROOT
ATOM      1  C   UNL A   1      31.421  32.026  26.868  1.00  0.00     0.023 C 
ENDROOT
BRANCH   1   2
ATOM      2  C   UNL A   1      31.700  30.750  26.069  1.00  0.00     0.023 C 
BRANCH   2   3
ATOM      3  C   UNL A   1      32.405  29.643  26.853  1.00  0.00     0.116 C 
BRANCH   3   4
ATOM      4  N   UNL A   1      31.561  28.481  26.957  1.00  0.00    -0.352 N 
ATOM      5  C   UNL A   1      31.238  27.444  26.129  1.00  0.00     0.257 C 
ATOM      6  O   UNL A   1      30.433  26.663  26.646  1.00  0.00    -0.269 OA
ATOM      7  H   UNL A   1      31.112  28.420  27.830  1.00  0.00     0.163 HD
BRANCH   5   8
ATOM      8  C   UNL A   1      31.769  27.201  24.789  1.00  0.00     0.110 A 
ATOM      9  C   UNL A   1      34.172  25.992  24.764  1.00  0.00     0.092 C 
ATOM     10  C   UNL A   1      32.920  26.605  24.285  1.00  0.00     0.147 A 
ATOM     11  O   UNL A   1      32.874  26.607  22.924  1.00  0.00    -0.360 OA
ATOM     12  N   UNL A   1      31.749  27.231  22.483  1.00  0.00    -0.079 NA
ATOM     13  C   UNL A   1      31.092  27.629  23.577  1.00  0.00     0.126 A 
BRANCH  13  14
ATOM     14  C   UNL A   1      29.857  28.387  23.405  1.00  0.00     0.006 A 
ATOM     15  C   UNL A   1      28.618  27.733  23.366  1.00  0.00     0.010 A 
ATOM     16  C   UNL A   1      29.901  29.785  23.328  1.00  0.00     0.026 A 
ATOM     17  C   UNL A   1      27.437  28.463  23.216  1.00  0.00     0.002 A 
ATOM     18  C   UNL A   1      28.718  30.507  23.184  1.00  0.00     0.018 A 
ATOM     19  C   UNL A   1      27.488  29.854  23.122  1.00  0.00     0.016 A 
ATOM     20  Br  UNL A   1      28.781  32.394  23.072  1.00  0.00    -0.051 Br
ENDBRANCH  13  14
ENDBRANCH   5   8
ENDBRANCH   3   4
ENDBRANCH   2   3
ENDBRANCH   1   2
BRANCH   1  21
ATOM     21  C   UNL A   1      32.657  32.824  27.267  1.00  0.00     0.116 C 
BRANCH  21  22
ATOM     22  N   UNL A   1      32.368  34.198  27.646  1.00  0.00    -0.352 N 
ATOM     23  C   UNL A   1      33.000  34.972  28.589  1.00  0.00     0.251 C 
ATOM     24  H   UNL A   1      31.624  34.629  27.167  1.00  0.00     0.163 HD
ATOM     25  O   UNL A   1      32.585  36.094  28.857  1.00  0.00    -0.269 OA
BRANCH  23  26
ATOM     26  C   UNL A   1      34.158  34.415  29.314  1.00  0.00     0.039 A 
ATOM     27  C   UNL A   1      33.934  33.719  30.503  1.00  0.00     0.014 A 
ATOM     28  C   UNL A   1      35.450  34.537  28.793  1.00  0.00     0.014 A 
ATOM     29  C   UNL A   1      35.000  33.077  31.135  1.00  0.00     0.010 A 
ATOM     30  C   UNL A   1      36.496  33.842  29.387  1.00  0.00     0.010 A 
ATOM     31  C   UNL A   1      36.280  33.102  30.560  1.00  0.00    -0.014 A 
BRANCH  31  32
ATOM     32  C   UNL A   1      37.408  32.351  31.162  1.00  0.00     0.031 A 
ATOM     33  C   UNL A   1      37.907  32.714  32.530  1.00  0.00     0.074 A 
ATOM     34  C   UNL A   1      38.030  31.397  30.443  1.00  0.00     0.049 A 
ATOM     35  N   UNL A   1      38.932  32.239  33.191  1.00  0.00    -0.248 NA
ATOM     36  C   UNL A   1      37.176  33.778  33.237  1.00  0.00     0.031 C 
ATOM     37  C   UNL A   1      37.670  30.993  29.083  1.00  0.00     0.029 A 
ATOM     38  N   UNL A   1      39.106  30.603  30.752  1.00  0.00    -0.354 N 
ATOM     39  C   UNL A   1      38.978  32.956  34.379  1.00  0.00     0.074 A 
ATOM     40  C   UNL A   1      37.912  33.932  34.328  1.00  0.00     0.031 C 
ATOM     41  C   UNL A   1      38.498  30.014  28.682  1.00  0.00     0.029 A 
ATOM     42  C   UNL A   1      39.465  29.744  29.741  1.00  0.00     0.049 A 
ATOM     43  H   UNL A   1      39.575  30.644  31.616  1.00  0.00     0.167 HD
ATOM     44  C   UNL A   1      39.821  32.798  35.426  1.00  0.00     0.037 A 
ATOM     45  C   UNL A   1      40.466  28.846  29.677  1.00  0.00     0.037 A 
ATOM     46  C   UNL A   1      40.859  31.803  35.486  1.00  0.00     0.049 A 
ATOM     47  C   UNL A   1      41.376  28.678  30.862  1.00  0.00     0.074 A 
ATOM     48  C   UNL A   1      41.725  31.518  36.528  1.00  0.00     0.029 A 
ATOM     49  N   UNL A   1      41.169  30.925  34.458  1.00  0.00    -0.354 N 
ATOM     50  N   UNL A   1      41.369  29.315  32.007  1.00  0.00    -0.248 NA
ATOM     51  C   UNL A   1      42.430  27.660  30.749  1.00  0.00     0.031 C 
ATOM     52  C   UNL A   1      42.581  30.492  36.117  1.00  0.00     0.029 A 
ATOM     53  C   UNL A   1      42.221  30.108  34.835  1.00  0.00     0.049 A 
ATOM     54  H   UNL A   1      40.708  30.888  33.587  1.00  0.00     0.167 HD
ATOM     55  C   UNL A   1      42.393  28.758  32.761  1.00  0.00     0.074 A 
ATOM     56  C   UNL A   1      42.995  27.722  31.946  1.00  0.00     0.031 C 
ATOM     57  C   UNL A   1      42.797  29.073  34.015  1.00  0.00     0.037 A 
BRANCH  44  58
ATOM     58  C   UNL A   1      39.650  33.718  36.598  1.00  0.00     0.064 A 
ATOM     59  C   UNL A   1      40.280  34.971  36.646  1.00  0.00     0.173 A 
ATOM     60  C   UNL A   1      38.823  33.357  37.673  1.00  0.00     0.173 A 
ATOM     61  F   UNL A   1      41.092  35.357  35.650  1.00  0.00    -0.203 F 
ATOM     62  C   UNL A   1      40.110  35.817  37.739  1.00  0.00     0.198 A 
ATOM     63  C   UNL A   1      38.634  34.217  38.750  1.00  0.00     0.198 A 
ATOM     64  F   UNL A   1      38.195  32.172  37.675  1.00  0.00    -0.203 F 
ATOM     65  F   UNL A   1      40.761  36.987  37.784  1.00  0.00    -0.200 F 
ATOM     66  C   UNL A   1      39.282  35.443  38.786  1.00  0.00     0.200 A 
ATOM     67  F   UNL A   1      37.825  33.860  39.758  1.00  0.00    -0.200 F 
ATOM     68  F   UNL A   1      39.116  36.261  39.835  1.00  0.00    -0.200 F 
ENDBRANCH  44  58
BRANCH  45  69
ATOM     69  C   UNL A   1      40.637  28.013  28.460  1.00  0.00     0.064 A 
ATOM     70  C   UNL A   1      40.026  26.755  28.362  1.00  0.00     0.173 A 
ATOM     71  C   UNL A   1      41.410  28.451  27.376  1.00  0.00     0.173 A 
ATOM     72  F   UNL A   1      39.294  26.286  29.382  1.00  0.00    -0.203 F 
ATOM     73  C   UNL A   1      40.199  25.958  27.232  1.00  0.00     0.198 A 
ATOM     74  C   UNL A   1      41.561  27.664  26.237  1.00  0.00     0.198 A 
ATOM     75  F   UNL A   1      42.009  29.650  27.419  1.00  0.00    -0.203 F 
ATOM     76  F   UNL A   1      39.638  24.741  27.182  1.00  0.00    -0.200 F 
ATOM     77  C   UNL A   1      40.962  26.414  26.168  1.00  0.00     0.200 A 
ATOM     78  F   UNL A   1      42.288  28.114  25.205  1.00  0.00    -0.200 F 
ATOM     79  F   UNL A   1      41.125  25.649  25.081  1.00  0.00    -0.200 F 
ENDBRANCH  45  69
BRANCH  57  80
ATOM     80  C   UNL A   1      43.918  28.266  34.601  1.00  0.00     0.064 A 
ATOM     81  C   UNL A   1      45.252  28.685  34.505  1.00  0.00     0.173 A 
ATOM     82  C   UNL A   1      43.645  27.085  35.305  1.00  0.00     0.173 A 
ATOM     83  F   UNL A   1      45.563  29.801  33.827  1.00  0.00    -0.203 F 
ATOM     84  C   UNL A   1      46.277  27.937  35.079  1.00  0.00     0.198 A 
ATOM     85  C   UNL A   1      44.670  26.354  35.900  1.00  0.00     0.198 A 
ATOM     86  F   UNL A   1      42.384  26.646  35.428  1.00  0.00    -0.203 F 
ATOM     87  F   UNL A   1      47.550  28.334  34.942  1.00  0.00    -0.200 F 
ATOM     88  C   UNL A   1      45.984  26.778  35.782  1.00  0.00     0.200 A 
ATOM     89  F   UNL A   1      44.384  25.240  36.589  1.00  0.00    -0.200 F 
ATOM     90  F   UNL A   1      46.972  26.065  36.341  1.00  0.00    -0.200 F 
ENDBRANCH  57  80
ENDBRANCH  31  32
ENDBRANCH  23  26
ENDBRANCH  21  22
ENDBRANCH   1  21
TORSDOF 12
ENDMDL
MODEL 3
REMARK VINA RESULT:     -12.8      0.508      7.452
REMARK SMILES Cc1onc(-c2cccc(Br)c2)c1C(=O)NCCCCNC(=O)c1ccc(-c2c3nc(c(-c4c(F)c(F)c(F)c(F)c4F)c4ccc([nH]4)c(-c4c(F)c(F)c(F)c(F)c4F)c4nc(c(-c5c(F)c(F)c(F)c(F)c5F)c5ccc2[nH]5)C=C4)C=C3)cc1
REMARK SMILES IDX 19 1 18 2 17 3 16 4 14 5 15 6 13 8 1 9 2 10 3 11 4 12 5 13
REMARK SMILES IDX 6 14 7 15 12 16 8 17 10 18 9 19 11 20 20 21 21 22 22 23
REMARK SMILES IDX 23 25 24 26 25 27 86 28 26 29 85 30 27 31 28 32 29 33 79 34
REMARK SMILES IDX 30 35 84 36 78 37 80 38 31 39 83 40 77 41 76 42 32 44 64 45
REMARK SMILES IDX 44 46 63 47 45 48 48 49 62 50 81 51 46 52 47 53 61 55 82 56
REMARK SMILES IDX 49 57 33 58 34 59 42 60 35 61 36 62 40 63 43 64 37 65 38 66
REMARK SMILES IDX 41 67 39 68 65 69 66 70 74 71 67 72 68 73 72 74 75 75 69 76
REMARK SMILES IDX 70 77 73 78 71 79 50 80 51 81 59 82 52 83 53 84 57 85 60 86
REMARK SMILES IDX 54 87 55 88 58 89 56 90
REMARK H PARENT 16 7 21 24 80 43 48 54
REMARK Flexibility Score: inf
ROOT
ATOM      1  C   UNL A   1      31.409  32.038  26.869  1.00  0.00     0.023 C 
ENDROOT
BRANCH   1   2
ATOM      2  C   UNL A   1      31.685  30.757  26.076  1.00  0.00     0.023 C 
BRANCH   2   3
ATOM      3  C   UNL A   1      32.402  29.658  26.859  1.00  0.00     0.116 C 
BRANCH   3   4
ATOM      4  N   UNL A   1      31.568  28.491  26.974  1.00  0.00    -0.352 N 
ATOM      5  C   UNL A   1      31.252  27.444  26.156  1.00  0.00     0.257 C 
ATOM      6  O   UNL A   1      30.453  26.662  26.680  1.00  0.00    -0.269 OA
ATOM      7  H   UNL A   1      31.120  28.434  27.849  1.00  0.00     0.163 HD
BRANCH   5   8
ATOM      8  C   UNL A   1      31.784  27.193  24.818  1.00  0.00     0.110 A 
ATOM      9  C   UNL A   1      34.195  25.999  24.802  1.00  0.00     0.092 C 
ATOM     10  C   UNL A   1      32.939  26.600  24.318  1.00  0.00     0.147 A 
ATOM     11  O   UNL A   1      32.893  26.591  22.958  1.00  0.00    -0.360 OA
ATOM     12  N   UNL A   1      31.764  27.204  22.511  1.00  0.00    -0.079 NA
ATOM     13  C   UNL A   1      31.104  27.607  23.602  1.00  0.00     0.126 A 
BRANCH  13  14
ATOM     14  C   UNL A   1      29.864  28.355  23.424  1.00  0.00     0.006 A 
ATOM     15  C   UNL A   1      28.630  27.692  23.388  1.00  0.00     0.010 A 
ATOM     16  C   UNL A   1      29.899  29.753  23.340  1.00  0.00     0.026 A 
ATOM     17  C   UNL A   1      27.445  28.413  23.231  1.00  0.00     0.002 A 
ATOM     18  C   UNL A   1      28.711  30.466  23.190  1.00  0.00     0.018 A 
ATOM     19  C   UNL A   1      27.485  29.804  23.130  1.00  0.00     0.016 A 
ATOM     20  Br  UNL A   1      28.761  32.353  23.069  1.00  0.00    -0.051 Br
ENDBRANCH  13  14
ENDBRANCH   5   8
ENDBRANCH   3   4
ENDBRANCH   2   3
ENDBRANCH   1   2
BRANCH   1  21
ATOM     21  C   UNL A   1      32.648  32.831  27.268  1.00  0.00     0.116 C 
BRANCH  21  22
ATOM     22  N   UNL A   1      32.364  34.207  27.646  1.00  0.00    -0.352 N 
ATOM     23  C   UNL A   1      32.999  34.979  28.588  1.00  0.00     0.251 C 
ATOM     24  H   UNL A   1      31.622  34.640  27.165  1.00  0.00     0.163 HD
ATOM     25  O   UNL A   1      32.587  36.103  28.855  1.00  0.00    -0.269 OA
BRANCH  23  26
ATOM     26  C   UNL A   1      34.154  34.419  29.314  1.00  0.00     0.039 A 
ATOM     27  C   UNL A   1      33.923  33.706  30.493  1.00  0.00     0.014 A 
ATOM     28  C   UNL A   1      35.448  34.554  28.806  1.00  0.00     0.014 A 
ATOM     29  C   UNL A   1      34.988  33.061  31.125  1.00  0.00     0.010 A 
ATOM     30  C   UNL A   1      36.494  33.857  29.399  1.00  0.00     0.010 A 
ATOM     31  C   UNL A   1      36.273  33.101  30.560  1.00  0.00    -0.014 A 
BRANCH  31  32
ATOM     32  C   UNL A   1      37.400  32.347  31.161  1.00  0.00     0.031 A 
ATOM     33  C   UNL A   1      37.898  32.707  32.530  1.00  0.00     0.074 A 
ATOM     34  C   UNL A   1      38.022  31.395  30.439  1.00  0.00     0.049 A 
ATOM     35  N   UNL A   1      38.922  32.229  33.191  1.00  0.00    -0.248 NA
ATOM     36  C   UNL A   1      37.167  33.769  33.240  1.00  0.00     0.031 C 
ATOM     37  C   UNL A   1      37.663  30.995  29.078  1.00  0.00     0.029 A 
ATOM     38  N   UNL A   1      39.097  30.600  30.748  1.00  0.00    -0.354 N 
ATOM     39  C   UNL A   1      38.966  32.943  34.381  1.00  0.00     0.074 A 
ATOM     40  C   UNL A   1      37.901  33.919  34.332  1.00  0.00     0.031 C 
ATOM     41  C   UNL A   1      38.491  30.017  28.675  1.00  0.00     0.029 A 
ATOM     42  C   UNL A   1      39.457  29.744  29.734  1.00  0.00     0.049 A 
ATOM     43  H   UNL A   1      39.566  30.639  31.612  1.00  0.00     0.167 HD
ATOM     44  C   UNL A   1      39.809  32.781  35.428  1.00  0.00     0.037 A 
ATOM     45  C   UNL A   1      40.458  28.846  29.669  1.00  0.00     0.037 A 
ATOM     46  C   UNL A   1      40.847  31.786  35.486  1.00  0.00     0.049 A 
ATOM     47  C   UNL A   1      41.367  28.674  30.854  1.00  0.00     0.074 A 
ATOM     48  C   UNL A   1      41.711  31.498  36.529  1.00  0.00     0.029 A 
ATOM     49  N   UNL A   1      41.157  30.911  34.456  1.00  0.00    -0.354 N 
ATOM     50  N   UNL A   1      41.359  29.308  32.001  1.00  0.00    -0.248 NA
ATOM     51  C   UNL A   1      42.421  27.656  30.739  1.00  0.00     0.031 C 
ATOM     52  C   UNL A   1      42.567  30.473  36.115  1.00  0.00     0.029 A 
ATOM     53  C   UNL A   1      42.209  30.093  34.833  1.00  0.00     0.049 A 
ATOM     54  H   UNL A   1      40.697  30.877  33.585  1.00  0.00     0.167 HD
ATOM     55  C   UNL A   1      42.382  28.748  32.754  1.00  0.00     0.074 A 
ATOM     56  C   UNL A   1      42.984  27.715  31.937  1.00  0.00     0.031 C 
ATOM     57  C   UNL A   1      42.785  29.060  34.010  1.00  0.00     0.037 A 
BRANCH  44  58
ATOM     58  C   UNL A   1      39.637  33.698  36.603  1.00  0.00     0.064 A 
ATOM     59  C   UNL A   1      40.260  34.954  36.651  1.00  0.00     0.173 A 
ATOM     60  C   UNL A   1      38.816  33.330  37.680  1.00  0.00     0.173 A 
ATOM     61  F   UNL A   1      41.066  35.347  35.653  1.00  0.00    -0.203 F 
ATOM     62  C   UNL A   1      40.089  35.797  37.746  1.00  0.00     0.198 A 
ATOM     63  C   UNL A   1      38.626  34.187  38.760  1.00  0.00     0.198 A 
ATOM     64  F   UNL A   1      38.195  32.142  37.682  1.00  0.00    -0.203 F 
ATOM     65  F   UNL A   1      40.734  36.971  37.792  1.00  0.00    -0.200 F 
ATOM     66  C   UNL A   1      39.267  35.416  38.796  1.00  0.00     0.200 A 
ATOM     67  F   UNL A   1      37.822  33.823  39.770  1.00  0.00    -0.200 F 
ATOM     68  F   UNL A   1      39.100  36.232  39.847  1.00  0.00    -0.200 F 
ENDBRANCH  44  58
BRANCH  45  69
ATOM     69  C   UNL A   1      40.630  28.017  28.450  1.00  0.00     0.064 A 
ATOM     70  C   UNL A   1      40.020  26.758  28.348  1.00  0.00     0.173 A 
ATOM     71  C   UNL A   1      41.403  28.458  27.367  1.00  0.00     0.173 A 
ATOM     72  F   UNL A   1      39.289  26.286  29.367  1.00  0.00    -0.203 F 
ATOM     73  C   UNL A   1      40.195  25.964  27.216  1.00  0.00     0.198 A 
ATOM     74  C   UNL A   1      41.554  27.674  26.225  1.00  0.00     0.198 A 
ATOM     75  F   UNL A   1      42.000  29.658  27.413  1.00  0.00    -0.203 F 
ATOM     76  F   UNL A   1      39.635  24.747  27.163  1.00  0.00    -0.200 F 
ATOM     77  C   UNL A   1      40.957  26.424  26.154  1.00  0.00     0.200 A 
ATOM     78  F   UNL A   1      42.281  28.127  25.195  1.00  0.00    -0.200 F 
ATOM     79  F   UNL A   1      41.120  25.661  25.064  1.00  0.00    -0.200 F 
ENDBRANCH  45  69
BRANCH  57  80
ATOM     80  C   UNL A   1      43.905  28.251  34.594  1.00  0.00     0.064 A 
ATOM     81  C   UNL A   1      43.671  27.022  35.225  1.00  0.00     0.173 A 
ATOM     82  C   UNL A   1      45.231  28.692  34.479  1.00  0.00     0.173 A 
ATOM     83  F   UNL A   1      42.418  26.566  35.373  1.00  0.00    -0.203 F 
ATOM     84  C   UNL A   1      44.727  26.270  35.737  1.00  0.00     0.198 A 
ATOM     85  C   UNL A   1      46.285  27.926  34.968  1.00  0.00     0.198 A 
ATOM     86  F   UNL A   1      45.506  29.860  33.878  1.00  0.00    -0.203 F 
ATOM     87  F   UNL A   1      44.478  25.116  36.372  1.00  0.00    -0.200 F 
ATOM     88  C   UNL A   1      46.031  26.720  35.601  1.00  0.00     0.200 A 
ATOM     89  F   UNL A   1      47.547  28.356  34.826  1.00  0.00    -0.200 F 
ATOM     90  F   UNL A   1      47.046  25.991  36.087  1.00  0.00    -0.200 F 
ENDBRANCH  57  80
ENDBRANCH  31  32
ENDBRANCH  23  26
ENDBRANCH  21  22
ENDBRANCH   1  21
TORSDOF 12
ENDMDL
