MODEL 1
REMARK VINA RESULT:     -12.7      0.000      0.000
REMARK SMILES C=CCN1C(=O)/C(=C/c2ccccn2)S/C1=[NH+]\c1ccc(C(=O)NCCCCNC(=O)c2ccc(-c3c4nc(c(-c5c(F)c(F)c(F)c(F)c5F)c5ccc([nH]5)c(-c5c(F)c(F)c(F)c(F)c5F)c5nc(c(-c6c(F)c(F)c(F)c(F)c6F)c6ccc3[nH]6)C=C5)C=C4)cc2)cc1
REMARK SMILES IDX 26 1 25 2 24 3 22 4 23 5 21 7 18 8 19 9 96 10 20 11 95 12
REMARK SMILES IDX 17 13 4 14 5 15 16 16 6 17 7 18 15 19 8 20 3 22 2 23 1 24
REMARK SMILES IDX 9 25 10 26 14 27 11 28 13 29 12 30 27 31 28 32 29 33 30 34
REMARK SMILES IDX 31 36 32 37 33 38 94 39 34 40 93 41 35 42 36 43 37 44 87 45
REMARK SMILES IDX 38 46 92 47 86 48 88 49 39 50 91 51 85 52 84 53 40 55 72 56
REMARK SMILES IDX 52 57 71 58 53 59 56 60 70 61 89 62 54 63 55 64 69 66 90 67
REMARK SMILES IDX 57 68 41 69 42 70 50 71 43 72 44 73 48 74 51 75 45 76 46 77
REMARK SMILES IDX 49 78 47 79 73 80 74 81 82 82 75 83 76 84 80 85 83 86 77 87
REMARK SMILES IDX 78 88 81 89 79 90 58 91 59 92 67 93 60 94 61 95 65 96 68 97
REMARK SMILES IDX 62 98 63 99 66 100 64 101
REMARK H PARENT 24 6 17 21 29 35 88 54 56 65
REMARK Flexibility Score: inf
ROOT
ATOM      1  C   UNL A   1      32.235  27.774  26.828  1.00  0.00     0.023 C 
ENDROOT
BRANCH   1   2
ATOM      2  C   UNL A   1      32.229  27.430  25.336  1.00  0.00     0.116 C 
BRANCH   2   3
ATOM      3  N   UNL A   1      30.869  27.321  24.847  1.00  0.00    -0.352 N 
ATOM      4  C   UNL A   1      30.114  26.236  24.477  1.00  0.00     0.251 C 
ATOM      5  O   UNL A   1      28.953  26.437  24.124  1.00  0.00    -0.269 OA
ATOM      6  H   UNL A   1      30.401  28.183  24.765  1.00  0.00     0.163 HD
BRANCH   4   7
ATOM      7  C   UNL A   1      30.621  24.838  24.544  1.00  0.00     0.040 A 
ATOM      8  C   UNL A   1      31.504  22.164  24.477  1.00  0.00     0.125 A 
ATOM      9  C   UNL A   1      31.586  22.954  23.334  1.00  0.00     0.052 A 
ATOM     10  C   UNL A   1      31.067  22.742  25.672  1.00  0.00     0.052 A 
ATOM     11  C   UNL A   1      31.140  24.281  23.364  1.00  0.00     0.018 A 
ATOM     12  C   UNL A   1      30.643  24.070  25.709  1.00  0.00     0.018 A 
BRANCH   8  13
ATOM     13  N   UNL A   1      31.936  20.834  24.467  1.00  0.00    -0.234 N 
ATOM     14  N   UNL A   1      33.689  19.295  24.514  1.00  0.00    -0.182 N 
ATOM     15  C   UNL A   1      35.048  19.143  24.690  1.00  0.00     0.349 C 
ATOM     16  C   UNL A   1      33.176  20.552  24.706  1.00  0.00     0.324 C 
ATOM     17  O   UNL A   1      35.692  18.111  24.547  1.00  0.00    -0.240 OA
ATOM     18  C   UNL A   1      35.654  20.438  25.107  1.00  0.00     0.111 C 
ATOM     19  S   UNL A   1      34.430  21.639  25.251  1.00  0.00     0.007 SA
ATOM     20  C   UNL A   1      36.971  20.595  25.302  1.00  0.00     0.052 C 
ATOM     21  H   UNL A   1      31.295  20.111  24.275  1.00  0.00     0.313 HD
BRANCH  14  22
ATOM     22  C   UNL A   1      32.855  18.182  24.100  1.00  0.00     0.275 C 
BRANCH  22  23
ATOM     23  C   UNL A   1      32.521  17.331  25.294  1.00  0.00     0.011 C 
ATOM     24  C   UNL A   1      32.839  16.037  25.431  1.00  0.00     0.008 C 
ENDBRANCH  22  23
ENDBRANCH  14  22
BRANCH  20  25
ATOM     25  C   UNL A   1      37.604  21.843  25.724  1.00  0.00     0.064 A 
ATOM     26  C   UNL A   1      36.918  23.055  25.688  1.00  0.00     0.028 A 
ATOM     27  N   UNL A   1      38.885  21.735  26.139  1.00  0.00    -0.257 NA
ATOM     28  C   UNL A   1      37.592  24.217  26.050  1.00  0.00     0.004 A 
ATOM     29  C   UNL A   1      39.514  22.881  26.487  1.00  0.00     0.111 A 
ATOM     30  C   UNL A   1      38.920  24.132  26.451  1.00  0.00     0.020 A 
ENDBRANCH  20  25
ENDBRANCH   8  13
ENDBRANCH   4   7
ENDBRANCH   2   3
ENDBRANCH   1   2
BRANCH   1  31
ATOM     31  C   UNL A   1      32.056  29.265  27.124  1.00  0.00     0.023 C 
BRANCH  31  32
ATOM     32  C   UNL A   1      33.057  30.178  26.426  1.00  0.00     0.116 C 
BRANCH  32  33
ATOM     33  N   UNL A   1      32.887  31.582  26.770  1.00  0.00    -0.352 N 
ATOM     34  C   UNL A   1      33.662  32.359  27.594  1.00  0.00     0.251 C 
ATOM     35  H   UNL A   1      32.115  32.033  26.357  1.00  0.00     0.163 HD
ATOM     36  O   UNL A   1      33.319  33.500  27.882  1.00  0.00    -0.269 OA
BRANCH  34  37
ATOM     37  C   UNL A   1      34.901  31.790  28.162  1.00  0.00     0.039 A 
ATOM     38  C   UNL A   1      36.051  32.580  28.195  1.00  0.00     0.014 A 
ATOM     39  C   UNL A   1      34.911  30.498  28.694  1.00  0.00     0.014 A 
ATOM     40  C   UNL A   1      37.199  32.093  28.820  1.00  0.00     0.010 A 
ATOM     41  C   UNL A   1      36.029  30.048  29.387  1.00  0.00     0.010 A 
ATOM     42  C   UNL A   1      37.186  30.839  29.453  1.00  0.00    -0.014 A 
BRANCH  42  43
ATOM     43  C   UNL A   1      38.378  30.338  30.184  1.00  0.00     0.031 A 
ATOM     44  C   UNL A   1      38.621  30.759  31.607  1.00  0.00     0.074 A 
ATOM     45  C   UNL A   1      39.266  29.551  29.549  1.00  0.00     0.049 A 
ATOM     46  N   UNL A   1      39.620  30.462  32.398  1.00  0.00    -0.248 NA
ATOM     47  C   UNL A   1      37.622  31.654  32.213  1.00  0.00     0.031 C 
ATOM     48  C   UNL A   1      39.166  29.118  28.153  1.00  0.00     0.029 A 
ATOM     49  N   UNL A   1      40.432  28.978  29.991  1.00  0.00    -0.354 N 
ATOM     50  C   UNL A   1      39.375  31.139  33.585  1.00  0.00     0.074 A 
ATOM     51  C   UNL A   1      38.169  31.913  33.391  1.00  0.00     0.031 C 
ATOM     52  C   UNL A   1      40.209  28.323  27.864  1.00  0.00     0.029 A 
ATOM     53  C   UNL A   1      41.072  28.223  29.037  1.00  0.00     0.049 A 
ATOM     54  H   UNL A   1      40.777  29.096  30.905  1.00  0.00     0.167 HD
ATOM     55  C   UNL A   1      40.080  31.099  34.742  1.00  0.00     0.037 A 
ATOM     56  C   UNL A   1      42.227  27.534  29.102  1.00  0.00     0.037 A 
ATOM     57  C   UNL A   1      41.271  30.314  34.935  1.00  0.00     0.049 A 
ATOM     58  C   UNL A   1      42.997  27.520  30.396  1.00  0.00     0.074 A 
ATOM     59  C   UNL A   1      42.025  30.159  36.084  1.00  0.00     0.029 A 
ATOM     60  N   UNL A   1      41.885  29.555  33.948  1.00  0.00    -0.354 N 
ATOM     61  N   UNL A   1      42.715  28.101  31.536  1.00  0.00    -0.248 NA
ATOM     62  C   UNL A   1      44.246  26.745  30.412  1.00  0.00     0.031 C 
ATOM     63  C   UNL A   1      43.129  29.356  35.778  1.00  0.00     0.029 A 
ATOM     64  C   UNL A   1      43.025  28.954  34.455  1.00  0.00     0.049 A 
ATOM     65  H   UNL A   1      41.559  29.460  33.024  1.00  0.00     0.167 HD
ATOM     66  C   UNL A   1      43.727  27.735  32.414  1.00  0.00     0.074 A 
ATOM     67  C   UNL A   1      44.622  26.867  31.676  1.00  0.00     0.031 C 
ATOM     68  C   UNL A   1      43.901  28.084  33.712  1.00  0.00     0.037 A 
BRANCH  55  69
ATOM     69  C   UNL A   1      39.580  31.931  35.890  1.00  0.00     0.064 A 
ATOM     70  C   UNL A   1      40.095  33.210  36.155  1.00  0.00     0.173 A 
ATOM     71  C   UNL A   1      38.547  31.459  36.714  1.00  0.00     0.173 A 
ATOM     72  F   UNL A   1      41.092  33.706  35.406  1.00  0.00    -0.203 F 
ATOM     73  C   UNL A   1      39.620  33.968  37.221  1.00  0.00     0.198 A 
ATOM     74  C   UNL A   1      38.049  32.235  37.757  1.00  0.00     0.198 A 
ATOM     75  F   UNL A   1      38.014  30.246  36.503  1.00  0.00    -0.203 F 
ATOM     76  F   UNL A   1      40.167  35.163  37.489  1.00  0.00    -0.200 F 
ATOM     77  C   UNL A   1      38.591  33.484  38.015  1.00  0.00     0.200 A 
ATOM     78  F   UNL A   1      37.045  31.772  38.514  1.00  0.00    -0.200 F 
ATOM     79  F   UNL A   1      38.128  34.219  39.036  1.00  0.00    -0.200 F 
ENDBRANCH  55  69
BRANCH  56  80
ATOM     80  C   UNL A   1      42.714  26.781  27.917  1.00  0.00     0.064 A 
ATOM     81  C   UNL A   1      43.483  27.412  26.927  1.00  0.00     0.173 A 
ATOM     82  C   UNL A   1      42.412  25.423  27.737  1.00  0.00     0.173 A 
ATOM     83  F   UNL A   1      43.782  28.714  27.043  1.00  0.00    -0.203 F 
ATOM     84  C   UNL A   1      43.903  26.724  25.791  1.00  0.00     0.198 A 
ATOM     85  C   UNL A   1      42.861  24.727  26.617  1.00  0.00     0.198 A 
ATOM     86  F   UNL A   1      41.687  24.770  28.656  1.00  0.00    -0.203 F 
ATOM     87  F   UNL A   1      44.587  27.367  24.835  1.00  0.00    -0.200 F 
ATOM     88  C   UNL A   1      43.597  25.380  25.639  1.00  0.00     0.200 A 
ATOM     89  F   UNL A   1      42.578  23.424  26.483  1.00  0.00    -0.200 F 
ATOM     90  F   UNL A   1      44.002  24.717  24.547  1.00  0.00    -0.200 F 
ENDBRANCH  56  80
BRANCH  68  91
ATOM     91  C   UNL A   1      45.078  27.491  34.434  1.00  0.00     0.064 A 
ATOM     92  C   UNL A   1      46.320  28.142  34.489  1.00  0.00     0.173 A 
ATOM     93  C   UNL A   1      44.950  26.266  35.107  1.00  0.00     0.173 A 
ATOM     94  F   UNL A   1      46.500  29.309  33.853  1.00  0.00    -0.203 F 
ATOM     95  C   UNL A   1      47.397  27.571  35.163  1.00  0.00     0.198 A 
ATOM     96  C   UNL A   1      46.019  25.717  35.810  1.00  0.00     0.198 A 
ATOM     97  F   UNL A   1      43.783  25.605  35.095  1.00  0.00    -0.203 F 
ATOM     98  F   UNL A   1      48.590  28.182  35.152  1.00  0.00    -0.200 F 
ATOM     99  C   UNL A   1      47.244  26.364  35.828  1.00  0.00     0.200 A 
ATOM    100  F   UNL A   1      45.862  24.560  36.467  1.00  0.00    -0.200 F 
ATOM    101  F   UNL A   1      48.281  25.821  36.480  1.00  0.00    -0.200 F 
ENDBRANCH  68  91
ENDBRANCH  42  43
ENDBRANCH  34  37
ENDBRANCH  32  33
ENDBRANCH  31  32
ENDBRANCH   1  31
TORSDOF 15
ENDMDL
MODEL 2
REMARK VINA RESULT:     -12.6      4.123     10.189
REMARK SMILES C=CCN1C(=O)/C(=C/c2ccccn2)S/C1=[NH+]\c1ccc(C(=O)NCCCCNC(=O)c2ccc(-c3c4nc(c(-c5c(F)c(F)c(F)c(F)c5F)c5ccc([nH]5)c(-c5c(F)c(F)c(F)c(F)c5F)c5nc(c(-c6c(F)c(F)c(F)c(F)c6F)c6ccc3[nH]6)C=C5)C=C4)cc2)cc1
REMARK SMILES IDX 26 1 25 2 24 3 22 4 23 5 21 7 18 8 19 9 96 10 20 11 95 12
REMARK SMILES IDX 17 13 4 14 5 15 16 16 6 17 7 18 15 19 8 20 3 22 2 23 1 24
REMARK SMILES IDX 9 25 10 26 14 27 11 28 13 29 12 30 27 31 28 32 29 33 30 34
REMARK SMILES IDX 31 36 32 37 33 38 94 39 34 40 93 41 35 42 36 43 37 44 87 45
REMARK SMILES IDX 38 46 92 47 86 48 88 49 39 50 91 51 85 52 84 53 40 55 72 56
REMARK SMILES IDX 52 57 71 58 53 59 56 60 70 61 89 62 54 63 55 64 69 66 90 67
REMARK SMILES IDX 57 68 41 69 42 70 50 71 43 72 44 73 48 74 51 75 45 76 46 77
REMARK SMILES IDX 49 78 47 79 73 80 74 81 82 82 75 83 76 84 80 85 83 86 77 87
REMARK SMILES IDX 78 88 81 89 79 90 58 91 59 92 67 93 60 94 61 95 65 96 68 97
REMARK SMILES IDX 62 98 63 99 66 100 64 101
REMARK H PARENT 24 6 17 21 29 35 88 54 56 65
REMARK Flexibility Score: inf
ROOT
ATOM      1  C   UNL A   1      36.191  23.090  23.735  1.00  0.00     0.023 C 
ENDROOT
BRANCH   1   2
ATOM      2  C   UNL A   1      34.804  23.110  24.381  1.00  0.00     0.116 C 
BRANCH   2   3
ATOM      3  N   UNL A   1      33.908  22.206  23.687  1.00  0.00    -0.352 N 
ATOM      4  C   UNL A   1      32.729  22.422  23.017  1.00  0.00     0.251 C 
ATOM      5  O   UNL A   1      32.187  21.455  22.484  1.00  0.00    -0.269 OA
ATOM      6  H   UNL A   1      34.199  21.266  23.697  1.00  0.00     0.163 HD
BRANCH   4   7
ATOM      7  C   UNL A   1      32.122  23.772  22.863  1.00  0.00     0.040 A 
ATOM      8  C   UNL A   1      30.785  26.237  22.598  1.00  0.00     0.125 A 
ATOM      9  C   UNL A   1      30.343  25.301  23.529  1.00  0.00     0.052 A 
ATOM     10  C   UNL A   1      31.948  25.973  21.869  1.00  0.00     0.052 A 
ATOM     11  C   UNL A   1      31.003  24.072  23.657  1.00  0.00     0.018 A 
ATOM     12  C   UNL A   1      32.619  24.758  22.010  1.00  0.00     0.018 A 
BRANCH   8  13
ATOM     13  N   UNL A   1      30.137  27.467  22.449  1.00  0.00    -0.234 N 
ATOM     14  N   UNL A   1      29.718  29.622  23.240  1.00  0.00    -0.182 N 
ATOM     15  C   UNL A   1      30.082  30.567  24.175  1.00  0.00     0.349 C 
ATOM     16  C   UNL A   1      30.452  28.464  23.210  1.00  0.00     0.324 C 
ATOM     17  O   UNL A   1      29.541  31.648  24.369  1.00  0.00    -0.240 OA
ATOM     18  C   UNL A   1      31.273  30.096  24.937  1.00  0.00     0.111 C 
ATOM     19  S   UNL A   1      31.777  28.560  24.346  1.00  0.00     0.007 SA
ATOM     20  C   UNL A   1      31.814  30.795  25.944  1.00  0.00     0.052 C 
ATOM     21  H   UNL A   1      29.437  27.573  21.765  1.00  0.00     0.313 HD
BRANCH  14  22
ATOM     22  C   UNL A   1      28.580  29.830  22.365  1.00  0.00     0.275 C 
BRANCH  22  23
ATOM     23  C   UNL A   1      27.307  29.578  23.126  1.00  0.00     0.011 C 
ATOM     24  C   UNL A   1      26.852  28.372  23.487  1.00  0.00     0.008 C 
ENDBRANCH  22  23
ENDBRANCH  14  22
BRANCH  20  25
ATOM     25  C   UNL A   1      32.989  30.375  26.707  1.00  0.00     0.064 A 
ATOM     26  C   UNL A   1      33.804  31.302  27.353  1.00  0.00     0.028 A 
ATOM     27  N   UNL A   1      33.221  29.046  26.735  1.00  0.00    -0.257 NA
ATOM     28  C   UNL A   1      34.938  30.846  28.018  1.00  0.00     0.004 A 
ATOM     29  C   UNL A   1      34.329  28.631  27.391  1.00  0.00     0.111 A 
ATOM     30  C   UNL A   1      35.213  29.484  28.032  1.00  0.00     0.020 A 
ENDBRANCH  20  25
ENDBRANCH   8  13
ENDBRANCH   4   7
ENDBRANCH   2   3
ENDBRANCH   1   2
BRANCH   1  31
ATOM     31  C   UNL A   1      37.052  21.893  24.145  1.00  0.00     0.023 C 
BRANCH  31  32
ATOM     32  C   UNL A   1      37.480  21.888  25.607  1.00  0.00     0.116 C 
BRANCH  32  33
ATOM     33  N   UNL A   1      38.475  20.869  25.909  1.00  0.00    -0.352 N 
ATOM     34  C   UNL A   1      39.738  21.034  26.419  1.00  0.00     0.251 C 
ATOM     35  H   UNL A   1      38.206  19.940  25.722  1.00  0.00     0.163 HD
ATOM     36  O   UNL A   1      40.507  20.083  26.504  1.00  0.00    -0.269 OA
BRANCH  34  37
ATOM     37  C   UNL A   1      40.176  22.383  26.831  1.00  0.00     0.039 A 
ATOM     38  C   UNL A   1      41.167  22.500  27.807  1.00  0.00     0.014 A 
ATOM     39  C   UNL A   1      39.637  23.522  26.227  1.00  0.00     0.014 A 
ATOM     40  C   UNL A   1      41.662  23.762  28.133  1.00  0.00     0.010 A 
ATOM     41  C   UNL A   1      40.189  24.769  26.494  1.00  0.00     0.010 A 
ATOM     42  C   UNL A   1      41.204  24.903  27.453  1.00  0.00    -0.014 A 
BRANCH  42  43
ATOM     43  C   UNL A   1      41.774  26.245  27.738  1.00  0.00     0.031 A 
ATOM     44  C   UNL A   1      43.150  26.600  27.246  1.00  0.00     0.074 A 
ATOM     45  C   UNL A   1      41.074  27.120  28.485  1.00  0.00     0.049 A 
ATOM     46  N   UNL A   1      43.834  27.701  27.426  1.00  0.00    -0.248 NA
ATOM     47  C   UNL A   1      43.862  25.571  26.472  1.00  0.00     0.031 C 
ATOM     48  C   UNL A   1      39.751  26.871  29.062  1.00  0.00     0.029 A 
ATOM     49  N   UNL A   1      41.378  28.394  28.892  1.00  0.00    -0.354 N 
ATOM     50  C   UNL A   1      45.055  27.492  26.799  1.00  0.00     0.074 A 
ATOM     51  C   UNL A   1      45.044  26.139  26.290  1.00  0.00     0.031 C 
ATOM     52  C   UNL A   1      39.345  27.968  29.720  1.00  0.00     0.029 A 
ATOM     53  C   UNL A   1      40.394  28.981  29.649  1.00  0.00     0.049 A 
ATOM     54  H   UNL A   1      42.222  28.846  28.662  1.00  0.00     0.167 HD
ATOM     55  C   UNL A   1      46.082  28.361  26.641  1.00  0.00     0.037 A 
ATOM     56  C   UNL A   1      40.346  30.197  30.224  1.00  0.00     0.037 A 
ATOM     57  C   UNL A   1      46.080  29.713  27.135  1.00  0.00     0.049 A 
ATOM     58  C   UNL A   1      41.509  31.137  30.045  1.00  0.00     0.074 A 
ATOM     59  C   UNL A   1      47.045  30.691  26.977  1.00  0.00     0.029 A 
ATOM     60  N   UNL A   1      45.061  30.276  27.892  1.00  0.00    -0.354 N 
ATOM     61  N   UNL A   1      42.626  30.958  29.383  1.00  0.00    -0.248 NA
ATOM     62  C   UNL A   1      41.398  32.454  30.687  1.00  0.00     0.031 C 
ATOM     63  C   UNL A   1      46.640  31.825  27.688  1.00  0.00     0.029 A 
ATOM     64  C   UNL A   1      45.389  31.578  28.232  1.00  0.00     0.049 A 
ATOM     65  H   UNL A   1      44.229  29.817  28.149  1.00  0.00     0.167 HD
ATOM     66  C   UNL A   1      43.335  32.146  29.499  1.00  0.00     0.074 A 
ATOM     67  C   UNL A   1      42.512  33.046  30.281  1.00  0.00     0.031 C 
ATOM     68  C   UNL A   1      44.555  32.465  29.003  1.00  0.00     0.037 A 
BRANCH  55  69
ATOM     69  C   UNL A   1      47.298  27.874  25.902  1.00  0.00     0.064 A 
ATOM     70  C   UNL A   1      47.335  27.814  24.500  1.00  0.00     0.173 A 
ATOM     71  C   UNL A   1      48.452  27.496  26.603  1.00  0.00     0.173 A 
ATOM     72  F   UNL A   1      46.255  28.153  23.780  1.00  0.00    -0.203 F 
ATOM     73  C   UNL A   1      48.470  27.363  23.831  1.00  0.00     0.198 A 
ATOM     74  C   UNL A   1      49.597  27.079  25.930  1.00  0.00     0.198 A 
ATOM     75  F   UNL A   1      48.474  27.538  27.944  1.00  0.00    -0.203 F 
ATOM     76  F   UNL A   1      48.461  27.261  22.494  1.00  0.00    -0.200 F 
ATOM     77  C   UNL A   1      49.602  27.004  24.546  1.00  0.00     0.200 A 
ATOM     78  F   UNL A   1      50.696  26.747  26.621  1.00  0.00    -0.200 F 
ATOM     79  F   UNL A   1      50.697  26.578  23.900  1.00  0.00    -0.200 F 
ENDBRANCH  55  69
BRANCH  56  80
ATOM     80  C   UNL A   1      39.147  30.609  31.003  1.00  0.00     0.064 A 
ATOM     81  C   UNL A   1      38.094  31.305  30.391  1.00  0.00     0.173 A 
ATOM     82  C   UNL A   1      39.035  30.333  32.373  1.00  0.00     0.173 A 
ATOM     83  F   UNL A   1      38.163  31.609  29.087  1.00  0.00    -0.203 F 
ATOM     84  C   UNL A   1      36.990  31.734  31.124  1.00  0.00     0.198 A 
ATOM     85  C   UNL A   1      37.915  30.733  33.099  1.00  0.00     0.198 A 
ATOM     86  F   UNL A   1      40.010  29.666  33.006  1.00  0.00    -0.203 F 
ATOM     87  F   UNL A   1      36.026  32.445  30.525  1.00  0.00    -0.200 F 
ATOM     88  C   UNL A   1      36.898  31.443  32.477  1.00  0.00     0.200 A 
ATOM     89  F   UNL A   1      37.823  30.435  34.402  1.00  0.00    -0.200 F 
ATOM     90  F   UNL A   1      35.836  31.855  33.182  1.00  0.00    -0.200 F 
ENDBRANCH  56  80
BRANCH  68  91
ATOM     91  C   UNL A   1      45.057  33.860  29.249  1.00  0.00     0.064 A 
ATOM     92  C   UNL A   1      45.819  34.185  30.382  1.00  0.00     0.173 A 
ATOM     93  C   UNL A   1      44.796  34.879  28.321  1.00  0.00     0.173 A 
ATOM     94  F   UNL A   1      46.086  33.252  31.307  1.00  0.00    -0.203 F 
ATOM     95  C   UNL A   1      46.271  35.486  30.591  1.00  0.00     0.198 A 
ATOM     96  C   UNL A   1      45.281  36.170  28.515  1.00  0.00     0.198 A 
ATOM     97  F   UNL A   1      44.080  34.622  27.216  1.00  0.00    -0.203 F 
ATOM     98  F   UNL A   1      46.946  35.786  31.709  1.00  0.00    -0.200 F 
ATOM     99  C   UNL A   1      46.008  36.474  29.655  1.00  0.00     0.200 A 
ATOM    100  F   UNL A   1      45.042  37.118  27.599  1.00  0.00    -0.200 F 
ATOM    101  F   UNL A   1      46.450  37.723  29.855  1.00  0.00    -0.200 F 
ENDBRANCH  68  91
ENDBRANCH  42  43
ENDBRANCH  34  37
ENDBRANCH  32  33
ENDBRANCH  31  32
ENDBRANCH   1  31
TORSDOF 15
ENDMDL
MODEL 3
REMARK VINA RESULT:     -12.5      0.709      1.769
REMARK SMILES C=CCN1C(=O)/C(=C/c2ccccn2)S/C1=[NH+]\c1ccc(C(=O)NCCCCNC(=O)c2ccc(-c3c4nc(c(-c5c(F)c(F)c(F)c(F)c5F)c5ccc([nH]5)c(-c5c(F)c(F)c(F)c(F)c5F)c5nc(c(-c6c(F)c(F)c(F)c(F)c6F)c6ccc3[nH]6)C=C5)C=C4)cc2)cc1
REMARK SMILES IDX 26 1 25 2 24 3 22 4 23 5 21 7 18 8 19 9 96 10 20 11 95 12
REMARK SMILES IDX 17 13 4 14 5 15 16 16 6 17 7 18 15 19 8 20 3 22 2 23 1 24
REMARK SMILES IDX 9 25 10 26 14 27 11 28 13 29 12 30 27 31 28 32 29 33 30 34
REMARK SMILES IDX 31 36 32 37 33 38 94 39 34 40 93 41 35 42 36 43 37 44 87 45
REMARK SMILES IDX 38 46 92 47 86 48 88 49 39 50 91 51 85 52 84 53 40 55 72 56
REMARK SMILES IDX 52 57 71 58 53 59 56 60 70 61 89 62 54 63 55 64 69 66 90 67
REMARK SMILES IDX 57 68 41 69 42 70 50 71 43 72 44 73 48 74 51 75 45 76 46 77
REMARK SMILES IDX 49 78 47 79 73 80 74 81 82 82 75 83 76 84 80 85 83 86 77 87
REMARK SMILES IDX 78 88 81 89 79 90 58 91 59 92 67 93 60 94 61 95 65 96 68 97
REMARK SMILES IDX 62 98 63 99 66 100 64 101
REMARK H PARENT 24 6 17 21 29 35 88 54 56 65
REMARK Flexibility Score: inf
ROOT
ATOM      1  C   UNL A   1      33.622  28.077  23.668  1.00  0.00     0.023 C 
ENDROOT
BRANCH   1   2
ATOM      2  C   UNL A   1      32.727  27.217  22.772  1.00  0.00     0.116 C 
BRANCH   2   3
ATOM      3  N   UNL A   1      31.357  27.248  23.245  1.00  0.00    -0.352 N 
ATOM      4  C   UNL A   1      30.544  26.266  23.753  1.00  0.00     0.251 C 
ATOM      5  O   UNL A   1      29.412  26.588  24.113  1.00  0.00    -0.269 OA
ATOM      6  H   UNL A   1      30.934  28.135  23.192  1.00  0.00     0.163 HD
BRANCH   4   7
ATOM      7  C   UNL A   1      30.992  24.859  23.938  1.00  0.00     0.040 A 
ATOM      8  C   UNL A   1      31.771  22.157  24.096  1.00  0.00     0.125 A 
ATOM      9  C   UNL A   1      31.928  22.859  22.904  1.00  0.00     0.052 A 
ATOM     10  C   UNL A   1      31.311  22.835  25.228  1.00  0.00     0.052 A 
ATOM     11  C   UNL A   1      31.534  24.201  22.823  1.00  0.00     0.018 A 
ATOM     12  C   UNL A   1      30.938  24.177  25.155  1.00  0.00     0.018 A 
BRANCH   8  13
ATOM     13  N   UNL A   1      32.150  20.815  24.197  1.00  0.00    -0.234 N 
ATOM     14  N   UNL A   1      33.838  19.220  24.426  1.00  0.00    -0.182 N 
ATOM     15  C   UNL A   1      35.181  19.031  24.669  1.00  0.00     0.349 C 
ATOM     16  C   UNL A   1      33.367  20.505  24.507  1.00  0.00     0.324 C 
ATOM     17  O   UNL A   1      35.790  17.969  24.626  1.00  0.00    -0.240 OA
ATOM     18  C   UNL A   1      35.822  20.330  25.020  1.00  0.00     0.111 C 
ATOM     19  S   UNL A   1      34.641  21.582  25.028  1.00  0.00     0.007 SA
ATOM     20  C   UNL A   1      37.134  20.452  25.259  1.00  0.00     0.052 C 
ATOM     21  H   UNL A   1      31.489  20.104  24.029  1.00  0.00     0.313 HD
BRANCH  14  22
ATOM     22  C   UNL A   1      32.978  18.111  24.056  1.00  0.00     0.275 C 
BRANCH  22  23
ATOM     23  C   UNL A   1      32.534  17.382  25.294  1.00  0.00     0.011 C 
ATOM     24  C   UNL A   1      32.872  16.125  25.610  1.00  0.00     0.008 C 
ENDBRANCH  22  23
ENDBRANCH  14  22
BRANCH  20  25
ATOM     25  C   UNL A   1      37.799  21.704  25.619  1.00  0.00     0.064 A 
ATOM     26  C   UNL A   1      39.097  21.717  26.125  1.00  0.00     0.028 A 
ATOM     27  N   UNL A   1      37.072  22.825  25.431  1.00  0.00    -0.257 NA
ATOM     28  C   UNL A   1      39.656  22.934  26.501  1.00  0.00     0.004 A 
ATOM     29  C   UNL A   1      37.641  23.994  25.803  1.00  0.00     0.111 A 
ATOM     30  C   UNL A   1      38.912  24.098  26.345  1.00  0.00     0.020 A 
ENDBRANCH  20  25
ENDBRANCH   8  13
ENDBRANCH   4   7
ENDBRANCH   2   3
ENDBRANCH   1   2
BRANCH   1  31
ATOM     31  C   UNL A   1      32.874  29.177  24.424  1.00  0.00     0.023 C 
BRANCH  31  32
ATOM     32  C   UNL A   1      33.423  29.483  25.812  1.00  0.00     0.116 C 
BRANCH  32  33
ATOM     33  N   UNL A   1      33.064  30.811  26.288  1.00  0.00    -0.352 N 
ATOM     34  C   UNL A   1      33.682  31.568  27.253  1.00  0.00     0.251 C 
ATOM     35  H   UNL A   1      32.276  31.220  25.862  1.00  0.00     0.163 HD
ATOM     36  O   UNL A   1      33.186  32.623  27.631  1.00  0.00    -0.269 OA
BRANCH  34  37
ATOM     37  C   UNL A   1      34.935  31.075  27.860  1.00  0.00     0.039 A 
ATOM     38  C   UNL A   1      36.006  31.958  28.001  1.00  0.00     0.014 A 
ATOM     39  C   UNL A   1      35.033  29.759  28.320  1.00  0.00     0.014 A 
ATOM     40  C   UNL A   1      37.159  31.536  28.663  1.00  0.00     0.010 A 
ATOM     41  C   UNL A   1      36.149  29.368  29.050  1.00  0.00     0.010 A 
ATOM     42  C   UNL A   1      37.225  30.250  29.225  1.00  0.00    -0.014 A 
BRANCH  42  43
ATOM     43  C   UNL A   1      38.417  29.812  29.996  1.00  0.00     0.031 A 
ATOM     44  C   UNL A   1      38.637  30.316  31.395  1.00  0.00     0.074 A 
ATOM     45  C   UNL A   1      39.325  29.005  29.415  1.00  0.00     0.049 A 
ATOM     46  N   UNL A   1      39.633  30.081  32.212  1.00  0.00    -0.248 NA
ATOM     47  C   UNL A   1      37.617  31.227  31.940  1.00  0.00     0.031 C 
ATOM     48  C   UNL A   1      39.247  28.492  28.046  1.00  0.00     0.029 A 
ATOM     49  N   UNL A   1      40.495  28.478  29.900  1.00  0.00    -0.354 N 
ATOM     50  C   UNL A   1      39.364  30.820  33.356  1.00  0.00     0.074 A 
ATOM     51  C   UNL A   1      38.147  31.561  33.106  1.00  0.00     0.031 C 
ATOM     52  C   UNL A   1      40.305  27.700  27.812  1.00  0.00     0.029 A 
ATOM     53  C   UNL A   1      41.157  27.682  28.997  1.00  0.00     0.049 A 
ATOM     54  H   UNL A   1      40.828  28.653  30.810  1.00  0.00     0.167 HD
ATOM     55  C   UNL A   1      40.056  30.857  34.520  1.00  0.00     0.037 A 
ATOM     56  C   UNL A   1      42.322  27.017  29.113  1.00  0.00     0.037 A 
ATOM     57  C   UNL A   1      41.258  30.104  34.769  1.00  0.00     0.049 A 
ATOM     58  C   UNL A   1      43.079  27.089  30.413  1.00  0.00     0.074 A 
ATOM     59  C   UNL A   1      42.001  30.027  35.933  1.00  0.00     0.029 A 
ATOM     60  N   UNL A   1      41.895  29.302  33.833  1.00  0.00    -0.354 N 
ATOM     61  N   UNL A   1      42.775  27.728  31.516  1.00  0.00    -0.248 NA
ATOM     62  C   UNL A   1      44.340  26.337  30.485  1.00  0.00     0.031 C 
ATOM     63  C   UNL A   1      43.122  29.227  35.684  1.00  0.00     0.029 A 
ATOM     64  C   UNL A   1      43.039  28.750  34.385  1.00  0.00     0.049 A 
ATOM     65  H   UNL A   1      41.581  29.149  32.912  1.00  0.00     0.167 HD
ATOM     66  C   UNL A   1      43.783  27.429  32.422  1.00  0.00     0.074 A 
ATOM     67  C   UNL A   1      44.701  26.536  31.744  1.00  0.00     0.031 C 
ATOM     68  C   UNL A   1      43.937  27.854  33.700  1.00  0.00     0.037 A 
BRANCH  55  69
ATOM     69  C   UNL A   1      39.530  31.744  35.614  1.00  0.00     0.064 A 
ATOM     70  C   UNL A   1      38.548  31.303  36.514  1.00  0.00     0.173 A 
ATOM     71  C   UNL A   1      40.042  33.039  35.788  1.00  0.00     0.173 A 
ATOM     72  F   UNL A   1      38.015  30.078  36.387  1.00  0.00    -0.203 F 
ATOM     73  C   UNL A   1      38.073  32.136  37.524  1.00  0.00     0.198 A 
ATOM     74  C   UNL A   1      39.591  33.856  36.821  1.00  0.00     0.198 A 
ATOM     75  F   UNL A   1      40.987  33.510  34.961  1.00  0.00    -0.203 F 
ATOM     76  F   UNL A   1      37.093  31.712  38.335  1.00  0.00    -0.200 F 
ATOM     77  C   UNL A   1      38.601  33.408  37.682  1.00  0.00     0.200 A 
ATOM     78  F   UNL A   1      40.113  35.080  36.982  1.00  0.00    -0.200 F 
ATOM     79  F   UNL A   1      38.150  34.206  38.660  1.00  0.00    -0.200 F 
ENDBRANCH  55  69
BRANCH  56  80
ATOM     80  C   UNL A   1      42.835  26.206  27.977  1.00  0.00     0.064 A 
ATOM     81  C   UNL A   1      42.539  24.838  27.876  1.00  0.00     0.173 A 
ATOM     82  C   UNL A   1      43.644  26.771  26.980  1.00  0.00     0.173 A 
ATOM     83  F   UNL A   1      41.785  24.247  28.814  1.00  0.00    -0.203 F 
ATOM     84  C   UNL A   1      43.054  24.063  26.840  1.00  0.00     0.198 A 
ATOM     85  C   UNL A   1      44.132  26.002  25.925  1.00  0.00     0.198 A 
ATOM     86  F   UNL A   1      43.953  28.075  27.025  1.00  0.00    -0.203 F 
ATOM     87  F   UNL A   1      42.800  22.748  26.799  1.00  0.00    -0.200 F 
ATOM     88  C   UNL A   1      43.846  24.646  25.862  1.00  0.00     0.200 A 
ATOM     89  F   UNL A   1      44.882  26.574  24.974  1.00  0.00    -0.200 F 
ATOM     90  F   UNL A   1      44.341  23.900  24.865  1.00  0.00    -0.200 F 
ENDBRANCH  56  80
BRANCH  68  91
ATOM     91  C   UNL A   1      45.115  27.323  34.467  1.00  0.00     0.064 A 
ATOM     92  C   UNL A   1      46.348  27.993  34.492  1.00  0.00     0.173 A 
ATOM     93  C   UNL A   1      44.998  26.140  35.213  1.00  0.00     0.173 A 
ATOM     94  F   UNL A   1      46.519  29.121  33.786  1.00  0.00    -0.203 F 
ATOM     95  C   UNL A   1      47.427  27.480  35.207  1.00  0.00     0.198 A 
ATOM     96  C   UNL A   1      46.068  25.650  35.956  1.00  0.00     0.198 A 
ATOM     97  F   UNL A   1      43.840  25.463  35.232  1.00  0.00    -0.203 F 
ATOM     98  F   UNL A   1      48.612  28.105  35.167  1.00  0.00    -0.200 F 
ATOM     99  C   UNL A   1      47.285  26.314  35.944  1.00  0.00     0.200 A 
ATOM    100  F   UNL A   1      45.922  24.533  36.682  1.00  0.00    -0.200 F 
ATOM    101  F   UNL A   1      48.323  25.826  36.636  1.00  0.00    -0.200 F 
ENDBRANCH  68  91
ENDBRANCH  42  43
ENDBRANCH  34  37
ENDBRANCH  32  33
ENDBRANCH  31  32
ENDBRANCH   1  31
TORSDOF 15
ENDMDL
