MODEL 1
REMARK VINA RESULT:     -11.5      0.000      0.000
REMARK SMILES CC(C)OCCS(=O)(=O)N[C@@H]1COC[C@@H]1C(=O)NCCCCNC(=O)c1ccc(-c2c3nc(c(-c4c(F)c(F)c(F)c(F)c4F)c4ccc([nH]4)c(-c4c(F)c(F)c(F)c(F)c4F)c4nc(c(-c5c(F)c(F)c(F)c(F)c5F)c5ccc2[nH]5)C=C4)C=C3)cc1
REMARK SMILES IDX 16 1 17 2 18 3 15 5 11 6 12 7 13 8 14 9 10 10 7 12 8 13 9 14
REMARK SMILES IDX 6 15 5 16 4 17 2 18 1 19 3 20 19 21 20 22 21 23 22 24 23 25
REMARK SMILES IDX 24 26 25 28 26 29 27 30 88 31 28 32 87 33 29 34 30 35 31 36
REMARK SMILES IDX 81 37 32 38 86 39 80 40 82 41 33 42 85 43 79 44 78 45 34 47
REMARK SMILES IDX 66 48 46 49 65 50 47 51 50 52 64 53 83 54 48 55 49 56 63 58
REMARK SMILES IDX 84 59 51 60 35 61 36 62 44 63 37 64 38 65 42 66 45 67 39 68
REMARK SMILES IDX 40 69 43 70 41 71 67 72 68 73 76 74 69 75 70 76 74 77 77 78
REMARK SMILES IDX 71 79 72 80 75 81 73 82 52 83 53 84 61 85 54 86 55 87 59 88
REMARK SMILES IDX 62 89 56 90 57 91 60 92 58 93
REMARK H PARENT 18 4 10 11 23 27 82 46 50 57
REMARK Flexibility Score: inf
ROOT
ATOM      1  C   UNL A   1      31.919  27.552  26.826  1.00  0.00     0.227 C 
ATOM      2  O   UNL A   1      31.035  26.813  27.253  1.00  0.00    -0.275 OA
ATOM      3  N   UNL A   1      32.360  28.568  27.627  1.00  0.00    -0.356 N 
ATOM      4  H   UNL A   1      32.303  28.418  28.598  1.00  0.00     0.163 HD
ENDROOT
BRANCH   1   5
ATOM      5  C   UNL A   1      32.605  27.355  25.488  1.00  0.00     0.124 C 
ATOM      6  C   UNL A   1      31.905  26.456  24.496  1.00  0.00     0.110 C 
ATOM      7  C   UNL A   1      32.072  25.086  25.123  1.00  0.00     0.181 C 
ATOM      8  O   UNL A   1      33.410  25.104  25.667  1.00  0.00    -0.379 OA
ATOM      9  C   UNL A   1      33.834  26.485  25.766  1.00  0.00     0.175 C 
BRANCH   6  10
ATOM     10  N   UNL A   1      30.553  26.806  24.047  1.00  0.00    -0.209 NA
ATOM     11  H   UNL A   1      30.147  25.965  23.638  1.00  0.00     0.141 HD
BRANCH  10  12
ATOM     12  S   UNL A   1      30.362  28.047  22.921  1.00  0.00     0.214 S 
ATOM     13  O   UNL A   1      30.653  27.491  21.625  1.00  0.00    -0.212 OA
ATOM     14  O   UNL A   1      31.155  29.145  23.444  1.00  0.00    -0.212 OA
BRANCH  12  15
ATOM     15  C   UNL A   1      28.622  28.519  23.058  1.00  0.00     0.182 C 
BRANCH  15  16
ATOM     16  C   UNL A   1      28.171  29.524  22.001  1.00  0.00     0.178 C 
BRANCH  16  17
ATOM     17  O   UNL A   1      28.900  30.752  21.937  1.00  0.00    -0.378 OA
BRANCH  17  18
ATOM     18  C   UNL A   1      28.229  32.012  21.932  1.00  0.00     0.112 C 
ATOM     19  C   UNL A   1      28.781  33.078  22.879  1.00  0.00     0.038 C 
ATOM     20  C   UNL A   1      28.027  32.457  20.491  1.00  0.00     0.038 C 
ENDBRANCH  17  18
ENDBRANCH  16  17
ENDBRANCH  15  16
ENDBRANCH  12  15
ENDBRANCH  10  12
ENDBRANCH   6  10
ENDBRANCH   1   5
BRANCH   3  21
ATOM     21  C   UNL A   1      32.904  29.841  27.195  1.00  0.00     0.116 C 
BRANCH  21  22
ATOM     22  C   UNL A   1      31.870  30.591  26.353  1.00  0.00     0.023 C 
BRANCH  22  23
ATOM     23  C   UNL A   1      31.536  31.997  26.872  1.00  0.00     0.023 C 
BRANCH  23  24
ATOM     24  C   UNL A   1      32.734  32.822  27.327  1.00  0.00     0.116 C 
BRANCH  24  25
ATOM     25  N   UNL A   1      32.396  34.203  27.628  1.00  0.00    -0.352 N 
ATOM     26  C   UNL A   1      32.988  35.040  28.541  1.00  0.00     0.251 C 
ATOM     27  H   UNL A   1      31.649  34.586  27.113  1.00  0.00     0.163 HD
ATOM     28  O   UNL A   1      32.537  36.159  28.753  1.00  0.00    -0.269 OA
BRANCH  26  29
ATOM     29  C   UNL A   1      34.153  34.549  29.301  1.00  0.00     0.039 A 
ATOM     30  C   UNL A   1      33.950  34.047  30.587  1.00  0.00     0.014 A 
ATOM     31  C   UNL A   1      35.424  34.529  28.719  1.00  0.00     0.014 A 
ATOM     32  C   UNL A   1      35.016  33.461  31.270  1.00  0.00     0.010 A 
ATOM     33  C   UNL A   1      36.467  33.882  29.373  1.00  0.00     0.010 A 
ATOM     34  C   UNL A   1      36.273  33.342  30.654  1.00  0.00    -0.014 A 
BRANCH  34  35
ATOM     35  C   UNL A   1      37.395  32.654  31.338  1.00  0.00     0.031 A 
ATOM     36  C   UNL A   1      38.094  31.506  30.665  1.00  0.00     0.074 A 
ATOM     37  C   UNL A   1      37.745  33.025  32.584  1.00  0.00     0.049 A 
ATOM     38  N   UNL A   1      39.056  30.743  31.117  1.00  0.00    -0.248 NA
ATOM     39  C   UNL A   1      37.632  31.154  29.314  1.00  0.00     0.031 C 
ATOM     40  C   UNL A   1      37.111  34.094  33.358  1.00  0.00     0.029 A 
ATOM     41  N   UNL A   1      38.717  32.541  33.423  1.00  0.00    -0.354 N 
ATOM     42  C   UNL A   1      39.305  29.818  30.112  1.00  0.00     0.074 A 
ATOM     43  C   UNL A   1      38.355  30.075  29.053  1.00  0.00     0.031 C 
ATOM     44  C   UNL A   1      37.727  34.202  34.546  1.00  0.00     0.029 A 
ATOM     45  C   UNL A   1      38.773  33.187  34.634  1.00  0.00     0.049 A 
ATOM     46  H   UNL A   1      39.319  31.800  33.180  1.00  0.00     0.167 HD
ATOM     47  C   UNL A   1      40.259  28.858  30.067  1.00  0.00     0.037 A 
ATOM     48  C   UNL A   1      39.574  32.979  35.696  1.00  0.00     0.037 A 
ATOM     49  C   UNL A   1      41.214  28.619  31.117  1.00  0.00     0.049 A 
ATOM     50  C   UNL A   1      40.614  31.894  35.627  1.00  0.00     0.074 A 
ATOM     51  C   UNL A   1      42.253  27.705  31.147  1.00  0.00     0.029 A 
ATOM     52  N   UNL A   1      41.244  29.299  32.326  1.00  0.00    -0.354 N 
ATOM     53  N   UNL A   1      40.886  31.068  34.645  1.00  0.00    -0.248 NA
ATOM     54  C   UNL A   1      41.463  31.715  36.812  1.00  0.00     0.031 C 
ATOM     55  C   UNL A   1      42.881  27.798  32.393  1.00  0.00     0.029 A 
ATOM     56  C   UNL A   1      42.270  28.809  33.118  1.00  0.00     0.049 A 
ATOM     57  H   UNL A   1      40.628  30.022  32.583  1.00  0.00     0.167 HD
ATOM     58  C   UNL A   1      41.953  30.295  35.080  1.00  0.00     0.074 A 
ATOM     59  C   UNL A   1      42.290  30.760  36.410  1.00  0.00     0.031 C 
ATOM     60  C   UNL A   1      42.597  29.290  34.437  1.00  0.00     0.037 A 
BRANCH  47  61
ATOM     61  C   UNL A   1      40.318  27.998  28.837  1.00  0.00     0.064 A 
ATOM     62  C   UNL A   1      41.075  28.371  27.715  1.00  0.00     0.173 A 
ATOM     63  C   UNL A   1      39.636  26.773  28.790  1.00  0.00     0.173 A 
ATOM     64  F   UNL A   1      41.737  29.538  27.704  1.00  0.00    -0.203 F 
ATOM     65  C   UNL A   1      41.121  27.565  26.581  1.00  0.00     0.198 A 
ATOM     66  C   UNL A   1      39.710  25.955  27.666  1.00  0.00     0.198 A 
ATOM     67  F   UNL A   1      38.902  26.366  29.836  1.00  0.00    -0.203 F 
ATOM     68  F   UNL A   1      41.807  27.968  25.502  1.00  0.00    -0.200 F 
ATOM     69  C   UNL A   1      40.444  26.354  26.560  1.00  0.00     0.200 A 
ATOM     70  F   UNL A   1      39.067  24.779  27.652  1.00  0.00    -0.200 F 
ATOM     71  F   UNL A   1      40.495  25.576  25.470  1.00  0.00    -0.200 F 
ENDBRANCH  47  61
BRANCH  48  72
ATOM     72  C   UNL A   1      39.443  33.835  36.905  1.00  0.00     0.064 A 
ATOM     73  C   UNL A   1      38.675  33.419  38.001  1.00  0.00     0.173 A 
ATOM     74  C   UNL A   1      40.075  35.084  36.988  1.00  0.00     0.173 A 
ATOM     75  F   UNL A   1      38.035  32.241  37.960  1.00  0.00    -0.203 F 
ATOM     76  C   UNL A   1      38.526  34.228  39.125  1.00  0.00     0.198 A 
ATOM     77  C   UNL A   1      39.948  35.880  38.126  1.00  0.00     0.198 A 
ATOM     78  F   UNL A   1      40.825  35.528  35.969  1.00  0.00    -0.203 F 
ATOM     79  F   UNL A   1      37.746  33.825  40.139  1.00  0.00    -0.200 F 
ATOM     80  C   UNL A   1      39.167  35.455  39.189  1.00  0.00     0.200 A 
ATOM     81  F   UNL A   1      40.582  37.059  38.189  1.00  0.00    -0.200 F 
ATOM     82  F   UNL A   1      39.026  36.231  40.273  1.00  0.00    -0.200 F 
ENDBRANCH  48  72
BRANCH  60  83
ATOM     83  C   UNL A   1      43.755  28.649  35.145  1.00  0.00     0.064 A 
ATOM     84  C   UNL A   1      43.587  27.527  35.968  1.00  0.00     0.173 A 
ATOM     85  C   UNL A   1      45.057  29.140  34.961  1.00  0.00     0.173 A 
ATOM     86  F   UNL A   1      42.361  27.029  36.189  1.00  0.00    -0.203 F 
ATOM     87  C   UNL A   1      44.676  26.935  36.602  1.00  0.00     0.198 A 
ATOM     88  C   UNL A   1      46.148  28.526  35.570  1.00  0.00     0.198 A 
ATOM     89  F   UNL A   1      45.273  30.208  34.177  1.00  0.00    -0.203 F 
ATOM     90  F   UNL A   1      44.486  25.893  37.423  1.00  0.00    -0.200 F 
ATOM     91  C   UNL A   1      45.955  27.430  36.396  1.00  0.00     0.200 A 
ATOM     92  F   UNL A   1      47.384  28.997  35.357  1.00  0.00    -0.200 F 
ATOM     93  F   UNL A   1      47.004  26.852  36.999  1.00  0.00    -0.200 F 
ENDBRANCH  60  83
ENDBRANCH  34  35
ENDBRANCH  26  29
ENDBRANCH  24  25
ENDBRANCH  23  24
ENDBRANCH  22  23
ENDBRANCH  21  22
ENDBRANCH   3  21
TORSDOF 17
ENDMDL
MODEL 2
REMARK VINA RESULT:     -11.5      1.472      8.019
REMARK SMILES CC(C)OCCS(=O)(=O)N[C@@H]1COC[C@@H]1C(=O)NCCCCNC(=O)c1ccc(-c2c3nc(c(-c4c(F)c(F)c(F)c(F)c4F)c4ccc([nH]4)c(-c4c(F)c(F)c(F)c(F)c4F)c4nc(c(-c5c(F)c(F)c(F)c(F)c5F)c5ccc2[nH]5)C=C4)C=C3)cc1
REMARK SMILES IDX 16 1 17 2 18 3 15 5 11 6 12 7 13 8 14 9 10 10 7 12 8 13 9 14
REMARK SMILES IDX 6 15 5 16 4 17 2 18 1 19 3 20 19 21 20 22 21 23 22 24 23 25
REMARK SMILES IDX 24 26 25 28 26 29 27 30 88 31 28 32 87 33 29 34 30 35 31 36
REMARK SMILES IDX 81 37 32 38 86 39 80 40 82 41 33 42 85 43 79 44 78 45 34 47
REMARK SMILES IDX 66 48 46 49 65 50 47 51 50 52 64 53 83 54 48 55 49 56 63 58
REMARK SMILES IDX 84 59 51 60 35 61 36 62 44 63 37 64 38 65 42 66 45 67 39 68
REMARK SMILES IDX 40 69 43 70 41 71 67 72 68 73 76 74 69 75 70 76 74 77 77 78
REMARK SMILES IDX 71 79 72 80 75 81 73 82 52 83 53 84 61 85 54 86 55 87 59 88
REMARK SMILES IDX 62 89 56 90 57 91 60 92 58 93
REMARK H PARENT 18 4 10 11 23 27 82 46 50 57
REMARK Flexibility Score: inf
ROOT
ATOM      1  C   UNL A   1      30.888  28.694  23.744  1.00  0.00     0.227 C 
ATOM      2  O   UNL A   1      30.155  28.818  22.765  1.00  0.00    -0.275 OA
ATOM      3  N   UNL A   1      31.064  29.774  24.564  1.00  0.00    -0.356 N 
ATOM      4  H   UNL A   1      30.318  30.415  24.614  1.00  0.00     0.163 HD
ENDROOT
BRANCH   1   5
ATOM      5  C   UNL A   1      31.548  27.388  24.140  1.00  0.00     0.124 C 
ATOM      6  C   UNL A   1      31.194  26.174  23.314  1.00  0.00     0.110 C 
ATOM      7  C   UNL A   1      29.754  25.916  23.714  1.00  0.00     0.181 C 
ATOM      8  O   UNL A   1      29.724  26.189  25.132  1.00  0.00    -0.379 OA
ATOM      9  C   UNL A   1      30.898  26.970  25.462  1.00  0.00     0.175 C 
BRANCH   6  10
ATOM     10  N   UNL A   1      31.478  26.185  21.875  1.00  0.00    -0.209 NA
ATOM     11  H   UNL A   1      30.756  25.623  21.424  1.00  0.00     0.141 HD
BRANCH  10  12
ATOM     12  S   UNL A   1      32.966  25.606  21.332  1.00  0.00     0.214 S 
ATOM     13  O   UNL A   1      33.982  26.461  21.891  1.00  0.00    -0.212 OA
ATOM     14  O   UNL A   1      32.814  25.489  19.893  1.00  0.00    -0.212 OA
BRANCH  12  15
ATOM     15  C   UNL A   1      33.074  23.931  22.006  1.00  0.00     0.182 C 
BRANCH  15  16
ATOM     16  C   UNL A   1      34.122  23.775  23.105  1.00  0.00     0.178 C 
BRANCH  16  17
ATOM     17  O   UNL A   1      33.631  23.682  24.445  1.00  0.00    -0.378 OA
BRANCH  17  18
ATOM     18  C   UNL A   1      34.488  23.304  25.522  1.00  0.00     0.112 C 
ATOM     19  C   UNL A   1      35.855  23.987  25.572  1.00  0.00     0.038 C 
ATOM     20  C   UNL A   1      33.693  23.334  26.819  1.00  0.00     0.038 C 
ENDBRANCH  17  18
ENDBRANCH  16  17
ENDBRANCH  15  16
ENDBRANCH  12  15
ENDBRANCH  10  12
ENDBRANCH   6  10
ENDBRANCH   1   5
BRANCH   3  21
ATOM     21  C   UNL A   1      32.234  30.073  25.367  1.00  0.00     0.116 C 
BRANCH  21  22
ATOM     22  C   UNL A   1      31.806  30.551  26.756  1.00  0.00     0.023 C 
BRANCH  22  23
ATOM     23  C   UNL A   1      31.551  32.061  26.851  1.00  0.00     0.023 C 
BRANCH  23  24
ATOM     24  C   UNL A   1      32.768  32.904  27.211  1.00  0.00     0.116 C 
BRANCH  24  25
ATOM     25  N   UNL A   1      32.426  34.249  27.640  1.00  0.00    -0.352 N 
ATOM     26  C   UNL A   1      33.016  34.998  28.628  1.00  0.00     0.251 C 
ATOM     27  H   UNL A   1      31.678  34.677  27.163  1.00  0.00     0.163 HD
ATOM     28  O   UNL A   1      32.562  36.091  28.944  1.00  0.00    -0.269 OA
BRANCH  26  29
ATOM     29  C   UNL A   1      34.183  34.443  29.338  1.00  0.00     0.039 A 
ATOM     30  C   UNL A   1      33.968  33.697  30.498  1.00  0.00     0.014 A 
ATOM     31  C   UNL A   1      35.473  34.606  28.823  1.00  0.00     0.014 A 
ATOM     32  C   UNL A   1      35.045  33.056  31.111  1.00  0.00     0.010 A 
ATOM     33  C   UNL A   1      36.532  33.909  29.395  1.00  0.00     0.010 A 
ATOM     34  C   UNL A   1      36.328  33.128  30.543  1.00  0.00    -0.014 A 
BRANCH  34  35
ATOM     35  C   UNL A   1      37.468  32.390  31.140  1.00  0.00     0.031 A 
ATOM     36  C   UNL A   1      37.971  32.761  32.506  1.00  0.00     0.074 A 
ATOM     37  C   UNL A   1      38.083  31.426  30.429  1.00  0.00     0.049 A 
ATOM     38  N   UNL A   1      38.985  32.276  33.175  1.00  0.00    -0.248 NA
ATOM     39  C   UNL A   1      37.254  33.840  33.202  1.00  0.00     0.031 C 
ATOM     40  C   UNL A   1      37.716  31.007  29.075  1.00  0.00     0.029 A 
ATOM     41  N   UNL A   1      39.153  30.626  30.744  1.00  0.00    -0.354 N 
ATOM     42  C   UNL A   1      39.032  32.995  34.362  1.00  0.00     0.074 A 
ATOM     43  C   UNL A   1      37.984  33.990  34.296  1.00  0.00     0.031 C 
ATOM     44  C   UNL A   1      38.528  30.011  28.686  1.00  0.00     0.029 A 
ATOM     45  C   UNL A   1      39.497  29.746  29.746  1.00  0.00     0.049 A 
ATOM     46  H   UNL A   1      39.630  30.676  31.604  1.00  0.00     0.167 HD
ATOM     47  C   UNL A   1      39.858  32.823  35.421  1.00  0.00     0.037 A 
ATOM     48  C   UNL A   1      40.485  28.834  29.691  1.00  0.00     0.037 A 
ATOM     49  C   UNL A   1      40.886  31.818  35.488  1.00  0.00     0.049 A 
ATOM     50  C   UNL A   1      41.400  28.674  30.876  1.00  0.00     0.074 A 
ATOM     51  C   UNL A   1      41.742  31.528  36.536  1.00  0.00     0.029 A 
ATOM     52  N   UNL A   1      41.200  30.940  34.461  1.00  0.00    -0.354 N 
ATOM     53  N   UNL A   1      41.394  29.315  32.020  1.00  0.00    -0.248 NA
ATOM     54  C   UNL A   1      42.458  27.661  30.763  1.00  0.00     0.031 C 
ATOM     55  C   UNL A   1      42.606  30.507  36.125  1.00  0.00     0.029 A 
ATOM     56  C   UNL A   1      42.251  30.123  34.842  1.00  0.00     0.049 A 
ATOM     57  H   UNL A   1      40.742  30.904  33.589  1.00  0.00     0.167 HD
ATOM     58  C   UNL A   1      42.421  28.763  32.772  1.00  0.00     0.074 A 
ATOM     59  C   UNL A   1      43.021  27.725  31.960  1.00  0.00     0.031 C 
ATOM     60  C   UNL A   1      42.830  29.087  34.023  1.00  0.00     0.037 A 
BRANCH  47  61
ATOM     61  C   UNL A   1      39.676  33.740  36.597  1.00  0.00     0.064 A 
ATOM     62  C   UNL A   1      38.872  33.382  37.690  1.00  0.00     0.173 A 
ATOM     63  C   UNL A   1      40.336  34.976  36.645  1.00  0.00     0.173 A 
ATOM     64  F   UNL A   1      38.209  32.216  37.689  1.00  0.00    -0.203 F 
ATOM     65  C   UNL A   1      38.712  34.242  38.774  1.00  0.00     0.198 A 
ATOM     66  C   UNL A   1      40.199  35.819  37.745  1.00  0.00     0.198 A 
ATOM     67  F   UNL A   1      41.121  35.366  35.630  1.00  0.00    -0.203 F 
ATOM     68  F   UNL A   1      37.897  33.902  39.782  1.00  0.00    -0.200 F 
ATOM     69  C   UNL A   1      39.381  35.456  38.803  1.00  0.00     0.200 A 
ATOM     70  F   UNL A   1      40.857  36.987  37.779  1.00  0.00    -0.200 F 
ATOM     71  F   UNL A   1      39.231  36.280  39.850  1.00  0.00    -0.200 F 
ENDBRANCH  47  61
BRANCH  48  72
ATOM     72  C   UNL A   1      40.644  27.980  28.485  1.00  0.00     0.064 A 
ATOM     73  C   UNL A   1      40.029  26.724  28.406  1.00  0.00     0.173 A 
ATOM     74  C   UNL A   1      41.418  28.396  27.391  1.00  0.00     0.173 A 
ATOM     75  F   UNL A   1      39.296  26.273  29.435  1.00  0.00    -0.203 F 
ATOM     76  C   UNL A   1      40.196  25.907  27.290  1.00  0.00     0.198 A 
ATOM     77  C   UNL A   1      41.560  27.590  26.262  1.00  0.00     0.198 A 
ATOM     78  F   UNL A   1      42.025  29.591  27.412  1.00  0.00    -0.203 F 
ATOM     79  F   UNL A   1      39.633  24.690  27.263  1.00  0.00    -0.200 F 
ATOM     80  C   UNL A   1      40.957  26.343  26.217  1.00  0.00     0.200 A 
ATOM     81  F   UNL A   1      42.285  28.022  25.221  1.00  0.00    -0.200 F 
ATOM     82  F   UNL A   1      41.115  25.558  25.142  1.00  0.00    -0.200 F 
ENDBRANCH  48  72
BRANCH  60  83
ATOM     83  C   UNL A   1      43.958  28.287  34.608  1.00  0.00     0.064 A 
ATOM     84  C   UNL A   1      45.294  28.692  34.481  1.00  0.00     0.173 A 
ATOM     85  C   UNL A   1      43.692  27.120  35.342  1.00  0.00     0.173 A 
ATOM     86  F   UNL A   1      45.602  29.791  33.776  1.00  0.00    -0.203 F 
ATOM     87  C   UNL A   1      46.324  27.946  35.047  1.00  0.00     0.198 A 
ATOM     88  C   UNL A   1      44.722  26.395  35.934  1.00  0.00     0.198 A 
ATOM     89  F   UNL A   1      42.429  26.693  35.499  1.00  0.00    -0.203 F 
ATOM     90  F   UNL A   1      47.598  28.326  34.873  1.00  0.00    -0.200 F 
ATOM     91  C   UNL A   1      46.037  26.804  35.779  1.00  0.00     0.200 A 
ATOM     92  F   UNL A   1      44.440  25.300  36.653  1.00  0.00    -0.200 F 
ATOM     93  F   UNL A   1      47.030  26.092  36.331  1.00  0.00    -0.200 F 
ENDBRANCH  60  83
ENDBRANCH  34  35
ENDBRANCH  26  29
ENDBRANCH  24  25
ENDBRANCH  23  24
ENDBRANCH  22  23
ENDBRANCH  21  22
ENDBRANCH   3  21
TORSDOF 17
ENDMDL
MODEL 3
REMARK VINA RESULT:     -11.3      5.886     11.258
REMARK SMILES CC(C)OCCS(=O)(=O)N[C@@H]1COC[C@@H]1C(=O)NCCCCNC(=O)c1ccc(-c2c3nc(c(-c4c(F)c(F)c(F)c(F)c4F)c4ccc([nH]4)c(-c4c(F)c(F)c(F)c(F)c4F)c4nc(c(-c5c(F)c(F)c(F)c(F)c5F)c5ccc2[nH]5)C=C4)C=C3)cc1
REMARK SMILES IDX 16 1 17 2 18 3 15 5 11 6 12 7 13 8 14 9 10 10 7 12 8 13 9 14
REMARK SMILES IDX 6 15 5 16 4 17 2 18 1 19 3 20 19 21 20 22 21 23 22 24 23 25
REMARK SMILES IDX 24 26 25 28 26 29 27 30 88 31 28 32 87 33 29 34 30 35 31 36
REMARK SMILES IDX 81 37 32 38 86 39 80 40 82 41 33 42 85 43 79 44 78 45 34 47
REMARK SMILES IDX 66 48 46 49 65 50 47 51 50 52 64 53 83 54 48 55 49 56 63 58
REMARK SMILES IDX 84 59 51 60 35 61 36 62 44 63 37 64 38 65 42 66 45 67 39 68
REMARK SMILES IDX 40 69 43 70 41 71 67 72 68 73 76 74 69 75 70 76 74 77 77 78
REMARK SMILES IDX 71 79 72 80 75 81 73 82 52 83 53 84 61 85 54 86 55 87 59 88
REMARK SMILES IDX 62 89 56 90 57 91 60 92 58 93
REMARK H PARENT 18 4 10 11 23 27 82 46 50 57
REMARK Flexibility Score: inf
ROOT
ATOM      1  C   UNL A   1      34.348  22.396  26.521  1.00  0.00     0.227 C 
ATOM      2  O   UNL A   1      33.843  22.692  27.601  1.00  0.00    -0.275 OA
ATOM      3  N   UNL A   1      35.525  21.702  26.523  1.00  0.00    -0.356 N 
ATOM      4  H   UNL A   1      35.686  21.110  27.294  1.00  0.00     0.163 HD
ENDROOT
BRANCH   1   5
ATOM      5  C   UNL A   1      33.701  22.690  25.182  1.00  0.00     0.124 C 
ATOM      6  C   UNL A   1      32.329  23.321  25.218  1.00  0.00     0.110 C 
ATOM      7  C   UNL A   1      31.462  22.187  25.729  1.00  0.00     0.181 C 
ATOM      8  O   UNL A   1      31.992  21.013  25.076  1.00  0.00    -0.379 OA
ATOM      9  C   UNL A   1      33.318  21.330  24.590  1.00  0.00     0.175 C 
BRANCH   6  10
ATOM     10  N   UNL A   1      32.160  24.619  25.880  1.00  0.00    -0.209 NA
ATOM     11  H   UNL A   1      32.200  24.449  26.885  1.00  0.00     0.141 HD
BRANCH  10  12
ATOM     12  S   UNL A   1      30.759  25.510  25.584  1.00  0.00     0.214 S 
ATOM     13  O   UNL A   1      29.854  25.251  26.674  1.00  0.00    -0.212 OA
ATOM     14  O   UNL A   1      30.386  25.170  24.222  1.00  0.00    -0.212 OA
BRANCH  12  15
ATOM     15  C   UNL A   1      31.310  27.232  25.583  1.00  0.00     0.182 C 
BRANCH  15  16
ATOM     16  C   UNL A   1      32.806  27.401  25.836  1.00  0.00     0.178 C 
BRANCH  16  17
ATOM     17  O   UNL A   1      33.680  27.007  24.776  1.00  0.00    -0.378 OA
BRANCH  17  18
ATOM     18  C   UNL A   1      33.381  27.319  23.415  1.00  0.00     0.112 C 
ATOM     19  C   UNL A   1      34.078  28.549  22.833  1.00  0.00     0.038 C 
ATOM     20  C   UNL A   1      33.487  26.050  22.583  1.00  0.00     0.038 C 
ENDBRANCH  17  18
ENDBRANCH  16  17
ENDBRANCH  15  16
ENDBRANCH  12  15
ENDBRANCH  10  12
ENDBRANCH   6  10
ENDBRANCH   1   5
BRANCH   3  21
ATOM     21  C   UNL A   1      36.562  21.745  25.509  1.00  0.00     0.116 C 
BRANCH  21  22
ATOM     22  C   UNL A   1      36.901  20.326  25.049  1.00  0.00     0.023 C 
BRANCH  22  23
ATOM     23  C   UNL A   1      38.382  20.113  24.706  1.00  0.00     0.023 C 
BRANCH  23  24
ATOM     24  C   UNL A   1      39.342  20.211  25.886  1.00  0.00     0.116 C 
BRANCH  24  25
ATOM     25  N   UNL A   1      40.270  19.096  25.963  1.00  0.00    -0.352 N 
ATOM     26  C   UNL A   1      41.621  19.134  26.205  1.00  0.00     0.251 C 
ATOM     27  H   UNL A   1      39.881  18.202  25.825  1.00  0.00     0.163 HD
ATOM     28  O   UNL A   1      42.297  18.114  26.152  1.00  0.00    -0.269 OA
BRANCH  26  29
ATOM     29  C   UNL A   1      42.256  20.436  26.484  1.00  0.00     0.039 A 
ATOM     30  C   UNL A   1      42.706  21.204  25.410  1.00  0.00     0.014 A 
ATOM     31  C   UNL A   1      42.343  20.918  27.793  1.00  0.00     0.014 A 
ATOM     32  C   UNL A   1      43.191  22.491  25.643  1.00  0.00     0.010 A 
ATOM     33  C   UNL A   1      42.760  22.226  28.015  1.00  0.00     0.010 A 
ATOM     34  C   UNL A   1      43.187  23.024  26.943  1.00  0.00    -0.014 A 
BRANCH  34  35
ATOM     35  C   UNL A   1      43.627  24.418  27.196  1.00  0.00     0.031 A 
ATOM     36  C   UNL A   1      42.649  25.431  27.721  1.00  0.00     0.074 A 
ATOM     37  C   UNL A   1      44.889  24.783  26.900  1.00  0.00     0.049 A 
ATOM     38  N   UNL A   1      42.823  26.707  27.955  1.00  0.00    -0.248 NA
ATOM     39  C   UNL A   1      41.287  24.950  27.996  1.00  0.00     0.031 C 
ATOM     40  C   UNL A   1      45.917  23.902  26.342  1.00  0.00     0.029 A 
ATOM     41  N   UNL A   1      45.522  25.995  27.020  1.00  0.00    -0.354 N 
ATOM     42  C   UNL A   1      41.594  27.180  28.393  1.00  0.00     0.074 A 
ATOM     43  C   UNL A   1      40.667  26.071  28.336  1.00  0.00     0.031 C 
ATOM     44  C   UNL A   1      47.057  24.594  26.194  1.00  0.00     0.029 A 
ATOM     45  C   UNL A   1      46.833  25.976  26.609  1.00  0.00     0.049 A 
ATOM     46  H   UNL A   1      45.080  26.802  27.369  1.00  0.00     0.167 HD
ATOM     47  C   UNL A   1      41.275  28.421  28.830  1.00  0.00     0.037 A 
ATOM     48  C   UNL A   1      47.747  26.963  26.568  1.00  0.00     0.037 A 
ATOM     49  C   UNL A   1      42.207  29.516  28.902  1.00  0.00     0.049 A 
ATOM     50  C   UNL A   1      47.362  28.338  27.042  1.00  0.00     0.074 A 
ATOM     51  C   UNL A   1      41.996  30.798  29.377  1.00  0.00     0.029 A 
ATOM     52  N   UNL A   1      43.528  29.456  28.484  1.00  0.00    -0.354 N 
ATOM     53  N   UNL A   1      46.214  28.759  27.517  1.00  0.00    -0.248 NA
ATOM     54  C   UNL A   1      48.400  29.375  26.979  1.00  0.00     0.031 C 
ATOM     55  C   UNL A   1      43.176  31.529  29.201  1.00  0.00     0.029 A 
ATOM     56  C   UNL A   1      44.138  30.686  28.670  1.00  0.00     0.049 A 
ATOM     57  H   UNL A   1      43.967  28.658  28.111  1.00  0.00     0.167 HD
ATOM     58  C   UNL A   1      46.401  30.096  27.838  1.00  0.00     0.074 A 
ATOM     59  C   UNL A   1      47.777  30.414  27.516  1.00  0.00     0.031 C 
ATOM     60  C   UNL A   1      45.513  30.982  28.352  1.00  0.00     0.037 A 
BRANCH  47  61
ATOM     61  C   UNL A   1      39.858  28.658  29.268  1.00  0.00     0.064 A 
ATOM     62  C   UNL A   1      39.446  28.411  30.586  1.00  0.00     0.173 A 
ATOM     63  C   UNL A   1      38.909  29.166  28.369  1.00  0.00     0.173 A 
ATOM     64  F   UNL A   1      40.311  27.914  31.483  1.00  0.00    -0.203 F 
ATOM     65  C   UNL A   1      38.128  28.634  30.980  1.00  0.00     0.198 A 
ATOM     66  C   UNL A   1      37.600  29.418  28.774  1.00  0.00     0.198 A 
ATOM     67  F   UNL A   1      39.250  29.424  27.097  1.00  0.00    -0.203 F 
ATOM     68  F   UNL A   1      37.746  28.340  32.230  1.00  0.00    -0.200 F 
ATOM     69  C   UNL A   1      37.210  29.144  30.075  1.00  0.00     0.200 A 
ATOM     70  F   UNL A   1      36.716  29.923  27.902  1.00  0.00    -0.200 F 
ATOM     71  F   UNL A   1      35.944  29.364  30.457  1.00  0.00    -0.200 F 
ENDBRANCH  47  61
BRANCH  48  72
ATOM     72  C   UNL A   1      49.125  26.681  26.085  1.00  0.00     0.064 A 
ATOM     73  C   UNL A   1      49.514  27.019  24.782  1.00  0.00     0.173 A 
ATOM     74  C   UNL A   1      50.077  26.063  26.909  1.00  0.00     0.173 A 
ATOM     75  F   UNL A   1      48.633  27.593  23.949  1.00  0.00    -0.203 F 
ATOM     76  C   UNL A   1      50.795  26.734  24.314  1.00  0.00     0.198 A 
ATOM     77  C   UNL A   1      51.367  25.804  26.450  1.00  0.00     0.198 A 
ATOM     78  F   UNL A   1      49.758  25.722  28.166  1.00  0.00    -0.203 F 
ATOM     79  F   UNL A   1      51.124  27.026  23.048  1.00  0.00    -0.200 F 
ATOM     80  C   UNL A   1      51.722  26.131  25.150  1.00  0.00     0.200 A 
ATOM     81  F   UNL A   1      52.264  25.234  27.266  1.00  0.00    -0.200 F 
ATOM     82  F   UNL A   1      52.955  25.859  24.700  1.00  0.00    -0.200 F 
ENDBRANCH  48  72
BRANCH  60  83
ATOM     83  C   UNL A   1      46.010  32.370  28.635  1.00  0.00     0.064 A 
ATOM     84  C   UNL A   1      46.593  32.708  29.864  1.00  0.00     0.173 A 
ATOM     85  C   UNL A   1      45.938  33.364  27.646  1.00  0.00     0.173 A 
ATOM     86  F   UNL A   1      46.671  31.800  30.847  1.00  0.00    -0.203 F 
ATOM     87  C   UNL A   1      47.064  33.997  30.101  1.00  0.00     0.198 A 
ATOM     88  C   UNL A   1      46.439  34.642  27.875  1.00  0.00     0.198 A 
ATOM     89  F   UNL A   1      45.394  33.089  26.450  1.00  0.00    -0.203 F 
ATOM     90  F   UNL A   1      47.575  34.312  31.300  1.00  0.00    -0.200 F 
ATOM     91  C   UNL A   1      46.994  34.959  29.105  1.00  0.00     0.200 A 
ATOM     92  F   UNL A   1      46.384  35.565  26.906  1.00  0.00    -0.200 F 
ATOM     93  F   UNL A   1      47.457  36.197  29.332  1.00  0.00    -0.200 F 
ENDBRANCH  60  83
ENDBRANCH  34  35
ENDBRANCH  26  29
ENDBRANCH  24  25
ENDBRANCH  23  24
ENDBRANCH  22  23
ENDBRANCH  21  22
ENDBRANCH   3  21
TORSDOF 17
ENDMDL
