MODEL 1
REMARK VINA RESULT:     -12.7      0.000      0.000
REMARK SMILES COc1ccc(OC)c(/C=N/[NH+]=C2/NC(=O)[C@@H](CC(=O)NCCCCNC(=O)c3ccc(-c4c5nc(c(-c6c(F)c(F)c(F)c(F)c6F)c6ccc([nH]6)c(-c6c(F)c(F)c(F)c(F)c6F)c6nc(c(-c7c(F)c(F)c(F)c(F)c7F)c7ccc4[nH]7)C=C6)C=C5)cc3)S2)c1
REMARK SMILES IDX 22 1 21 2 19 3 20 4 18 6 17 7 12 8 13 9 14 11 92 12 15 13
REMARK SMILES IDX 16 15 11 16 10 17 9 18 3 19 4 20 93 21 5 22 6 23 2 24 1 25
REMARK SMILES IDX 7 26 8 27 23 28 24 29 25 30 26 31 27 32 28 34 29 35 30 36
REMARK SMILES IDX 91 37 31 38 90 39 32 40 33 41 34 42 84 43 35 44 89 45 83 46
REMARK SMILES IDX 85 47 36 48 88 49 82 50 81 51 37 53 69 54 49 55 68 56 50 57
REMARK SMILES IDX 53 58 67 59 86 60 51 61 52 62 66 64 87 65 54 66 38 67 39 68
REMARK SMILES IDX 47 69 40 70 41 71 45 72 48 73 42 74 43 75 46 76 44 77 70 78
REMARK SMILES IDX 71 79 79 80 72 81 73 82 77 83 80 84 74 85 75 86 78 87 76 88
REMARK SMILES IDX 55 89 56 90 64 91 57 92 58 93 62 94 65 95 59 96 60 97 63 98
REMARK SMILES IDX 61 99
REMARK H PARENT 21 5 12 10 14 14 26 33 85 52 53 63
REMARK Flexibility Score: inf
ROOT
ATOM      1  C   UNL A   1      32.515  29.881  26.585  1.00  0.00     0.116 C 
ENDROOT
BRANCH   1   2
ATOM      2  N   UNL A   1      32.220  28.505  26.938  1.00  0.00    -0.356 N 
ATOM      3  C   UNL A   1      31.569  27.527  26.255  1.00  0.00     0.221 C 
ATOM      4  O   UNL A   1      31.502  26.417  26.787  1.00  0.00    -0.275 OA
ATOM      5  H   UNL A   1      32.545  28.234  27.827  1.00  0.00     0.163 HD
BRANCH   3   6
ATOM      6  C   UNL A   1      30.955  27.786  24.892  1.00  0.00     0.127 C 
BRANCH   6   7
ATOM      7  C   UNL A   1      31.926  27.879  23.712  1.00  0.00     0.183 C 
ATOM      8  N   UNL A   1      32.076  24.654  21.731  1.00  0.00    -0.142 N 
ATOM      9  C   UNL A   1      32.168  25.856  22.184  1.00  0.00     0.337 C 
ATOM     10  H   UNL A   1      31.448  24.417  21.010  1.00  0.00     0.343 HD
ATOM     11  N   UNL A   1      31.414  26.836  21.637  1.00  0.00    -0.202 N 
ATOM     12  S   UNL A   1      33.074  26.473  23.527  1.00  0.00    -0.020 SA
ATOM     13  C   UNL A   1      31.184  27.943  22.393  1.00  0.00     0.322 C 
ATOM     14  H   UNL A   1      31.044  26.751  20.728  1.00  0.00     0.316 HD
ATOM     15  O   UNL A   1      30.382  28.814  22.081  1.00  0.00    -0.246 OA
BRANCH   8  16
ATOM     16  N   UNL A   1      32.910  23.711  22.315  1.00  0.00    -0.093 NA
ATOM     17  C   UNL A   1      32.312  22.929  23.156  1.00  0.00     0.170 C 
BRANCH  17  18
ATOM     18  C   UNL A   1      33.012  21.747  23.681  1.00  0.00     0.042 A 
ATOM     19  C   UNL A   1      32.825  19.436  24.386  1.00  0.00     0.119 A 
ATOM     20  C   UNL A   1      34.086  19.525  24.969  1.00  0.00     0.050 A 
ATOM     21  C   UNL A   1      32.278  20.545  23.738  1.00  0.00     0.060 A 
ATOM     22  C   UNL A   1      34.829  20.700  24.859  1.00  0.00     0.051 A 
ATOM     23  C   UNL A   1      34.314  21.821  24.199  1.00  0.00     0.128 A 
BRANCH  19  24
ATOM     24  O   UNL A   1      32.153  18.267  24.615  1.00  0.00    -0.497 OA
ATOM     25  C   UNL A   1      32.708  17.461  25.647  1.00  0.00     0.278 C 
ENDBRANCH  19  24
BRANCH  23  26
ATOM     26  O   UNL A   1      35.194  22.868  24.196  1.00  0.00    -0.496 OA
ATOM     27  C   UNL A   1      36.417  22.756  23.483  1.00  0.00     0.278 C 
ENDBRANCH  23  26
ENDBRANCH  17  18
ENDBRANCH   8  16
ENDBRANCH   6   7
ENDBRANCH   3   6
ENDBRANCH   1   2
BRANCH   1  28
ATOM     28  C   UNL A   1      31.301  30.784  26.794  1.00  0.00     0.023 C 
BRANCH  28  29
ATOM     29  C   UNL A   1      31.531  32.265  26.518  1.00  0.00     0.023 C 
BRANCH  29  30
ATOM     30  C   UNL A   1      32.646  32.873  27.348  1.00  0.00     0.116 C 
BRANCH  30  31
ATOM     31  N   UNL A   1      32.404  34.278  27.644  1.00  0.00    -0.352 N 
ATOM     32  C   UNL A   1      32.965  35.069  28.618  1.00  0.00     0.251 C 
ATOM     33  H   UNL A   1      31.746  34.725  27.064  1.00  0.00     0.163 HD
ATOM     34  O   UNL A   1      32.498  36.171  28.868  1.00  0.00    -0.269 OA
BRANCH  32  35
ATOM     35  C   UNL A   1      34.127  34.561  29.372  1.00  0.00     0.039 A 
ATOM     36  C   UNL A   1      33.929  33.989  30.630  1.00  0.00     0.014 A 
ATOM     37  C   UNL A   1      35.407  34.625  28.818  1.00  0.00     0.014 A 
ATOM     38  C   UNL A   1      35.012  33.423  31.303  1.00  0.00     0.010 A 
ATOM     39  C   UNL A   1      36.457  33.961  29.433  1.00  0.00     0.010 A 
ATOM     40  C   UNL A   1      36.275  33.370  30.692  1.00  0.00    -0.014 A 
BRANCH  40  41
ATOM     41  C   UNL A   1      37.435  32.727  31.357  1.00  0.00     0.031 A 
ATOM     42  C   UNL A   1      38.117  31.560  30.695  1.00  0.00     0.074 A 
ATOM     43  C   UNL A   1      37.819  33.144  32.580  1.00  0.00     0.049 A 
ATOM     44  N   UNL A   1      39.081  30.800  31.147  1.00  0.00    -0.248 NA
ATOM     45  C   UNL A   1      37.624  31.167  29.363  1.00  0.00     0.031 C 
ATOM     46  C   UNL A   1      37.192  34.225  33.343  1.00  0.00     0.029 A 
ATOM     47  N   UNL A   1      38.822  32.698  33.402  1.00  0.00    -0.354 N 
ATOM     48  C   UNL A   1      39.290  29.835  30.170  1.00  0.00     0.074 A 
ATOM     49  C   UNL A   1      38.316  30.062  29.129  1.00  0.00     0.031 C 
ATOM     50  C   UNL A   1      37.840  34.375  34.510  1.00  0.00     0.029 A 
ATOM     51  C   UNL A   1      38.898  33.375  34.596  1.00  0.00     0.049 A 
ATOM     52  H   UNL A   1      39.431  31.964  33.159  1.00  0.00     0.167 HD
ATOM     53  C   UNL A   1      40.231  28.863  30.135  1.00  0.00     0.037 A 
ATOM     54  C   UNL A   1      39.723  33.195  35.646  1.00  0.00     0.037 A 
ATOM     55  C   UNL A   1      41.227  28.677  31.154  1.00  0.00     0.049 A 
ATOM     56  C   UNL A   1      40.769  32.112  35.568  1.00  0.00     0.074 A 
ATOM     57  C   UNL A   1      42.278  27.777  31.176  1.00  0.00     0.029 A 
ATOM     58  N   UNL A   1      41.297  29.405  32.332  1.00  0.00    -0.354 N 
ATOM     59  N   UNL A   1      41.012  31.263  34.599  1.00  0.00    -0.248 NA
ATOM     60  C   UNL A   1      41.661  31.970  36.727  1.00  0.00     0.031 C 
ATOM     61  C   UNL A   1      42.948  27.921  32.393  1.00  0.00     0.029 A 
ATOM     62  C   UNL A   1      42.356  28.955  33.101  1.00  0.00     0.049 A 
ATOM     63  H   UNL A   1      40.685  30.135  32.583  1.00  0.00     0.167 HD
ATOM     64  C   UNL A   1      42.104  30.512  35.016  1.00  0.00     0.074 A 
ATOM     65  C   UNL A   1      42.487  31.019  36.316  1.00  0.00     0.031 C 
ATOM     66  C   UNL A   1      42.732  29.491  34.384  1.00  0.00     0.037 A 
BRANCH  53  67
ATOM     67  C   UNL A   1      40.244  27.933  28.957  1.00  0.00     0.064 A 
ATOM     68  C   UNL A   1      40.981  28.219  27.798  1.00  0.00     0.173 A 
ATOM     69  C   UNL A   1      39.570  26.705  29.018  1.00  0.00     0.173 A 
ATOM     70  F   UNL A   1      41.632  29.387  27.682  1.00  0.00    -0.203 F 
ATOM     71  C   UNL A   1      41.031  27.316  26.739  1.00  0.00     0.198 A 
ATOM     72  C   UNL A   1      39.648  25.790  27.971  1.00  0.00     0.198 A 
ATOM     73  F   UNL A   1      38.851  26.380  30.104  1.00  0.00    -0.203 F 
ATOM     74  F   UNL A   1      41.712  27.627  25.628  1.00  0.00    -0.200 F 
ATOM     75  C   UNL A   1      40.375  26.098  26.832  1.00  0.00     0.200 A 
ATOM     76  F   UNL A   1      39.025  24.607  28.069  1.00  0.00    -0.200 F 
ATOM     77  F   UNL A   1      40.443  25.221  25.821  1.00  0.00    -0.200 F 
ENDBRANCH  53  67
BRANCH  54  78
ATOM     78  C   UNL A   1      39.606  34.053  36.856  1.00  0.00     0.064 A 
ATOM     79  C   UNL A   1      40.277  35.282  36.940  1.00  0.00     0.173 A 
ATOM     80  C   UNL A   1      38.862  33.644  37.973  1.00  0.00     0.173 A 
ATOM     81  F   UNL A   1      41.016  35.713  35.905  1.00  0.00    -0.203 F 
ATOM     82  C   UNL A   1      40.245  36.046  38.105  1.00  0.00     0.198 A 
ATOM     83  C   UNL A   1      38.801  34.426  39.125  1.00  0.00     0.198 A 
ATOM     84  F   UNL A   1      38.193  32.481  37.946  1.00  0.00    -0.203 F 
ATOM     85  F   UNL A   1      40.956  37.179  38.181  1.00  0.00    -0.200 F 
ATOM     86  C   UNL A   1      39.505  35.618  39.196  1.00  0.00     0.200 A 
ATOM     87  F   UNL A   1      38.070  34.016  40.171  1.00  0.00    -0.200 F 
ATOM     88  F   UNL A   1      39.481  36.346  40.320  1.00  0.00    -0.200 F 
ENDBRANCH  54  78
BRANCH  66  89
ATOM     89  C   UNL A   1      43.928  28.890  35.062  1.00  0.00     0.064 A 
ATOM     90  C   UNL A   1      43.816  27.783  35.914  1.00  0.00     0.173 A 
ATOM     91  C   UNL A   1      45.211  29.405  34.818  1.00  0.00     0.173 A 
ATOM     92  F   UNL A   1      42.609  27.261  36.189  1.00  0.00    -0.203 F 
ATOM     93  C   UNL A   1      44.940  27.232  36.523  1.00  0.00     0.198 A 
ATOM     94  C   UNL A   1      46.336  28.828  35.398  1.00  0.00     0.198 A 
ATOM     95  F   UNL A   1      45.374  30.457  34.003  1.00  0.00    -0.203 F 
ATOM     96  F   UNL A   1      44.802  26.208  37.376  1.00  0.00    -0.200 F 
ATOM     97  C   UNL A   1      46.199  27.749  36.257  1.00  0.00     0.200 A 
ATOM     98  F   UNL A   1      47.554  29.317  35.125  1.00  0.00    -0.200 F 
ATOM     99  F   UNL A   1      47.281  27.209  36.835  1.00  0.00    -0.200 F 
ENDBRANCH  66  89
ENDBRANCH  40  41
ENDBRANCH  32  35
ENDBRANCH  30  31
ENDBRANCH  29  30
ENDBRANCH  28  29
ENDBRANCH   1  28
TORSDOF 16
ENDMDL
MODEL 2
REMARK VINA RESULT:     -12.6      1.110      2.126
REMARK SMILES COc1ccc(OC)c(/C=N/[NH+]=C2/NC(=O)[C@@H](CC(=O)NCCCCNC(=O)c3ccc(-c4c5nc(c(-c6c(F)c(F)c(F)c(F)c6F)c6ccc([nH]6)c(-c6c(F)c(F)c(F)c(F)c6F)c6nc(c(-c7c(F)c(F)c(F)c(F)c7F)c7ccc4[nH]7)C=C6)C=C5)cc3)S2)c1
REMARK SMILES IDX 22 1 21 2 19 3 20 4 18 6 17 7 12 8 13 9 14 11 92 12 15 13
REMARK SMILES IDX 16 15 11 16 10 17 9 18 3 19 4 20 93 21 5 22 6 23 2 24 1 25
REMARK SMILES IDX 7 26 8 27 23 28 24 29 25 30 26 31 27 32 28 34 29 35 30 36
REMARK SMILES IDX 91 37 31 38 90 39 32 40 33 41 34 42 84 43 35 44 89 45 83 46
REMARK SMILES IDX 85 47 36 48 88 49 82 50 81 51 37 53 69 54 49 55 68 56 50 57
REMARK SMILES IDX 53 58 67 59 86 60 51 61 52 62 66 64 87 65 54 66 38 67 39 68
REMARK SMILES IDX 47 69 40 70 41 71 45 72 48 73 42 74 43 75 46 76 44 77 70 78
REMARK SMILES IDX 71 79 79 80 72 81 73 82 77 83 80 84 74 85 75 86 78 87 76 88
REMARK SMILES IDX 55 89 56 90 64 91 57 92 58 93 62 94 65 95 59 96 60 97 63 98
REMARK SMILES IDX 61 99
REMARK H PARENT 21 5 12 10 14 14 26 33 85 52 53 63
REMARK Flexibility Score: inf
ROOT
ATOM      1  C   UNL A   1      33.020  29.962  26.655  1.00  0.00     0.116 C 
ENDROOT
BRANCH   1   2
ATOM      2  N   UNL A   1      33.330  29.759  25.252  1.00  0.00    -0.356 N 
ATOM      3  C   UNL A   1      32.661  29.087  24.278  1.00  0.00     0.221 C 
ATOM      4  O   UNL A   1      33.141  29.117  23.143  1.00  0.00    -0.275 OA
ATOM      5  H   UNL A   1      34.169  30.179  24.955  1.00  0.00     0.163 HD
BRANCH   3   6
ATOM      6  C   UNL A   1      31.377  28.336  24.571  1.00  0.00     0.127 C 
BRANCH   6   7
ATOM      7  C   UNL A   1      31.025  27.188  23.623  1.00  0.00     0.183 C 
ATOM      8  N   UNL A   1      30.450  23.933  25.476  1.00  0.00    -0.142 N 
ATOM      9  C   UNL A   1      30.534  24.898  24.627  1.00  0.00     0.337 C 
ATOM     10  H   UNL A   1      29.591  23.671  25.880  1.00  0.00     0.343 HD
ATOM     11  N   UNL A   1      29.413  25.552  24.245  1.00  0.00    -0.202 N 
ATOM     12  S   UNL A   1      31.931  25.630  23.907  1.00  0.00    -0.020 SA
ATOM     13  C   UNL A   1      29.564  26.807  23.738  1.00  0.00     0.322 C 
ATOM     14  H   UNL A   1      28.524  25.138  24.331  1.00  0.00     0.316 HD
ATOM     15  O   UNL A   1      28.623  27.559  23.521  1.00  0.00    -0.246 OA
BRANCH   8  16
ATOM     16  N   UNL A   1      31.636  23.285  25.788  1.00  0.00    -0.093 NA
ATOM     17  C   UNL A   1      31.798  22.158  25.171  1.00  0.00     0.170 C 
BRANCH  17  18
ATOM     18  C   UNL A   1      33.098  21.473  25.229  1.00  0.00     0.042 A 
ATOM     19  C   UNL A   1      35.509  21.714  25.240  1.00  0.00     0.119 A 
ATOM     20  C   UNL A   1      35.635  20.349  24.998  1.00  0.00     0.050 A 
ATOM     21  C   UNL A   1      34.241  22.287  25.357  1.00  0.00     0.060 A 
ATOM     22  C   UNL A   1      34.499  19.542  24.928  1.00  0.00     0.051 A 
ATOM     23  C   UNL A   1      33.217  20.085  25.061  1.00  0.00     0.128 A 
BRANCH  19  24
ATOM     24  O   UNL A   1      36.678  22.424  25.215  1.00  0.00    -0.497 OA
ATOM     25  C   UNL A   1      36.604  23.703  25.834  1.00  0.00     0.278 C 
ENDBRANCH  19  24
BRANCH  23  26
ATOM     26  O   UNL A   1      32.240  19.132  24.967  1.00  0.00    -0.496 OA
ATOM     27  C   UNL A   1      32.518  17.799  25.370  1.00  0.00     0.278 C 
ENDBRANCH  23  26
ENDBRANCH  17  18
ENDBRANCH   8  16
ENDBRANCH   6   7
ENDBRANCH   3   6
ENDBRANCH   1   2
BRANCH   1  28
ATOM     28  C   UNL A   1      31.647  30.606  26.836  1.00  0.00     0.023 C 
BRANCH  28  29
ATOM     29  C   UNL A   1      31.607  32.120  26.672  1.00  0.00     0.023 C 
BRANCH  29  30
ATOM     30  C   UNL A   1      32.818  32.828  27.248  1.00  0.00     0.116 C 
BRANCH  30  31
ATOM     31  N   UNL A   1      32.520  34.201  27.632  1.00  0.00    -0.352 N 
ATOM     32  C   UNL A   1      33.022  34.939  28.677  1.00  0.00     0.251 C 
ATOM     33  H   UNL A   1      31.867  34.667  27.061  1.00  0.00     0.163 HD
ATOM     34  O   UNL A   1      32.511  36.006  28.986  1.00  0.00    -0.269 OA
BRANCH  32  35
ATOM     35  C   UNL A   1      34.176  34.416  29.435  1.00  0.00     0.039 A 
ATOM     36  C   UNL A   1      33.954  33.720  30.624  1.00  0.00     0.014 A 
ATOM     37  C   UNL A   1      35.473  34.590  28.948  1.00  0.00     0.014 A 
ATOM     38  C   UNL A   1      35.035  33.143  31.291  1.00  0.00     0.010 A 
ATOM     39  C   UNL A   1      36.528  33.920  29.548  1.00  0.00     0.010 A 
ATOM     40  C   UNL A   1      36.323  33.205  30.737  1.00  0.00    -0.014 A 
BRANCH  40  41
ATOM     41  C   UNL A   1      37.484  32.557  31.394  1.00  0.00     0.031 A 
ATOM     42  C   UNL A   1      38.170  31.401  30.716  1.00  0.00     0.074 A 
ATOM     43  C   UNL A   1      37.866  32.957  32.623  1.00  0.00     0.049 A 
ATOM     44  N   UNL A   1      39.137  30.637  31.157  1.00  0.00    -0.248 NA
ATOM     45  C   UNL A   1      37.680  31.026  29.377  1.00  0.00     0.031 C 
ATOM     46  C   UNL A   1      37.236  34.024  33.402  1.00  0.00     0.029 A 
ATOM     47  N   UNL A   1      38.871  32.502  33.439  1.00  0.00    -0.354 N 
ATOM     48  C   UNL A   1      39.349  29.688  30.166  1.00  0.00     0.074 A 
ATOM     49  C   UNL A   1      38.375  29.927  29.127  1.00  0.00     0.031 C 
ATOM     50  C   UNL A   1      37.883  34.159  34.570  1.00  0.00     0.029 A 
ATOM     51  C   UNL A   1      38.944  33.161  34.643  1.00  0.00     0.049 A 
ATOM     52  H   UNL A   1      39.482  31.773  33.186  1.00  0.00     0.167 HD
ATOM     53  C   UNL A   1      40.293  28.719  30.117  1.00  0.00     0.037 A 
ATOM     54  C   UNL A   1      39.768  32.968  35.691  1.00  0.00     0.037 A 
ATOM     55  C   UNL A   1      41.290  28.521  31.134  1.00  0.00     0.049 A 
ATOM     56  C   UNL A   1      40.818  31.890  35.598  1.00  0.00     0.074 A 
ATOM     57  C   UNL A   1      42.343  27.624  31.144  1.00  0.00     0.029 A 
ATOM     58  N   UNL A   1      41.356  29.233  32.323  1.00  0.00    -0.354 N 
ATOM     59  N   UNL A   1      41.064  31.056  34.617  1.00  0.00    -0.248 NA
ATOM     60  C   UNL A   1      41.710  31.734  36.755  1.00  0.00     0.031 C 
ATOM     61  C   UNL A   1      43.012  27.753  32.363  1.00  0.00     0.029 A 
ATOM     62  C   UNL A   1      42.417  28.775  33.086  1.00  0.00     0.049 A 
ATOM     63  H   UNL A   1      40.742  29.957  32.584  1.00  0.00     0.167 HD
ATOM     64  C   UNL A   1      42.158  30.303  35.023  1.00  0.00     0.074 A 
ATOM     65  C   UNL A   1      42.539  30.792  36.330  1.00  0.00     0.031 C 
ATOM     66  C   UNL A   1      42.789  29.293  34.376  1.00  0.00     0.037 A 
BRANCH  53  67
ATOM     67  C   UNL A   1      40.310  27.807  28.926  1.00  0.00     0.064 A 
ATOM     68  C   UNL A   1      41.064  28.101  27.781  1.00  0.00     0.173 A 
ATOM     69  C   UNL A   1      39.621  26.585  28.961  1.00  0.00     0.173 A 
ATOM     70  F   UNL A   1      41.730  29.263  27.690  1.00  0.00    -0.203 F 
ATOM     71  C   UNL A   1      41.117  27.213  26.709  1.00  0.00     0.198 A 
ATOM     72  C   UNL A   1      39.701  25.686  27.902  1.00  0.00     0.198 A 
ATOM     73  F   UNL A   1      38.884  26.254  30.032  1.00  0.00    -0.203 F 
ATOM     74  F   UNL A   1      41.815  27.532  25.611  1.00  0.00    -0.200 F 
ATOM     75  C   UNL A   1      40.446  26.001  26.776  1.00  0.00     0.200 A 
ATOM     76  F   UNL A   1      39.063  24.509  27.974  1.00  0.00    -0.200 F 
ATOM     77  F   UNL A   1      40.516  25.138  25.753  1.00  0.00    -0.200 F 
ENDBRANCH  53  67
BRANCH  54  78
ATOM     78  C   UNL A   1      39.648  33.809  36.913  1.00  0.00     0.064 A 
ATOM     79  C   UNL A   1      38.852  33.404  37.995  1.00  0.00     0.173 A 
ATOM     80  C   UNL A   1      40.286  35.055  37.008  1.00  0.00     0.173 A 
ATOM     81  F   UNL A   1      38.208  32.228  37.949  1.00  0.00    -0.203 F 
ATOM     82  C   UNL A   1      38.664  34.230  39.102  1.00  0.00     0.198 A 
ATOM     83  C   UNL A   1      40.126  35.864  38.132  1.00  0.00     0.198 A 
ATOM     84  F   UNL A   1      41.067  35.489  36.006  1.00  0.00    -0.203 F 
ATOM     85  F   UNL A   1      37.840  33.847  40.087  1.00  0.00    -0.200 F 
ATOM     86  C   UNL A   1      39.303  35.458  39.170  1.00  0.00     0.200 A 
ATOM     87  F   UNL A   1      40.760  37.043  38.200  1.00  0.00    -0.200 F 
ATOM     88  F   UNL A   1      39.115  36.256  40.230  1.00  0.00    -0.200 F 
ENDBRANCH  54  78
BRANCH  66  89
ATOM     89  C   UNL A   1      43.987  28.686  35.047  1.00  0.00     0.064 A 
ATOM     90  C   UNL A   1      43.877  27.569  35.887  1.00  0.00     0.173 A 
ATOM     91  C   UNL A   1      45.269  29.205  34.808  1.00  0.00     0.173 A 
ATOM     92  F   UNL A   1      42.672  27.043  36.157  1.00  0.00    -0.203 F 
ATOM     93  C   UNL A   1      45.003  27.013  36.488  1.00  0.00     0.198 A 
ATOM     94  C   UNL A   1      46.396  28.623  35.380  1.00  0.00     0.198 A 
ATOM     95  F   UNL A   1      45.430  30.267  34.004  1.00  0.00    -0.203 F 
ATOM     96  F   UNL A   1      44.867  25.979  37.330  1.00  0.00    -0.200 F 
ATOM     97  C   UNL A   1      46.261  27.534  36.227  1.00  0.00     0.200 A 
ATOM     98  F   UNL A   1      47.612  29.117  35.110  1.00  0.00    -0.200 F 
ATOM     99  F   UNL A   1      47.344  26.989  36.797  1.00  0.00    -0.200 F 
ENDBRANCH  66  89
ENDBRANCH  40  41
ENDBRANCH  32  35
ENDBRANCH  30  31
ENDBRANCH  29  30
ENDBRANCH  28  29
ENDBRANCH   1  28
TORSDOF 16
ENDMDL
MODEL 3
REMARK VINA RESULT:     -12.3      5.224     10.851
REMARK SMILES COc1ccc(OC)c(/C=N/[NH+]=C2/NC(=O)[C@@H](CC(=O)NCCCCNC(=O)c3ccc(-c4c5nc(c(-c6c(F)c(F)c(F)c(F)c6F)c6ccc([nH]6)c(-c6c(F)c(F)c(F)c(F)c6F)c6nc(c(-c7c(F)c(F)c(F)c(F)c7F)c7ccc4[nH]7)C=C6)C=C5)cc3)S2)c1
REMARK SMILES IDX 22 1 21 2 19 3 20 4 18 6 17 7 12 8 13 9 14 11 92 12 15 13
REMARK SMILES IDX 16 15 11 16 10 17 9 18 3 19 4 20 93 21 5 22 6 23 2 24 1 25
REMARK SMILES IDX 7 26 8 27 23 28 24 29 25 30 26 31 27 32 28 34 29 35 30 36
REMARK SMILES IDX 91 37 31 38 90 39 32 40 33 41 34 42 84 43 35 44 89 45 83 46
REMARK SMILES IDX 85 47 36 48 88 49 82 50 81 51 37 53 69 54 49 55 68 56 50 57
REMARK SMILES IDX 53 58 67 59 86 60 51 61 52 62 66 64 87 65 54 66 38 67 39 68
REMARK SMILES IDX 47 69 40 70 41 71 45 72 48 73 42 74 43 75 46 76 44 77 70 78
REMARK SMILES IDX 71 79 79 80 72 81 73 82 77 83 80 84 74 85 75 86 78 87 76 88
REMARK SMILES IDX 55 89 56 90 64 91 57 92 58 93 62 94 65 95 59 96 60 97 63 98
REMARK SMILES IDX 61 99
REMARK H PARENT 21 5 12 10 14 14 26 33 85 52 53 63
REMARK Flexibility Score: inf
ROOT
ATOM      1  C   UNL A   1      36.247  21.481  25.523  1.00  0.00     0.116 C 
ENDROOT
BRANCH   1   2
ATOM      2  N   UNL A   1      35.648  22.756  25.176  1.00  0.00    -0.356 N 
ATOM      3  C   UNL A   1      34.677  23.483  25.790  1.00  0.00     0.221 C 
ATOM      4  O   UNL A   1      34.389  24.573  25.291  1.00  0.00    -0.275 OA
ATOM      5  H   UNL A   1      36.005  23.164  24.355  1.00  0.00     0.163 HD
BRANCH   3   6
ATOM      6  C   UNL A   1      33.979  22.978  27.038  1.00  0.00     0.127 C 
BRANCH   6   7
ATOM      7  C   UNL A   1      32.564  22.425  26.853  1.00  0.00     0.183 C 
ATOM      8  N   UNL A   1      30.818  23.946  23.854  1.00  0.00    -0.142 N 
ATOM      9  C   UNL A   1      31.194  23.247  24.869  1.00  0.00     0.337 C 
ATOM     10  H   UNL A   1      30.913  23.615  22.932  1.00  0.00     0.343 HD
ATOM     11  N   UNL A   1      31.701  22.008  24.675  1.00  0.00    -0.202 N 
ATOM     12  S   UNL A   1      31.266  23.670  26.548  1.00  0.00    -0.020 SA
ATOM     13  C   UNL A   1      32.489  21.495  25.659  1.00  0.00     0.322 C 
ATOM     14  H   UNL A   1      31.509  21.498  23.855  1.00  0.00     0.316 HD
ATOM     15  O   UNL A   1      33.141  20.467  25.528  1.00  0.00    -0.246 OA
BRANCH   8  16
ATOM     16  N   UNL A   1      30.272  25.190  24.135  1.00  0.00    -0.093 NA
ATOM     17  C   UNL A   1      31.056  26.183  23.860  1.00  0.00     0.170 C 
BRANCH  17  18
ATOM     18  C   UNL A   1      30.534  27.558  23.893  1.00  0.00     0.042 A 
ATOM     19  C   UNL A   1      28.963  29.145  22.952  1.00  0.00     0.119 A 
ATOM     20  C   UNL A   1      29.651  30.179  23.579  1.00  0.00     0.050 A 
ATOM     21  C   UNL A   1      29.399  27.826  23.103  1.00  0.00     0.060 A 
ATOM     22  C   UNL A   1      30.740  29.899  24.404  1.00  0.00     0.051 A 
ATOM     23  C   UNL A   1      31.187  28.586  24.589  1.00  0.00     0.128 A 
BRANCH  19  24
ATOM     24  O   UNL A   1      27.959  29.534  22.108  1.00  0.00    -0.497 OA
ATOM     25  C   UNL A   1      28.300  30.609  21.242  1.00  0.00     0.278 C 
ENDBRANCH  19  24
BRANCH  23  26
ATOM     26  O   UNL A   1      32.260  28.521  25.434  1.00  0.00    -0.496 OA
ATOM     27  C   UNL A   1      32.086  28.803  26.816  1.00  0.00     0.278 C 
ENDBRANCH  23  26
ENDBRANCH  17  18
ENDBRANCH   8  16
ENDBRANCH   6   7
ENDBRANCH   3   6
ENDBRANCH   1   2
BRANCH   1  28
ATOM     28  C   UNL A   1      37.389  21.124  24.573  1.00  0.00     0.023 C 
BRANCH  28  29
ATOM     29  C   UNL A   1      38.203  19.896  24.961  1.00  0.00     0.023 C 
BRANCH  29  30
ATOM     30  C   UNL A   1      39.302  20.185  25.966  1.00  0.00     0.116 C 
BRANCH  30  31
ATOM     31  N   UNL A   1      40.319  19.142  25.982  1.00  0.00    -0.352 N 
ATOM     32  C   UNL A   1      41.681  19.260  26.117  1.00  0.00     0.251 C 
ATOM     33  H   UNL A   1      39.981  18.222  25.883  1.00  0.00     0.163 HD
ATOM     34  O   UNL A   1      42.411  18.304  25.898  1.00  0.00    -0.269 OA
BRANCH  32  35
ATOM     35  C   UNL A   1      42.252  20.563  26.512  1.00  0.00     0.039 A 
ATOM     36  C   UNL A   1      42.757  21.414  25.527  1.00  0.00     0.014 A 
ATOM     37  C   UNL A   1      42.258  20.949  27.853  1.00  0.00     0.014 A 
ATOM     38  C   UNL A   1      43.209  22.684  25.887  1.00  0.00     0.010 A 
ATOM     39  C   UNL A   1      42.598  22.250  28.192  1.00  0.00     0.010 A 
ATOM     40  C   UNL A   1      43.096  23.125  27.216  1.00  0.00    -0.014 A 
BRANCH  40  41
ATOM     41  C   UNL A   1      43.518  24.487  27.621  1.00  0.00     0.031 A 
ATOM     42  C   UNL A   1      42.475  25.514  27.970  1.00  0.00     0.074 A 
ATOM     43  C   UNL A   1      44.825  24.817  27.600  1.00  0.00     0.049 A 
ATOM     44  N   UNL A   1      42.624  26.782  28.257  1.00  0.00    -0.248 NA
ATOM     45  C   UNL A   1      41.070  25.069  27.959  1.00  0.00     0.031 C 
ATOM     46  C   UNL A   1      45.919  23.922  27.217  1.00  0.00     0.029 A 
ATOM     47  N   UNL A   1      45.454  25.999  27.894  1.00  0.00    -0.354 N 
ATOM     48  C   UNL A   1      41.341  27.282  28.434  1.00  0.00     0.074 A 
ATOM     49  C   UNL A   1      40.419  26.203  28.165  1.00  0.00     0.031 C 
ATOM     50  C   UNL A   1      47.085  24.579  27.325  1.00  0.00     0.029 A 
ATOM     51  C   UNL A   1      46.819  25.951  27.740  1.00  0.00     0.049 A 
ATOM     52  H   UNL A   1      44.973  26.807  28.188  1.00  0.00     0.167 HD
ATOM     53  C   UNL A   1      40.967  28.526  28.816  1.00  0.00     0.037 A 
ATOM     54  C   UNL A   1      47.747  26.914  27.903  1.00  0.00     0.037 A 
ATOM     55  C   UNL A   1      41.894  29.579  29.130  1.00  0.00     0.049 A 
ATOM     56  C   UNL A   1      47.298  28.285  28.343  1.00  0.00     0.074 A 
ATOM     57  C   UNL A   1      41.625  30.849  29.606  1.00  0.00     0.029 A 
ATOM     58  N   UNL A   1      43.272  29.482  28.999  1.00  0.00    -0.354 N 
ATOM     59  N   UNL A   1      46.087  28.720  28.592  1.00  0.00    -0.248 NA
ATOM     60  C   UNL A   1      48.348  29.295  28.532  1.00  0.00     0.031 C 
ATOM     61  C   UNL A   1      42.834  31.541  29.708  1.00  0.00     0.029 A 
ATOM     62  C   UNL A   1      43.863  30.681  29.359  1.00  0.00     0.049 A 
ATOM     63  H   UNL A   1      43.756  28.680  28.696  1.00  0.00     0.167 HD
ATOM     64  C   UNL A   1      46.233  30.039  29.001  1.00  0.00     0.074 A 
ATOM     65  C   UNL A   1      47.651  30.327  28.985  1.00  0.00     0.031 C 
ATOM     66  C   UNL A   1      45.280  30.936  29.354  1.00  0.00     0.037 A 
BRANCH  53  67
ATOM     67  C   UNL A   1      39.500  28.820  28.931  1.00  0.00     0.064 A 
ATOM     68  C   UNL A   1      38.809  28.667  30.143  1.00  0.00     0.173 A 
ATOM     69  C   UNL A   1      38.793  29.333  27.834  1.00  0.00     0.173 A 
ATOM     70  F   UNL A   1      39.435  28.166  31.219  1.00  0.00    -0.203 F 
ATOM     71  C   UNL A   1      37.462  29.004  30.247  1.00  0.00     0.198 A 
ATOM     72  C   UNL A   1      37.455  29.699  27.950  1.00  0.00     0.198 A 
ATOM     73  F   UNL A   1      39.406  29.500  26.652  1.00  0.00    -0.203 F 
ATOM     74  F   UNL A   1      36.814  28.815  31.404  1.00  0.00    -0.200 F 
ATOM     75  C   UNL A   1      36.790  29.531  29.155  1.00  0.00     0.200 A 
ATOM     76  F   UNL A   1      36.810  30.221  26.897  1.00  0.00    -0.200 F 
ATOM     77  F   UNL A   1      35.499  29.875  29.264  1.00  0.00    -0.200 F 
ENDBRANCH  53  67
BRANCH  54  78
ATOM     78  C   UNL A   1      49.187  26.627  27.661  1.00  0.00     0.064 A 
ATOM     79  C   UNL A   1      50.041  26.266  28.714  1.00  0.00     0.173 A 
ATOM     80  C   UNL A   1      49.752  26.754  26.383  1.00  0.00     0.173 A 
ATOM     81  F   UNL A   1      49.554  26.146  29.959  1.00  0.00    -0.203 F 
ATOM     82  C   UNL A   1      51.407  26.086  28.507  1.00  0.00     0.198 A 
ATOM     83  C   UNL A   1      51.112  26.538  26.171  1.00  0.00     0.198 A 
ATOM     84  F   UNL A   1      48.981  27.089  25.337  1.00  0.00    -0.203 F 
ATOM     85  F   UNL A   1      52.209  25.813  29.546  1.00  0.00    -0.200 F 
ATOM     86  C   UNL A   1      51.941  26.220  27.235  1.00  0.00     0.200 A 
ATOM     87  F   UNL A   1      51.621  26.652  24.936  1.00  0.00    -0.200 F 
ATOM     88  F   UNL A   1      53.256  26.057  27.037  1.00  0.00    -0.200 F 
ENDBRANCH  54  78
BRANCH  66  89
ATOM     89  C   UNL A   1      45.741  32.293  29.801  1.00  0.00     0.064 A 
ATOM     90  C   UNL A   1      46.036  32.567  31.144  1.00  0.00     0.173 A 
ATOM     91  C   UNL A   1      45.934  33.318  28.863  1.00  0.00     0.173 A 
ATOM     92  F   UNL A   1      45.857  31.623  32.082  1.00  0.00    -0.203 F 
ATOM     93  C   UNL A   1      46.475  33.829  31.536  1.00  0.00     0.198 A 
ATOM     94  C   UNL A   1      46.410  34.566  29.252  1.00  0.00     0.198 A 
ATOM     95  F   UNL A   1      45.676  33.104  27.563  1.00  0.00    -0.203 F 
ATOM     96  F   UNL A   1      46.698  34.084  32.832  1.00  0.00    -0.200 F 
ATOM     97  C   UNL A   1      46.671  34.823  30.589  1.00  0.00     0.200 A 
ATOM     98  F   UNL A   1      46.616  35.519  28.333  1.00  0.00    -0.200 F 
ATOM     99  F   UNL A   1      47.106  36.033  30.967  1.00  0.00    -0.200 F 
ENDBRANCH  66  89
ENDBRANCH  40  41
ENDBRANCH  32  35
ENDBRANCH  30  31
ENDBRANCH  29  30
ENDBRANCH  28  29
ENDBRANCH   1  28
TORSDOF 16
ENDMDL
