MODEL 1
REMARK VINA RESULT:     -13.5      0.000      0.000
REMARK SMILES O=C(NCCCCNC(=O)c1ccc(-c2c3nc(c(-c4c(F)c(F)c(F)c(F)c4F)c4ccc([nH]4)c(-c4c(F)c(F)c(F)c(F)c4F)c4nc(c(-c5c(F)c(F)c(F)c(F)c5F)c5ccc2[nH]5)C=C4)C=C3)cc1)C1=Cc2c(Cl)cc(Cl)cc2O[C@@H]1C(F)(F)F
REMARK SMILES IDX 6 1 5 2 4 3 3 4 1 5 2 6 74 8 75 9 85 10 76 11 84 12 77 13
REMARK SMILES IDX 83 14 78 15 79 16 82 17 80 18 81 19 86 20 87 21 88 22 89 23
REMARK SMILES IDX 7 24 8 25 9 26 10 28 11 29 12 30 73 31 13 32 72 33 14 34
REMARK SMILES IDX 15 35 16 36 66 37 17 38 71 39 65 40 67 41 18 42 70 43 64 44
REMARK SMILES IDX 63 45 19 47 51 48 31 49 50 50 32 51 35 52 49 53 68 54 33 55
REMARK SMILES IDX 34 56 48 58 69 59 36 60 20 61 21 62 29 63 22 64 23 65 27 66
REMARK SMILES IDX 30 67 24 68 25 69 28 70 26 71 52 72 53 73 61 74 54 75 55 76
REMARK SMILES IDX 59 77 62 78 56 79 57 80 60 81 58 82 37 83 38 84 46 85 39 86
REMARK SMILES IDX 40 87 44 88 47 89 41 90 42 91 45 92 43 93
REMARK H PARENT 3 7 8 27 67 46 35 57
REMARK Flexibility Score: inf
ROOT
ATOM      1  C   UNL A   1      32.017  31.536  26.840  1.00  0.00     0.023 C 
ENDROOT
BRANCH   1   2
ATOM      2  C   UNL A   1      32.541  30.157  26.444  1.00  0.00     0.023 C 
BRANCH   2   3
ATOM      3  C   UNL A   1      31.529  29.257  25.736  1.00  0.00     0.116 C 
BRANCH   3   4
ATOM      4  N   UNL A   1      31.354  27.941  26.348  1.00  0.00    -0.352 N 
ATOM      5  O   UNL A   1      31.141  25.685  26.373  1.00  0.00    -0.270 OA
ATOM      6  C   UNL A   1      31.003  26.741  25.768  1.00  0.00     0.251 C 
ATOM      7  H   UNL A   1      31.510  27.907  27.320  1.00  0.00     0.163 HD
BRANCH   6   8
ATOM      8  C   UNL A   1      30.604  26.746  24.344  1.00  0.00     0.067 C 
ATOM      9  C   UNL A   1      29.313  26.817  23.986  1.00  0.00     0.027 C 
ATOM     10  C   UNL A   1      31.684  26.986  23.338  1.00  0.00     0.314 C 
ATOM     11  C   UNL A   1      29.060  27.967  23.079  1.00  0.00     0.036 A 
ATOM     12  O   UNL A   1      31.474  28.234  22.639  1.00  0.00    -0.475 OA
ATOM     13  C   UNL A   1      27.807  28.615  23.070  1.00  0.00     0.053 A 
ATOM     14  C   UNL A   1      30.170  28.668  22.549  1.00  0.00     0.130 A 
ATOM     15  Cl  UNL A   1      26.399  27.925  23.807  1.00  0.00    -0.083 Cl
ATOM     16  C   UNL A   1      27.685  29.928  22.598  1.00  0.00     0.042 A 
ATOM     17  C   UNL A   1      30.037  29.966  22.055  1.00  0.00     0.067 A 
ATOM     18  C   UNL A   1      28.802  30.597  22.106  1.00  0.00     0.046 A 
ATOM     19  Cl  UNL A   1      28.670  32.245  21.635  1.00  0.00    -0.084 Cl
BRANCH  10  20
ATOM     20  C   UNL A   1      31.802  25.812  22.348  1.00  0.00     0.429 C 
ATOM     21  F   UNL A   1      31.340  26.160  21.123  1.00  0.00    -0.167 F 
ATOM     22  F   UNL A   1      33.085  25.413  22.189  1.00  0.00    -0.167 F 
ATOM     23  F   UNL A   1      31.092  24.729  22.747  1.00  0.00    -0.167 F 
ENDBRANCH  10  20
ENDBRANCH   6   8
ENDBRANCH   3   4
ENDBRANCH   2   3
ENDBRANCH   1   2
BRANCH   1  24
ATOM     24  C   UNL A   1      33.051  32.531  27.365  1.00  0.00     0.116 C 
BRANCH  24  25
ATOM     25  N   UNL A   1      32.533  33.864  27.642  1.00  0.00    -0.352 N 
ATOM     26  C   UNL A   1      33.003  34.800  28.539  1.00  0.00     0.251 C 
ATOM     27  H   UNL A   1      31.743  34.133  27.121  1.00  0.00     0.163 HD
ATOM     28  O   UNL A   1      32.415  35.868  28.694  1.00  0.00    -0.269 OA
BRANCH  26  29
ATOM     29  C   UNL A   1      34.189  34.482  29.363  1.00  0.00     0.039 A 
ATOM     30  C   UNL A   1      34.001  33.944  30.639  1.00  0.00     0.014 A 
ATOM     31  C   UNL A   1      35.477  34.628  28.841  1.00  0.00     0.014 A 
ATOM     32  C   UNL A   1      35.099  33.444  31.344  1.00  0.00     0.010 A 
ATOM     33  C   UNL A   1      36.555  34.054  29.506  1.00  0.00     0.010 A 
ATOM     34  C   UNL A   1      36.374  33.440  30.756  1.00  0.00    -0.014 A 
BRANCH  34  35
ATOM     35  C   UNL A   1      37.530  32.780  31.418  1.00  0.00     0.031 A 
ATOM     36  C   UNL A   1      38.233  31.638  30.740  1.00  0.00     0.074 A 
ATOM     37  C   UNL A   1      37.892  33.154  32.662  1.00  0.00     0.049 A 
ATOM     38  N   UNL A   1      39.187  30.866  31.193  1.00  0.00    -0.248 NA
ATOM     39  C   UNL A   1      37.778  31.297  29.382  1.00  0.00     0.031 C 
ATOM     40  C   UNL A   1      37.253  34.208  33.452  1.00  0.00     0.029 A 
ATOM     41  N   UNL A   1      38.882  32.679  33.489  1.00  0.00    -0.354 N 
ATOM     42  C   UNL A   1      39.434  29.942  30.186  1.00  0.00     0.074 A 
ATOM     43  C   UNL A   1      38.492  30.212  29.122  1.00  0.00     0.031 C 
ATOM     44  C   UNL A   1      37.878  34.314  34.637  1.00  0.00     0.029 A 
ATOM     45  C   UNL A   1      38.939  33.315  34.706  1.00  0.00     0.049 A 
ATOM     46  H   UNL A   1      39.493  31.951  33.233  1.00  0.00     0.167 HD
ATOM     47  C   UNL A   1      40.377  28.972  30.141  1.00  0.00     0.037 A 
ATOM     48  C   UNL A   1      39.752  33.111  35.760  1.00  0.00     0.037 A 
ATOM     49  C   UNL A   1      41.336  28.725  31.186  1.00  0.00     0.049 A 
ATOM     50  C   UNL A   1      40.808  32.041  35.672  1.00  0.00     0.074 A 
ATOM     51  C   UNL A   1      42.356  27.791  31.219  1.00  0.00     0.029 A 
ATOM     52  N   UNL A   1      41.395  29.429  32.379  1.00  0.00    -0.354 N 
ATOM     53  N   UNL A   1      41.066  31.211  34.692  1.00  0.00    -0.248 NA
ATOM     54  C   UNL A   1      41.697  31.889  36.834  1.00  0.00     0.031 C 
ATOM     55  C   UNL A   1      43.018  27.913  32.446  1.00  0.00     0.029 A 
ATOM     56  C   UNL A   1      42.436  28.948  33.157  1.00  0.00     0.049 A 
ATOM     57  H   UNL A   1      40.790  30.161  32.636  1.00  0.00     0.167 HD
ATOM     58  C   UNL A   1      42.160  30.462  35.102  1.00  0.00     0.074 A 
ATOM     59  C   UNL A   1      42.529  30.946  36.416  1.00  0.00     0.031 C 
ATOM     60  C   UNL A   1      42.802  29.462  34.451  1.00  0.00     0.037 A 
BRANCH  47  61
ATOM     61  C   UNL A   1      40.435  28.118  28.910  1.00  0.00     0.064 A 
ATOM     62  C   UNL A   1      41.209  28.490  27.800  1.00  0.00     0.173 A 
ATOM     63  C   UNL A   1      39.743  26.899  28.849  1.00  0.00     0.173 A 
ATOM     64  F   UNL A   1      41.878  29.653  27.802  1.00  0.00    -0.203 F 
ATOM     65  C   UNL A   1      41.270  27.685  26.666  1.00  0.00     0.198 A 
ATOM     66  C   UNL A   1      39.829  26.082  27.725  1.00  0.00     0.198 A 
ATOM     67  F   UNL A   1      38.992  26.495  29.885  1.00  0.00    -0.203 F 
ATOM     68  F   UNL A   1      41.979  28.082  25.600  1.00  0.00    -0.200 F 
ATOM     69  C   UNL A   1      40.586  26.479  26.632  1.00  0.00     0.200 A 
ATOM     70  F   UNL A   1      39.177  24.912  27.698  1.00  0.00    -0.200 F 
ATOM     71  F   UNL A   1      40.652  25.700  25.543  1.00  0.00    -0.200 F 
ENDBRANCH  47  61
BRANCH  48  72
ATOM     72  C   UNL A   1      39.625  33.948  36.982  1.00  0.00     0.064 A 
ATOM     73  C   UNL A   1      38.860  33.515  38.075  1.00  0.00     0.173 A 
ATOM     74  C   UNL A   1      40.238  35.206  37.074  1.00  0.00     0.173 A 
ATOM     75  F   UNL A   1      38.238  32.328  38.026  1.00  0.00    -0.203 F 
ATOM     76  C   UNL A   1      38.688  34.319  39.199  1.00  0.00     0.198 A 
ATOM     77  C   UNL A   1      40.089  35.998  38.211  1.00  0.00     0.198 A 
ATOM     78  F   UNL A   1      40.986  35.666  36.059  1.00  0.00    -0.203 F 
ATOM     79  F   UNL A   1      37.907  33.904  40.204  1.00  0.00    -0.200 F 
ATOM     80  C   UNL A   1      39.305  35.559  39.268  1.00  0.00     0.200 A 
ATOM     81  F   UNL A   1      40.697  37.190  38.279  1.00  0.00    -0.200 F 
ATOM     82  F   UNL A   1      39.136  36.334  40.348  1.00  0.00    -0.200 F 
ENDBRANCH  48  72
BRANCH  60  83
ATOM     83  C   UNL A   1      43.997  28.858  35.125  1.00  0.00     0.064 A 
ATOM     84  C   UNL A   1      43.880  27.752  35.979  1.00  0.00     0.173 A 
ATOM     85  C   UNL A   1      45.280  29.368  34.877  1.00  0.00     0.173 A 
ATOM     86  F   UNL A   1      42.673  27.239  36.258  1.00  0.00    -0.203 F 
ATOM     87  C   UNL A   1      45.005  27.191  36.578  1.00  0.00     0.198 A 
ATOM     88  C   UNL A   1      46.404  28.788  35.457  1.00  0.00     0.198 A 
ATOM     89  F   UNL A   1      45.444  30.422  34.063  1.00  0.00    -0.203 F 
ATOM     90  F   UNL A   1      44.867  26.161  37.424  1.00  0.00    -0.200 F 
ATOM     91  C   UNL A   1      46.266  27.705  36.311  1.00  0.00     0.200 A 
ATOM     92  F   UNL A   1      47.623  29.278  35.190  1.00  0.00    -0.200 F 
ATOM     93  F   UNL A   1      47.347  27.159  36.884  1.00  0.00    -0.200 F 
ENDBRANCH  60  83
ENDBRANCH  34  35
ENDBRANCH  26  29
ENDBRANCH  24  25
ENDBRANCH   1  24
TORSDOF 12
ENDMDL
MODEL 2
REMARK VINA RESULT:     -13.5      2.134      7.983
REMARK SMILES O=C(NCCCCNC(=O)c1ccc(-c2c3nc(c(-c4c(F)c(F)c(F)c(F)c4F)c4ccc([nH]4)c(-c4c(F)c(F)c(F)c(F)c4F)c4nc(c(-c5c(F)c(F)c(F)c(F)c5F)c5ccc2[nH]5)C=C4)C=C3)cc1)C1=Cc2c(Cl)cc(Cl)cc2O[C@@H]1C(F)(F)F
REMARK SMILES IDX 6 1 5 2 4 3 3 4 1 5 2 6 74 8 75 9 85 10 76 11 84 12 77 13
REMARK SMILES IDX 83 14 78 15 79 16 82 17 80 18 81 19 86 20 87 21 88 22 89 23
REMARK SMILES IDX 7 24 8 25 9 26 10 28 11 29 12 30 73 31 13 32 72 33 14 34
REMARK SMILES IDX 15 35 16 36 66 37 17 38 71 39 65 40 67 41 18 42 70 43 64 44
REMARK SMILES IDX 63 45 19 47 51 48 31 49 50 50 32 51 35 52 49 53 68 54 33 55
REMARK SMILES IDX 34 56 48 58 69 59 36 60 20 61 21 62 29 63 22 64 23 65 27 66
REMARK SMILES IDX 30 67 24 68 25 69 28 70 26 71 52 72 53 73 61 74 54 75 55 76
REMARK SMILES IDX 59 77 62 78 56 79 57 80 60 81 58 82 37 83 38 84 46 85 39 86
REMARK SMILES IDX 40 87 44 88 47 89 41 90 42 91 45 92 43 93
REMARK H PARENT 3 7 8 27 67 46 35 57
REMARK Flexibility Score: inf
ROOT
ATOM      1  C   UNL A   1      31.700  31.844  26.969  1.00  0.00     0.023 C 
ENDROOT
BRANCH   1   2
ATOM      2  C   UNL A   1      32.077  30.606  26.158  1.00  0.00     0.023 C 
BRANCH   2   3
ATOM      3  C   UNL A   1      32.495  29.391  26.985  1.00  0.00     0.116 C 
BRANCH   3   4
ATOM      4  N   UNL A   1      31.477  28.347  27.088  1.00  0.00    -0.352 N 
ATOM      5  O   UNL A   1      30.635  26.254  26.876  1.00  0.00    -0.270 OA
ATOM      6  C   UNL A   1      31.429  27.103  26.495  1.00  0.00     0.251 C 
ATOM      7  H   UNL A   1      30.710  28.565  27.667  1.00  0.00     0.163 HD
BRANCH   6   8
ATOM      8  C   UNL A   1      32.465  26.770  25.493  1.00  0.00     0.067 C 
ATOM      9  C   UNL A   1      33.418  25.864  25.756  1.00  0.00     0.027 C 
ATOM     10  C   UNL A   1      32.227  27.235  24.092  1.00  0.00     0.314 C 
ATOM     11  C   UNL A   1      33.437  24.779  24.740  1.00  0.00     0.036 A 
ATOM     12  O   UNL A   1      32.048  26.114  23.196  1.00  0.00    -0.475 OA
ATOM     13  C   UNL A   1      33.851  23.476  25.085  1.00  0.00     0.053 A 
ATOM     14  C   UNL A   1      32.658  24.937  23.568  1.00  0.00     0.130 A 
ATOM     15  Cl  UNL A   1      34.692  23.128  26.560  1.00  0.00    -0.083 Cl
ATOM     16  C   UNL A   1      33.456  22.374  24.318  1.00  0.00     0.042 A 
ATOM     17  C   UNL A   1      32.291  23.837  22.791  1.00  0.00     0.067 A 
ATOM     18  C   UNL A   1      32.670  22.560  23.185  1.00  0.00     0.046 A 
ATOM     19  Cl  UNL A   1      32.093  21.197  22.311  1.00  0.00    -0.084 Cl
BRANCH  10  20
ATOM     20  C   UNL A   1      33.361  28.156  23.604  1.00  0.00     0.429 C 
ATOM     21  F   UNL A   1      34.019  27.604  22.556  1.00  0.00    -0.167 F 
ATOM     22  F   UNL A   1      32.894  29.356  23.189  1.00  0.00    -0.167 F 
ATOM     23  F   UNL A   1      34.281  28.395  24.569  1.00  0.00    -0.167 F 
ENDBRANCH  10  20
ENDBRANCH   6   8
ENDBRANCH   3   4
ENDBRANCH   2   3
ENDBRANCH   1   2
BRANCH   1  24
ATOM     24  C   UNL A   1      32.841  32.796  27.326  1.00  0.00     0.116 C 
BRANCH  24  25
ATOM     25  N   UNL A   1      32.425  34.147  27.677  1.00  0.00    -0.352 N 
ATOM     26  C   UNL A   1      32.973  35.000  28.611  1.00  0.00     0.251 C 
ATOM     27  H   UNL A   1      31.650  34.498  27.182  1.00  0.00     0.163 HD
ATOM     28  O   UNL A   1      32.467  36.098  28.829  1.00  0.00    -0.269 OA
BRANCH  26  29
ATOM     29  C   UNL A   1      34.142  34.557  29.399  1.00  0.00     0.039 A 
ATOM     30  C   UNL A   1      33.932  33.983  30.657  1.00  0.00     0.014 A 
ATOM     31  C   UNL A   1      35.430  34.621  28.860  1.00  0.00     0.014 A 
ATOM     32  C   UNL A   1      34.997  33.370  31.321  1.00  0.00     0.010 A 
ATOM     33  C   UNL A   1      36.468  33.937  29.482  1.00  0.00     0.010 A 
ATOM     34  C   UNL A   1      36.259  33.289  30.710  1.00  0.00    -0.014 A 
BRANCH  34  35
ATOM     35  C   UNL A   1      37.369  32.513  31.323  1.00  0.00     0.031 A 
ATOM     36  C   UNL A   1      37.873  32.877  32.691  1.00  0.00     0.074 A 
ATOM     37  C   UNL A   1      37.975  31.538  30.616  1.00  0.00     0.049 A 
ATOM     38  N   UNL A   1      38.894  32.395  33.353  1.00  0.00    -0.248 NA
ATOM     39  C   UNL A   1      37.152  33.949  33.396  1.00  0.00     0.031 C 
ATOM     40  C   UNL A   1      37.619  31.129  29.256  1.00  0.00     0.029 A 
ATOM     41  N   UNL A   1      39.031  30.720  30.939  1.00  0.00    -0.354 N 
ATOM     42  C   UNL A   1      38.947  33.115  34.539  1.00  0.00     0.074 A 
ATOM     43  C   UNL A   1      37.892  34.103  34.484  1.00  0.00     0.031 C 
ATOM     44  C   UNL A   1      38.426  30.126  28.870  1.00  0.00     0.029 A 
ATOM     45  C   UNL A   1      39.378  29.843  29.939  1.00  0.00     0.049 A 
ATOM     46  H   UNL A   1      39.496  30.759  31.806  1.00  0.00     0.167 HD
ATOM     47  C   UNL A   1      39.783  32.950  35.592  1.00  0.00     0.037 A 
ATOM     48  C   UNL A   1      40.356  28.919  29.890  1.00  0.00     0.037 A 
ATOM     49  C   UNL A   1      40.810  31.945  35.661  1.00  0.00     0.049 A 
ATOM     50  C   UNL A   1      41.255  28.741  31.085  1.00  0.00     0.074 A 
ATOM     51  C   UNL A   1      41.684  31.672  36.698  1.00  0.00     0.029 A 
ATOM     52  N   UNL A   1      41.092  31.039  34.649  1.00  0.00    -0.354 N 
ATOM     53  N   UNL A   1      41.259  29.392  32.222  1.00  0.00    -0.248 NA
ATOM     54  C   UNL A   1      42.279  27.690  30.994  1.00  0.00     0.031 C 
ATOM     55  C   UNL A   1      42.513  30.616  36.303  1.00  0.00     0.029 A 
ATOM     56  C   UNL A   1      42.128  30.206  35.038  1.00  0.00     0.049 A 
ATOM     57  H   UNL A   1      40.625  30.994  33.783  1.00  0.00     0.167 HD
ATOM     58  C   UNL A   1      42.257  28.812  32.991  1.00  0.00     0.074 A 
ATOM     59  C   UNL A   1      42.831  27.745  32.197  1.00  0.00     0.031 C 
ATOM     60  C   UNL A   1      42.666  29.134  34.243  1.00  0.00     0.037 A 
BRANCH  47  61
ATOM     61  C   UNL A   1      39.605  33.864  36.768  1.00  0.00     0.064 A 
ATOM     62  C   UNL A   1      38.815  33.494  37.867  1.00  0.00     0.173 A 
ATOM     63  C   UNL A   1      40.260  35.104  36.817  1.00  0.00     0.173 A 
ATOM     64  F   UNL A   1      38.156  32.324  37.861  1.00  0.00    -0.203 F 
ATOM     65  C   UNL A   1      38.666  34.341  38.961  1.00  0.00     0.198 A 
ATOM     66  C   UNL A   1      40.132  35.936  37.926  1.00  0.00     0.198 A 
ATOM     67  F   UNL A   1      41.030  35.504  35.794  1.00  0.00    -0.203 F 
ATOM     68  F   UNL A   1      37.870  33.986  39.979  1.00  0.00    -0.200 F 
ATOM     69  C   UNL A   1      39.330  35.558  38.993  1.00  0.00     0.200 A 
ATOM     70  F   UNL A   1      40.783  37.107  37.961  1.00  0.00    -0.200 F 
ATOM     71  F   UNL A   1      39.194  36.370  40.051  1.00  0.00    -0.200 F 
ENDBRANCH  47  61
BRANCH  48  72
ATOM     72  C   UNL A   1      40.528  28.069  28.682  1.00  0.00     0.064 A 
ATOM     73  C   UNL A   1      41.314  28.502  27.603  1.00  0.00     0.173 A 
ATOM     74  C   UNL A   1      39.892  26.825  28.566  1.00  0.00     0.173 A 
ATOM     75  F   UNL A   1      41.926  29.695  27.659  1.00  0.00    -0.203 F 
ATOM     76  C   UNL A   1      41.432  27.738  26.445  1.00  0.00     0.198 A 
ATOM     77  C   UNL A   1      40.034  26.048  27.417  1.00  0.00     0.198 A 
ATOM     78  F   UNL A   1      39.134  26.361  29.571  1.00  0.00    -0.203 F 
ATOM     79  F   UNL A   1      42.144  28.202  25.409  1.00  0.00    -0.200 F 
ATOM     80  C   UNL A   1      40.795  26.510  26.353  1.00  0.00     0.200 A 
ATOM     81  F   UNL A   1      39.427  24.856  27.338  1.00  0.00    -0.200 F 
ATOM     82  F   UNL A   1      40.905  25.777  25.237  1.00  0.00    -0.200 F 
ENDBRANCH  48  72
BRANCH  60  83
ATOM     83  C   UNL A   1      43.749  28.294  34.850  1.00  0.00     0.064 A 
ATOM     84  C   UNL A   1      45.101  28.647  34.742  1.00  0.00     0.173 A 
ATOM     85  C   UNL A   1      43.423  27.145  35.586  1.00  0.00     0.173 A 
ATOM     86  F   UNL A   1      45.464  29.728  34.037  1.00  0.00    -0.203 F 
ATOM     87  C   UNL A   1      46.092  27.866  35.333  1.00  0.00     0.198 A 
ATOM     88  C   UNL A   1      44.413  26.383  36.197  1.00  0.00     0.198 A 
ATOM     89  F   UNL A   1      42.142  26.769  35.722  1.00  0.00    -0.203 F 
ATOM     90  F   UNL A   1      47.382  28.197  35.183  1.00  0.00    -0.200 F 
ATOM     91  C   UNL A   1      45.746  26.739  36.066  1.00  0.00     0.200 A 
ATOM     92  F   UNL A   1      44.077  25.301  36.914  1.00  0.00    -0.200 F 
ATOM     93  F   UNL A   1      46.701  25.994  36.638  1.00  0.00    -0.200 F 
ENDBRANCH  60  83
ENDBRANCH  34  35
ENDBRANCH  26  29
ENDBRANCH  24  25
ENDBRANCH   1  24
TORSDOF 12
ENDMDL
MODEL 3
REMARK VINA RESULT:     -13.4      0.169      1.997
REMARK SMILES O=C(NCCCCNC(=O)c1ccc(-c2c3nc(c(-c4c(F)c(F)c(F)c(F)c4F)c4ccc([nH]4)c(-c4c(F)c(F)c(F)c(F)c4F)c4nc(c(-c5c(F)c(F)c(F)c(F)c5F)c5ccc2[nH]5)C=C4)C=C3)cc1)C1=Cc2c(Cl)cc(Cl)cc2O[C@@H]1C(F)(F)F
REMARK SMILES IDX 6 1 5 2 4 3 3 4 1 5 2 6 74 8 75 9 85 10 76 11 84 12 77 13
REMARK SMILES IDX 83 14 78 15 79 16 82 17 80 18 81 19 86 20 87 21 88 22 89 23
REMARK SMILES IDX 7 24 8 25 9 26 10 28 11 29 12 30 73 31 13 32 72 33 14 34
REMARK SMILES IDX 15 35 16 36 66 37 17 38 71 39 65 40 67 41 18 42 70 43 64 44
REMARK SMILES IDX 63 45 19 47 51 48 31 49 50 50 32 51 35 52 49 53 68 54 33 55
REMARK SMILES IDX 34 56 48 58 69 59 36 60 20 61 21 62 29 63 22 64 23 65 27 66
REMARK SMILES IDX 30 67 24 68 25 69 28 70 26 71 52 72 53 73 61 74 54 75 55 76
REMARK SMILES IDX 59 77 62 78 56 79 57 80 60 81 58 82 37 83 38 84 46 85 39 86
REMARK SMILES IDX 40 87 44 88 47 89 41 90 42 91 45 92 43 93
REMARK H PARENT 3 7 8 27 67 46 35 57
REMARK Flexibility Score: inf
ROOT
ATOM      1  C   UNL A   1      31.988  31.542  26.871  1.00  0.00     0.023 C 
ENDROOT
BRANCH   1   2
ATOM      2  C   UNL A   1      32.526  30.226  26.313  1.00  0.00     0.023 C 
BRANCH   2   3
ATOM      3  C   UNL A   1      31.475  29.308  25.690  1.00  0.00     0.116 C 
BRANCH   3   4
ATOM      4  N   UNL A   1      31.354  28.000  26.331  1.00  0.00    -0.352 N 
ATOM      5  O   UNL A   1      31.220  25.740  26.406  1.00  0.00    -0.270 OA
ATOM      6  C   UNL A   1      31.037  26.776  25.781  1.00  0.00     0.251 C 
ATOM      7  H   UNL A   1      31.522  27.993  27.302  1.00  0.00     0.163 HD
BRANCH   6   8
ATOM      8  C   UNL A   1      30.620  26.737  24.363  1.00  0.00     0.067 C 
ATOM      9  C   UNL A   1      29.325  26.798  24.019  1.00  0.00     0.027 C 
ATOM     10  C   UNL A   1      31.687  26.945  23.337  1.00  0.00     0.314 C 
ATOM     11  C   UNL A   1      29.060  27.919  23.080  1.00  0.00     0.036 A 
ATOM     12  O   UNL A   1      31.469  28.171  22.602  1.00  0.00    -0.475 OA
ATOM     13  C   UNL A   1      27.808  28.568  23.066  1.00  0.00     0.053 A 
ATOM     14  C   UNL A   1      30.164  28.602  22.514  1.00  0.00     0.130 A 
ATOM     15  Cl  UNL A   1      26.408  27.901  23.842  1.00  0.00    -0.083 Cl
ATOM     16  C   UNL A   1      27.679  29.865  22.556  1.00  0.00     0.042 A 
ATOM     17  C   UNL A   1      30.025  29.884  21.981  1.00  0.00     0.067 A 
ATOM     18  C   UNL A   1      28.790  30.518  22.029  1.00  0.00     0.046 A 
ATOM     19  Cl  UNL A   1      28.653  32.150  21.507  1.00  0.00    -0.084 Cl
BRANCH  10  20
ATOM     20  C   UNL A   1      31.792  25.741  22.383  1.00  0.00     0.429 C 
ATOM     21  F   UNL A   1      31.020  24.712  22.810  1.00  0.00    -0.167 F 
ATOM     22  F   UNL A   1      31.381  26.050  21.131  1.00  0.00    -0.167 F 
ATOM     23  F   UNL A   1      33.059  25.271  22.284  1.00  0.00    -0.167 F 
ENDBRANCH  10  20
ENDBRANCH   6   8
ENDBRANCH   3   4
ENDBRANCH   2   3
ENDBRANCH   1   2
BRANCH   1  24
ATOM     24  C   UNL A   1      33.026  32.528  27.405  1.00  0.00     0.116 C 
BRANCH  24  25
ATOM     25  N   UNL A   1      32.525  33.875  27.644  1.00  0.00    -0.352 N 
ATOM     26  C   UNL A   1      33.004  34.828  28.518  1.00  0.00     0.251 C 
ATOM     27  H   UNL A   1      31.741  34.141  27.112  1.00  0.00     0.163 HD
ATOM     28  O   UNL A   1      32.430  35.907  28.642  1.00  0.00    -0.269 OA
BRANCH  26  29
ATOM     29  C   UNL A   1      34.181  34.516  29.356  1.00  0.00     0.039 A 
ATOM     30  C   UNL A   1      33.980  34.006  30.642  1.00  0.00     0.014 A 
ATOM     31  C   UNL A   1      35.474  34.638  28.840  1.00  0.00     0.014 A 
ATOM     32  C   UNL A   1      35.068  33.511  31.365  1.00  0.00     0.010 A 
ATOM     33  C   UNL A   1      36.541  34.067  29.524  1.00  0.00     0.010 A 
ATOM     34  C   UNL A   1      36.347  33.482  30.786  1.00  0.00    -0.014 A 
BRANCH  34  35
ATOM     35  C   UNL A   1      37.492  32.824  31.469  1.00  0.00     0.031 A 
ATOM     36  C   UNL A   1      38.199  31.673  30.811  1.00  0.00     0.074 A 
ATOM     37  C   UNL A   1      37.839  33.209  32.714  1.00  0.00     0.049 A 
ATOM     38  N   UNL A   1      39.145  30.902  31.284  1.00  0.00    -0.248 NA
ATOM     39  C   UNL A   1      37.760  31.320  29.451  1.00  0.00     0.031 C 
ATOM     40  C   UNL A   1      37.194  34.274  33.485  1.00  0.00     0.029 A 
ATOM     41  N   UNL A   1      38.817  32.739  33.558  1.00  0.00    -0.354 N 
ATOM     42  C   UNL A   1      39.401  29.967  30.290  1.00  0.00     0.074 A 
ATOM     43  C   UNL A   1      38.474  30.230  29.211  1.00  0.00     0.031 C 
ATOM     44  C   UNL A   1      37.804  34.389  34.677  1.00  0.00     0.029 A 
ATOM     45  C   UNL A   1      38.860  33.387  34.770  1.00  0.00     0.049 A 
ATOM     46  H   UNL A   1      39.428  32.006  33.318  1.00  0.00     0.167 HD
ATOM     47  C   UNL A   1      40.342  28.994  30.267  1.00  0.00     0.037 A 
ATOM     48  C   UNL A   1      39.659  33.190  35.836  1.00  0.00     0.037 A 
ATOM     49  C   UNL A   1      41.286  28.754  31.326  1.00  0.00     0.049 A 
ATOM     50  C   UNL A   1      40.713  32.116  35.772  1.00  0.00     0.074 A 
ATOM     51  C   UNL A   1      42.302  27.817  31.382  1.00  0.00     0.029 A 
ATOM     52  N   UNL A   1      41.333  29.470  32.513  1.00  0.00    -0.354 N 
ATOM     53  N   UNL A   1      40.979  31.275  34.804  1.00  0.00    -0.248 NA
ATOM     54  C   UNL A   1      41.585  31.973  36.947  1.00  0.00     0.031 C 
ATOM     55  C   UNL A   1      42.949  27.948  32.616  1.00  0.00     0.029 A 
ATOM     56  C   UNL A   1      42.361  28.993  33.309  1.00  0.00     0.049 A 
ATOM     57  H   UNL A   1      40.726  30.207  32.754  1.00  0.00     0.167 HD
ATOM     58  C   UNL A   1      42.065  30.527  35.235  1.00  0.00     0.074 A 
ATOM     59  C   UNL A   1      42.419  31.022  36.549  1.00  0.00     0.031 C 
ATOM     60  C   UNL A   1      42.712  29.518  34.602  1.00  0.00     0.037 A 
BRANCH  47  61
ATOM     61  C   UNL A   1      40.412  28.127  29.044  1.00  0.00     0.064 A 
ATOM     62  C   UNL A   1      39.680  26.934  28.953  1.00  0.00     0.173 A 
ATOM     63  C   UNL A   1      41.187  28.509  27.939  1.00  0.00     0.173 A 
ATOM     64  F   UNL A   1      38.936  26.517  29.989  1.00  0.00    -0.203 F 
ATOM     65  C   UNL A   1      39.740  26.142  27.810  1.00  0.00     0.198 A 
ATOM     66  C   UNL A   1      41.222  27.730  26.786  1.00  0.00     0.198 A 
ATOM     67  F   UNL A   1      41.903  29.643  27.973  1.00  0.00    -0.203 F 
ATOM     68  F   UNL A   1      39.067  24.983  27.763  1.00  0.00    -0.200 F 
ATOM     69  C   UNL A   1      40.504  26.544  26.725  1.00  0.00     0.200 A 
ATOM     70  F   UNL A   1      41.951  28.124  25.734  1.00  0.00    -0.200 F 
ATOM     71  F   UNL A   1      40.554  25.785  25.621  1.00  0.00    -0.200 F 
ENDBRANCH  47  61
BRANCH  48  72
ATOM     72  C   UNL A   1      39.519  34.040  37.047  1.00  0.00     0.064 A 
ATOM     73  C   UNL A   1      40.153  35.290  37.127  1.00  0.00     0.173 A 
ATOM     74  C   UNL A   1      38.779  33.614  38.160  1.00  0.00     0.173 A 
ATOM     75  F   UNL A   1      40.890  35.731  36.096  1.00  0.00    -0.203 F 
ATOM     76  C   UNL A   1      40.076  36.065  38.281  1.00  0.00     0.198 A 
ATOM     77  C   UNL A   1      38.679  34.405  39.304  1.00  0.00     0.198 A 
ATOM     78  F   UNL A   1      38.149  32.430  38.134  1.00  0.00    -0.203 F 
ATOM     79  F   UNL A   1      40.736  37.229  38.349  1.00  0.00    -0.200 F 
ATOM     80  C   UNL A   1      39.336  35.624  39.368  1.00  0.00     0.200 A 
ATOM     81  F   UNL A   1      37.952  33.980  40.347  1.00  0.00    -0.200 F 
ATOM     82  F   UNL A   1      39.266  36.369  40.479  1.00  0.00    -0.200 F 
ENDBRANCH  48  72
BRANCH  60  83
ATOM     83  C   UNL A   1      43.897  28.917  35.298  1.00  0.00     0.064 A 
ATOM     84  C   UNL A   1      45.197  29.394  35.082  1.00  0.00     0.173 A 
ATOM     85  C   UNL A   1      43.720  27.879  36.225  1.00  0.00     0.173 A 
ATOM     86  F   UNL A   1      45.418  30.375  34.194  1.00  0.00    -0.203 F 
ATOM     87  C   UNL A   1      46.282  28.838  35.755  1.00  0.00     0.198 A 
ATOM     88  C   UNL A   1      44.803  27.344  36.915  1.00  0.00     0.198 A 
ATOM     89  F   UNL A   1      42.494  27.392  36.470  1.00  0.00    -0.203 F 
ATOM     90  F   UNL A   1      47.522  29.280  35.503  1.00  0.00    -0.200 F 
ATOM     91  C   UNL A   1      46.083  27.819  36.675  1.00  0.00     0.200 A 
ATOM     92  F   UNL A   1      44.608  26.368  37.812  1.00  0.00    -0.200 F 
ATOM     93  F   UNL A   1      47.129  27.291  37.326  1.00  0.00    -0.200 F 
ENDBRANCH  60  83
ENDBRANCH  34  35
ENDBRANCH  26  29
ENDBRANCH  24  25
ENDBRANCH   1  24
TORSDOF 12
ENDMDL
