MODEL 1
REMARK VINA RESULT:     -12.4      0.000      0.000
REMARK SMILES COc1cc(/C=N/NC(=O)c2cc(Cl)ccc2O)ccc1OCC(=O)NCCCCNC(=O)c1ccc(-c2c3nc(c(-c4c(F)c(F)c(F)c(F)c4F)c4ccc([nH]4)c(-c4c(F)c(F)c(F)c(F)c4F)c4nc(c(-c5c(F)c(F)c(F)c(F)c5F)c5ccc2[nH]5)C=C4)C=C3)cc1
REMARK SMILES IDX 24 1 25 2 26 3 23 5 22 6 21 7 3 8 4 9 5 10 20 11 19 12 2 13
REMARK SMILES IDX 1 14 6 15 7 16 8 17 9 18 10 20 11 21 12 22 17 23 13 24 16 25
REMARK SMILES IDX 14 26 15 27 18 28 27 30 28 31 29 32 30 33 31 34 32 35 33 37
REMARK SMILES IDX 34 38 35 39 96 40 36 41 95 42 37 43 38 44 39 45 89 46 40 47
REMARK SMILES IDX 94 48 88 49 90 50 41 51 93 52 87 53 86 54 42 56 74 57 54 58
REMARK SMILES IDX 73 59 55 60 58 61 72 62 91 63 56 64 57 65 71 67 92 68 59 69
REMARK SMILES IDX 43 70 44 71 52 72 45 73 46 74 50 75 53 76 47 77 48 78 51 79
REMARK SMILES IDX 49 80 75 81 76 82 84 83 77 84 78 85 82 86 85 87 79 88 80 89
REMARK SMILES IDX 83 90 81 91 60 92 61 93 69 94 62 95 63 96 67 97 70 98 64 99
REMARK SMILES IDX 65 100 68 101 66 102
REMARK H PARENT 26 4 8 19 18 29 31 36 90 55 58 66
REMARK Flexibility Score: inf
ROOT
ATOM      1  C   UNL A   1      46.240  21.020  37.811  1.00  0.00     0.257 C 
ATOM      2  O   UNL A   1      46.588  21.530  38.878  1.00  0.00    -0.271 OA
ATOM      3  N   UNL A   1      45.690  21.843  36.869  1.00  0.00    -0.353 N 
ATOM      4  H   UNL A   1      45.416  22.734  37.185  1.00  0.00     0.163 HD
ENDROOT
BRANCH   1   5
ATOM      5  C   UNL A   1      46.473  19.536  37.495  1.00  0.00     0.329 C 
BRANCH   5   6
ATOM      6  O   UNL A   1      46.717  18.652  38.578  1.00  0.00    -0.480 OA
BRANCH   6   7
ATOM      7  C   UNL A   1      45.684  17.935  39.114  1.00  0.00     0.161 A 
ATOM      8  C   UNL A   1      45.396  17.709  40.466  1.00  0.00     0.161 A 
ATOM      9  C   UNL A   1      44.305  16.903  40.825  1.00  0.00     0.060 A 
ATOM     10  C   UNL A   1      43.485  16.355  39.834  1.00  0.00    -0.002 A 
ATOM     11  C   UNL A   1      44.865  17.350  38.136  1.00  0.00     0.051 A 
ATOM     12  C   UNL A   1      43.755  16.583  38.487  1.00  0.00     0.014 A 
BRANCH   8  13
ATOM     13  O   UNL A   1      46.261  18.150  41.430  1.00  0.00    -0.493 OA
ATOM     14  C   UNL A   1      47.204  17.160  41.842  1.00  0.00     0.278 C 
ENDBRANCH   8  13
BRANCH  10  15
ATOM     15  C   UNL A   1      42.386  15.432  40.172  1.00  0.00     0.141 C 
ATOM     16  N   UNL A   1      42.458  14.171  39.869  1.00  0.00    -0.180 NA
BRANCH  16  17
ATOM     17  N   UNL A   1      41.344  13.406  40.063  1.00  0.00    -0.243 N 
ATOM     18  C   UNL A   1      40.933  12.710  41.189  1.00  0.00     0.275 C 
ATOM     19  H   UNL A   1      40.743  13.339  39.286  1.00  0.00     0.194 HD
ATOM     20  O   UNL A   1      39.917  12.017  41.150  1.00  0.00    -0.267 OA
BRANCH  18  21
ATOM     21  C   UNL A   1      41.701  12.779  42.455  1.00  0.00     0.084 A 
ATOM     22  C   UNL A   1      42.590  11.725  42.710  1.00  0.00     0.038 A 
ATOM     23  C   UNL A   1      41.578  13.817  43.388  1.00  0.00     0.128 A 
ATOM     24  C   UNL A   1      43.392  11.754  43.849  1.00  0.00     0.042 A 
ATOM     25  C   UNL A   1      42.384  13.839  44.526  1.00  0.00     0.048 A 
ATOM     26  Cl  UNL A   1      44.514  10.482  44.134  1.00  0.00    -0.084 Cl
ATOM     27  C   UNL A   1      43.304  12.814  44.750  1.00  0.00     0.024 A 
BRANCH  23  28
ATOM     28  O   UNL A   1      40.705  14.860  43.255  1.00  0.00    -0.507 OA
ATOM     29  H   UNL A   1      40.590  15.466  43.960  1.00  0.00     0.293 HD
ENDBRANCH  23  28
ENDBRANCH  18  21
ENDBRANCH  16  17
ENDBRANCH  10  15
ENDBRANCH   6   7
ENDBRANCH   5   6
ENDBRANCH   1   5
BRANCH   3  30
ATOM     30  C   UNL A   1      45.459  21.570  35.466  1.00  0.00     0.116 C 
BRANCH  30  31
ATOM     31  C   UNL A   1      46.219  22.516  34.541  1.00  0.00     0.023 C 
BRANCH  31  32
ATOM     32  C   UNL A   1      47.708  22.691  34.844  1.00  0.00     0.023 C 
BRANCH  32  33
ATOM     33  C   UNL A   1      48.209  24.128  34.890  1.00  0.00     0.116 C 
BRANCH  33  34
ATOM     34  N   UNL A   1      48.153  24.711  36.221  1.00  0.00    -0.352 N 
ATOM     35  C   UNL A   1      47.334  25.701  36.708  1.00  0.00     0.251 C 
ATOM     36  H   UNL A   1      48.797  24.341  36.868  1.00  0.00     0.163 HD
ATOM     37  O   UNL A   1      47.509  26.144  37.834  1.00  0.00    -0.269 OA
BRANCH  35  38
ATOM     38  C   UNL A   1      46.264  26.257  35.852  1.00  0.00     0.039 A 
ATOM     39  C   UNL A   1      45.015  25.632  35.850  1.00  0.00     0.014 A 
ATOM     40  C   UNL A   1      46.482  27.393  35.068  1.00  0.00     0.014 A 
ATOM     41  C   UNL A   1      43.966  26.184  35.112  1.00  0.00     0.010 A 
ATOM     42  C   UNL A   1      45.416  27.987  34.399  1.00  0.00     0.010 A 
ATOM     43  C   UNL A   1      44.147  27.387  34.411  1.00  0.00    -0.014 A 
BRANCH  43  44
ATOM     44  C   UNL A   1      43.028  28.024  33.670  1.00  0.00     0.031 A 
ATOM     45  C   UNL A   1      42.839  27.738  32.205  1.00  0.00     0.074 A 
ATOM     46  C   UNL A   1      42.211  28.890  34.301  1.00  0.00     0.049 A 
ATOM     47  N   UNL A   1      41.975  28.250  31.364  1.00  0.00    -0.248 NA
ATOM     48  C   UNL A   1      43.760  26.763  31.596  1.00  0.00     0.031 C 
ATOM     49  C   UNL A   1      42.308  29.274  35.710  1.00  0.00     0.029 A 
ATOM     50  N   UNL A   1      41.140  29.612  33.835  1.00  0.00    -0.354 N 
ATOM     51  C   UNL A   1      42.247  27.661  30.137  1.00  0.00     0.074 A 
ATOM     52  C   UNL A   1      43.400  26.808  30.322  1.00  0.00     0.031 C 
ATOM     53  C   UNL A   1      41.323  30.141  36.000  1.00  0.00     0.029 A 
ATOM     54  C   UNL A   1      40.553  30.409  34.790  1.00  0.00     0.049 A 
ATOM     55  H   UNL A   1      40.822  29.565  32.904  1.00  0.00     0.167 HD
ATOM     56  C   UNL A   1      41.577  27.791  28.967  1.00  0.00     0.037 A 
ATOM     57  C   UNL A   1      39.518  31.266  34.693  1.00  0.00     0.037 A 
ATOM     58  C   UNL A   1      40.422  28.631  28.786  1.00  0.00     0.049 A 
ATOM     59  C   UNL A   1      38.824  31.429  33.365  1.00  0.00     0.074 A 
ATOM     60  C   UNL A   1      39.665  28.824  27.644  1.00  0.00     0.029 A 
ATOM     61  N   UNL A   1      39.855  29.417  29.778  1.00  0.00    -0.354 N 
ATOM     62  N   UNL A   1      39.062  30.828  32.223  1.00  0.00    -0.248 NA
ATOM     63  C   UNL A   1      37.711  32.387  33.314  1.00  0.00     0.031 C 
ATOM     64  C   UNL A   1      38.665  29.756  27.933  1.00  0.00     0.029 A 
ATOM     65  C   UNL A   1      38.763  30.102  29.271  1.00  0.00     0.049 A 
ATOM     66  H   UNL A   1      40.180  29.477  30.706  1.00  0.00     0.167 HD
ATOM     67  C   UNL A   1      38.101  31.298  31.338  1.00  0.00     0.074 A 
ATOM     68  C   UNL A   1      37.269  32.224  32.076  1.00  0.00     0.031 C 
ATOM     69  C   UNL A   1      37.925  30.993  30.029  1.00  0.00     0.037 A 
BRANCH  56  70
ATOM     70  C   UNL A   1      42.059  26.988  27.794  1.00  0.00     0.064 A 
ATOM     71  C   UNL A   1      41.565  25.698  27.541  1.00  0.00     0.173 A 
ATOM     72  C   UNL A   1      42.981  27.527  26.885  1.00  0.00     0.173 A 
ATOM     73  F   UNL A   1      40.691  25.132  28.386  1.00  0.00    -0.203 F 
ATOM     74  C   UNL A   1      41.992  24.972  26.433  1.00  0.00     0.198 A 
ATOM     75  C   UNL A   1      43.381  26.810  25.760  1.00  0.00     0.198 A 
ATOM     76  F   UNL A   1      43.482  28.757  27.077  1.00  0.00    -0.203 F 
ATOM     77  F   UNL A   1      41.539  23.726  26.236  1.00  0.00    -0.200 F 
ATOM     78  C   UNL A   1      42.892  25.532  25.538  1.00  0.00     0.200 A 
ATOM     79  F   UNL A   1      44.240  27.357  24.889  1.00  0.00    -0.200 F 
ATOM     80  F   UNL A   1      43.291  24.836  24.465  1.00  0.00    -0.200 F 
ENDBRANCH  56  70
BRANCH  57  81
ATOM     81  C   UNL A   1      39.057  32.036  35.881  1.00  0.00     0.064 A 
ATOM     82  C   UNL A   1      39.533  33.333  36.128  1.00  0.00     0.173 A 
ATOM     83  C   UNL A   1      38.185  31.474  36.825  1.00  0.00     0.173 A 
ATOM     84  F   UNL A   1      40.384  33.908  35.266  1.00  0.00    -0.203 F 
ATOM     85  C   UNL A   1      39.192  34.017  37.293  1.00  0.00     0.198 A 
ATOM     86  C   UNL A   1      37.816  32.174  37.971  1.00  0.00     0.198 A 
ATOM     87  F   UNL A   1      37.695  30.240  36.636  1.00  0.00    -0.203 F 
ATOM     88  F   UNL A   1      39.722  35.223  37.537  1.00  0.00    -0.200 F 
ATOM     89  C   UNL A   1      38.332  33.438  38.213  1.00  0.00     0.200 A 
ATOM     90  F   UNL A   1      36.971  31.617  38.850  1.00  0.00    -0.200 F 
ATOM     91  F   UNL A   1      38.013  34.091  39.339  1.00  0.00    -0.200 F 
ENDBRANCH  57  81
BRANCH  69  92
ATOM     92  C   UNL A   1      36.746  31.608  29.329  1.00  0.00     0.064 A 
ATOM     93  C   UNL A   1      36.715  32.966  28.981  1.00  0.00     0.173 A 
ATOM     94  C   UNL A   1      35.647  30.813  28.969  1.00  0.00     0.173 A 
ATOM     95  F   UNL A   1      37.733  33.773  29.314  1.00  0.00    -0.203 F 
ATOM     96  C   UNL A   1      35.611  33.513  28.330  1.00  0.00     0.198 A 
ATOM     97  C   UNL A   1      34.562  31.355  28.286  1.00  0.00     0.198 A 
ATOM     98  F   UNL A   1      35.629  29.505  29.270  1.00  0.00    -0.203 F 
ATOM     99  F   UNL A   1      35.579  34.825  28.059  1.00  0.00    -0.200 F 
ATOM    100  C   UNL A   1      34.540  32.706  27.976  1.00  0.00     0.200 A 
ATOM    101  F   UNL A   1      33.536  30.569  27.930  1.00  0.00    -0.200 F 
ATOM    102  F   UNL A   1      33.484  33.232  27.342  1.00  0.00    -0.200 F 
ENDBRANCH  69  92
ENDBRANCH  43  44
ENDBRANCH  35  38
ENDBRANCH  33  34
ENDBRANCH  32  33
ENDBRANCH  31  32
ENDBRANCH  30  31
ENDBRANCH   3  30
TORSDOF 18
ENDMDL
MODEL 2
REMARK VINA RESULT:     -12.2     10.091     14.264
REMARK SMILES COc1cc(/C=N/NC(=O)c2cc(Cl)ccc2O)ccc1OCC(=O)NCCCCNC(=O)c1ccc(-c2c3nc(c(-c4c(F)c(F)c(F)c(F)c4F)c4ccc([nH]4)c(-c4c(F)c(F)c(F)c(F)c4F)c4nc(c(-c5c(F)c(F)c(F)c(F)c5F)c5ccc2[nH]5)C=C4)C=C3)cc1
REMARK SMILES IDX 24 1 25 2 26 3 23 5 22 6 21 7 3 8 4 9 5 10 20 11 19 12 2 13
REMARK SMILES IDX 1 14 6 15 7 16 8 17 9 18 10 20 11 21 12 22 17 23 13 24 16 25
REMARK SMILES IDX 14 26 15 27 18 28 27 30 28 31 29 32 30 33 31 34 32 35 33 37
REMARK SMILES IDX 34 38 35 39 96 40 36 41 95 42 37 43 38 44 39 45 89 46 40 47
REMARK SMILES IDX 94 48 88 49 90 50 41 51 93 52 87 53 86 54 42 56 74 57 54 58
REMARK SMILES IDX 73 59 55 60 58 61 72 62 91 63 56 64 57 65 71 67 92 68 59 69
REMARK SMILES IDX 43 70 44 71 52 72 45 73 46 74 50 75 53 76 47 77 48 78 51 79
REMARK SMILES IDX 49 80 75 81 76 82 84 83 77 84 78 85 82 86 85 87 79 88 80 89
REMARK SMILES IDX 83 90 81 91 60 92 61 93 69 94 62 95 63 96 67 97 70 98 64 99
REMARK SMILES IDX 65 100 68 101 66 102
REMARK H PARENT 26 4 8 19 18 29 31 36 90 55 58 66
REMARK Flexibility Score: inf
ROOT
ATOM      1  C   UNL A   1      38.835  22.713  26.403  1.00  0.00     0.257 C 
ATOM      2  O   UNL A   1      38.144  23.726  26.530  1.00  0.00    -0.271 OA
ATOM      3  N   UNL A   1      39.902  22.568  27.244  1.00  0.00    -0.353 N 
ATOM      4  H   UNL A   1      40.168  23.373  27.742  1.00  0.00     0.163 HD
ENDROOT
BRANCH   1   5
ATOM      5  C   UNL A   1      38.489  21.604  25.398  1.00  0.00     0.329 C 
BRANCH   5   6
ATOM      6  O   UNL A   1      37.166  21.090  25.399  1.00  0.00    -0.480 OA
BRANCH   6   7
ATOM      7  C   UNL A   1      36.143  21.850  24.903  1.00  0.00     0.161 A 
ATOM      8  C   UNL A   1      34.833  21.957  25.385  1.00  0.00     0.161 A 
ATOM      9  C   UNL A   1      33.903  22.764  24.712  1.00  0.00     0.060 A 
ATOM     10  C   UNL A   1      34.294  23.487  23.581  1.00  0.00    -0.002 A 
ATOM     11  C   UNL A   1      36.506  22.561  23.750  1.00  0.00     0.051 A 
ATOM     12  C   UNL A   1      35.598  23.397  23.100  1.00  0.00     0.014 A 
BRANCH   8  13
ATOM     13  O   UNL A   1      34.420  21.165  26.420  1.00  0.00    -0.493 OA
ATOM     14  C   UNL A   1      34.050  21.902  27.586  1.00  0.00     0.278 C 
ENDBRANCH   8  13
BRANCH  10  15
ATOM     15  C   UNL A   1      33.322  24.272  22.798  1.00  0.00     0.141 C 
ATOM     16  N   UNL A   1      33.391  25.567  22.755  1.00  0.00    -0.180 NA
BRANCH  16  17
ATOM     17  N   UNL A   1      32.369  26.239  22.147  1.00  0.00    -0.243 N 
ATOM     18  C   UNL A   1      31.420  27.090  22.694  1.00  0.00     0.275 C 
ATOM     19  H   UNL A   1      32.294  26.098  21.176  1.00  0.00     0.194 HD
ATOM     20  O   UNL A   1      30.529  27.556  21.987  1.00  0.00    -0.267 OA
BRANCH  18  21
ATOM     21  C   UNL A   1      31.453  27.452  24.131  1.00  0.00     0.084 A 
ATOM     22  C   UNL A   1      31.656  28.807  24.434  1.00  0.00     0.038 A 
ATOM     23  C   UNL A   1      31.302  26.529  25.173  1.00  0.00     0.128 A 
ATOM     24  C   UNL A   1      31.636  29.231  25.761  1.00  0.00     0.042 A 
ATOM     25  C   UNL A   1      31.282  26.961  26.499  1.00  0.00     0.048 A 
ATOM     26  Cl  UNL A   1      31.839  30.900  26.125  1.00  0.00    -0.084 Cl
ATOM     27  C   UNL A   1      31.433  28.317  26.793  1.00  0.00     0.024 A 
BRANCH  23  28
ATOM     28  O   UNL A   1      31.150  25.184  24.982  1.00  0.00    -0.507 OA
ATOM     29  H   UNL A   1      30.677  24.673  25.610  1.00  0.00     0.293 HD
ENDBRANCH  23  28
ENDBRANCH  18  21
ENDBRANCH  16  17
ENDBRANCH  10  15
ENDBRANCH   6   7
ENDBRANCH   5   6
ENDBRANCH   1   5
BRANCH   3  30
ATOM     30  C   UNL A   1      40.690  21.379  27.493  1.00  0.00     0.116 C 
BRANCH  30  31
ATOM     31  C   UNL A   1      41.780  21.155  26.449  1.00  0.00     0.023 C 
BRANCH  31  32
ATOM     32  C   UNL A   1      41.863  19.744  25.866  1.00  0.00     0.023 C 
BRANCH  32  33
ATOM     33  C   UNL A   1      43.154  18.987  26.144  1.00  0.00     0.116 C 
BRANCH  33  34
ATOM     34  N   UNL A   1      43.900  18.665  24.938  1.00  0.00    -0.352 N 
ATOM     35  C   UNL A   1      44.697  19.470  24.162  1.00  0.00     0.251 C 
ATOM     36  H   UNL A   1      43.821  17.731  24.634  1.00  0.00     0.163 HD
ATOM     37  O   UNL A   1      45.159  19.049  23.110  1.00  0.00    -0.269 OA
BRANCH  35  38
ATOM     38  C   UNL A   1      44.966  20.863  24.581  1.00  0.00     0.039 A 
ATOM     39  C   UNL A   1      44.533  21.906  23.759  1.00  0.00     0.014 A 
ATOM     40  C   UNL A   1      45.629  21.143  25.779  1.00  0.00     0.014 A 
ATOM     41  C   UNL A   1      44.705  23.229  24.169  1.00  0.00     0.010 A 
ATOM     42  C   UNL A   1      45.726  22.458  26.225  1.00  0.00     0.010 A 
ATOM     43  C   UNL A   1      45.269  23.515  25.423  1.00  0.00    -0.014 A 
BRANCH  43  44
ATOM     44  C   UNL A   1      45.405  24.914  25.906  1.00  0.00     0.031 A 
ATOM     45  C   UNL A   1      46.744  25.598  25.857  1.00  0.00     0.074 A 
ATOM     46  C   UNL A   1      44.338  25.551  26.427  1.00  0.00     0.049 A 
ATOM     47  N   UNL A   1      47.087  26.782  26.299  1.00  0.00    -0.248 NA
ATOM     48  C   UNL A   1      47.853  24.840  25.252  1.00  0.00     0.031 C 
ATOM     49  C   UNL A   1      42.994  24.987  26.559  1.00  0.00     0.029 A 
ATOM     50  N   UNL A   1      44.219  26.814  26.953  1.00  0.00    -0.354 N 
ATOM     51  C   UNL A   1      48.443  26.909  26.024  1.00  0.00     0.074 A 
ATOM     52  C   UNL A   1      48.877  25.658  25.444  1.00  0.00     0.031 C 
ATOM     53  C   UNL A   1      42.181  25.907  27.104  1.00  0.00     0.029 A 
ATOM     54  C   UNL A   1      42.953  27.109  27.403  1.00  0.00     0.049 A 
ATOM     55  H   UNL A   1      44.970  27.450  27.004  1.00  0.00     0.167 HD
ATOM     56  C   UNL A   1      49.246  27.984  26.207  1.00  0.00     0.037 A 
ATOM     57  C   UNL A   1      42.477  28.219  27.998  1.00  0.00     0.037 A 
ATOM     58  C   UNL A   1      48.811  29.233  26.773  1.00  0.00     0.049 A 
ATOM     59  C   UNL A   1      43.409  29.380  28.235  1.00  0.00     0.074 A 
ATOM     60  C   UNL A   1      49.545  30.386  26.990  1.00  0.00     0.029 A 
ATOM     61  N   UNL A   1      47.521  29.494  27.209  1.00  0.00    -0.354 N 
ATOM     62  N   UNL A   1      44.677  29.505  27.925  1.00  0.00    -0.248 NA
ATOM     63  C   UNL A   1      42.838  30.561  28.900  1.00  0.00     0.031 C 
ATOM     64  C   UNL A   1      48.711  31.330  27.594  1.00  0.00     0.029 A 
ATOM     65  C   UNL A   1      47.442  30.786  27.703  1.00  0.00     0.049 A 
ATOM     66  H   UNL A   1      46.772  28.855  27.173  1.00  0.00     0.167 HD
ATOM     67  C   UNL A   1      45.040  30.788  28.313  1.00  0.00     0.074 A 
ATOM     68  C   UNL A   1      43.855  31.408  28.867  1.00  0.00     0.031 C 
ATOM     69  C   UNL A   1      46.246  31.399  28.219  1.00  0.00     0.037 A 
BRANCH  56  70
ATOM     70  C   UNL A   1      50.677  27.866  25.767  1.00  0.00     0.064 A 
ATOM     71  C   UNL A   1      51.042  28.033  24.421  1.00  0.00     0.173 A 
ATOM     72  C   UNL A   1      51.700  27.638  26.699  1.00  0.00     0.173 A 
ATOM     73  F   UNL A   1      50.102  28.240  23.487  1.00  0.00    -0.203 F 
ATOM     74  C   UNL A   1      52.375  27.955  24.024  1.00  0.00     0.198 A 
ATOM     75  C   UNL A   1      53.034  27.594  26.304  1.00  0.00     0.198 A 
ATOM     76  F   UNL A   1      51.407  27.476  27.999  1.00  0.00    -0.203 F 
ATOM     77  F   UNL A   1      52.693  28.074  22.728  1.00  0.00    -0.200 F 
ATOM     78  C   UNL A   1      53.370  27.745  24.967  1.00  0.00     0.200 A 
ATOM     79  F   UNL A   1      53.996  27.405  27.217  1.00  0.00    -0.200 F 
ATOM     80  F   UNL A   1      54.652  27.685  24.586  1.00  0.00    -0.200 F 
ENDBRANCH  56  70
BRANCH  57  81
ATOM     81  C   UNL A   1      41.049  28.307  28.408  1.00  0.00     0.064 A 
ATOM     82  C   UNL A   1      40.086  28.865  27.553  1.00  0.00     0.173 A 
ATOM     83  C   UNL A   1      40.625  27.896  29.681  1.00  0.00     0.173 A 
ATOM     84  F   UNL A   1      40.444  29.291  26.333  1.00  0.00    -0.203 F 
ATOM     85  C   UNL A   1      38.769  29.050  27.970  1.00  0.00     0.198 A 
ATOM     86  C   UNL A   1      39.300  28.048  30.084  1.00  0.00     0.198 A 
ATOM     87  F   UNL A   1      41.501  27.351  30.538  1.00  0.00    -0.203 F 
ATOM     88  F   UNL A   1      37.892  29.656  27.159  1.00  0.00    -0.200 F 
ATOM     89  C   UNL A   1      38.377  28.640  29.235  1.00  0.00     0.200 A 
ATOM     90  F   UNL A   1      38.920  27.636  31.301  1.00  0.00    -0.200 F 
ATOM     91  F   UNL A   1      37.114  28.830  29.640  1.00  0.00    -0.200 F 
ENDBRANCH  57  81
BRANCH  69  92
ATOM     92  C   UNL A   1      46.330  32.833  28.660  1.00  0.00     0.064 A 
ATOM     93  C   UNL A   1      46.666  33.186  29.975  1.00  0.00     0.173 A 
ATOM     94  C   UNL A   1      46.107  33.867  27.739  1.00  0.00     0.173 A 
ATOM     95  F   UNL A   1      46.876  32.237  30.899  1.00  0.00    -0.203 F 
ATOM     96  C   UNL A   1      46.741  34.523  30.359  1.00  0.00     0.198 A 
ATOM     97  C   UNL A   1      46.219  35.202  28.117  1.00  0.00     0.198 A 
ATOM     98  F   UNL A   1      45.792  33.584  26.465  1.00  0.00    -0.203 F 
ATOM     99  F   UNL A   1      47.007  34.837  31.635  1.00  0.00    -0.200 F 
ATOM    100  C   UNL A   1      46.526  35.529  29.429  1.00  0.00     0.200 A 
ATOM    101  F   UNL A   1      46.027  36.171  27.212  1.00  0.00    -0.200 F 
ATOM    102  F   UNL A   1      46.606  36.814  29.798  1.00  0.00    -0.200 F 
ENDBRANCH  69  92
ENDBRANCH  43  44
ENDBRANCH  35  38
ENDBRANCH  33  34
ENDBRANCH  32  33
ENDBRANCH  31  32
ENDBRANCH  30  31
ENDBRANCH   3  30
TORSDOF 18
ENDMDL
MODEL 3
REMARK VINA RESULT:     -11.8      9.405     15.475
REMARK SMILES COc1cc(/C=N/NC(=O)c2cc(Cl)ccc2O)ccc1OCC(=O)NCCCCNC(=O)c1ccc(-c2c3nc(c(-c4c(F)c(F)c(F)c(F)c4F)c4ccc([nH]4)c(-c4c(F)c(F)c(F)c(F)c4F)c4nc(c(-c5c(F)c(F)c(F)c(F)c5F)c5ccc2[nH]5)C=C4)C=C3)cc1
REMARK SMILES IDX 24 1 25 2 26 3 23 5 22 6 21 7 3 8 4 9 5 10 20 11 19 12 2 13
REMARK SMILES IDX 1 14 6 15 7 16 8 17 9 18 10 20 11 21 12 22 17 23 13 24 16 25
REMARK SMILES IDX 14 26 15 27 18 28 27 30 28 31 29 32 30 33 31 34 32 35 33 37
REMARK SMILES IDX 34 38 35 39 96 40 36 41 95 42 37 43 38 44 39 45 89 46 40 47
REMARK SMILES IDX 94 48 88 49 90 50 41 51 93 52 87 53 86 54 42 56 74 57 54 58
REMARK SMILES IDX 73 59 55 60 58 61 72 62 91 63 56 64 57 65 71 67 92 68 59 69
REMARK SMILES IDX 43 70 44 71 52 72 45 73 46 74 50 75 53 76 47 77 48 78 51 79
REMARK SMILES IDX 49 80 75 81 76 82 84 83 77 84 78 85 82 86 85 87 79 88 80 89
REMARK SMILES IDX 83 90 81 91 60 92 61 93 69 94 62 95 63 96 67 97 70 98 64 99
REMARK SMILES IDX 65 100 68 101 66 102
REMARK H PARENT 26 4 8 19 18 29 31 36 90 55 58 66
REMARK Flexibility Score: inf
ROOT
ATOM      1  C   UNL A   1      34.291  21.493  26.505  1.00  0.00     0.257 C 
ATOM      2  O   UNL A   1      33.982  21.808  27.656  1.00  0.00    -0.271 OA
ATOM      3  N   UNL A   1      35.615  21.549  26.170  1.00  0.00    -0.353 N 
ATOM      4  H   UNL A   1      36.196  22.036  26.797  1.00  0.00     0.163 HD
ENDROOT
BRANCH   1   5
ATOM      5  C   UNL A   1      33.260  20.981  25.489  1.00  0.00     0.329 C 
BRANCH   5   6
ATOM      6  O   UNL A   1      31.892  21.275  25.719  1.00  0.00    -0.480 OA
BRANCH   6   7
ATOM      7  C   UNL A   1      31.373  22.465  25.289  1.00  0.00     0.161 A 
ATOM      8  C   UNL A   1      31.329  22.968  23.983  1.00  0.00     0.161 A 
ATOM      9  C   UNL A   1      30.790  24.240  23.740  1.00  0.00     0.060 A 
ATOM     10  C   UNL A   1      30.265  24.991  24.797  1.00  0.00    -0.002 A 
ATOM     11  C   UNL A   1      30.869  23.248  26.338  1.00  0.00     0.051 A 
ATOM     12  C   UNL A   1      30.295  24.495  26.098  1.00  0.00     0.014 A 
BRANCH   8  13
ATOM     13  O   UNL A   1      31.941  22.286  22.968  1.00  0.00    -0.493 OA
ATOM     14  C   UNL A   1      33.022  23.004  22.372  1.00  0.00     0.278 C 
ENDBRANCH   8  13
BRANCH  10  15
ATOM     15  C   UNL A   1      29.775  26.366  24.592  1.00  0.00     0.141 C 
ATOM     16  N   UNL A   1      29.587  26.836  23.397  1.00  0.00    -0.180 NA
BRANCH  16  17
ATOM     17  N   UNL A   1      29.289  28.163  23.274  1.00  0.00    -0.243 N 
ATOM     18  C   UNL A   1      30.061  29.275  23.574  1.00  0.00     0.275 C 
ATOM     19  H   UNL A   1      28.391  28.359  22.921  1.00  0.00     0.194 HD
ATOM     20  O   UNL A   1      29.589  30.404  23.454  1.00  0.00    -0.267 OA
BRANCH  18  21
ATOM     21  C   UNL A   1      31.459  29.132  24.046  1.00  0.00     0.084 A 
ATOM     22  C   UNL A   1      31.762  29.696  25.295  1.00  0.00     0.038 A 
ATOM     23  C   UNL A   1      32.466  28.485  23.321  1.00  0.00     0.128 A 
ATOM     24  C   UNL A   1      33.039  29.546  25.831  1.00  0.00     0.042 A 
ATOM     25  C   UNL A   1      33.742  28.339  23.865  1.00  0.00     0.048 A 
ATOM     26  Cl  UNL A   1      33.393  30.198  27.383  1.00  0.00    -0.084 Cl
ATOM     27  C   UNL A   1      34.025  28.857  25.129  1.00  0.00     0.024 A 
BRANCH  23  28
ATOM     28  O   UNL A   1      32.283  27.949  22.077  1.00  0.00    -0.507 OA
ATOM     29  H   UNL A   1      31.837  28.442  21.416  1.00  0.00     0.293 HD
ENDBRANCH  23  28
ENDBRANCH  18  21
ENDBRANCH  16  17
ENDBRANCH  10  15
ENDBRANCH   6   7
ENDBRANCH   5   6
ENDBRANCH   1   5
BRANCH   3  30
ATOM     30  C   UNL A   1      36.269  20.983  25.010  1.00  0.00     0.116 C 
BRANCH  30  31
ATOM     31  C   UNL A   1      37.781  21.191  25.015  1.00  0.00     0.023 C 
BRANCH  31  32
ATOM     32  C   UNL A   1      38.628  19.918  24.966  1.00  0.00     0.023 C 
BRANCH  32  33
ATOM     33  C   UNL A   1      39.427  19.606  26.224  1.00  0.00     0.116 C 
BRANCH  33  34
ATOM     34  N   UNL A   1      40.656  18.877  25.955  1.00  0.00    -0.352 N 
ATOM     35  C   UNL A   1      41.956  19.319  25.973  1.00  0.00     0.251 C 
ATOM     36  H   UNL A   1      40.537  17.926  25.726  1.00  0.00     0.163 HD
ATOM     37  O   UNL A   1      42.861  18.582  25.607  1.00  0.00    -0.269 OA
BRANCH  35  38
ATOM     38  C   UNL A   1      42.257  20.702  26.401  1.00  0.00     0.039 A 
ATOM     39  C   UNL A   1      42.427  20.961  27.763  1.00  0.00     0.014 A 
ATOM     40  C   UNL A   1      42.384  21.736  25.469  1.00  0.00     0.014 A 
ATOM     41  C   UNL A   1      42.789  22.241  28.184  1.00  0.00     0.010 A 
ATOM     42  C   UNL A   1      42.825  22.990  25.882  1.00  0.00     0.010 A 
ATOM     43  C   UNL A   1      43.028  23.257  27.245  1.00  0.00    -0.014 A 
BRANCH  43  44
ATOM     44  C   UNL A   1      43.474  24.610  27.668  1.00  0.00     0.031 A 
ATOM     45  C   UNL A   1      42.455  25.665  28.004  1.00  0.00     0.074 A 
ATOM     46  C   UNL A   1      44.789  24.902  27.709  1.00  0.00     0.049 A 
ATOM     47  N   UNL A   1      42.637  26.923  28.318  1.00  0.00    -0.248 NA
ATOM     48  C   UNL A   1      41.041  25.258  27.957  1.00  0.00     0.031 C 
ATOM     49  C   UNL A   1      45.874  23.977  27.377  1.00  0.00     0.029 A 
ATOM     50  N   UNL A   1      45.438  26.067  28.038  1.00  0.00    -0.354 N 
ATOM     51  C   UNL A   1      41.367  27.453  28.506  1.00  0.00     0.074 A 
ATOM     52  C   UNL A   1      40.420  26.403  28.202  1.00  0.00     0.031 C 
ATOM     53  C   UNL A   1      47.052  24.600  27.544  1.00  0.00     0.029 A 
ATOM     54  C   UNL A   1      46.807  25.981  27.950  1.00  0.00     0.049 A 
ATOM     55  H   UNL A   1      44.966  26.887  28.312  1.00  0.00     0.167 HD
ATOM     56  C   UNL A   1      41.020  28.692  28.928  1.00  0.00     0.037 A 
ATOM     57  C   UNL A   1      47.754  26.915  28.162  1.00  0.00     0.037 A 
ATOM     58  C   UNL A   1      41.963  29.734  29.242  1.00  0.00     0.049 A 
ATOM     59  C   UNL A   1      47.335  28.301  28.580  1.00  0.00     0.074 A 
ATOM     60  C   UNL A   1      41.713  31.020  29.687  1.00  0.00     0.029 A 
ATOM     61  N   UNL A   1      43.341  29.605  29.146  1.00  0.00    -0.354 N 
ATOM     62  N   UNL A   1      46.131  28.773  28.802  1.00  0.00    -0.248 NA
ATOM     63  C   UNL A   1      48.408  29.283  28.785  1.00  0.00     0.031 C 
ATOM     64  C   UNL A   1      42.935  31.683  29.822  1.00  0.00     0.029 A 
ATOM     65  C   UNL A   1      43.951  30.792  29.516  1.00  0.00     0.049 A 
ATOM     66  H   UNL A   1      43.813  28.790  28.859  1.00  0.00     0.167 HD
ATOM     67  C   UNL A   1      46.309  30.087  29.217  1.00  0.00     0.074 A 
ATOM     68  C   UNL A   1      47.735  30.333  29.229  1.00  0.00     0.031 C 
ATOM     69  C   UNL A   1      45.374  31.008  29.555  1.00  0.00     0.037 A 
BRANCH  56  70
ATOM     70  C   UNL A   1      39.558  28.986  29.099  1.00  0.00     0.064 A 
ATOM     71  C   UNL A   1      38.932  28.870  30.351  1.00  0.00     0.173 A 
ATOM     72  C   UNL A   1      38.784  29.437  28.020  1.00  0.00     0.173 A 
ATOM     73  F   UNL A   1      39.624  28.431  31.413  1.00  0.00    -0.203 F 
ATOM     74  C   UNL A   1      37.584  29.176  30.510  1.00  0.00     0.198 A 
ATOM     75  C   UNL A   1      37.443  29.773  28.190  1.00  0.00     0.198 A 
ATOM     76  F   UNL A   1      39.332  29.570  26.802  1.00  0.00    -0.203 F 
ATOM     77  F   UNL A   1      36.999  29.015  31.705  1.00  0.00    -0.200 F 
ATOM     78  C   UNL A   1      36.842  29.636  29.432  1.00  0.00     0.200 A 
ATOM     79  F   UNL A   1      36.732  30.230  27.151  1.00  0.00    -0.200 F 
ATOM     80  F   UNL A   1      35.548  29.942  29.590  1.00  0.00    -0.200 F 
ENDBRANCH  56  70
BRANCH  57  81
ATOM     81  C   UNL A   1      49.196  26.584  27.997  1.00  0.00     0.064 A 
ATOM     82  C   UNL A   1      50.000  26.292  29.109  1.00  0.00     0.173 A 
ATOM     83  C   UNL A   1      49.816  26.615  26.739  1.00  0.00     0.173 A 
ATOM     84  F   UNL A   1      49.461  26.269  30.336  1.00  0.00    -0.203 F 
ATOM     85  C   UNL A   1      51.373  26.089  28.975  1.00  0.00     0.198 A 
ATOM     86  C   UNL A   1      51.181  26.376  26.601  1.00  0.00     0.198 A 
ATOM     87  F   UNL A   1      49.094  26.884  25.640  1.00  0.00    -0.203 F 
ATOM     88  F   UNL A   1      52.126  25.887  30.064  1.00  0.00    -0.200 F 
ATOM     89  C   UNL A   1      51.962  26.130  27.721  1.00  0.00     0.200 A 
ATOM     90  F   UNL A   1      51.745  26.400  25.385  1.00  0.00    -0.200 F 
ATOM     91  F   UNL A   1      53.283  25.947  27.593  1.00  0.00    -0.200 F 
ENDBRANCH  57  81
BRANCH  69  92
ATOM     92  C   UNL A   1      45.864  32.345  30.037  1.00  0.00     0.064 A 
ATOM     93  C   UNL A   1      46.147  32.588  31.389  1.00  0.00     0.173 A 
ATOM     94  C   UNL A   1      46.089  33.384  29.122  1.00  0.00     0.173 A 
ATOM     95  F   UNL A   1      45.936  31.633  32.307  1.00  0.00    -0.203 F 
ATOM     96  C   UNL A   1      46.604  33.835  31.811  1.00  0.00     0.198 A 
ATOM     97  C   UNL A   1      46.580  34.617  29.543  1.00  0.00     0.198 A 
ATOM     98  F   UNL A   1      45.844  33.201  27.815  1.00  0.00    -0.203 F 
ATOM     99  F   UNL A   1      46.812  34.062  33.115  1.00  0.00    -0.200 F 
ATOM    100  C   UNL A   1      46.828  34.844  30.887  1.00  0.00     0.200 A 
ATOM    101  F   UNL A   1      46.812  35.585  28.645  1.00  0.00    -0.200 F 
ATOM    102  F   UNL A   1      47.275  36.040  31.294  1.00  0.00    -0.200 F 
ENDBRANCH  69  92
ENDBRANCH  43  44
ENDBRANCH  35  38
ENDBRANCH  33  34
ENDBRANCH  32  33
ENDBRANCH  31  32
ENDBRANCH  30  31
ENDBRANCH   3  30
TORSDOF 18
ENDMDL
