MODEL 1
REMARK VINA RESULT:     -13.2      0.000      0.000
REMARK SMILES CCn1ccc(NC(=O)[C@H]2[C@@H](C(=O)NCCCCNC(=O)c3ccc(-c4c5nc(c(-c6c(F)c(F)c(F)c(F)c6F)c6ccc([nH]6)c(-c6c(F)c(F)c(F)c(F)c6F)c6nc(c(-c7c(F)c(F)c(F)c(F)c7F)c7ccc4[nH]7)C=C6)C=C5)cc3)[C@H]3C=C[C@@H]2C3)n1
REMARK SMILES IDX 16 1 15 2 14 3 12 4 13 5 11 7 10 8 88 9 85 10 87 11 89 12
REMARK SMILES IDX 86 13 8 14 7 15 9 17 6 18 3 19 4 20 90 21 5 22 2 23 1 24
REMARK SMILES IDX 17 25 18 26 19 27 20 28 21 30 22 31 23 32 84 33 24 34 83 35
REMARK SMILES IDX 25 36 26 37 27 38 77 39 28 40 82 41 76 42 78 43 29 44 81 45
REMARK SMILES IDX 75 46 74 47 30 49 62 50 42 51 61 52 43 53 46 54 60 55 79 56
REMARK SMILES IDX 44 57 45 58 59 60 80 61 47 62 31 63 32 64 40 65 33 66 34 67
REMARK SMILES IDX 38 68 41 69 35 70 36 71 39 72 37 73 63 74 64 75 72 76 65 77
REMARK SMILES IDX 66 78 70 79 73 80 67 81 68 82 71 83 69 84 48 85 49 86 57 87
REMARK SMILES IDX 50 88 51 89 55 90 58 91 52 92 53 93 56 94 54 95
REMARK H PARENT 14 6 7 16 19 29 78 48 46 59
REMARK Flexibility Score: inf
ROOT
ATOM      1  C   UNL A   1      31.801  28.292  26.799  1.00  0.00     0.023 C 
ENDROOT
BRANCH   1   2
ATOM      2  C   UNL A   1      32.858  27.310  26.287  1.00  0.00     0.116 C 
BRANCH   2   3
ATOM      3  N   UNL A   1      32.303  25.988  26.087  1.00  0.00    -0.356 N 
ATOM      4  C   UNL A   1      32.834  24.828  25.639  1.00  0.00     0.224 C 
ATOM      5  O   UNL A   1      32.068  23.852  25.658  1.00  0.00    -0.275 OA
ATOM      6  H   UNL A   1      31.350  25.920  26.326  1.00  0.00     0.163 HD
BRANCH   4   7
ATOM      7  C   UNL A   1      34.247  24.620  25.090  1.00  0.00     0.098 C 
ATOM      8  C   UNL A   1      34.548  24.292  23.586  1.00  0.00     0.099 C 
ATOM      9  C   UNL A   1      35.627  23.179  23.735  1.00  0.00     0.025 C 
ATOM     10  C   UNL A   1      35.229  23.699  25.875  1.00  0.00     0.025 C 
ATOM     11  C   UNL A   1      35.097  21.940  24.398  1.00  0.00    -0.027 C 
ATOM     12  C   UNL A   1      36.433  23.734  24.925  1.00  0.00     0.017 C 
ATOM     13  C   UNL A   1      34.936  22.236  25.692  1.00  0.00    -0.027 C 
BRANCH   8  14
ATOM     14  C   UNL A   1      33.383  24.067  22.630  1.00  0.00     0.230 C 
ATOM     15  N   UNL A   1      32.637  25.100  22.158  1.00  0.00    -0.309 N 
ATOM     16  H   UNL A   1      31.995  24.843  21.458  1.00  0.00     0.171 HD
ATOM     17  O   UNL A   1      33.031  22.937  22.282  1.00  0.00    -0.274 OA
BRANCH  15  18
ATOM     18  C   UNL A   1      32.611  26.430  22.472  1.00  0.00     0.154 A 
ATOM     19  N   UNL A   1      31.705  28.270  22.979  1.00  0.00    -0.271 N 
ATOM     20  C   UNL A   1      32.988  28.601  22.671  1.00  0.00     0.111 A 
ATOM     21  N   UNL A   1      31.462  26.950  22.905  1.00  0.00    -0.155 NA
ATOM     22  C   UNL A   1      33.628  27.408  22.447  1.00  0.00     0.068 A 
BRANCH  19  23
ATOM     23  C   UNL A   1      30.680  29.179  23.451  1.00  0.00     0.141 C 
ATOM     24  C   UNL A   1      29.301  28.648  23.108  1.00  0.00     0.029 C 
ENDBRANCH  19  23
ENDBRANCH  15  18
ENDBRANCH   8  14
ENDBRANCH   4   7
ENDBRANCH   2   3
ENDBRANCH   1   2
BRANCH   1  25
ATOM     25  C   UNL A   1      32.239  29.752  26.928  1.00  0.00     0.023 C 
BRANCH  25  26
ATOM     26  C   UNL A   1      33.709  29.945  27.275  1.00  0.00     0.116 C 
BRANCH  26  27
ATOM     27  N   UNL A   1      34.156  31.343  27.175  1.00  0.00    -0.352 N 
ATOM     28  C   UNL A   1      35.229  31.935  27.812  1.00  0.00     0.251 C 
ATOM     29  H   UNL A   1      33.627  31.926  26.585  1.00  0.00     0.163 HD
ATOM     30  O   UNL A   1      35.290  33.156  27.983  1.00  0.00    -0.269 OA
BRANCH  28  31
ATOM     31  C   UNL A   1      36.330  31.072  28.249  1.00  0.00     0.039 A 
ATOM     32  C   UNL A   1      36.405  29.712  27.935  1.00  0.00     0.014 A 
ATOM     33  C   UNL A   1      37.358  31.716  28.929  1.00  0.00     0.014 A 
ATOM     34  C   UNL A   1      37.574  29.024  28.253  1.00  0.00     0.010 A 
ATOM     35  C   UNL A   1      38.571  31.104  29.026  1.00  0.00     0.010 A 
ATOM     36  C   UNL A   1      38.656  29.740  28.787  1.00  0.00    -0.014 A 
BRANCH  36  37
ATOM     37  C   UNL A   1      39.941  29.122  29.062  1.00  0.00     0.031 A 
ATOM     38  C   UNL A   1      40.216  28.865  30.496  1.00  0.00     0.074 A 
ATOM     39  C   UNL A   1      40.695  28.593  28.073  1.00  0.00     0.049 A 
ATOM     40  N   UNL A   1      41.085  29.461  31.241  1.00  0.00    -0.248 NA
ATOM     41  C   UNL A   1      39.334  27.946  31.232  1.00  0.00     0.031 C 
ATOM     42  C   UNL A   1      40.385  28.461  26.644  1.00  0.00     0.029 A 
ATOM     43  N   UNL A   1      41.884  27.947  28.174  1.00  0.00    -0.354 N 
ATOM     44  C   UNL A   1      41.005  28.853  32.490  1.00  0.00     0.074 A 
ATOM     45  C   UNL A   1      39.790  28.082  32.480  1.00  0.00     0.031 C 
ATOM     46  C   UNL A   1      41.235  27.579  26.073  1.00  0.00     0.029 A 
ATOM     47  C   UNL A   1      42.246  27.219  27.047  1.00  0.00     0.049 A 
ATOM     48  H   UNL A   1      42.444  27.988  28.982  1.00  0.00     0.167 HD
ATOM     49  C   UNL A   1      42.081  28.848  33.329  1.00  0.00     0.037 A 
ATOM     50  C   UNL A   1      43.285  26.350  26.965  1.00  0.00     0.037 A 
ATOM     51  C   UNL A   1      43.084  29.784  32.876  1.00  0.00     0.049 A 
ATOM     52  C   UNL A   1      44.214  26.686  28.081  1.00  0.00     0.074 A 
ATOM     53  C   UNL A   1      43.096  31.145  32.637  1.00  0.00     0.029 A 
ATOM     54  N   UNL A   1      44.169  29.280  32.196  1.00  0.00    -0.354 N 
ATOM     55  N   UNL A   1      44.891  27.800  28.142  1.00  0.00    -0.248 NA
ATOM     56  C   UNL A   1      43.995  26.017  29.357  1.00  0.00     0.031 C 
ATOM     57  C   UNL A   1      43.848  31.298  31.434  1.00  0.00     0.029 A 
ATOM     58  C   UNL A   1      44.329  30.041  31.066  1.00  0.00     0.049 A 
ATOM     59  H   UNL A   1      44.727  28.517  32.470  1.00  0.00     0.167 HD
ATOM     60  C   UNL A   1      44.799  28.196  29.470  1.00  0.00     0.074 A 
ATOM     61  C   UNL A   1      44.295  27.023  30.184  1.00  0.00     0.031 C 
ATOM     62  C   UNL A   1      44.840  29.516  29.821  1.00  0.00     0.037 A 
BRANCH  49  63
ATOM     63  C   UNL A   1      42.414  27.755  34.318  1.00  0.00     0.064 A 
ATOM     64  C   UNL A   1      43.020  26.573  33.839  1.00  0.00     0.173 A 
ATOM     65  C   UNL A   1      41.897  27.683  35.628  1.00  0.00     0.173 A 
ATOM     66  F   UNL A   1      43.549  26.526  32.607  1.00  0.00    -0.203 F 
ATOM     67  C   UNL A   1      43.007  25.385  34.574  1.00  0.00     0.198 A 
ATOM     68  C   UNL A   1      41.935  26.509  36.380  1.00  0.00     0.198 A 
ATOM     69  F   UNL A   1      41.234  28.695  36.195  1.00  0.00    -0.203 F 
ATOM     70  F   UNL A   1      43.466  24.256  34.018  1.00  0.00    -0.200 F 
ATOM     71  C   UNL A   1      42.454  25.352  35.839  1.00  0.00     0.200 A 
ATOM     72  F   UNL A   1      41.384  26.492  37.602  1.00  0.00    -0.200 F 
ATOM     73  F   UNL A   1      42.377  24.200  36.518  1.00  0.00    -0.200 F 
ENDBRANCH  49  63
BRANCH  50  74
ATOM     74  C   UNL A   1      43.348  25.064  26.226  1.00  0.00     0.064 A 
ATOM     75  C   UNL A   1      44.338  24.840  25.254  1.00  0.00     0.173 A 
ATOM     76  C   UNL A   1      42.626  23.930  26.650  1.00  0.00     0.173 A 
ATOM     77  F   UNL A   1      45.097  25.857  24.819  1.00  0.00    -0.203 F 
ATOM     78  C   UNL A   1      44.617  23.557  24.769  1.00  0.00     0.198 A 
ATOM     79  C   UNL A   1      42.901  22.652  26.159  1.00  0.00     0.198 A 
ATOM     80  F   UNL A   1      41.704  24.022  27.618  1.00  0.00    -0.203 F 
ATOM     81  F   UNL A   1      45.616  23.377  23.893  1.00  0.00    -0.200 F 
ATOM     82  C   UNL A   1      43.907  22.463  25.233  1.00  0.00     0.200 A 
ATOM     83  F   UNL A   1      42.228  21.597  26.640  1.00  0.00    -0.200 F 
ATOM     84  F   UNL A   1      44.219  21.227  24.818  1.00  0.00    -0.200 F 
ENDBRANCH  50  74
BRANCH  62  85
ATOM     85  C   UNL A   1      45.225  30.523  28.772  1.00  0.00     0.064 A 
ATOM     86  C   UNL A   1      44.319  31.137  27.890  1.00  0.00     0.173 A 
ATOM     87  C   UNL A   1      46.543  31.002  28.772  1.00  0.00     0.173 A 
ATOM     88  F   UNL A   1      43.021  30.817  27.898  1.00  0.00    -0.203 F 
ATOM     89  C   UNL A   1      44.726  32.149  27.019  1.00  0.00     0.198 A 
ATOM     90  C   UNL A   1      46.938  32.038  27.929  1.00  0.00     0.198 A 
ATOM     91  F   UNL A   1      47.441  30.497  29.632  1.00  0.00    -0.203 F 
ATOM     92  F   UNL A   1      43.842  32.709  26.179  1.00  0.00    -0.200 F 
ATOM     93  C   UNL A   1      46.034  32.603  27.045  1.00  0.00     0.200 A 
ATOM     94  F   UNL A   1      48.191  32.507  27.997  1.00  0.00    -0.200 F 
ATOM     95  F   UNL A   1      46.416  33.603  26.239  1.00  0.00    -0.200 F 
ENDBRANCH  62  85
ENDBRANCH  36  37
ENDBRANCH  28  31
ENDBRANCH  26  27
ENDBRANCH  25  26
ENDBRANCH   1  25
TORSDOF 14
ENDMDL
MODEL 2
REMARK VINA RESULT:     -13.2      3.039      8.396
REMARK SMILES CCn1ccc(NC(=O)[C@H]2[C@@H](C(=O)NCCCCNC(=O)c3ccc(-c4c5nc(c(-c6c(F)c(F)c(F)c(F)c6F)c6ccc([nH]6)c(-c6c(F)c(F)c(F)c(F)c6F)c6nc(c(-c7c(F)c(F)c(F)c(F)c7F)c7ccc4[nH]7)C=C6)C=C5)cc3)[C@H]3C=C[C@@H]2C3)n1
REMARK SMILES IDX 16 1 15 2 14 3 12 4 13 5 11 7 10 8 88 9 85 10 87 11 89 12
REMARK SMILES IDX 86 13 8 14 7 15 9 17 6 18 3 19 4 20 90 21 5 22 2 23 1 24
REMARK SMILES IDX 17 25 18 26 19 27 20 28 21 30 22 31 23 32 84 33 24 34 83 35
REMARK SMILES IDX 25 36 26 37 27 38 77 39 28 40 82 41 76 42 78 43 29 44 81 45
REMARK SMILES IDX 75 46 74 47 30 49 62 50 42 51 61 52 43 53 46 54 60 55 79 56
REMARK SMILES IDX 44 57 45 58 59 60 80 61 47 62 31 63 32 64 40 65 33 66 34 67
REMARK SMILES IDX 38 68 41 69 35 70 36 71 39 72 37 73 63 74 64 75 72 76 65 77
REMARK SMILES IDX 66 78 70 79 73 80 67 81 68 82 71 83 69 84 48 85 49 86 57 87
REMARK SMILES IDX 50 88 51 89 55 90 58 91 52 92 53 93 56 94 54 95
REMARK H PARENT 14 6 7 16 19 29 78 48 46 59
REMARK Flexibility Score: inf
ROOT
ATOM      1  C   UNL A   1      37.425  22.126  24.754  1.00  0.00     0.023 C 
ENDROOT
BRANCH   1   2
ATOM      2  C   UNL A   1      37.118  23.425  25.504  1.00  0.00     0.116 C 
BRANCH   2   3
ATOM      3  N   UNL A   1      36.101  23.228  26.515  1.00  0.00    -0.356 N 
ATOM      4  C   UNL A   1      34.766  23.018  26.445  1.00  0.00     0.224 C 
ATOM      5  O   UNL A   1      34.203  22.824  27.534  1.00  0.00    -0.275 OA
ATOM      6  H   UNL A   1      36.450  23.250  27.435  1.00  0.00     0.163 HD
BRANCH   4   7
ATOM      7  C   UNL A   1      33.902  23.035  25.183  1.00  0.00     0.098 C 
ATOM      8  C   UNL A   1      32.417  23.539  25.162  1.00  0.00     0.099 C 
ATOM      9  C   UNL A   1      31.745  22.445  24.282  1.00  0.00     0.025 C 
ATOM     10  C   UNL A   1      33.879  21.771  24.273  1.00  0.00     0.025 C 
ATOM     11  C   UNL A   1      31.779  21.085  24.917  1.00  0.00    -0.027 C 
ATOM     12  C   UNL A   1      32.848  22.221  23.229  1.00  0.00     0.017 C 
ATOM     13  C   UNL A   1      33.043  20.655  24.837  1.00  0.00    -0.027 C 
BRANCH   8  14
ATOM     14  C   UNL A   1      31.753  23.942  26.473  1.00  0.00     0.230 C 
ATOM     15  N   UNL A   1      31.695  25.238  26.875  1.00  0.00    -0.309 N 
ATOM     16  H   UNL A   1      31.138  25.386  27.673  1.00  0.00     0.171 HD
ATOM     17  O   UNL A   1      31.285  23.108  27.253  1.00  0.00    -0.274 OA
BRANCH  15  18
ATOM     18  C   UNL A   1      32.264  26.378  26.378  1.00  0.00     0.154 A 
ATOM     19  N   UNL A   1      32.273  28.336  25.585  1.00  0.00    -0.271 N 
ATOM     20  C   UNL A   1      33.544  27.892  25.396  1.00  0.00     0.111 A 
ATOM     21  N   UNL A   1      31.485  27.449  26.217  1.00  0.00    -0.155 NA
ATOM     22  C   UNL A   1      33.595  26.663  26.005  1.00  0.00     0.068 A 
BRANCH  19  23
ATOM     23  C   UNL A   1      31.775  29.658  25.261  1.00  0.00     0.141 C 
ATOM     24  C   UNL A   1      31.970  30.601  26.434  1.00  0.00     0.029 C 
ENDBRANCH  19  23
ENDBRANCH  15  18
ENDBRANCH   8  14
ENDBRANCH   4   7
ENDBRANCH   2   3
ENDBRANCH   1   2
BRANCH   1  25
ATOM     25  C   UNL A   1      38.390  21.159  25.442  1.00  0.00     0.023 C 
BRANCH  25  26
ATOM     26  C   UNL A   1      39.409  21.823  26.357  1.00  0.00     0.116 C 
BRANCH  26  27
ATOM     27  N   UNL A   1      40.789  21.745  25.852  1.00  0.00    -0.352 N 
ATOM     28  C   UNL A   1      41.721  22.760  25.776  1.00  0.00     0.251 C 
ATOM     29  H   UNL A   1      41.082  20.862  25.529  1.00  0.00     0.163 HD
ATOM     30  O   UNL A   1      42.678  22.708  24.999  1.00  0.00    -0.269 OA
BRANCH  28  31
ATOM     31  C   UNL A   1      41.570  23.901  26.685  1.00  0.00     0.039 A 
ATOM     32  C   UNL A   1      42.197  23.973  27.932  1.00  0.00     0.014 A 
ATOM     33  C   UNL A   1      40.825  24.964  26.186  1.00  0.00     0.014 A 
ATOM     34  C   UNL A   1      42.125  25.170  28.639  1.00  0.00     0.010 A 
ATOM     35  C   UNL A   1      40.951  26.189  26.768  1.00  0.00     0.010 A 
ATOM     36  C   UNL A   1      41.508  26.277  28.036  1.00  0.00    -0.014 A 
BRANCH  36  37
ATOM     37  C   UNL A   1      41.468  27.586  28.663  1.00  0.00     0.031 A 
ATOM     38  C   UNL A   1      42.544  28.514  28.236  1.00  0.00     0.074 A 
ATOM     39  C   UNL A   1      40.393  27.999  29.369  1.00  0.00     0.049 A 
ATOM     40  N   UNL A   1      43.537  28.932  28.944  1.00  0.00    -0.248 NA
ATOM     41  C   UNL A   1      42.612  28.915  26.821  1.00  0.00     0.031 C 
ATOM     42  C   UNL A   1      39.109  27.318  29.578  1.00  0.00     0.029 A 
ATOM     43  N   UNL A   1      40.188  29.198  29.968  1.00  0.00    -0.354 N 
ATOM     44  C   UNL A   1      44.248  29.812  28.133  1.00  0.00     0.074 A 
ATOM     45  C   UNL A   1      43.755  29.606  26.797  1.00  0.00     0.031 C 
ATOM     46  C   UNL A   1      38.195  28.201  30.038  1.00  0.00     0.029 A 
ATOM     47  C   UNL A   1      38.867  29.455  30.317  1.00  0.00     0.049 A 
ATOM     48  H   UNL A   1      40.917  29.837  30.141  1.00  0.00     0.167 HD
ATOM     49  C   UNL A   1      45.003  30.806  28.683  1.00  0.00     0.037 A 
ATOM     50  C   UNL A   1      38.381  30.643  30.755  1.00  0.00     0.037 A 
ATOM     51  C   UNL A   1      45.187  30.582  30.098  1.00  0.00     0.049 A 
ATOM     52  C   UNL A   1      39.546  31.427  31.252  1.00  0.00     0.074 A 
ATOM     53  C   UNL A   1      45.730  29.557  30.850  1.00  0.00     0.029 A 
ATOM     54  N   UNL A   1      44.402  31.302  30.968  1.00  0.00    -0.354 N 
ATOM     55  N   UNL A   1      40.241  31.095  32.306  1.00  0.00    -0.248 NA
ATOM     56  C   UNL A   1      40.239  32.277  30.290  1.00  0.00     0.031 C 
ATOM     57  C   UNL A   1      44.846  29.413  31.961  1.00  0.00     0.029 A 
ATOM     58  C   UNL A   1      43.878  30.414  31.873  1.00  0.00     0.049 A 
ATOM     59  H   UNL A   1      44.244  32.273  30.945  1.00  0.00     0.167 HD
ATOM     60  C   UNL A   1      41.563  31.311  31.940  1.00  0.00     0.074 A 
ATOM     61  C   UNL A   1      41.494  32.105  30.713  1.00  0.00     0.031 C 
ATOM     62  C   UNL A   1      42.578  30.573  32.481  1.00  0.00     0.037 A 
BRANCH  49  63
ATOM     63  C   UNL A   1      45.254  32.160  28.061  1.00  0.00     0.064 A 
ATOM     64  C   UNL A   1      44.151  33.012  27.834  1.00  0.00     0.173 A 
ATOM     65  C   UNL A   1      46.448  32.528  27.408  1.00  0.00     0.173 A 
ATOM     66  F   UNL A   1      42.963  32.762  28.406  1.00  0.00    -0.203 F 
ATOM     67  C   UNL A   1      44.214  34.080  26.935  1.00  0.00     0.198 A 
ATOM     68  C   UNL A   1      46.521  33.629  26.554  1.00  0.00     0.198 A 
ATOM     69  F   UNL A   1      47.557  31.786  27.469  1.00  0.00    -0.203 F 
ATOM     70  F   UNL A   1      43.103  34.770  26.645  1.00  0.00    -0.200 F 
ATOM     71  C   UNL A   1      45.396  34.380  26.288  1.00  0.00     0.200 A 
ATOM     72  F   UNL A   1      47.674  33.898  25.926  1.00  0.00    -0.200 F 
ATOM     73  F   UNL A   1      45.443  35.358  25.375  1.00  0.00    -0.200 F 
ENDBRANCH  49  63
BRANCH  50  74
ATOM     74  C   UNL A   1      37.064  31.261  30.456  1.00  0.00     0.064 A 
ATOM     75  C   UNL A   1      36.165  31.576  31.488  1.00  0.00     0.173 A 
ATOM     76  C   UNL A   1      36.778  31.815  29.191  1.00  0.00     0.173 A 
ATOM     77  F   UNL A   1      36.380  31.120  32.731  1.00  0.00    -0.203 F 
ATOM     78  C   UNL A   1      35.071  32.424  31.279  1.00  0.00     0.198 A 
ATOM     79  C   UNL A   1      35.683  32.656  28.983  1.00  0.00     0.198 A 
ATOM     80  F   UNL A   1      37.605  31.631  28.154  1.00  0.00    -0.203 F 
ATOM     81  F   UNL A   1      34.276  32.755  32.306  1.00  0.00    -0.200 F 
ATOM     82  C   UNL A   1      34.840  32.974  30.030  1.00  0.00     0.200 A 
ATOM     83  F   UNL A   1      35.488  33.207  27.777  1.00  0.00    -0.200 F 
ATOM     84  F   UNL A   1      33.833  33.840  29.845  1.00  0.00    -0.200 F 
ENDBRANCH  50  74
BRANCH  62  85
ATOM     85  C   UNL A   1      42.269  29.685  33.655  1.00  0.00     0.064 A 
ATOM     86  C   UNL A   1      41.781  28.370  33.550  1.00  0.00     0.173 A 
ATOM     87  C   UNL A   1      42.636  30.131  34.932  1.00  0.00     0.173 A 
ATOM     88  F   UNL A   1      41.508  27.827  32.360  1.00  0.00    -0.203 F 
ATOM     89  C   UNL A   1      41.626  27.561  34.677  1.00  0.00     0.198 A 
ATOM     90  C   UNL A   1      42.517  29.309  36.049  1.00  0.00     0.198 A 
ATOM     91  F   UNL A   1      43.163  31.355  35.090  1.00  0.00    -0.203 F 
ATOM     92  F   UNL A   1      41.147  26.315  34.548  1.00  0.00    -0.200 F 
ATOM     93  C   UNL A   1      42.002  28.030  35.924  1.00  0.00     0.200 A 
ATOM     94  F   UNL A   1      42.930  29.750  37.245  1.00  0.00    -0.200 F 
ATOM     95  F   UNL A   1      41.893  27.239  37.001  1.00  0.00    -0.200 F 
ENDBRANCH  62  85
ENDBRANCH  36  37
ENDBRANCH  28  31
ENDBRANCH  26  27
ENDBRANCH  25  26
ENDBRANCH   1  25
TORSDOF 14
ENDMDL
MODEL 3
REMARK VINA RESULT:     -13.1      2.989      8.443
REMARK SMILES CCn1ccc(NC(=O)[C@H]2[C@@H](C(=O)NCCCCNC(=O)c3ccc(-c4c5nc(c(-c6c(F)c(F)c(F)c(F)c6F)c6ccc([nH]6)c(-c6c(F)c(F)c(F)c(F)c6F)c6nc(c(-c7c(F)c(F)c(F)c(F)c7F)c7ccc4[nH]7)C=C6)C=C5)cc3)[C@H]3C=C[C@@H]2C3)n1
REMARK SMILES IDX 16 1 15 2 14 3 12 4 13 5 11 7 10 8 88 9 85 10 87 11 89 12
REMARK SMILES IDX 86 13 8 14 7 15 9 17 6 18 3 19 4 20 90 21 5 22 2 23 1 24
REMARK SMILES IDX 17 25 18 26 19 27 20 28 21 30 22 31 23 32 84 33 24 34 83 35
REMARK SMILES IDX 25 36 26 37 27 38 77 39 28 40 82 41 76 42 78 43 29 44 81 45
REMARK SMILES IDX 75 46 74 47 30 49 62 50 42 51 61 52 43 53 46 54 60 55 79 56
REMARK SMILES IDX 44 57 45 58 59 60 80 61 47 62 31 63 32 64 40 65 33 66 34 67
REMARK SMILES IDX 38 68 41 69 35 70 36 71 39 72 37 73 63 74 64 75 72 76 65 77
REMARK SMILES IDX 66 78 70 79 73 80 67 81 68 82 71 83 69 84 48 85 49 86 57 87
REMARK SMILES IDX 50 88 51 89 55 90 58 91 52 92 53 93 56 94 54 95
REMARK H PARENT 14 6 7 16 19 29 78 48 46 59
REMARK Flexibility Score: inf
ROOT
ATOM      1  C   UNL A   1      35.912  22.859  23.655  1.00  0.00     0.023 C 
ENDROOT
BRANCH   1   2
ATOM      2  C   UNL A   1      35.218  23.929  24.502  1.00  0.00     0.116 C 
BRANCH   2   3
ATOM      3  N   UNL A   1      34.208  24.636  23.741  1.00  0.00    -0.356 N 
ATOM      4  C   UNL A   1      33.421  25.699  24.026  1.00  0.00     0.224 C 
ATOM      5  O   UNL A   1      32.698  26.087  23.096  1.00  0.00    -0.275 OA
ATOM      6  H   UNL A   1      34.066  24.270  22.838  1.00  0.00     0.163 HD
BRANCH   4   7
ATOM      7  C   UNL A   1      33.317  26.427  25.368  1.00  0.00     0.098 C 
ATOM      8  C   UNL A   1      32.071  26.318  26.313  1.00  0.00     0.099 C 
ATOM      9  C   UNL A   1      31.891  27.805  26.740  1.00  0.00     0.025 C 
ATOM     10  C   UNL A   1      33.705  27.935  25.435  1.00  0.00     0.025 C 
ATOM     11  C   UNL A   1      31.541  28.702  25.588  1.00  0.00    -0.027 C 
ATOM     12  C   UNL A   1      33.365  28.225  26.903  1.00  0.00     0.017 C 
ATOM     13  C   UNL A   1      32.652  28.839  24.856  1.00  0.00    -0.027 C 
BRANCH   8  14
ATOM     14  C   UNL A   1      30.852  25.533  25.844  1.00  0.00     0.230 C 
ATOM     15  N   UNL A   1      30.830  24.175  25.859  1.00  0.00    -0.309 N 
ATOM     16  H   UNL A   1      29.949  23.787  25.649  1.00  0.00     0.171 HD
ATOM     17  O   UNL A   1      29.853  26.090  25.382  1.00  0.00    -0.274 OA
BRANCH  15  18
ATOM     18  C   UNL A   1      31.799  23.244  26.111  1.00  0.00     0.154 A 
ATOM     19  N   UNL A   1      32.946  21.510  25.736  1.00  0.00    -0.271 N 
ATOM     20  C   UNL A   1      33.256  21.847  27.017  1.00  0.00     0.111 A 
ATOM     21  N   UNL A   1      32.092  22.367  25.150  1.00  0.00    -0.155 NA
ATOM     22  C   UNL A   1      32.609  23.036  27.247  1.00  0.00     0.068 A 
BRANCH  19  23
ATOM     23  C   UNL A   1      33.519  20.415  24.980  1.00  0.00     0.141 C 
ATOM     24  C   UNL A   1      32.871  19.101  25.375  1.00  0.00     0.029 C 
ENDBRANCH  19  23
ENDBRANCH  15  18
ENDBRANCH   8  14
ENDBRANCH   4   7
ENDBRANCH   2   3
ENDBRANCH   1   2
BRANCH   1  25
ATOM     25  C   UNL A   1      37.063  22.107  24.325  1.00  0.00     0.023 C 
BRANCH  25  26
ATOM     26  C   UNL A   1      37.759  22.876  25.440  1.00  0.00     0.116 C 
BRANCH  26  27
ATOM     27  N   UNL A   1      38.595  22.027  26.303  1.00  0.00    -0.352 N 
ATOM     28  C   UNL A   1      39.768  22.370  26.945  1.00  0.00     0.251 C 
ATOM     29  H   UNL A   1      38.280  21.105  26.439  1.00  0.00     0.163 HD
ATOM     30  O   UNL A   1      40.586  21.518  27.305  1.00  0.00    -0.269 OA
BRANCH  28  31
ATOM     31  C   UNL A   1      40.006  23.788  27.232  1.00  0.00     0.039 A 
ATOM     32  C   UNL A   1      39.031  24.775  27.060  1.00  0.00     0.014 A 
ATOM     33  C   UNL A   1      41.249  24.085  27.778  1.00  0.00     0.014 A 
ATOM     34  C   UNL A   1      39.304  26.060  27.522  1.00  0.00     0.010 A 
ATOM     35  C   UNL A   1      41.419  25.270  28.427  1.00  0.00     0.010 A 
ATOM     36  C   UNL A   1      40.501  26.289  28.217  1.00  0.00    -0.014 A 
BRANCH  36  37
ATOM     37  C   UNL A   1      40.824  27.574  28.812  1.00  0.00     0.031 A 
ATOM     38  C   UNL A   1      42.000  28.257  28.219  1.00  0.00     0.074 A 
ATOM     39  C   UNL A   1      39.968  28.200  29.649  1.00  0.00     0.049 A 
ATOM     40  N   UNL A   1      43.148  28.453  28.775  1.00  0.00    -0.248 NA
ATOM     41  C   UNL A   1      41.953  28.643  26.800  1.00  0.00     0.031 C 
ATOM     42  C   UNL A   1      38.612  27.804  30.049  1.00  0.00     0.029 A 
ATOM     43  N   UNL A   1      40.105  29.412  30.242  1.00  0.00    -0.354 N 
ATOM     44  C   UNL A   1      43.907  29.168  27.853  1.00  0.00     0.074 A 
ATOM     45  C   UNL A   1      43.201  29.077  26.602  1.00  0.00     0.031 C 
ATOM     46  C   UNL A   1      37.976  28.857  30.609  1.00  0.00     0.029 A 
ATOM     47  C   UNL A   1      38.928  29.940  30.762  1.00  0.00     0.049 A 
ATOM     48  H   UNL A   1      40.967  29.883  30.298  1.00  0.00     0.167 HD
ATOM     49  C   UNL A   1      44.922  29.977  28.270  1.00  0.00     0.037 A 
ATOM     50  C   UNL A   1      38.767  31.201  31.235  1.00  0.00     0.037 A 
ATOM     51  C   UNL A   1      45.251  29.711  29.652  1.00  0.00     0.049 A 
ATOM     52  C   UNL A   1      40.129  31.719  31.548  1.00  0.00     0.074 A 
ATOM     53  C   UNL A   1      45.666  28.591  30.347  1.00  0.00     0.029 A 
ATOM     54  N   UNL A   1      44.762  30.576  30.604  1.00  0.00    -0.354 N 
ATOM     55  N   UNL A   1      40.878  31.242  32.505  1.00  0.00    -0.248 NA
ATOM     56  C   UNL A   1      40.843  32.409  30.481  1.00  0.00     0.031 C 
ATOM     57  C   UNL A   1      44.935  28.629  31.572  1.00  0.00     0.029 A 
ATOM     58  C   UNL A   1      44.196  29.813  31.593  1.00  0.00     0.049 A 
ATOM     59  H   UNL A   1      44.810  31.558  30.580  1.00  0.00     0.167 HD
ATOM     60  C   UNL A   1      42.152  31.177  31.956  1.00  0.00     0.074 A 
ATOM     61  C   UNL A   1      42.081  31.974  30.732  1.00  0.00     0.031 C 
ATOM     62  C   UNL A   1      43.055  30.238  32.370  1.00  0.00     0.037 A 
BRANCH  49  63
ATOM     63  C   UNL A   1      45.362  31.251  27.588  1.00  0.00     0.064 A 
ATOM     64  C   UNL A   1      46.694  31.345  27.128  1.00  0.00     0.173 A 
ATOM     65  C   UNL A   1      44.653  32.469  27.642  1.00  0.00     0.173 A 
ATOM     66  F   UNL A   1      47.463  30.250  27.032  1.00  0.00    -0.203 F 
ATOM     67  C   UNL A   1      47.296  32.575  26.851  1.00  0.00     0.198 A 
ATOM     68  C   UNL A   1      45.242  33.689  27.311  1.00  0.00     0.198 A 
ATOM     69  F   UNL A   1      43.408  32.554  28.119  1.00  0.00    -0.203 F 
ATOM     70  F   UNL A   1      48.602  32.622  26.557  1.00  0.00    -0.200 F 
ATOM     71  C   UNL A   1      46.573  33.746  26.954  1.00  0.00     0.200 A 
ATOM     72  F   UNL A   1      44.528  34.817  27.428  1.00  0.00    -0.200 F 
ATOM     73  F   UNL A   1      47.165  34.931  26.759  1.00  0.00    -0.200 F 
ENDBRANCH  49  63
BRANCH  50  74
ATOM     74  C   UNL A   1      37.581  32.084  31.104  1.00  0.00     0.064 A 
ATOM     75  C   UNL A   1      37.273  32.699  29.879  1.00  0.00     0.173 A 
ATOM     76  C   UNL A   1      36.572  32.119  32.088  1.00  0.00     0.173 A 
ATOM     77  F   UNL A   1      38.162  32.682  28.875  1.00  0.00    -0.203 F 
ATOM     78  C   UNL A   1      36.020  33.275  29.639  1.00  0.00     0.198 A 
ATOM     79  C   UNL A   1      35.325  32.700  31.849  1.00  0.00     0.198 A 
ATOM     80  F   UNL A   1      36.738  31.508  33.269  1.00  0.00    -0.203 F 
ATOM     81  F   UNL A   1      35.742  33.790  28.433  1.00  0.00    -0.200 F 
ATOM     82  C   UNL A   1      35.043  33.262  30.619  1.00  0.00     0.200 A 
ATOM     83  F   UNL A   1      34.377  32.654  32.796  1.00  0.00    -0.200 F 
ATOM     84  F   UNL A   1      33.821  33.753  30.367  1.00  0.00    -0.200 F 
ENDBRANCH  50  74
BRANCH  62  85
ATOM     85  C   UNL A   1      42.733  29.429  33.596  1.00  0.00     0.064 A 
ATOM     86  C   UNL A   1      42.041  28.205  33.581  1.00  0.00     0.173 A 
ATOM     87  C   UNL A   1      43.292  29.833  34.816  1.00  0.00     0.173 A 
ATOM     88  F   UNL A   1      41.568  27.692  32.441  1.00  0.00    -0.203 F 
ATOM     89  C   UNL A   1      41.878  27.449  34.742  1.00  0.00     0.198 A 
ATOM     90  C   UNL A   1      43.161  29.057  35.966  1.00  0.00     0.198 A 
ATOM     91  F   UNL A   1      44.014  30.962  34.883  1.00  0.00    -0.203 F 
ATOM     92  F   UNL A   1      41.202  26.290  34.700  1.00  0.00    -0.200 F 
ATOM     93  C   UNL A   1      42.445  27.873  35.931  1.00  0.00     0.200 A 
ATOM     94  F   UNL A   1      43.757  29.447  37.101  1.00  0.00    -0.200 F 
ATOM     95  F   UNL A   1      42.326  27.126  37.038  1.00  0.00    -0.200 F 
ENDBRANCH  62  85
ENDBRANCH  36  37
ENDBRANCH  28  31
ENDBRANCH  26  27
ENDBRANCH  25  26
ENDBRANCH   1  25
TORSDOF 14
ENDMDL
