MODEL 1
REMARK VINA RESULT:     -13.7      0.000      0.000
REMARK SMILES COc1ccc([C@H]2CC(c3ccc(S(C)(=O)=O)cc3)=NN2c2ccc(C(=O)NCCCCNC(=O)c3ccc(-c4c5nc(c(-c6c(F)c(F)c(F)c(F)c6F)c6ccc([nH]6)c(-c6c(F)c(F)c(F)c(F)c6F)c6nc(c(-c7c(F)c(F)c(F)c(F)c7F)c7ccc4[nH]7)C=C6)C=C5)cc3)cc2)cc1
REMARK SMILES IDX 30 1 29 2 28 3 26 4 27 5 25 7 22 8 23 9 100 10 24 11 99 12
REMARK SMILES IDX 21 13 7 14 8 15 9 16 20 17 6 18 3 19 4 20 102 21 5 22 101 23
REMARK SMILES IDX 2 24 1 25 10 26 11 27 19 28 12 29 18 30 13 31 14 32 15 33
REMARK SMILES IDX 16 34 17 35 31 36 32 37 33 38 34 39 35 41 36 42 37 43 98 44
REMARK SMILES IDX 38 45 97 46 39 47 40 48 41 49 91 50 42 51 96 52 90 53 92 54
REMARK SMILES IDX 43 55 95 56 89 57 88 58 44 60 76 61 56 62 75 63 57 64 60 65
REMARK SMILES IDX 74 66 93 67 58 68 59 69 73 71 94 72 61 73 45 74 46 75 54 76
REMARK SMILES IDX 47 77 48 78 52 79 55 80 49 81 50 82 53 83 51 84 77 85 78 86
REMARK SMILES IDX 86 87 79 88 80 89 84 90 87 91 81 92 82 93 85 94 83 95 62 96
REMARK SMILES IDX 63 97 71 98 64 99 65 100 69 101 72 102 66 103 67 104 70 105
REMARK SMILES IDX 68 106
REMARK H PARENT 28 6 33 40 92 59 60 70
REMARK Flexibility Score: inf
ROOT
ATOM      1  C   UNL A   1      40.480  20.068  26.348  1.00  0.00     0.023 C 
ENDROOT
BRANCH   1   2
ATOM      2  C   UNL A   1      39.407  21.044  25.860  1.00  0.00     0.116 C 
BRANCH   2   3
ATOM      3  N   UNL A   1      39.623  22.358  26.427  1.00  0.00    -0.352 N 
ATOM      4  C   UNL A   1      38.881  23.511  26.384  1.00  0.00     0.251 C 
ATOM      5  O   UNL A   1      39.326  24.489  26.987  1.00  0.00    -0.269 OA
ATOM      6  H   UNL A   1      40.459  22.440  26.941  1.00  0.00     0.163 HD
BRANCH   4   7
ATOM      7  C   UNL A   1      37.559  23.616  25.701  1.00  0.00     0.039 A 
ATOM      8  C   UNL A   1      34.955  23.812  24.596  1.00  0.00     0.060 A 
ATOM      9  C   UNL A   1      35.212  24.223  25.907  1.00  0.00     0.029 A 
ATOM     10  C   UNL A   1      36.030  23.363  23.827  1.00  0.00     0.029 A 
ATOM     11  C   UNL A   1      36.491  24.109  26.461  1.00  0.00     0.016 A 
ATOM     12  C   UNL A   1      37.323  23.300  24.361  1.00  0.00     0.016 A 
BRANCH   8  13
ATOM     13  N   UNL A   1      33.668  23.885  24.090  1.00  0.00    -0.257 N 
ATOM     14  C   UNL A   1      33.141  22.983  23.066  1.00  0.00     0.144 C 
ATOM     15  C   UNL A   1      31.837  23.674  22.646  1.00  0.00     0.091 C 
ATOM     16  C   UNL A   1      31.971  24.960  23.407  1.00  0.00     0.071 C 
ATOM     17  N   UNL A   1      32.993  25.060  24.196  1.00  0.00    -0.176 NA
BRANCH  14  18
ATOM     18  C   UNL A   1      32.909  21.586  23.615  1.00  0.00    -0.023 A 
ATOM     19  C   UNL A   1      32.435  18.997  24.634  1.00  0.00     0.118 A 
ATOM     20  C   UNL A   1      32.166  19.295  23.297  1.00  0.00     0.047 A 
ATOM     21  C   UNL A   1      32.972  19.985  25.458  1.00  0.00     0.047 A 
ATOM     22  C   UNL A   1      32.392  20.578  22.791  1.00  0.00     0.010 A 
ATOM     23  C   UNL A   1      33.209  21.267  24.950  1.00  0.00     0.010 A 
BRANCH  19  24
ATOM     24  O   UNL A   1      32.164  17.710  25.009  1.00  0.00    -0.497 OA
ATOM     25  C   UNL A   1      33.286  16.915  25.374  1.00  0.00     0.278 C 
ENDBRANCH  19  24
ENDBRANCH  14  18
BRANCH  16  26
ATOM     26  C   UNL A   1      31.003  26.041  23.228  1.00  0.00    -0.002 A 
ATOM     27  C   UNL A   1      31.357  27.136  22.435  1.00  0.00     0.011 A 
ATOM     28  C   UNL A   1      29.764  25.980  23.867  1.00  0.00     0.011 A 
ATOM     29  C   UNL A   1      30.450  28.182  22.264  1.00  0.00     0.021 A 
ATOM     30  C   UNL A   1      28.865  27.036  23.717  1.00  0.00     0.021 A 
ATOM     31  C   UNL A   1      29.215  28.132  22.920  1.00  0.00     0.067 A 
BRANCH  31  32
ATOM     32  S   UNL A   1      28.076  29.481  22.718  1.00  0.00     0.175 S 
ATOM     33  C   UNL A   1      28.863  30.838  23.548  1.00  0.00     0.163 C 
ATOM     34  O   UNL A   1      28.025  29.775  21.299  1.00  0.00    -0.224 OA
ATOM     35  O   UNL A   1      26.872  29.153  23.459  1.00  0.00    -0.224 OA
ENDBRANCH  31  32
ENDBRANCH  16  26
ENDBRANCH   8  13
ENDBRANCH   4   7
ENDBRANCH   2   3
ENDBRANCH   1   2
BRANCH   1  36
ATOM     36  C   UNL A   1      41.878  20.339  25.785  1.00  0.00     0.023 C 
BRANCH  36  37
ATOM     37  C   UNL A   1      42.568  21.574  26.354  1.00  0.00     0.116 C 
BRANCH  37  38
ATOM     38  N   UNL A   1      43.437  22.237  25.396  1.00  0.00    -0.352 N 
ATOM     39  C   UNL A   1      43.726  23.576  25.286  1.00  0.00     0.251 C 
ATOM     40  H   UNL A   1      43.876  21.651  24.738  1.00  0.00     0.163 HD
ATOM     41  O   UNL A   1      44.403  23.991  24.352  1.00  0.00    -0.269 OA
BRANCH  39  42
ATOM     42  C   UNL A   1      43.177  24.519  26.280  1.00  0.00     0.039 A 
ATOM     43  C   UNL A   1      42.778  24.024  27.524  1.00  0.00     0.014 A 
ATOM     44  C   UNL A   1      43.082  25.884  25.998  1.00  0.00     0.014 A 
ATOM     45  C   UNL A   1      42.345  24.908  28.512  1.00  0.00     0.010 A 
ATOM     46  C   UNL A   1      42.708  26.771  27.002  1.00  0.00     0.010 A 
ATOM     47  C   UNL A   1      42.339  26.291  28.268  1.00  0.00    -0.014 A 
BRANCH  47  48
ATOM     48  C   UNL A   1      41.960  27.254  29.331  1.00  0.00     0.031 A 
ATOM     49  C   UNL A   1      42.736  27.301  30.616  1.00  0.00     0.074 A 
ATOM     50  C   UNL A   1      40.871  28.028  29.167  1.00  0.00     0.049 A 
ATOM     51  N   UNL A   1      42.517  28.016  31.689  1.00  0.00    -0.248 NA
ATOM     52  C   UNL A   1      43.899  26.404  30.718  1.00  0.00     0.031 C 
ATOM     53  C   UNL A   1      40.005  28.029  27.987  1.00  0.00     0.029 A 
ATOM     54  N   UNL A   1      40.297  28.954  30.002  1.00  0.00    -0.354 N 
ATOM     55  C   UNL A   1      43.496  27.642  32.599  1.00  0.00     0.074 A 
ATOM     56  C   UNL A   1      44.286  26.607  31.969  1.00  0.00     0.031 C 
ATOM     57  C   UNL A   1      39.016  28.921  28.168  1.00  0.00     0.029 A 
ATOM     58  C   UNL A   1      39.163  29.530  29.487  1.00  0.00     0.049 A 
ATOM     59  H   UNL A   1      40.664  29.182  30.887  1.00  0.00     0.167 HD
ATOM     60  C   UNL A   1      43.728  28.136  33.838  1.00  0.00     0.037 A 
ATOM     61  C   UNL A   1      38.331  30.445  30.021  1.00  0.00     0.037 A 
ATOM     62  C   UNL A   1      42.961  29.190  34.447  1.00  0.00     0.049 A 
ATOM     63  C   UNL A   1      38.624  30.991  31.392  1.00  0.00     0.074 A 
ATOM     64  C   UNL A   1      43.165  29.813  35.665  1.00  0.00     0.029 A 
ATOM     65  N   UNL A   1      41.840  29.778  33.878  1.00  0.00    -0.354 N 
ATOM     66  N   UNL A   1      39.602  30.687  32.210  1.00  0.00    -0.248 NA
ATOM     67  C   UNL A   1      37.704  32.013  31.909  1.00  0.00     0.031 C 
ATOM     68  C   UNL A   1      42.145  30.751  35.853  1.00  0.00     0.029 A 
ATOM     69  C   UNL A   1      41.329  30.743  34.732  1.00  0.00     0.049 A 
ATOM     70  H   UNL A   1      41.463  29.544  32.999  1.00  0.00     0.167 HD
ATOM     71  C   UNL A   1      39.429  31.496  33.326  1.00  0.00     0.074 A 
ATOM     72  C   UNL A   1      38.262  32.314  33.073  1.00  0.00     0.031 C 
ATOM     73  C   UNL A   1      40.170  31.553  34.459  1.00  0.00     0.037 A 
BRANCH  60  74
ATOM     74  C   UNL A   1      44.862  27.542  34.620  1.00  0.00     0.064 A 
ATOM     75  C   UNL A   1      46.160  28.072  34.550  1.00  0.00     0.173 A 
ATOM     76  C   UNL A   1      44.642  26.456  35.480  1.00  0.00     0.173 A 
ATOM     77  F   UNL A   1      46.424  29.103  33.734  1.00  0.00    -0.203 F 
ATOM     78  C   UNL A   1      47.200  27.520  35.293  1.00  0.00     0.198 A 
ATOM     79  C   UNL A   1      45.679  25.923  36.242  1.00  0.00     0.198 A 
ATOM     80  F   UNL A   1      43.419  25.914  35.587  1.00  0.00    -0.203 F 
ATOM     81  F   UNL A   1      48.440  28.014  35.175  1.00  0.00    -0.200 F 
ATOM     82  C   UNL A   1      46.958  26.451  36.142  1.00  0.00     0.200 A 
ATOM     83  F   UNL A   1      45.442  24.898  37.072  1.00  0.00    -0.200 F 
ATOM     84  F   UNL A   1      47.959  25.924  36.862  1.00  0.00    -0.200 F 
ENDBRANCH  60  74
BRANCH  61  85
ATOM     85  C   UNL A   1      37.155  30.919  29.249  1.00  0.00     0.064 A 
ATOM     86  C   UNL A   1      37.140  32.198  28.676  1.00  0.00     0.173 A 
ATOM     87  C   UNL A   1      36.025  30.108  29.068  1.00  0.00     0.173 A 
ATOM     88  F   UNL A   1      38.190  33.017  28.839  1.00  0.00    -0.203 F 
ATOM     89  C   UNL A   1      36.030  32.657  27.969  1.00  0.00     0.198 A 
ATOM     90  C   UNL A   1      34.927  30.558  28.339  1.00  0.00     0.198 A 
ATOM     91  F   UNL A   1      35.994  28.873  29.591  1.00  0.00    -0.203 F 
ATOM     92  F   UNL A   1      36.025  33.901  27.469  1.00  0.00    -0.200 F 
ATOM     93  C   UNL A   1      34.927  31.835  27.797  1.00  0.00     0.200 A 
ATOM     94  F   UNL A   1      33.868  29.756  28.163  1.00  0.00    -0.200 F 
ATOM     95  F   UNL A   1      33.861  32.275  27.115  1.00  0.00    -0.200 F 
ENDBRANCH  61  85
BRANCH  73  96
ATOM     96  C   UNL A   1      39.758  32.553  35.498  1.00  0.00     0.064 A 
ATOM     97  C   UNL A   1      38.815  32.238  36.486  1.00  0.00     0.173 A 
ATOM     98  C   UNL A   1      40.346  33.827  35.530  1.00  0.00     0.173 A 
ATOM     99  F   UNL A   1      38.214  31.039  36.488  1.00  0.00    -0.203 F 
ATOM    100  C   UNL A   1      38.459  33.170  37.457  1.00  0.00     0.198 A 
ATOM    101  C   UNL A   1      40.008  34.746  36.518  1.00  0.00     0.198 A 
ATOM    102  F   UNL A   1      41.259  34.173  34.610  1.00  0.00    -0.203 F 
ATOM    103  F   UNL A   1      37.523  32.863  38.366  1.00  0.00    -0.200 F 
ATOM    104  C   UNL A   1      39.060  34.420  37.477  1.00  0.00     0.200 A 
ATOM    105  F   UNL A   1      40.598  35.949  36.543  1.00  0.00    -0.200 F 
ATOM    106  F   UNL A   1      38.721  35.313  38.416  1.00  0.00    -0.200 F 
ENDBRANCH  73  96
ENDBRANCH  47  48
ENDBRANCH  39  42
ENDBRANCH  37  38
ENDBRANCH  36  37
ENDBRANCH   1  36
TORSDOF 16
ENDMDL
MODEL 2
REMARK VINA RESULT:     -13.6      5.718     13.186
REMARK SMILES COc1ccc([C@H]2CC(c3ccc(S(C)(=O)=O)cc3)=NN2c2ccc(C(=O)NCCCCNC(=O)c3ccc(-c4c5nc(c(-c6c(F)c(F)c(F)c(F)c6F)c6ccc([nH]6)c(-c6c(F)c(F)c(F)c(F)c6F)c6nc(c(-c7c(F)c(F)c(F)c(F)c7F)c7ccc4[nH]7)C=C6)C=C5)cc3)cc2)cc1
REMARK SMILES IDX 30 1 29 2 28 3 26 4 27 5 25 7 22 8 23 9 100 10 24 11 99 12
REMARK SMILES IDX 21 13 7 14 8 15 9 16 20 17 6 18 3 19 4 20 102 21 5 22 101 23
REMARK SMILES IDX 2 24 1 25 10 26 11 27 19 28 12 29 18 30 13 31 14 32 15 33
REMARK SMILES IDX 16 34 17 35 31 36 32 37 33 38 34 39 35 41 36 42 37 43 98 44
REMARK SMILES IDX 38 45 97 46 39 47 40 48 41 49 91 50 42 51 96 52 90 53 92 54
REMARK SMILES IDX 43 55 95 56 89 57 88 58 44 60 76 61 56 62 75 63 57 64 60 65
REMARK SMILES IDX 74 66 93 67 58 68 59 69 73 71 94 72 61 73 45 74 46 75 54 76
REMARK SMILES IDX 47 77 48 78 52 79 55 80 49 81 50 82 53 83 51 84 77 85 78 86
REMARK SMILES IDX 86 87 79 88 80 89 84 90 87 91 81 92 82 93 85 94 83 95 62 96
REMARK SMILES IDX 63 97 71 98 64 99 65 100 69 101 72 102 66 103 67 104 70 105
REMARK SMILES IDX 68 106
REMARK H PARENT 28 6 33 40 92 59 60 70
REMARK Flexibility Score: inf
ROOT
ATOM      1  C   UNL A   1      33.669  34.712  29.184  1.00  0.00     0.023 C 
ENDROOT
BRANCH   1   2
ATOM      2  C   UNL A   1      34.242  34.308  30.544  1.00  0.00     0.116 C 
BRANCH   2   3
ATOM      3  N   UNL A   1      34.016  35.355  31.519  1.00  0.00    -0.352 N 
ATOM      4  C   UNL A   1      34.661  35.679  32.686  1.00  0.00     0.251 C 
ATOM      5  O   UNL A   1      34.238  36.653  33.309  1.00  0.00    -0.269 OA
ATOM      6  H   UNL A   1      33.257  35.945  31.304  1.00  0.00     0.163 HD
BRANCH   4   7
ATOM      7  C   UNL A   1      35.861  34.953  33.193  1.00  0.00     0.039 A 
ATOM      8  C   UNL A   1      38.057  33.588  34.355  1.00  0.00     0.060 A 
ATOM      9  C   UNL A   1      36.808  33.605  34.983  1.00  0.00     0.029 A 
ATOM     10  C   UNL A   1      38.174  34.208  33.110  1.00  0.00     0.029 A 
ATOM     11  C   UNL A   1      35.728  34.294  34.422  1.00  0.00     0.016 A 
ATOM     12  C   UNL A   1      37.080  34.852  32.519  1.00  0.00     0.016 A 
BRANCH   8  13
ATOM     13  N   UNL A   1      39.124  32.943  34.959  1.00  0.00    -0.257 N 
ATOM     14  C   UNL A   1      40.322  33.627  35.445  1.00  0.00     0.144 C 
ATOM     15  C   UNL A   1      41.289  32.467  35.714  1.00  0.00     0.091 C 
ATOM     16  C   UNL A   1      40.491  31.332  35.143  1.00  0.00     0.071 C 
ATOM     17  N   UNL A   1      39.298  31.616  34.726  1.00  0.00    -0.176 NA
BRANCH  14  18
ATOM     18  C   UNL A   1      40.033  34.445  36.692  1.00  0.00    -0.023 A 
ATOM     19  C   UNL A   1      39.455  35.969  38.997  1.00  0.00     0.118 A 
ATOM     20  C   UNL A   1      38.994  34.656  38.877  1.00  0.00     0.047 A 
ATOM     21  C   UNL A   1      40.233  36.512  37.977  1.00  0.00     0.047 A 
ATOM     22  C   UNL A   1      39.271  33.902  37.734  1.00  0.00     0.010 A 
ATOM     23  C   UNL A   1      40.522  35.755  36.837  1.00  0.00     0.010 A 
BRANCH  19  24
ATOM     24  O   UNL A   1      39.109  36.603  40.158  1.00  0.00    -0.497 OA
ATOM     25  C   UNL A   1      38.789  37.985  40.045  1.00  0.00     0.278 C 
ENDBRANCH  19  24
ENDBRANCH  14  18
BRANCH  16  26
ATOM     26  C   UNL A   1      41.062  29.989  35.046  1.00  0.00    -0.002 A 
ATOM     27  C   UNL A   1      41.548  29.379  36.206  1.00  0.00     0.011 A 
ATOM     28  C   UNL A   1      41.138  29.353  33.806  1.00  0.00     0.011 A 
ATOM     29  C   UNL A   1      42.107  28.103  36.128  1.00  0.00     0.021 A 
ATOM     30  C   UNL A   1      41.720  28.087  33.722  1.00  0.00     0.021 A 
ATOM     31  C   UNL A   1      42.204  27.472  34.883  1.00  0.00     0.067 A 
BRANCH  31  32
ATOM     32  S   UNL A   1      42.941  25.858  34.789  1.00  0.00     0.175 S 
ATOM     33  C   UNL A   1      44.151  25.860  36.087  1.00  0.00     0.163 C 
ATOM     34  O   UNL A   1      41.903  24.904  35.128  1.00  0.00    -0.224 OA
ATOM     35  O   UNL A   1      43.653  25.773  33.527  1.00  0.00    -0.224 OA
ENDBRANCH  31  32
ENDBRANCH  16  26
ENDBRANCH   8  13
ENDBRANCH   4   7
ENDBRANCH   2   3
ENDBRANCH   1   2
BRANCH   1  36
ATOM     36  C   UNL A   1      33.884  33.672  28.080  1.00  0.00     0.023 C 
BRANCH  36  37
ATOM     37  C   UNL A   1      34.674  32.441  28.506  1.00  0.00     0.116 C 
BRANCH  37  38
ATOM     38  N   UNL A   1      34.033  31.191  28.130  1.00  0.00    -0.352 N 
ATOM     39  C   UNL A   1      34.600  29.947  27.986  1.00  0.00     0.251 C 
ATOM     40  H   UNL A   1      33.066  31.242  27.955  1.00  0.00     0.163 HD
ATOM     41  O   UNL A   1      33.938  29.008  27.560  1.00  0.00    -0.269 OA
BRANCH  39  42
ATOM     42  C   UNL A   1      36.029  29.762  28.307  1.00  0.00     0.039 A 
ATOM     43  C   UNL A   1      36.376  29.326  29.588  1.00  0.00     0.014 A 
ATOM     44  C   UNL A   1      37.015  29.990  27.344  1.00  0.00     0.014 A 
ATOM     45  C   UNL A   1      37.712  29.054  29.885  1.00  0.00     0.010 A 
ATOM     46  C   UNL A   1      38.338  29.660  27.622  1.00  0.00     0.010 A 
ATOM     47  C   UNL A   1      38.697  29.187  28.894  1.00  0.00    -0.014 A 
BRANCH  47  48
ATOM     48  C   UNL A   1      40.110  28.824  29.165  1.00  0.00     0.031 A 
ATOM     49  C   UNL A   1      41.018  29.801  29.855  1.00  0.00     0.074 A 
ATOM     50  C   UNL A   1      40.590  27.647  28.721  1.00  0.00     0.049 A 
ATOM     51  N   UNL A   1      42.297  29.701  30.114  1.00  0.00    -0.248 NA
ATOM     52  C   UNL A   1      40.415  31.072  30.287  1.00  0.00     0.031 C 
ATOM     53  C   UNL A   1      39.818  26.642  27.988  1.00  0.00     0.029 A 
ATOM     54  N   UNL A   1      41.847  27.104  28.807  1.00  0.00    -0.354 N 
ATOM     55  C   UNL A   1      42.655  30.898  30.717  1.00  0.00     0.074 A 
ATOM     56  C   UNL A   1      41.470  31.728  30.748  1.00  0.00     0.031 C 
ATOM     57  C   UNL A   1      40.615  25.599  27.702  1.00  0.00     0.029 A 
ATOM     58  C   UNL A   1      41.958  25.876  28.203  1.00  0.00     0.049 A 
ATOM     59  H   UNL A   1      42.598  27.553  29.259  1.00  0.00     0.167 HD
ATOM     60  C   UNL A   1      43.859  31.263  31.220  1.00  0.00     0.037 A 
ATOM     61  C   UNL A   1      43.025  25.066  28.067  1.00  0.00     0.037 A 
ATOM     62  C   UNL A   1      45.025  30.421  31.217  1.00  0.00     0.049 A 
ATOM     63  C   UNL A   1      44.345  25.487  28.652  1.00  0.00     0.074 A 
ATOM     64  C   UNL A   1      46.269  30.667  31.771  1.00  0.00     0.029 A 
ATOM     65  N   UNL A   1      45.090  29.165  30.631  1.00  0.00    -0.354 N 
ATOM     66  N   UNL A   1      44.651  26.589  29.292  1.00  0.00    -0.248 NA
ATOM     67  C   UNL A   1      45.465  24.548  28.505  1.00  0.00     0.031 C 
ATOM     68  C   UNL A   1      47.098  29.578  31.486  1.00  0.00     0.029 A 
ATOM     69  C   UNL A   1      46.360  28.633  30.791  1.00  0.00     0.049 A 
ATOM     70  H   UNL A   1      44.344  28.718  30.168  1.00  0.00     0.167 HD
ATOM     71  C   UNL A   1      45.989  26.465  29.644  1.00  0.00     0.074 A 
ATOM     72  C   UNL A   1      46.431  25.174  29.160  1.00  0.00     0.031 C 
ATOM     73  C   UNL A   1      46.780  27.344  30.308  1.00  0.00     0.037 A 
BRANCH  60  74
ATOM     74  C   UNL A   1      43.974  32.632  31.819  1.00  0.00     0.064 A 
ATOM     75  C   UNL A   1      43.938  32.832  33.207  1.00  0.00     0.173 A 
ATOM     76  C   UNL A   1      44.163  33.755  30.998  1.00  0.00     0.173 A 
ATOM     77  F   UNL A   1      43.748  31.793  34.034  1.00  0.00    -0.203 F 
ATOM     78  C   UNL A   1      44.061  34.109  33.751  1.00  0.00     0.198 A 
ATOM     79  C   UNL A   1      44.313  35.026  31.547  1.00  0.00     0.198 A 
ATOM     80  F   UNL A   1      44.209  33.618  29.665  1.00  0.00    -0.203 F 
ATOM     81  F   UNL A   1      43.978  34.280  35.077  1.00  0.00    -0.200 F 
ATOM     82  C   UNL A   1      44.255  35.203  32.921  1.00  0.00     0.200 A 
ATOM     83  F   UNL A   1      44.512  36.081  30.745  1.00  0.00    -0.200 F 
ATOM     84  F   UNL A   1      44.380  36.430  33.446  1.00  0.00    -0.200 F 
ENDBRANCH  60  74
BRANCH  61  85
ATOM     85  C   UNL A   1      42.884  23.766  27.363  1.00  0.00     0.064 A 
ATOM     86  C   UNL A   1      43.250  23.635  26.017  1.00  0.00     0.173 A 
ATOM     87  C   UNL A   1      42.381  22.632  28.018  1.00  0.00     0.173 A 
ATOM     88  F   UNL A   1      43.717  24.697  25.343  1.00  0.00    -0.203 F 
ATOM     89  C   UNL A   1      43.099  22.424  25.344  1.00  0.00     0.198 A 
ATOM     90  C   UNL A   1      42.255  21.415  27.351  1.00  0.00     0.198 A 
ATOM     91  F   UNL A   1      42.023  22.705  29.308  1.00  0.00    -0.203 F 
ATOM     92  F   UNL A   1      43.416  22.338  24.045  1.00  0.00    -0.200 F 
ATOM     93  C   UNL A   1      42.607  21.314  26.014  1.00  0.00     0.200 A 
ATOM     94  F   UNL A   1      41.791  20.342  28.005  1.00  0.00    -0.200 F 
ATOM     95  F   UNL A   1      42.464  20.149  25.368  1.00  0.00    -0.200 F 
ENDBRANCH  61  85
BRANCH  73  96
ATOM     96  C   UNL A   1      48.195  26.926  30.573  1.00  0.00     0.064 A 
ATOM     97  C   UNL A   1      48.521  26.071  31.635  1.00  0.00     0.173 A 
ATOM     98  C   UNL A   1      49.232  27.354  29.730  1.00  0.00     0.173 A 
ATOM     99  F   UNL A   1      47.567  25.647  32.478  1.00  0.00    -0.203 F 
ATOM    100  C   UNL A   1      49.837  25.675  31.856  1.00  0.00     0.198 A 
ATOM    101  C   UNL A   1      50.542  26.935  29.938  1.00  0.00     0.198 A 
ATOM    102  F   UNL A   1      48.970  28.169  28.697  1.00  0.00    -0.203 F 
ATOM    103  F   UNL A   1      50.132  24.891  32.903  1.00  0.00    -0.200 F 
ATOM    104  C   UNL A   1      50.845  26.101  31.004  1.00  0.00     0.200 A 
ATOM    105  F   UNL A   1      51.513  27.338  29.106  1.00  0.00    -0.200 F 
ATOM    106  F   UNL A   1      52.111  25.714  31.214  1.00  0.00    -0.200 F 
ENDBRANCH  73  96
ENDBRANCH  47  48
ENDBRANCH  39  42
ENDBRANCH  37  38
ENDBRANCH  36  37
ENDBRANCH   1  36
TORSDOF 16
ENDMDL
MODEL 3
REMARK VINA RESULT:     -13.4      1.513      7.065
REMARK SMILES COc1ccc([C@H]2CC(c3ccc(S(C)(=O)=O)cc3)=NN2c2ccc(C(=O)NCCCCNC(=O)c3ccc(-c4c5nc(c(-c6c(F)c(F)c(F)c(F)c6F)c6ccc([nH]6)c(-c6c(F)c(F)c(F)c(F)c6F)c6nc(c(-c7c(F)c(F)c(F)c(F)c7F)c7ccc4[nH]7)C=C6)C=C5)cc3)cc2)cc1
REMARK SMILES IDX 30 1 29 2 28 3 26 4 27 5 25 7 22 8 23 9 100 10 24 11 99 12
REMARK SMILES IDX 21 13 7 14 8 15 9 16 20 17 6 18 3 19 4 20 102 21 5 22 101 23
REMARK SMILES IDX 2 24 1 25 10 26 11 27 19 28 12 29 18 30 13 31 14 32 15 33
REMARK SMILES IDX 16 34 17 35 31 36 32 37 33 38 34 39 35 41 36 42 37 43 98 44
REMARK SMILES IDX 38 45 97 46 39 47 40 48 41 49 91 50 42 51 96 52 90 53 92 54
REMARK SMILES IDX 43 55 95 56 89 57 88 58 44 60 76 61 56 62 75 63 57 64 60 65
REMARK SMILES IDX 74 66 93 67 58 68 59 69 73 71 94 72 61 73 45 74 46 75 54 76
REMARK SMILES IDX 47 77 48 78 52 79 55 80 49 81 50 82 53 83 51 84 77 85 78 86
REMARK SMILES IDX 86 87 79 88 80 89 84 90 87 91 81 92 82 93 85 94 83 95 62 96
REMARK SMILES IDX 63 97 71 98 64 99 65 100 69 101 72 102 66 103 67 104 70 105
REMARK SMILES IDX 68 106
REMARK H PARENT 28 6 33 40 92 59 60 70
REMARK Flexibility Score: inf
ROOT
ATOM      1  C   UNL A   1      41.421  25.745  26.335  1.00  0.00     0.023 C 
ENDROOT
BRANCH   1   2
ATOM      2  C   UNL A   1      40.040  25.085  26.326  1.00  0.00     0.116 C 
BRANCH   2   3
ATOM      3  N   UNL A   1      40.167  23.646  26.426  1.00  0.00    -0.352 N 
ATOM      4  C   UNL A   1      39.267  22.629  26.232  1.00  0.00     0.251 C 
ATOM      5  O   UNL A   1      39.680  21.478  26.382  1.00  0.00    -0.269 OA
ATOM      6  H   UNL A   1      41.068  23.341  26.681  1.00  0.00     0.163 HD
BRANCH   4   7
ATOM      7  C   UNL A   1      37.856  22.847  25.802  1.00  0.00     0.039 A 
ATOM      8  C   UNL A   1      35.228  23.183  24.791  1.00  0.00     0.060 A 
ATOM      9  C   UNL A   1      36.100  22.245  24.229  1.00  0.00     0.029 A 
ATOM     10  C   UNL A   1      35.668  23.903  25.904  1.00  0.00     0.029 A 
ATOM     11  C   UNL A   1      37.403  22.091  24.713  1.00  0.00     0.016 A 
ATOM     12  C   UNL A   1      36.953  23.711  26.425  1.00  0.00     0.016 A 
BRANCH   8  13
ATOM     13  N   UNL A   1      33.962  23.353  24.258  1.00  0.00    -0.257 N 
ATOM     14  C   UNL A   1      33.385  22.485  23.231  1.00  0.00     0.144 C 
ATOM     15  C   UNL A   1      32.148  23.273  22.778  1.00  0.00     0.091 C 
ATOM     16  C   UNL A   1      32.369  24.551  23.531  1.00  0.00     0.071 C 
ATOM     17  N   UNL A   1      33.380  24.578  24.340  1.00  0.00    -0.176 NA
BRANCH  14  18
ATOM     18  C   UNL A   1      33.032  21.117  23.787  1.00  0.00    -0.023 A 
ATOM     19  C   UNL A   1      32.334  18.582  24.814  1.00  0.00     0.118 A 
ATOM     20  C   UNL A   1      32.197  18.860  23.453  1.00  0.00     0.047 A 
ATOM     21  C   UNL A   1      32.852  19.561  25.660  1.00  0.00     0.047 A 
ATOM     22  C   UNL A   1      32.533  20.116  22.942  1.00  0.00     0.010 A 
ATOM     23  C   UNL A   1      33.200  20.816  25.149  1.00  0.00     0.010 A 
BRANCH  19  24
ATOM     24  O   UNL A   1      31.963  17.321  25.191  1.00  0.00    -0.497 OA
ATOM     25  C   UNL A   1      32.984  16.514  25.766  1.00  0.00     0.278 C 
ENDBRANCH  19  24
ENDBRANCH  14  18
BRANCH  16  26
ATOM     26  C   UNL A   1      31.494  25.704  23.323  1.00  0.00    -0.002 A 
ATOM     27  C   UNL A   1      30.358  25.840  24.126  1.00  0.00     0.011 A 
ATOM     28  C   UNL A   1      31.786  26.628  22.318  1.00  0.00     0.011 A 
ATOM     29  C   UNL A   1      29.506  26.927  23.932  1.00  0.00     0.021 A 
ATOM     30  C   UNL A   1      30.921  27.703  22.107  1.00  0.00     0.021 A 
ATOM     31  C   UNL A   1      29.785  27.843  22.912  1.00  0.00     0.067 A 
BRANCH  31  32
ATOM     32  S   UNL A   1      28.680  29.211  22.654  1.00  0.00     0.175 S 
ATOM     33  C   UNL A   1      29.295  30.473  23.741  1.00  0.00     0.163 C 
ATOM     34  O   UNL A   1      28.870  29.649  21.285  1.00  0.00    -0.224 OA
ATOM     35  O   UNL A   1      27.371  28.815  23.139  1.00  0.00    -0.224 OA
ENDBRANCH  31  32
ENDBRANCH  16  26
ENDBRANCH   8  13
ENDBRANCH   4   7
ENDBRANCH   2   3
ENDBRANCH   1   2
BRANCH   1  36
ATOM     36  C   UNL A   1      42.290  25.398  25.122  1.00  0.00     0.023 C 
BRANCH  36  37
ATOM     37  C   UNL A   1      43.512  24.543  25.434  1.00  0.00     0.116 C 
BRANCH  37  38
ATOM     38  N   UNL A   1      44.762  25.153  25.010  1.00  0.00    -0.352 N 
ATOM     39  C   UNL A   1      45.417  26.230  25.556  1.00  0.00     0.251 C 
ATOM     40  H   UNL A   1      45.195  24.741  24.228  1.00  0.00     0.163 HD
ATOM     41  O   UNL A   1      46.417  26.689  25.014  1.00  0.00    -0.269 OA
BRANCH  39  42
ATOM     42  C   UNL A   1      44.882  26.859  26.779  1.00  0.00     0.039 A 
ATOM     43  C   UNL A   1      44.570  28.220  26.751  1.00  0.00     0.014 A 
ATOM     44  C   UNL A   1      44.665  26.106  27.936  1.00  0.00     0.014 A 
ATOM     45  C   UNL A   1      43.976  28.815  27.864  1.00  0.00     0.010 A 
ATOM     46  C   UNL A   1      44.018  26.685  29.023  1.00  0.00     0.010 A 
ATOM     47  C   UNL A   1      43.665  28.043  28.996  1.00  0.00    -0.014 A 
BRANCH  47  48
ATOM     48  C   UNL A   1      42.960  28.638  30.157  1.00  0.00     0.031 A 
ATOM     49  C   UNL A   1      41.565  29.172  29.998  1.00  0.00     0.074 A 
ATOM     50  C   UNL A   1      43.606  28.764  31.331  1.00  0.00     0.049 A 
ATOM     51  N   UNL A   1      40.813  29.793  30.870  1.00  0.00    -0.248 NA
ATOM     52  C   UNL A   1      40.943  29.011  28.674  1.00  0.00     0.031 C 
ATOM     53  C   UNL A   1      44.981  28.335  31.590  1.00  0.00     0.029 A 
ATOM     54  N   UNL A   1      43.196  29.306  32.524  1.00  0.00    -0.354 N 
ATOM     55  C   UNL A   1      39.642  30.115  30.197  1.00  0.00     0.074 A 
ATOM     56  C   UNL A   1      39.799  29.659  28.833  1.00  0.00     0.031 C 
ATOM     57  C   UNL A   1      45.298  28.619  32.864  1.00  0.00     0.029 A 
ATOM     58  C   UNL A   1      44.160  29.276  33.501  1.00  0.00     0.049 A 
ATOM     59  H   UNL A   1      42.296  29.680  32.665  1.00  0.00     0.167 HD
ATOM     60  C   UNL A   1      38.529  30.716  30.681  1.00  0.00     0.037 A 
ATOM     61  C   UNL A   1      44.129  29.731  34.768  1.00  0.00     0.037 A 
ATOM     62  C   UNL A   1      38.366  31.136  32.048  1.00  0.00     0.049 A 
ATOM     63  C   UNL A   1      42.873  30.377  35.286  1.00  0.00     0.074 A 
ATOM     64  C   UNL A   1      37.249  31.682  32.655  1.00  0.00     0.029 A 
ATOM     65  N   UNL A   1      39.351  31.054  33.021  1.00  0.00    -0.354 N 
ATOM     66  N   UNL A   1      41.743  30.603  34.662  1.00  0.00    -0.248 NA
ATOM     67  C   UNL A   1      42.885  30.822  36.686  1.00  0.00     0.031 C 
ATOM     68  C   UNL A   1      37.570  31.968  33.985  1.00  0.00     0.029 A 
ATOM     69  C   UNL A   1      38.874  31.560  34.220  1.00  0.00     0.049 A 
ATOM     70  H   UNL A   1      40.255  30.691  32.881  1.00  0.00     0.167 HD
ATOM     71  C   UNL A   1      40.903  31.192  35.598  1.00  0.00     0.074 A 
ATOM     72  C   UNL A   1      41.649  31.275  36.836  1.00  0.00     0.031 C 
ATOM     73  C   UNL A   1      39.629  31.628  35.444  1.00  0.00     0.037 A 
BRANCH  60  74
ATOM     74  C   UNL A   1      37.398  30.952  29.726  1.00  0.00     0.064 A 
ATOM     75  C   UNL A   1      37.217  32.190  29.092  1.00  0.00     0.173 A 
ATOM     76  C   UNL A   1      36.507  29.915  29.409  1.00  0.00     0.173 A 
ATOM     77  F   UNL A   1      38.035  33.216  29.371  1.00  0.00    -0.203 F 
ATOM     78  C   UNL A   1      36.169  32.390  28.196  1.00  0.00     0.198 A 
ATOM     79  C   UNL A   1      35.477  30.111  28.491  1.00  0.00     0.198 A 
ATOM     80  F   UNL A   1      36.638  28.710  29.983  1.00  0.00    -0.203 F 
ATOM     81  F   UNL A   1      35.989  33.595  27.638  1.00  0.00    -0.200 F 
ATOM     82  C   UNL A   1      35.305  31.350  27.892  1.00  0.00     0.200 A 
ATOM     83  F   UNL A   1      34.649  29.101  28.189  1.00  0.00    -0.200 F 
ATOM     84  F   UNL A   1      34.302  31.541  27.024  1.00  0.00    -0.200 F 
ENDBRANCH  60  74
BRANCH  61  85
ATOM     85  C   UNL A   1      45.320  29.574  35.641  1.00  0.00     0.064 A 
ATOM     86  C   UNL A   1      46.318  30.558  35.679  1.00  0.00     0.173 A 
ATOM     87  C   UNL A   1      45.486  28.442  36.452  1.00  0.00     0.173 A 
ATOM     88  F   UNL A   1      46.212  31.648  34.905  1.00  0.00    -0.203 F 
ATOM     89  C   UNL A   1      47.449  30.405  36.479  1.00  0.00     0.198 A 
ATOM     90  C   UNL A   1      46.605  28.303  37.271  1.00  0.00     0.198 A 
ATOM     91  F   UNL A   1      44.556  27.476  36.456  1.00  0.00    -0.203 F 
ATOM     92  F   UNL A   1      48.409  31.341  36.463  1.00  0.00    -0.200 F 
ATOM     93  C   UNL A   1      47.589  29.281  37.279  1.00  0.00     0.200 A 
ATOM     94  F   UNL A   1      46.730  27.222  38.052  1.00  0.00    -0.200 F 
ATOM     95  F   UNL A   1      48.674  29.137  38.050  1.00  0.00    -0.200 F 
ENDBRANCH  61  85
BRANCH  73  96
ATOM     96  C   UNL A   1      38.952  32.207  36.650  1.00  0.00     0.064 A 
ATOM     97  C   UNL A   1      39.183  33.527  37.059  1.00  0.00     0.173 A 
ATOM     98  C   UNL A   1      38.028  31.443  37.380  1.00  0.00     0.173 A 
ATOM     99  F   UNL A   1      40.069  34.292  36.402  1.00  0.00    -0.203 F 
ATOM    100  C   UNL A   1      38.530  34.057  38.168  1.00  0.00     0.198 A 
ATOM    101  C   UNL A   1      37.357  31.984  38.472  1.00  0.00     0.198 A 
ATOM    102  F   UNL A   1      37.768  30.176  37.025  1.00  0.00    -0.203 F 
ATOM    103  F   UNL A   1      38.799  35.308  38.567  1.00  0.00    -0.200 F 
ATOM    104  C   UNL A   1      37.613  33.288  38.870  1.00  0.00     0.200 A 
ATOM    105  F   UNL A   1      36.462  31.244  39.142  1.00  0.00    -0.200 F 
ATOM    106  F   UNL A   1      36.980  33.802  39.933  1.00  0.00    -0.200 F 
ENDBRANCH  73  96
ENDBRANCH  47  48
ENDBRANCH  39  42
ENDBRANCH  37  38
ENDBRANCH  36  37
ENDBRANCH   1  36
TORSDOF 16
ENDMDL
