MODEL 1
REMARK VINA RESULT:     -12.0      0.000      0.000
REMARK SMILES COC(=O)[C@H]1CCN(C(=O)Nc2sccc2C(=O)NCCCCNC(=O)c2ccc(-c3c4nc(c(-c5c(F)c(F)c(F)c(F)c5F)c5ccc([nH]5)c(-c5c(F)c(F)c(F)c(F)c5F)c5nc(c(-c6c(F)c(F)c(F)c(F)c6F)c6ccc3[nH]6)C=C5)C=C4)cc2)C1
REMARK SMILES IDX 20 1 19 2 17 3 18 4 16 6 12 7 13 8 14 9 15 10 11 11 9 12
REMARK SMILES IDX 10 13 8 15 5 16 6 17 90 18 7 19 3 20 4 21 2 22 1 23 21 24
REMARK SMILES IDX 22 25 23 26 24 27 25 28 26 30 27 31 28 32 89 33 29 34 88 35
REMARK SMILES IDX 30 36 31 37 32 38 82 39 33 40 87 41 81 42 83 43 34 44 86 45
REMARK SMILES IDX 80 46 79 47 35 49 67 50 47 51 66 52 48 53 51 54 65 55 84 56
REMARK SMILES IDX 49 57 50 58 64 60 85 61 52 62 36 63 37 64 45 65 38 66 39 67
REMARK SMILES IDX 43 68 46 69 40 70 41 71 44 72 42 73 68 74 69 75 77 76 70 77
REMARK SMILES IDX 71 78 75 79 78 80 72 81 73 82 76 83 74 84 53 85 54 86 62 87
REMARK SMILES IDX 55 88 56 89 60 90 63 91 57 92 58 93 61 94 59 95
REMARK H PARENT 19 5 11 14 24 29 83 48 51 59
REMARK Flexibility Score: inf
ROOT
ATOM      1  C   UNL A   1      34.055  25.975  24.764  1.00  0.00     0.116 C 
ENDROOT
BRANCH   1   2
ATOM      2  N   UNL A   1      33.722  25.332  23.509  1.00  0.00    -0.352 N 
ATOM      3  C   UNL A   1      33.997  24.054  23.084  1.00  0.00     0.254 C 
ATOM      4  O   UNL A   1      33.634  23.735  21.952  1.00  0.00    -0.269 OA
ATOM      5  H   UNL A   1      33.227  25.892  22.868  1.00  0.00     0.163 HD
BRANCH   3   6
ATOM      6  C   UNL A   1      34.790  23.139  23.906  1.00  0.00     0.074 A 
ATOM      7  C   UNL A   1      34.435  22.483  25.074  1.00  0.00     0.109 A 
ATOM      8  S   UNL A   1      35.752  21.686  25.813  1.00  0.00    -0.126 S 
ATOM      9  C   UNL A   1      36.721  21.887  24.423  1.00  0.00     0.068 A 
ATOM     10  C   UNL A   1      36.103  22.692  23.494  1.00  0.00     0.028 A 
BRANCH   7  11
ATOM     11  N   UNL A   1      33.270  22.306  25.785  1.00  0.00    -0.299 N 
ATOM     12  C   UNL A   1      32.177  21.580  25.420  1.00  0.00     0.322 C 
ATOM     13  O   UNL A   1      31.062  21.965  25.778  1.00  0.00    -0.248 OA
ATOM     14  H   UNL A   1      33.222  22.755  26.661  1.00  0.00     0.172 HD
BRANCH  12  15
ATOM     15  N   UNL A   1      32.350  20.420  24.716  1.00  0.00    -0.324 N 
ATOM     16  C   UNL A   1      33.463  18.409  24.145  1.00  0.00     0.120 C 
ATOM     17  C   UNL A   1      32.511  18.821  23.026  1.00  0.00     0.039 C 
ATOM     18  C   UNL A   1      32.954  19.233  25.326  1.00  0.00     0.136 C 
ATOM     19  C   UNL A   1      32.376  20.305  23.263  1.00  0.00     0.122 C 
BRANCH  16  20
ATOM     20  C   UNL A   1      33.485  16.910  24.261  1.00  0.00     0.310 C 
ATOM     21  O   UNL A   1      33.757  16.191  23.304  1.00  0.00    -0.252 OA
BRANCH  20  22
ATOM     22  O   UNL A   1      33.179  16.453  25.500  1.00  0.00    -0.469 OA
ATOM     23  C   UNL A   1      32.619  15.136  25.480  1.00  0.00     0.282 C 
ENDBRANCH  20  22
ENDBRANCH  16  20
ENDBRANCH  12  15
ENDBRANCH   7  11
ENDBRANCH   3   6
ENDBRANCH   1   2
BRANCH   1  24
ATOM     24  C   UNL A   1      33.141  27.138  25.132  1.00  0.00     0.023 C 
BRANCH  24  25
ATOM     25  C   UNL A   1      33.831  28.360  25.743  1.00  0.00     0.023 C 
BRANCH  25  26
ATOM     26  C   UNL A   1      33.624  28.585  27.240  1.00  0.00     0.116 C 
BRANCH  26  27
ATOM     27  N   UNL A   1      33.663  29.986  27.635  1.00  0.00    -0.352 N 
ATOM     28  C   UNL A   1      34.669  30.716  28.224  1.00  0.00     0.251 C 
ATOM     29  H   UNL A   1      32.838  30.491  27.453  1.00  0.00     0.163 HD
ATOM     30  O   UNL A   1      34.469  31.871  28.591  1.00  0.00    -0.269 OA
BRANCH  28  31
ATOM     31  C   UNL A   1      35.993  30.100  28.455  1.00  0.00     0.039 A 
ATOM     32  C   UNL A   1      36.954  30.160  27.442  1.00  0.00     0.014 A 
ATOM     33  C   UNL A   1      36.295  29.480  29.670  1.00  0.00     0.014 A 
ATOM     34  C   UNL A   1      38.249  29.696  27.687  1.00  0.00     0.010 A 
ATOM     35  C   UNL A   1      37.605  29.092  29.941  1.00  0.00     0.010 A 
ATOM     36  C   UNL A   1      38.600  29.210  28.957  1.00  0.00    -0.014 A 
BRANCH  36  37
ATOM     37  C   UNL A   1      40.007  28.856  29.287  1.00  0.00     0.031 A 
ATOM     38  C   UNL A   1      40.880  29.822  30.039  1.00  0.00     0.074 A 
ATOM     39  C   UNL A   1      40.526  27.699  28.830  1.00  0.00     0.049 A 
ATOM     40  N   UNL A   1      42.151  29.728  30.339  1.00  0.00    -0.248 NA
ATOM     41  C   UNL A   1      40.249  31.073  30.486  1.00  0.00     0.031 C 
ATOM     42  C   UNL A   1      39.804  26.703  28.035  1.00  0.00     0.029 A 
ATOM     43  N   UNL A   1      41.787  27.169  28.955  1.00  0.00    -0.354 N 
ATOM     44  C   UNL A   1      42.474  30.911  30.989  1.00  0.00     0.074 A 
ATOM     45  C   UNL A   1      41.281  31.729  30.998  1.00  0.00     0.031 C 
ATOM     46  C   UNL A   1      40.625  25.679  27.759  1.00  0.00     0.029 A 
ATOM     47  C   UNL A   1      41.942  25.958  28.324  1.00  0.00     0.049 A 
ATOM     48  H   UNL A   1      42.512  27.614  29.451  1.00  0.00     0.167 HD
ATOM     49  C   UNL A   1      43.654  31.274  31.547  1.00  0.00     0.037 A 
ATOM     50  C   UNL A   1      43.025  25.166  28.205  1.00  0.00     0.037 A 
ATOM     51  C   UNL A   1      44.831  30.445  31.571  1.00  0.00     0.049 A 
ATOM     52  C   UNL A   1      44.318  25.585  28.852  1.00  0.00     0.074 A 
ATOM     53  C   UNL A   1      46.048  30.693  32.181  1.00  0.00     0.029 A 
ATOM     54  N   UNL A   1      44.937  29.207  30.955  1.00  0.00    -0.354 N 
ATOM     55  N   UNL A   1      44.588  26.670  29.535  1.00  0.00    -0.248 NA
ATOM     56  C   UNL A   1      45.456  24.663  28.720  1.00  0.00     0.031 C 
ATOM     57  C   UNL A   1      46.906  29.626  31.898  1.00  0.00     0.029 A 
ATOM     58  C   UNL A   1      46.207  28.689  31.153  1.00  0.00     0.049 A 
ATOM     59  H   UNL A   1      44.217  28.762  30.453  1.00  0.00     0.167 HD
ATOM     60  C   UNL A   1      45.911  26.550  29.936  1.00  0.00     0.074 A 
ATOM     61  C   UNL A   1      46.387  25.279  29.434  1.00  0.00     0.031 C 
ATOM     62  C   UNL A   1      46.664  27.416  30.657  1.00  0.00     0.037 A 
BRANCH  49  63
ATOM     63  C   UNL A   1      43.735  32.629  32.189  1.00  0.00     0.064 A 
ATOM     64  C   UNL A   1      43.459  32.814  33.552  1.00  0.00     0.173 A 
ATOM     65  C   UNL A   1      44.140  33.746  31.444  1.00  0.00     0.173 A 
ATOM     66  F   UNL A   1      43.058  31.780  34.307  1.00  0.00    -0.203 F 
ATOM     67  C   UNL A   1      43.561  34.073  34.139  1.00  0.00     0.198 A 
ATOM     68  C   UNL A   1      44.270  34.998  32.041  1.00  0.00     0.198 A 
ATOM     69  F   UNL A   1      44.422  33.623  30.138  1.00  0.00    -0.203 F 
ATOM     70  F   UNL A   1      43.250  34.234  35.433  1.00  0.00    -0.200 F 
ATOM     71  C   UNL A   1      43.974  35.161  33.386  1.00  0.00     0.200 A 
ATOM     72  F   UNL A   1      44.683  36.046  31.314  1.00  0.00    -0.200 F 
ATOM     73  F   UNL A   1      44.082  36.370  33.955  1.00  0.00    -0.200 F 
ENDBRANCH  49  63
BRANCH  50  74
ATOM     74  C   UNL A   1      42.932  23.884  27.459  1.00  0.00     0.064 A 
ATOM     75  C   UNL A   1      43.233  23.822  26.091  1.00  0.00     0.173 A 
ATOM     76  C   UNL A   1      42.529  22.698  28.092  1.00  0.00     0.173 A 
ATOM     77  F   UNL A   1      43.603  24.934  25.437  1.00  0.00    -0.203 F 
ATOM     78  C   UNL A   1      43.111  22.631  25.379  1.00  0.00     0.198 A 
ATOM     79  C   UNL A   1      42.435  21.501  27.385  1.00  0.00     0.198 A 
ATOM     80  F   UNL A   1      42.234  22.702  29.400  1.00  0.00    -0.203 F 
ATOM     81  F   UNL A   1      43.357  22.612  24.062  1.00  0.00    -0.200 F 
ATOM     82  C   UNL A   1      42.717  21.470  26.028  1.00  0.00     0.200 A 
ATOM     83  F   UNL A   1      42.066  20.379  28.017  1.00  0.00    -0.200 F 
ATOM     84  F   UNL A   1      42.600  20.324  25.343  1.00  0.00    -0.200 F 
ENDBRANCH  50  74
BRANCH  62  85
ATOM     85  C   UNL A   1      48.071  27.005  30.980  1.00  0.00     0.064 A 
ATOM     86  C   UNL A   1      48.363  26.174  32.072  1.00  0.00     0.173 A 
ATOM     87  C   UNL A   1      49.134  27.411  30.160  1.00  0.00     0.173 A 
ATOM     88  F   UNL A   1      47.383  25.771  32.895  1.00  0.00    -0.203 F 
ATOM     89  C   UNL A   1      49.672  25.785  32.344  1.00  0.00     0.198 A 
ATOM     90  C   UNL A   1      50.438  26.996  30.417  1.00  0.00     0.198 A 
ATOM     91  F   UNL A   1      48.908  28.200  29.099  1.00  0.00    -0.203 F 
ATOM     92  F   UNL A   1      49.933  25.028  33.418  1.00  0.00    -0.200 F 
ATOM     93  C   UNL A   1      50.706  26.188  31.512  1.00  0.00     0.200 A 
ATOM     94  F   UNL A   1      51.434  27.376  29.605  1.00  0.00    -0.200 F 
ATOM     95  F   UNL A   1      51.963  25.806  31.771  1.00  0.00    -0.200 F 
ENDBRANCH  62  85
ENDBRANCH  36  37
ENDBRANCH  28  31
ENDBRANCH  26  27
ENDBRANCH  25  26
ENDBRANCH  24  25
ENDBRANCH   1  24
TORSDOF 15
ENDMDL
MODEL 2
REMARK VINA RESULT:     -11.9      3.957      9.117
REMARK SMILES COC(=O)[C@H]1CCN(C(=O)Nc2sccc2C(=O)NCCCCNC(=O)c2ccc(-c3c4nc(c(-c5c(F)c(F)c(F)c(F)c5F)c5ccc([nH]5)c(-c5c(F)c(F)c(F)c(F)c5F)c5nc(c(-c6c(F)c(F)c(F)c(F)c6F)c6ccc3[nH]6)C=C5)C=C4)cc2)C1
REMARK SMILES IDX 20 1 19 2 17 3 18 4 16 6 12 7 13 8 14 9 15 10 11 11 9 12
REMARK SMILES IDX 10 13 8 15 5 16 6 17 90 18 7 19 3 20 4 21 2 22 1 23 21 24
REMARK SMILES IDX 22 25 23 26 24 27 25 28 26 30 27 31 28 32 89 33 29 34 88 35
REMARK SMILES IDX 30 36 31 37 32 38 82 39 33 40 87 41 81 42 83 43 34 44 86 45
REMARK SMILES IDX 80 46 79 47 35 49 67 50 47 51 66 52 48 53 51 54 65 55 84 56
REMARK SMILES IDX 49 57 50 58 64 60 85 61 52 62 36 63 37 64 45 65 38 66 39 67
REMARK SMILES IDX 43 68 46 69 40 70 41 71 44 72 42 73 68 74 69 75 77 76 70 77
REMARK SMILES IDX 71 78 75 79 78 80 72 81 73 82 76 83 74 84 53 85 54 86 62 87
REMARK SMILES IDX 55 88 56 89 60 90 63 91 57 92 58 93 61 94 59 95
REMARK H PARENT 19 5 11 14 24 29 83 48 51 59
REMARK Flexibility Score: inf
ROOT
ATOM      1  C   UNL A   1      31.460  30.056  25.132  1.00  0.00     0.116 C 
ENDROOT
BRANCH   1   2
ATOM      2  N   UNL A   1      32.595  29.515  24.411  1.00  0.00    -0.352 N 
ATOM      3  C   UNL A   1      32.800  28.241  23.938  1.00  0.00     0.254 C 
ATOM      4  O   UNL A   1      33.867  28.003  23.372  1.00  0.00    -0.269 OA
ATOM      5  H   UNL A   1      33.325  30.152  24.235  1.00  0.00     0.163 HD
BRANCH   3   6
ATOM      6  C   UNL A   1      31.830  27.175  24.193  1.00  0.00     0.074 A 
ATOM      7  C   UNL A   1      31.342  26.212  23.324  1.00  0.00     0.109 A 
ATOM      8  S   UNL A   1      30.058  25.306  23.993  1.00  0.00    -0.126 S 
ATOM      9  C   UNL A   1      30.367  25.921  25.554  1.00  0.00     0.068 A 
ATOM     10  C   UNL A   1      31.315  26.918  25.521  1.00  0.00     0.028 A 
BRANCH   7  11
ATOM     11  N   UNL A   1      31.649  25.793  22.049  1.00  0.00    -0.299 N 
ATOM     12  C   UNL A   1      32.762  25.125  21.640  1.00  0.00     0.322 C 
ATOM     13  O   UNL A   1      33.203  25.342  20.510  1.00  0.00    -0.248 OA
ATOM     14  H   UNL A   1      30.984  26.002  21.352  1.00  0.00     0.172 HD
BRANCH  12  15
ATOM     15  N   UNL A   1      33.324  24.193  22.469  1.00  0.00    -0.324 N 
ATOM     16  C   UNL A   1      33.279  22.431  24.051  1.00  0.00     0.120 C 
ATOM     17  C   UNL A   1      34.653  23.095  24.041  1.00  0.00     0.039 C 
ATOM     18  C   UNL A   1      32.678  22.904  22.729  1.00  0.00     0.136 C 
ATOM     19  C   UNL A   1      34.332  24.462  23.487  1.00  0.00     0.122 C 
BRANCH  16  20
ATOM     20  C   UNL A   1      33.435  20.955  24.290  1.00  0.00     0.310 C 
ATOM     21  O   UNL A   1      34.514  20.460  24.603  1.00  0.00    -0.252 OA
BRANCH  20  22
ATOM     22  O   UNL A   1      32.290  20.249  24.123  1.00  0.00    -0.469 OA
ATOM     23  C   UNL A   1      32.493  18.835  24.220  1.00  0.00     0.282 C 
ENDBRANCH  20  22
ENDBRANCH  16  20
ENDBRANCH  12  15
ENDBRANCH   7  11
ENDBRANCH   3   6
ENDBRANCH   1   2
BRANCH   1  24
ATOM     24  C   UNL A   1      31.780  30.505  26.553  1.00  0.00     0.023 C 
BRANCH  24  25
ATOM     25  C   UNL A   1      31.521  31.981  26.860  1.00  0.00     0.023 C 
BRANCH  25  26
ATOM     26  C   UNL A   1      32.717  32.801  27.340  1.00  0.00     0.116 C 
BRANCH  26  27
ATOM     27  N   UNL A   1      32.390  34.182  27.667  1.00  0.00    -0.352 N 
ATOM     28  C   UNL A   1      32.952  35.034  28.589  1.00  0.00     0.251 C 
ATOM     29  H   UNL A   1      31.649  34.567  27.146  1.00  0.00     0.163 HD
ATOM     30  O   UNL A   1      32.457  36.139  28.801  1.00  0.00    -0.269 OA
BRANCH  28  31
ATOM     31  C   UNL A   1      34.139  34.612  29.362  1.00  0.00     0.039 A 
ATOM     32  C   UNL A   1      33.967  34.155  30.672  1.00  0.00     0.014 A 
ATOM     33  C   UNL A   1      35.416  34.648  28.795  1.00  0.00     0.014 A 
ATOM     34  C   UNL A   1      35.058  33.634  31.373  1.00  0.00     0.010 A 
ATOM     35  C   UNL A   1      36.485  34.056  29.464  1.00  0.00     0.010 A 
ATOM     36  C   UNL A   1      36.315  33.529  30.753  1.00  0.00    -0.014 A 
BRANCH  36  37
ATOM     37  C   UNL A   1      37.450  32.839  31.422  1.00  0.00     0.031 A 
ATOM     38  C   UNL A   1      38.117  31.660  30.770  1.00  0.00     0.074 A 
ATOM     39  C   UNL A   1      37.823  33.220  32.661  1.00  0.00     0.049 A 
ATOM     40  N   UNL A   1      39.058  30.878  31.236  1.00  0.00    -0.248 NA
ATOM     41  C   UNL A   1      37.640  31.290  29.429  1.00  0.00     0.031 C 
ATOM     42  C   UNL A   1      37.217  34.308  33.430  1.00  0.00     0.029 A 
ATOM     43  N   UNL A   1      38.793  32.726  33.498  1.00  0.00    -0.354 N 
ATOM     44  C   UNL A   1      39.271  29.917  30.258  1.00  0.00     0.074 A 
ATOM     45  C   UNL A   1      38.328  30.182  29.192  1.00  0.00     0.031 C 
ATOM     46  C   UNL A   1      37.837  34.410  34.615  1.00  0.00     0.029 A 
ATOM     47  C   UNL A   1      38.861  33.374  34.708  1.00  0.00     0.049 A 
ATOM     48  H   UNL A   1      39.385  31.977  33.254  1.00  0.00     0.167 HD
ATOM     49  C   UNL A   1      40.184  28.917  30.240  1.00  0.00     0.037 A 
ATOM     50  C   UNL A   1      39.652  33.153  35.776  1.00  0.00     0.037 A 
ATOM     51  C   UNL A   1      41.147  28.677  31.283  1.00  0.00     0.049 A 
ATOM     52  C   UNL A   1      40.672  32.046  35.720  1.00  0.00     0.074 A 
ATOM     53  C   UNL A   1      42.163  27.738  31.318  1.00  0.00     0.029 A 
ATOM     54  N   UNL A   1      41.210  29.380  32.476  1.00  0.00    -0.354 N 
ATOM     55  N   UNL A   1      40.918  31.196  34.754  1.00  0.00    -0.248 NA
ATOM     56  C   UNL A   1      41.530  31.876  36.902  1.00  0.00     0.031 C 
ATOM     57  C   UNL A   1      42.815  27.844  32.551  1.00  0.00     0.029 A 
ATOM     58  C   UNL A   1      42.235  28.882  33.264  1.00  0.00     0.049 A 
ATOM     59  H   UNL A   1      40.616  30.123  32.726  1.00  0.00     0.167 HD
ATOM     60  C   UNL A   1      41.973  30.411  35.197  1.00  0.00     0.074 A 
ATOM     61  C   UNL A   1      42.333  30.895  36.512  1.00  0.00     0.031 C 
ATOM     62  C   UNL A   1      42.590  29.381  34.568  1.00  0.00     0.037 A 
BRANCH  49  63
ATOM     63  C   UNL A   1      40.196  28.005  29.047  1.00  0.00     0.064 A 
ATOM     64  C   UNL A   1      40.928  28.315  27.891  1.00  0.00     0.173 A 
ATOM     65  C   UNL A   1      39.507  26.783  29.079  1.00  0.00     0.173 A 
ATOM     66  F   UNL A   1      41.597  29.474  27.806  1.00  0.00    -0.203 F 
ATOM     67  C   UNL A   1      40.949  27.447  26.803  1.00  0.00     0.198 A 
ATOM     68  C   UNL A   1      39.555  25.904  28.000  1.00  0.00     0.198 A 
ATOM     69  F   UNL A   1      38.796  26.435  30.163  1.00  0.00    -0.203 F 
ATOM     70  F   UNL A   1      41.620  27.785  25.691  1.00  0.00    -0.200 F 
ATOM     71  C   UNL A   1      40.270  26.240  26.861  1.00  0.00     0.200 A 
ATOM     72  F   UNL A   1      38.909  24.732  28.064  1.00  0.00    -0.200 F 
ATOM     73  F   UNL A   1      40.299  25.401  25.816  1.00  0.00    -0.200 F 
ENDBRANCH  49  63
BRANCH  50  74
ATOM     74  C   UNL A   1      39.527  34.008  36.985  1.00  0.00     0.064 A 
ATOM     75  C   UNL A   1      38.784  33.582  38.096  1.00  0.00     0.173 A 
ATOM     76  C   UNL A   1      40.134  35.271  37.052  1.00  0.00     0.173 A 
ATOM     77  F   UNL A   1      38.167  32.392  38.071  1.00  0.00    -0.203 F 
ATOM     78  C   UNL A   1      38.633  34.397  39.216  1.00  0.00     0.198 A 
ATOM     79  C   UNL A   1      40.006  36.072  38.185  1.00  0.00     0.198 A 
ATOM     80  F   UNL A   1      40.860  35.723  36.018  1.00  0.00    -0.203 F 
ATOM     81  F   UNL A   1      37.876  33.985  40.243  1.00  0.00    -0.200 F 
ATOM     82  C   UNL A   1      39.249  35.638  39.262  1.00  0.00     0.200 A 
ATOM     83  F   UNL A   1      40.613  37.266  38.231  1.00  0.00    -0.200 F 
ATOM     84  F   UNL A   1      39.104  36.421  40.340  1.00  0.00    -0.200 F 
ENDBRANCH  50  74
BRANCH  62  85
ATOM     85  C   UNL A   1      43.743  28.730  35.276  1.00  0.00     0.064 A 
ATOM     86  C   UNL A   1      45.062  29.171  35.095  1.00  0.00     0.173 A 
ATOM     87  C   UNL A   1      43.517  27.681  36.180  1.00  0.00     0.173 A 
ATOM     88  F   UNL A   1      45.330  30.160  34.230  1.00  0.00    -0.203 F 
ATOM     89  C   UNL A   1      46.116  28.569  35.777  1.00  0.00     0.198 A 
ATOM     90  C   UNL A   1      44.570  27.102  36.882  1.00  0.00     0.198 A 
ATOM     91  F   UNL A   1      42.273  27.227  36.394  1.00  0.00    -0.203 F 
ATOM     92  F   UNL A   1      47.373  28.977  35.555  1.00  0.00    -0.200 F 
ATOM     93  C   UNL A   1      45.869  27.542  36.676  1.00  0.00     0.200 A 
ATOM     94  F   UNL A   1      44.328  26.118  37.760  1.00  0.00    -0.200 F 
ATOM     95  F   UNL A   1      46.884  26.970  37.337  1.00  0.00    -0.200 F 
ENDBRANCH  62  85
ENDBRANCH  36  37
ENDBRANCH  28  31
ENDBRANCH  26  27
ENDBRANCH  25  26
ENDBRANCH  24  25
ENDBRANCH   1  24
TORSDOF 15
ENDMDL
MODEL 3
REMARK VINA RESULT:     -11.8      4.067      9.076
REMARK SMILES COC(=O)[C@H]1CCN(C(=O)Nc2sccc2C(=O)NCCCCNC(=O)c2ccc(-c3c4nc(c(-c5c(F)c(F)c(F)c(F)c5F)c5ccc([nH]5)c(-c5c(F)c(F)c(F)c(F)c5F)c5nc(c(-c6c(F)c(F)c(F)c(F)c6F)c6ccc3[nH]6)C=C5)C=C4)cc2)C1
REMARK SMILES IDX 20 1 19 2 17 3 18 4 16 6 12 7 13 8 14 9 15 10 11 11 9 12
REMARK SMILES IDX 10 13 8 15 5 16 6 17 90 18 7 19 3 20 4 21 2 22 1 23 21 24
REMARK SMILES IDX 22 25 23 26 24 27 25 28 26 30 27 31 28 32 89 33 29 34 88 35
REMARK SMILES IDX 30 36 31 37 32 38 82 39 33 40 87 41 81 42 83 43 34 44 86 45
REMARK SMILES IDX 80 46 79 47 35 49 67 50 47 51 66 52 48 53 51 54 65 55 84 56
REMARK SMILES IDX 49 57 50 58 64 60 85 61 52 62 36 63 37 64 45 65 38 66 39 67
REMARK SMILES IDX 43 68 46 69 40 70 41 71 44 72 42 73 68 74 69 75 77 76 70 77
REMARK SMILES IDX 71 78 75 79 78 80 72 81 73 82 76 83 74 84 53 85 54 86 62 87
REMARK SMILES IDX 55 88 56 89 60 90 63 91 57 92 58 93 61 94 59 95
REMARK H PARENT 19 5 11 14 24 29 83 48 51 59
REMARK Flexibility Score: inf
ROOT
ATOM      1  C   UNL A   1      32.215  29.375  26.813  1.00  0.00     0.116 C 
ENDROOT
BRANCH   1   2
ATOM      2  N   UNL A   1      33.144  28.508  26.116  1.00  0.00    -0.352 N 
ATOM      3  C   UNL A   1      32.898  27.583  25.129  1.00  0.00     0.254 C 
ATOM      4  O   UNL A   1      33.853  26.934  24.700  1.00  0.00    -0.269 OA
ATOM      5  H   UNL A   1      34.085  28.593  26.389  1.00  0.00     0.163 HD
BRANCH   3   6
ATOM      6  C   UNL A   1      31.535  27.300  24.679  1.00  0.00     0.074 A 
ATOM      7  C   UNL A   1      30.614  26.400  25.192  1.00  0.00     0.109 A 
ATOM      8  S   UNL A   1      29.223  26.246  24.214  1.00  0.00    -0.126 S 
ATOM      9  C   UNL A   1      29.648  27.622  23.300  1.00  0.00     0.068 A 
ATOM     10  C   UNL A   1      30.905  28.074  23.630  1.00  0.00     0.028 A 
BRANCH   7  11
ATOM     11  N   UNL A   1      30.540  25.603  26.311  1.00  0.00    -0.299 N 
ATOM     12  C   UNL A   1      30.704  24.252  26.380  1.00  0.00     0.322 C 
ATOM     13  O   UNL A   1      30.052  23.617  27.211  1.00  0.00    -0.248 OA
ATOM     14  H   UNL A   1      30.345  26.062  27.160  1.00  0.00     0.172 HD
BRANCH  12  15
ATOM     15  N   UNL A   1      31.625  23.649  25.569  1.00  0.00    -0.324 N 
ATOM     16  C   UNL A   1      33.728  23.448  24.497  1.00  0.00     0.120 C 
ATOM     17  C   UNL A   1      32.695  22.568  23.800  1.00  0.00     0.039 C 
ATOM     18  C   UNL A   1      33.062  23.729  25.843  1.00  0.00     0.136 C 
ATOM     19  C   UNL A   1      31.401  23.242  24.187  1.00  0.00     0.122 C 
BRANCH  16  20
ATOM     20  C   UNL A   1      35.067  22.764  24.479  1.00  0.00     0.310 C 
ATOM     21  O   UNL A   1      35.176  21.550  24.625  1.00  0.00    -0.252 OA
BRANCH  20  22
ATOM     22  O   UNL A   1      36.110  23.609  24.290  1.00  0.00    -0.469 OA
ATOM     23  C   UNL A   1      36.922  23.754  25.460  1.00  0.00     0.282 C 
ENDBRANCH  20  22
ENDBRANCH  16  20
ENDBRANCH  12  15
ENDBRANCH   7  11
ENDBRANCH   3   6
ENDBRANCH   1   2
BRANCH   1  24
ATOM     24  C   UNL A   1      31.846  30.639  26.045  1.00  0.00     0.023 C 
BRANCH  24  25
ATOM     25  C   UNL A   1      31.550  31.874  26.899  1.00  0.00     0.023 C 
BRANCH  25  26
ATOM     26  C   UNL A   1      32.751  32.720  27.318  1.00  0.00     0.116 C 
BRANCH  26  27
ATOM     27  N   UNL A   1      32.414  34.098  27.646  1.00  0.00    -0.352 N 
ATOM     28  C   UNL A   1      32.968  34.953  28.570  1.00  0.00     0.251 C 
ATOM     29  H   UNL A   1      31.671  34.478  27.124  1.00  0.00     0.163 HD
ATOM     30  O   UNL A   1      32.465  36.054  28.782  1.00  0.00    -0.269 OA
BRANCH  28  31
ATOM     31  C   UNL A   1      34.157  34.538  29.345  1.00  0.00     0.039 A 
ATOM     32  C   UNL A   1      33.980  34.021  30.631  1.00  0.00     0.014 A 
ATOM     33  C   UNL A   1      35.440  34.641  28.802  1.00  0.00     0.014 A 
ATOM     34  C   UNL A   1      35.077  33.507  31.329  1.00  0.00     0.010 A 
ATOM     35  C   UNL A   1      36.518  34.057  29.463  1.00  0.00     0.010 A 
ATOM     36  C   UNL A   1      36.346  33.470  30.727  1.00  0.00    -0.014 A 
BRANCH  36  37
ATOM     37  C   UNL A   1      37.493  32.791  31.386  1.00  0.00     0.031 A 
ATOM     38  C   UNL A   1      38.159  31.612  30.732  1.00  0.00     0.074 A 
ATOM     39  C   UNL A   1      37.879  33.181  32.617  1.00  0.00     0.049 A 
ATOM     40  N   UNL A   1      39.111  30.839  31.191  1.00  0.00    -0.248 NA
ATOM     41  C   UNL A   1      37.669  31.233  29.398  1.00  0.00     0.031 C 
ATOM     42  C   UNL A   1      37.275  34.269  33.389  1.00  0.00     0.029 A 
ATOM     43  N   UNL A   1      38.862  32.697  33.446  1.00  0.00    -0.354 N 
ATOM     44  C   UNL A   1      39.318  29.874  30.215  1.00  0.00     0.074 A 
ATOM     45  C   UNL A   1      38.361  30.127  29.159  1.00  0.00     0.031 C 
ATOM     46  C   UNL A   1      37.909  34.381  34.566  1.00  0.00     0.029 A 
ATOM     47  C   UNL A   1      38.940  33.351  34.651  1.00  0.00     0.049 A 
ATOM     48  H   UNL A   1      39.455  31.950  33.199  1.00  0.00     0.167 HD
ATOM     49  C   UNL A   1      40.237  28.879  30.191  1.00  0.00     0.037 A 
ATOM     50  C   UNL A   1      39.744  33.141  35.712  1.00  0.00     0.037 A 
ATOM     51  C   UNL A   1      41.214  28.651  31.224  1.00  0.00     0.049 A 
ATOM     52  C   UNL A   1      40.770  32.040  35.649  1.00  0.00     0.074 A 
ATOM     53  C   UNL A   1      42.236  27.718  31.251  1.00  0.00     0.029 A 
ATOM     54  N   UNL A   1      41.287  29.360  32.412  1.00  0.00    -0.354 N 
ATOM     55  N   UNL A   1      41.011  31.187  34.685  1.00  0.00    -0.248 NA
ATOM     56  C   UNL A   1      41.644  31.882  36.821  1.00  0.00     0.031 C 
ATOM     57  C   UNL A   1      42.902  27.834  32.476  1.00  0.00     0.029 A 
ATOM     58  C   UNL A   1      42.324  28.872  33.191  1.00  0.00     0.049 A 
ATOM     59  H   UNL A   1      40.691  30.102  32.666  1.00  0.00     0.167 HD
ATOM     60  C   UNL A   1      42.076  30.411  35.118  1.00  0.00     0.074 A 
ATOM     61  C   UNL A   1      42.448  30.904  36.427  1.00  0.00     0.031 C 
ATOM     62  C   UNL A   1      42.691  29.381  34.487  1.00  0.00     0.037 A 
BRANCH  49  63
ATOM     63  C   UNL A   1      40.241  27.961  29.003  1.00  0.00     0.064 A 
ATOM     64  C   UNL A   1      40.987  28.251  27.851  1.00  0.00     0.173 A 
ATOM     65  C   UNL A   1      39.528  26.753  29.036  1.00  0.00     0.173 A 
ATOM     66  F   UNL A   1      41.678  29.397  27.765  1.00  0.00    -0.203 F 
ATOM     67  C   UNL A   1      41.000  27.378  26.767  1.00  0.00     0.198 A 
ATOM     68  C   UNL A   1      39.567  25.868  27.961  1.00  0.00     0.198 A 
ATOM     69  F   UNL A   1      38.802  26.424  30.116  1.00  0.00    -0.203 F 
ATOM     70  F   UNL A   1      41.685  27.696  25.659  1.00  0.00    -0.200 F 
ATOM     71  C   UNL A   1      40.296  26.184  26.826  1.00  0.00     0.200 A 
ATOM     72  F   UNL A   1      38.898  24.708  28.026  1.00  0.00    -0.200 F 
ATOM     73  F   UNL A   1      40.318  25.340  25.785  1.00  0.00    -0.200 F 
ENDBRANCH  49  63
BRANCH  50  74
ATOM     74  C   UNL A   1      39.629  34.002  36.917  1.00  0.00     0.064 A 
ATOM     75  C   UNL A   1      38.853  33.604  38.015  1.00  0.00     0.173 A 
ATOM     76  C   UNL A   1      40.278  35.243  36.993  1.00  0.00     0.173 A 
ATOM     77  F   UNL A   1      38.196  32.435  37.981  1.00  0.00    -0.203 F 
ATOM     78  C   UNL A   1      38.711  34.424  39.133  1.00  0.00     0.198 A 
ATOM     79  C   UNL A   1      40.159  36.050  38.123  1.00  0.00     0.198 A 
ATOM     80  F   UNL A   1      41.037  35.668  35.972  1.00  0.00    -0.203 F 
ATOM     81  F   UNL A   1      37.923  34.041  40.146  1.00  0.00    -0.200 F 
ATOM     82  C   UNL A   1      39.369  35.644  39.188  1.00  0.00     0.200 A 
ATOM     83  F   UNL A   1      40.806  37.222  38.178  1.00  0.00    -0.200 F 
ATOM     84  F   UNL A   1      39.232  36.432  40.263  1.00  0.00    -0.200 F 
ENDBRANCH  50  74
BRANCH  62  85
ATOM     85  C   UNL A   1      43.856  28.741  35.185  1.00  0.00     0.064 A 
ATOM     86  C   UNL A   1      43.689  27.647  36.046  1.00  0.00     0.173 A 
ATOM     87  C   UNL A   1      45.161  29.201  34.953  1.00  0.00     0.173 A 
ATOM     88  F   UNL A   1      42.459  27.179  36.312  1.00  0.00    -0.203 F 
ATOM     89  C   UNL A   1      44.783  27.051  36.667  1.00  0.00     0.198 A 
ATOM     90  C   UNL A   1      46.256  28.585  35.553  1.00  0.00     0.198 A 
ATOM     91  F   UNL A   1      45.376  30.240  34.132  1.00  0.00    -0.203 F 
ATOM     92  F   UNL A   1      44.595  26.036  37.521  1.00  0.00    -0.200 F 
ATOM     93  C   UNL A   1      46.066  27.515  36.414  1.00  0.00     0.200 A 
ATOM     94  F   UNL A   1      47.495  29.026  35.296  1.00  0.00    -0.200 F 
ATOM     95  F   UNL A   1      47.118  26.936  37.006  1.00  0.00    -0.200 F 
ENDBRANCH  62  85
ENDBRANCH  36  37
ENDBRANCH  28  31
ENDBRANCH  26  27
ENDBRANCH  25  26
ENDBRANCH  24  25
ENDBRANCH   1  24
TORSDOF 15
ENDMDL
