MODEL 1
REMARK VINA RESULT:     -13.0      0.000      0.000
REMARK SMILES COc1ccc(Br)cc1CNc1ccc(N2CCOCC2)c(C(=O)NCCCCNC(=O)c2ccc(-c3c4nc(c(-c5c(F)c(F)c(F)c(F)c5F)c5ccc([nH]5)c(-c5c(F)c(F)c(F)c(F)c5F)c5nc(c(-c6c(F)c(F)c(F)c(F)c6F)c6ccc3[nH]6)C=C5)C=C4)cc2)c1
REMARK SMILES IDX 26 1 25 2 23 3 24 4 22 6 12 7 13 8 96 9 14 10 15 11 11 12
REMARK SMILES IDX 10 14 9 15 3 16 4 17 5 18 8 19 6 20 7 21 2 22 1 23 16 24
REMARK SMILES IDX 17 25 21 26 18 27 20 28 19 29 27 30 28 31 29 32 30 33 31 34
REMARK SMILES IDX 32 36 33 37 34 38 95 39 35 40 94 41 36 42 37 43 38 44 88 45
REMARK SMILES IDX 39 46 93 47 87 48 89 49 40 50 92 51 86 52 85 53 41 55 73 56
REMARK SMILES IDX 53 57 72 58 54 59 57 60 71 61 90 62 55 63 56 64 70 66 91 67
REMARK SMILES IDX 58 68 42 69 43 70 51 71 44 72 45 73 49 74 52 75 46 76 47 77
REMARK SMILES IDX 50 78 48 79 74 80 75 81 83 82 76 83 77 84 81 85 84 86 78 87
REMARK SMILES IDX 79 88 82 89 80 90 59 91 60 92 68 93 61 94 62 95 66 96 69 97
REMARK SMILES IDX 63 98 64 99 67 100 65 101
REMARK H PARENT 25 5 11 13 30 35 89 54 57 65
REMARK Flexibility Score: inf
ROOT
ATOM      1  C   UNL A   1      32.758  29.906  26.181  1.00  0.00     0.116 C 
ENDROOT
BRANCH   1   2
ATOM      2  N   UNL A   1      33.088  29.780  24.768  1.00  0.00    -0.352 N 
ATOM      3  C   UNL A   1      32.437  29.152  23.715  1.00  0.00     0.253 C 
ATOM      4  O   UNL A   1      32.899  29.339  22.592  1.00  0.00    -0.269 OA
ATOM      5  H   UNL A   1      33.930  30.222  24.512  1.00  0.00     0.163 HD
BRANCH   3   6
ATOM      6  C   UNL A   1      31.250  28.268  23.946  1.00  0.00     0.065 A 
ATOM      7  C   UNL A   1      30.522  26.084  24.789  1.00  0.00     0.035 A 
ATOM      8  C   UNL A   1      29.294  26.293  24.173  1.00  0.00     0.028 A 
ATOM      9  C   UNL A   1      31.438  27.129  24.740  1.00  0.00     0.041 A 
ATOM     10  C   UNL A   1      29.002  27.515  23.559  1.00  0.00     0.029 A 
ATOM     11  C   UNL A   1      29.960  28.539  23.450  1.00  0.00     0.050 A 
BRANCH   7  12
ATOM     12  N   UNL A   1      30.766  24.903  25.449  1.00  0.00    -0.381 N 
ATOM     13  H   UNL A   1      30.901  24.952  26.423  1.00  0.00     0.160 HD
BRANCH  12  14
ATOM     14  C   UNL A   1      30.844  23.584  24.836  1.00  0.00     0.152 C 
BRANCH  14  15
ATOM     15  C   UNL A   1      32.250  23.349  24.345  1.00  0.00     0.014 A 
ATOM     16  C   UNL A   1      32.683  23.825  23.100  1.00  0.00     0.123 A 
ATOM     17  C   UNL A   1      34.004  23.617  22.694  1.00  0.00     0.048 A 
ATOM     18  C   UNL A   1      34.896  22.924  23.519  1.00  0.00     0.019 A 
ATOM     19  C   UNL A   1      33.169  22.686  25.182  1.00  0.00     0.025 A 
ATOM     20  C   UNL A   1      34.475  22.465  24.762  1.00  0.00     0.018 A 
ATOM     21  Br  UNL A   1      35.678  21.551  25.896  1.00  0.00    -0.051 Br
BRANCH  16  22
ATOM     22  O   UNL A   1      31.801  24.570  22.362  1.00  0.00    -0.496 OA
ATOM     23  C   UNL A   1      32.428  25.551  21.539  1.00  0.00     0.278 C 
ENDBRANCH  16  22
ENDBRANCH  14  15
ENDBRANCH  12  14
ENDBRANCH   7  12
BRANCH  11  24
ATOM     24  N   UNL A   1      29.545  29.771  22.999  1.00  0.00    -0.366 N 
ATOM     25  C   UNL A   1      29.198  30.894  23.867  1.00  0.00     0.145 C 
ATOM     26  C   UNL A   1      29.596  30.052  21.560  1.00  0.00     0.145 C 
ATOM     27  C   UNL A   1      27.992  31.670  23.296  1.00  0.00     0.181 C 
ATOM     28  C   UNL A   1      28.307  30.769  21.145  1.00  0.00     0.181 C 
ATOM     29  O   UNL A   1      28.142  31.983  21.898  1.00  0.00    -0.378 OA
ENDBRANCH  11  24
ENDBRANCH   3   6
ENDBRANCH   1   2
BRANCH   1  30
ATOM     30  C   UNL A   1      31.442  30.607  26.488  1.00  0.00     0.023 C 
BRANCH  30  31
ATOM     31  C   UNL A   1      31.462  32.128  26.485  1.00  0.00     0.023 C 
BRANCH  31  32
ATOM     32  C   UNL A   1      32.599  32.784  27.255  1.00  0.00     0.116 C 
BRANCH  32  33
ATOM     33  N   UNL A   1      32.347  34.170  27.617  1.00  0.00    -0.352 N 
ATOM     34  C   UNL A   1      32.990  34.965  28.540  1.00  0.00     0.251 C 
ATOM     35  H   UNL A   1      31.608  34.603  27.132  1.00  0.00     0.163 HD
ATOM     36  O   UNL A   1      32.587  36.096  28.767  1.00  0.00    -0.269 OA
BRANCH  34  37
ATOM     37  C   UNL A   1      34.149  34.430  29.288  1.00  0.00     0.039 A 
ATOM     38  C   UNL A   1      33.920  33.744  30.484  1.00  0.00     0.014 A 
ATOM     39  C   UNL A   1      35.452  34.585  28.808  1.00  0.00     0.014 A 
ATOM     40  C   UNL A   1      34.990  33.154  31.161  1.00  0.00     0.010 A 
ATOM     41  C   UNL A   1      36.501  33.921  29.432  1.00  0.00     0.010 A 
ATOM     42  C   UNL A   1      36.285  33.208  30.622  1.00  0.00    -0.014 A 
BRANCH  42  43
ATOM     43  C   UNL A   1      37.434  32.564  31.307  1.00  0.00     0.031 A 
ATOM     44  C   UNL A   1      38.174  31.443  30.628  1.00  0.00     0.074 A 
ATOM     45  C   UNL A   1      37.776  32.942  32.553  1.00  0.00     0.049 A 
ATOM     46  N   UNL A   1      39.159  30.706  31.077  1.00  0.00    -0.248 NA
ATOM     47  C   UNL A   1      37.725  31.081  29.274  1.00  0.00     0.031 C 
ATOM     48  C   UNL A   1      37.105  33.980  33.338  1.00  0.00     0.029 A 
ATOM     49  N   UNL A   1      38.772  32.492  33.383  1.00  0.00    -0.354 N 
ATOM     50  C   UNL A   1      39.430  29.787  30.072  1.00  0.00     0.074 A 
ATOM     51  C   UNL A   1      38.466  30.015  29.017  1.00  0.00     0.031 C 
ATOM     52  C   UNL A   1      37.724  34.105  34.523  1.00  0.00     0.029 A 
ATOM     53  C   UNL A   1      38.815  33.137  34.595  1.00  0.00     0.049 A 
ATOM     54  H   UNL A   1      39.396  31.773  33.134  1.00  0.00     0.167 HD
ATOM     55  C   UNL A   1      40.413  28.857  30.016  1.00  0.00     0.037 A 
ATOM     56  C   UNL A   1      39.643  32.966  35.643  1.00  0.00     0.037 A 
ATOM     57  C   UNL A   1      41.390  28.653  31.053  1.00  0.00     0.049 A 
ATOM     58  C   UNL A   1      40.737  31.935  35.550  1.00  0.00     0.074 A 
ATOM     59  C   UNL A   1      42.451  27.766  31.079  1.00  0.00     0.029 A 
ATOM     60  N   UNL A   1      41.425  29.356  32.249  1.00  0.00    -0.354 N 
ATOM     61  N   UNL A   1      41.022  31.112  34.570  1.00  0.00    -0.248 NA
ATOM     62  C   UNL A   1      41.637  31.822  36.707  1.00  0.00     0.031 C 
ATOM     63  C   UNL A   1      43.108  27.907  32.306  1.00  0.00     0.029 A 
ATOM     64  C   UNL A   1      42.487  28.919  33.022  1.00  0.00     0.049 A 
ATOM     65  H   UNL A   1      40.788  30.061  32.509  1.00  0.00     0.167 HD
ATOM     66  C   UNL A   1      42.155  30.417  34.971  1.00  0.00     0.074 A 
ATOM     67  C   UNL A   1      42.510  30.921  36.281  1.00  0.00     0.031 C 
ATOM     68  C   UNL A   1      42.841  29.450  34.313  1.00  0.00     0.037 A 
BRANCH  55  69
ATOM     69  C   UNL A   1      40.482  27.998  28.786  1.00  0.00     0.064 A 
ATOM     70  C   UNL A   1      39.796  26.775  28.704  1.00  0.00     0.173 A 
ATOM     71  C   UNL A   1      41.226  28.407  27.669  1.00  0.00     0.173 A 
ATOM     72  F   UNL A   1      39.081  26.330  29.749  1.00  0.00    -0.203 F 
ATOM     73  C   UNL A   1      39.881  25.979  27.565  1.00  0.00     0.198 A 
ATOM     74  C   UNL A   1      41.281  27.624  26.519  1.00  0.00     0.198 A 
ATOM     75  F   UNL A   1      41.896  29.568  27.691  1.00  0.00    -0.203 F 
ATOM     76  F   UNL A   1      39.266  24.789  27.534  1.00  0.00    -0.200 F 
ATOM     77  C   UNL A   1      40.618  26.408  26.471  1.00  0.00     0.200 A 
ATOM     78  F   UNL A   1      41.982  28.045  25.457  1.00  0.00    -0.200 F 
ATOM     79  F   UNL A   1      40.695  25.642  25.374  1.00  0.00    -0.200 F 
ENDBRANCH  55  69
BRANCH  56  80
ATOM     80  C   UNL A   1      39.505  33.818  36.853  1.00  0.00     0.064 A 
ATOM     81  C   UNL A   1      38.777  33.373  37.965  1.00  0.00     0.173 A 
ATOM     82  C   UNL A   1      40.079  35.096  36.919  1.00  0.00     0.173 A 
ATOM     83  F   UNL A   1      38.193  32.166  37.943  1.00  0.00    -0.203 F 
ATOM     84  C   UNL A   1      38.604  34.183  39.086  1.00  0.00     0.198 A 
ATOM     85  C   UNL A   1      39.929  35.894  38.052  1.00  0.00     0.198 A 
ATOM     86  F   UNL A   1      40.790  35.567  35.885  1.00  0.00    -0.203 F 
ATOM     87  F   UNL A   1      37.858  33.751  40.112  1.00  0.00    -0.200 F 
ATOM     88  C   UNL A   1      39.184  35.441  39.130  1.00  0.00     0.200 A 
ATOM     89  F   UNL A   1      40.503  37.104  38.097  1.00  0.00    -0.200 F 
ATOM     90  F   UNL A   1      39.017  36.221  40.207  1.00  0.00    -0.200 F 
ENDBRANCH  56  80
BRANCH  68  91
ATOM     91  C   UNL A   1      44.084  28.923  34.969  1.00  0.00     0.064 A 
ATOM     92  C   UNL A   1      44.059  27.812  35.824  1.00  0.00     0.173 A 
ATOM     93  C   UNL A   1      45.325  29.525  34.711  1.00  0.00     0.173 A 
ATOM     94  F   UNL A   1      42.895  27.209  36.113  1.00  0.00    -0.203 F 
ATOM     95  C   UNL A   1      45.225  27.346  36.427  1.00  0.00     0.198 A 
ATOM     96  C   UNL A   1      46.494  29.037  35.288  1.00  0.00     0.198 A 
ATOM     97  F   UNL A   1      45.405  30.585  33.893  1.00  0.00    -0.203 F 
ATOM     98  F   UNL A   1      45.168  26.319  37.285  1.00  0.00    -0.200 F 
ATOM     99  C   UNL A   1      46.441  27.954  36.153  1.00  0.00     0.200 A 
ATOM    100  F   UNL A   1      47.670  29.616  35.011  1.00  0.00    -0.200 F 
ATOM    101  F   UNL A   1      47.562  27.502  36.731  1.00  0.00    -0.200 F 
ENDBRANCH  68  91
ENDBRANCH  42  43
ENDBRANCH  34  37
ENDBRANCH  32  33
ENDBRANCH  31  32
ENDBRANCH  30  31
ENDBRANCH   1  30
TORSDOF 16
ENDMDL
MODEL 2
REMARK VINA RESULT:     -13.0      0.669      7.072
REMARK SMILES COc1ccc(Br)cc1CNc1ccc(N2CCOCC2)c(C(=O)NCCCCNC(=O)c2ccc(-c3c4nc(c(-c5c(F)c(F)c(F)c(F)c5F)c5ccc([nH]5)c(-c5c(F)c(F)c(F)c(F)c5F)c5nc(c(-c6c(F)c(F)c(F)c(F)c6F)c6ccc3[nH]6)C=C5)C=C4)cc2)c1
REMARK SMILES IDX 26 1 25 2 23 3 24 4 22 6 12 7 13 8 96 9 14 10 15 11 11 12
REMARK SMILES IDX 10 14 9 15 3 16 4 17 5 18 8 19 6 20 7 21 2 22 1 23 16 24
REMARK SMILES IDX 17 25 21 26 18 27 20 28 19 29 27 30 28 31 29 32 30 33 31 34
REMARK SMILES IDX 32 36 33 37 34 38 95 39 35 40 94 41 36 42 37 43 38 44 88 45
REMARK SMILES IDX 39 46 93 47 87 48 89 49 40 50 92 51 86 52 85 53 41 55 73 56
REMARK SMILES IDX 53 57 72 58 54 59 57 60 71 61 90 62 55 63 56 64 70 66 91 67
REMARK SMILES IDX 58 68 42 69 43 70 51 71 44 72 45 73 49 74 52 75 46 76 47 77
REMARK SMILES IDX 50 78 48 79 74 80 75 81 83 82 76 83 77 84 81 85 84 86 78 87
REMARK SMILES IDX 79 88 82 89 80 90 59 91 60 92 68 93 61 94 62 95 66 96 69 97
REMARK SMILES IDX 63 98 64 99 67 100 65 101
REMARK H PARENT 25 5 11 13 30 35 89 54 57 65
REMARK Flexibility Score: inf
ROOT
ATOM      1  C   UNL A   1      32.711  29.876  26.143  1.00  0.00     0.116 C 
ENDROOT
BRANCH   1   2
ATOM      2  N   UNL A   1      33.051  29.755  24.732  1.00  0.00    -0.352 N 
ATOM      3  C   UNL A   1      32.407  29.131  23.672  1.00  0.00     0.253 C 
ATOM      4  O   UNL A   1      32.877  29.322  22.554  1.00  0.00    -0.269 OA
ATOM      5  H   UNL A   1      33.895  30.197  24.483  1.00  0.00     0.163 HD
BRANCH   3   6
ATOM      6  C   UNL A   1      31.218  28.247  23.891  1.00  0.00     0.065 A 
ATOM      7  C   UNL A   1      30.484  26.056  24.711  1.00  0.00     0.035 A 
ATOM      8  C   UNL A   1      29.257  26.274  24.095  1.00  0.00     0.028 A 
ATOM      9  C   UNL A   1      31.402  27.100  24.674  1.00  0.00     0.041 A 
ATOM     10  C   UNL A   1      28.969  27.502  23.491  1.00  0.00     0.029 A 
ATOM     11  C   UNL A   1      29.930  28.525  23.395  1.00  0.00     0.050 A 
BRANCH   7  12
ATOM     12  N   UNL A   1      30.724  24.868  25.360  1.00  0.00    -0.381 N 
ATOM     13  H   UNL A   1      30.842  24.906  26.337  1.00  0.00     0.160 HD
BRANCH  12  14
ATOM     14  C   UNL A   1      30.819  23.558  24.732  1.00  0.00     0.152 C 
BRANCH  14  15
ATOM     15  C   UNL A   1      32.240  23.328  24.281  1.00  0.00     0.014 A 
ATOM     16  C   UNL A   1      32.706  23.805  23.049  1.00  0.00     0.123 A 
ATOM     17  C   UNL A   1      34.039  23.602  22.680  1.00  0.00     0.048 A 
ATOM     18  C   UNL A   1      34.910  22.913  23.530  1.00  0.00     0.019 A 
ATOM     19  C   UNL A   1      33.138  22.670  25.145  1.00  0.00     0.025 A 
ATOM     20  C   UNL A   1      34.456  22.454  24.762  1.00  0.00     0.018 A 
ATOM     21  Br  UNL A   1      35.630  21.545  25.930  1.00  0.00    -0.051 Br
BRANCH  16  22
ATOM     22  O   UNL A   1      31.842  24.546  22.286  1.00  0.00    -0.496 OA
ATOM     23  C   UNL A   1      32.486  25.543  21.496  1.00  0.00     0.278 C 
ENDBRANCH  16  22
ENDBRANCH  14  15
ENDBRANCH  12  14
ENDBRANCH   7  12
BRANCH  11  24
ATOM     24  N   UNL A   1      29.518  29.763  22.954  1.00  0.00    -0.366 N 
ATOM     25  C   UNL A   1      29.173  30.878  23.832  1.00  0.00     0.145 C 
ATOM     26  C   UNL A   1      29.572  30.056  21.518  1.00  0.00     0.145 C 
ATOM     27  C   UNL A   1      27.969  31.662  23.268  1.00  0.00     0.181 C 
ATOM     28  C   UNL A   1      28.284  30.780  21.108  1.00  0.00     0.181 C 
ATOM     29  O   UNL A   1      28.121  31.988  21.872  1.00  0.00    -0.378 OA
ENDBRANCH  11  24
ENDBRANCH   3   6
ENDBRANCH   1   2
BRANCH   1  30
ATOM     30  C   UNL A   1      31.395  30.579  26.443  1.00  0.00     0.023 C 
BRANCH  30  31
ATOM     31  C   UNL A   1      31.427  32.099  26.484  1.00  0.00     0.023 C 
BRANCH  31  32
ATOM     32  C   UNL A   1      32.655  32.726  27.127  1.00  0.00     0.116 C 
BRANCH  32  33
ATOM     33  N   UNL A   1      32.445  34.083  27.606  1.00  0.00    -0.352 N 
ATOM     34  C   UNL A   1      33.125  34.784  28.578  1.00  0.00     0.251 C 
ATOM     35  H   UNL A   1      31.709  34.572  27.173  1.00  0.00     0.163 HD
ATOM     36  O   UNL A   1      32.756  35.902  28.906  1.00  0.00    -0.269 OA
BRANCH  34  37
ATOM     37  C   UNL A   1      34.284  34.161  29.256  1.00  0.00     0.039 A 
ATOM     38  C   UNL A   1      34.049  33.203  30.246  1.00  0.00     0.014 A 
ATOM     39  C   UNL A   1      35.593  34.503  28.907  1.00  0.00     0.014 A 
ATOM     40  C   UNL A   1      35.127  32.539  30.837  1.00  0.00     0.010 A 
ATOM     41  C   UNL A   1      36.658  33.777  29.428  1.00  0.00     0.010 A 
ATOM     42  C   UNL A   1      36.439  32.795  30.407  1.00  0.00    -0.014 A 
BRANCH  42  43
ATOM     43  C   UNL A   1      37.599  32.081  30.998  1.00  0.00     0.031 A 
ATOM     44  C   UNL A   1      38.066  32.435  32.384  1.00  0.00     0.074 A 
ATOM     45  C   UNL A   1      38.266  31.161  30.274  1.00  0.00     0.049 A 
ATOM     46  N   UNL A   1      39.093  31.980  33.056  1.00  0.00    -0.248 NA
ATOM     47  C   UNL A   1      37.291  33.462  33.099  1.00  0.00     0.031 C 
ATOM     48  C   UNL A   1      37.944  30.767  28.902  1.00  0.00     0.029 A 
ATOM     49  N   UNL A   1      39.359  30.395  30.592  1.00  0.00    -0.354 N 
ATOM     50  C   UNL A   1      39.096  32.678  34.257  1.00  0.00     0.074 A 
ATOM     51  C   UNL A   1      38.010  33.632  34.197  1.00  0.00     0.031 C 
ATOM     52  C   UNL A   1      38.803  29.813  28.505  1.00  0.00     0.029 A 
ATOM     53  C   UNL A   1      39.754  29.551  29.582  1.00  0.00     0.049 A 
ATOM     54  H   UNL A   1      39.817  30.445  31.461  1.00  0.00     0.167 HD
ATOM     55  C   UNL A   1      39.911  32.519  35.328  1.00  0.00     0.037 A 
ATOM     56  C   UNL A   1      40.768  28.667  29.534  1.00  0.00     0.037 A 
ATOM     57  C   UNL A   1      40.971  31.548  35.397  1.00  0.00     0.049 A 
ATOM     58  C   UNL A   1      41.650  28.498  30.743  1.00  0.00     0.074 A 
ATOM     59  C   UNL A   1      41.828  31.277  36.449  1.00  0.00     0.029 A 
ATOM     60  N   UNL A   1      41.313  30.683  34.368  1.00  0.00    -0.354 N 
ATOM     61  N   UNL A   1      41.606  29.121  31.896  1.00  0.00    -0.248 NA
ATOM     62  C   UNL A   1      42.713  27.488  30.649  1.00  0.00     0.031 C 
ATOM     63  C   UNL A   1      42.712  30.272  36.044  1.00  0.00     0.029 A 
ATOM     64  C   UNL A   1      42.372  29.881  34.758  1.00  0.00     0.049 A 
ATOM     65  H   UNL A   1      40.869  30.646  33.489  1.00  0.00     0.167 HD
ATOM     66  C   UNL A   1      42.603  28.551  32.676  1.00  0.00     0.074 A 
ATOM     67  C   UNL A   1      43.230  27.526  31.868  1.00  0.00     0.031 C 
ATOM     68  C   UNL A   1      42.966  28.847  33.949  1.00  0.00     0.037 A 
BRANCH  55  69
ATOM     69  C   UNL A   1      39.675  33.411  36.513  1.00  0.00     0.064 A 
ATOM     70  C   UNL A   1      40.325  34.649  36.641  1.00  0.00     0.173 A 
ATOM     71  C   UNL A   1      38.777  33.035  37.523  1.00  0.00     0.173 A 
ATOM     72  F   UNL A   1      41.205  35.050  35.711  1.00  0.00    -0.203 F 
ATOM     73  C   UNL A   1      40.112  35.460  37.753  1.00  0.00     0.198 A 
ATOM     74  C   UNL A   1      38.541  33.864  38.617  1.00  0.00     0.198 A 
ATOM     75  F   UNL A   1      38.125  31.866  37.448  1.00  0.00    -0.203 F 
ATOM     76  F   UNL A   1      40.789  36.609  37.882  1.00  0.00    -0.200 F 
ATOM     77  C   UNL A   1      39.214  35.070  38.736  1.00  0.00     0.200 A 
ATOM     78  F   UNL A   1      37.664  33.493  39.560  1.00  0.00    -0.200 F 
ATOM     79  F   UNL A   1      39.007  35.853  39.803  1.00  0.00    -0.200 F 
ENDBRANCH  55  69
BRANCH  56  80
ATOM     80  C   UNL A   1      40.980  27.837  28.319  1.00  0.00     0.064 A 
ATOM     81  C   UNL A   1      40.366  26.583  28.191  1.00  0.00     0.173 A 
ATOM     82  C   UNL A   1      41.809  28.266  27.272  1.00  0.00     0.173 A 
ATOM     83  F   UNL A   1      39.578  26.119  29.173  1.00  0.00    -0.203 F 
ATOM     84  C   UNL A   1      40.594  25.778  27.077  1.00  0.00     0.198 A 
ATOM     85  C   UNL A   1      42.013  27.472  26.146  1.00  0.00     0.198 A 
ATOM     86  F   UNL A   1      42.415  29.459  27.343  1.00  0.00    -0.203 F 
ATOM     87  F   UNL A   1      40.036  24.562  27.007  1.00  0.00    -0.200 F 
ATOM     88  C   UNL A   1      41.414  26.225  26.053  1.00  0.00     0.200 A 
ATOM     89  F   UNL A   1      42.796  27.914  25.152  1.00  0.00    -0.200 F 
ATOM     90  F   UNL A   1      41.635  25.450  24.982  1.00  0.00    -0.200 F 
ENDBRANCH  56  80
BRANCH  68  91
ATOM     91  C   UNL A   1      44.045  28.008  34.569  1.00  0.00     0.064 A 
ATOM     92  C   UNL A   1      43.763  26.802  35.225  1.00  0.00     0.173 A 
ATOM     93  C   UNL A   1      45.387  28.407  34.476  1.00  0.00     0.173 A 
ATOM     94  F   UNL A   1      42.494  26.382  35.352  1.00  0.00    -0.203 F 
ATOM     95  C   UNL A   1      44.781  26.044  35.799  1.00  0.00     0.198 A 
ATOM     96  C   UNL A   1      46.406  27.632  35.022  1.00  0.00     0.198 A 
ATOM     97  F   UNL A   1      45.711  29.549  33.850  1.00  0.00    -0.203 F 
ATOM     98  F   UNL A   1      44.483  24.925  36.472  1.00  0.00    -0.200 F 
ATOM     99  C   UNL A   1      46.101  26.456  35.691  1.00  0.00     0.200 A 
ATOM    100  F   UNL A   1      47.681  28.024  34.903  1.00  0.00    -0.200 F 
ATOM    101  F   UNL A   1      47.080  25.725  36.240  1.00  0.00    -0.200 F 
ENDBRANCH  68  91
ENDBRANCH  42  43
ENDBRANCH  34  37
ENDBRANCH  32  33
ENDBRANCH  31  32
ENDBRANCH  30  31
ENDBRANCH   1  30
TORSDOF 16
ENDMDL
MODEL 3
REMARK VINA RESULT:     -12.9      5.512     10.108
REMARK SMILES COc1ccc(Br)cc1CNc1ccc(N2CCOCC2)c(C(=O)NCCCCNC(=O)c2ccc(-c3c4nc(c(-c5c(F)c(F)c(F)c(F)c5F)c5ccc([nH]5)c(-c5c(F)c(F)c(F)c(F)c5F)c5nc(c(-c6c(F)c(F)c(F)c(F)c6F)c6ccc3[nH]6)C=C5)C=C4)cc2)c1
REMARK SMILES IDX 26 1 25 2 23 3 24 4 22 6 12 7 13 8 96 9 14 10 15 11 11 12
REMARK SMILES IDX 10 14 9 15 3 16 4 17 5 18 8 19 6 20 7 21 2 22 1 23 16 24
REMARK SMILES IDX 17 25 21 26 18 27 20 28 19 29 27 30 28 31 29 32 30 33 31 34
REMARK SMILES IDX 32 36 33 37 34 38 95 39 35 40 94 41 36 42 37 43 38 44 88 45
REMARK SMILES IDX 39 46 93 47 87 48 89 49 40 50 92 51 86 52 85 53 41 55 73 56
REMARK SMILES IDX 53 57 72 58 54 59 57 60 71 61 90 62 55 63 56 64 70 66 91 67
REMARK SMILES IDX 58 68 42 69 43 70 51 71 44 72 45 73 49 74 52 75 46 76 47 77
REMARK SMILES IDX 50 78 48 79 74 80 75 81 83 82 76 83 77 84 81 85 84 86 78 87
REMARK SMILES IDX 79 88 82 89 80 90 59 91 60 92 68 93 61 94 62 95 66 96 69 97
REMARK SMILES IDX 63 98 64 99 67 100 65 101
REMARK H PARENT 25 5 11 13 30 35 89 54 57 65
REMARK Flexibility Score: inf
ROOT
ATOM      1  C   UNL A   1      36.657  21.935  25.470  1.00  0.00     0.116 C 
ENDROOT
BRANCH   1   2
ATOM      2  N   UNL A   1      35.602  21.691  26.445  1.00  0.00    -0.352 N 
ATOM      3  C   UNL A   1      34.273  21.316  26.301  1.00  0.00     0.253 C 
ATOM      4  O   UNL A   1      33.662  21.049  27.333  1.00  0.00    -0.269 OA
ATOM      5  H   UNL A   1      35.884  21.815  27.381  1.00  0.00     0.163 HD
BRANCH   3   6
ATOM      6  C   UNL A   1      33.616  21.269  24.956  1.00  0.00     0.065 A 
ATOM      7  C   UNL A   1      32.697  22.630  23.136  1.00  0.00     0.035 A 
ATOM      8  C   UNL A   1      32.092  21.485  22.630  1.00  0.00     0.028 A 
ATOM      9  C   UNL A   1      33.528  22.470  24.239  1.00  0.00     0.041 A 
ATOM     10  C   UNL A   1      32.341  20.234  23.203  1.00  0.00     0.029 A 
ATOM     11  C   UNL A   1      33.126  20.091  24.362  1.00  0.00     0.050 A 
BRANCH   7  12
ATOM     12  N   UNL A   1      32.495  23.841  22.518  1.00  0.00    -0.381 N 
ATOM     13  H   UNL A   1      32.128  23.823  21.604  1.00  0.00     0.160 HD
BRANCH  12  14
ATOM     14  C   UNL A   1      32.777  25.149  23.091  1.00  0.00     0.152 C 
BRANCH  14  15
ATOM     15  C   UNL A   1      31.487  25.918  23.231  1.00  0.00     0.014 A 
ATOM     16  C   UNL A   1      30.414  25.422  23.983  1.00  0.00     0.123 A 
ATOM     17  C   UNL A   1      29.246  26.178  24.118  1.00  0.00     0.048 A 
ATOM     18  C   UNL A   1      29.137  27.426  23.494  1.00  0.00     0.019 A 
ATOM     19  C   UNL A   1      31.378  27.192  22.641  1.00  0.00     0.025 A 
ATOM     20  C   UNL A   1      30.207  27.930  22.762  1.00  0.00     0.018 A 
ATOM     21  Br  UNL A   1      30.081  29.624  21.937  1.00  0.00    -0.051 Br
BRANCH  16  22
ATOM     22  O   UNL A   1      30.595  24.236  24.644  1.00  0.00    -0.496 OA
ATOM     23  C   UNL A   1      30.638  24.371  26.063  1.00  0.00     0.278 C 
ENDBRANCH  16  22
ENDBRANCH  14  15
ENDBRANCH  12  14
ENDBRANCH   7  12
BRANCH  11  24
ATOM     24  N   UNL A   1      33.474  18.819  24.756  1.00  0.00    -0.366 N 
ATOM     25  C   UNL A   1      34.670  18.113  24.303  1.00  0.00     0.145 C 
ATOM     26  C   UNL A   1      32.699  18.170  25.819  1.00  0.00     0.145 C 
ATOM     27  C   UNL A   1      34.368  16.615  24.086  1.00  0.00     0.181 C 
ATOM     28  C   UNL A   1      32.435  16.713  25.426  1.00  0.00     0.181 C 
ATOM     29  O   UNL A   1      33.675  16.020  25.201  1.00  0.00    -0.378 OA
ENDBRANCH  11  24
ENDBRANCH   3   6
ENDBRANCH   1   2
BRANCH   1  30
ATOM     30  C   UNL A   1      36.947  20.786  24.516  1.00  0.00     0.023 C 
BRANCH  30  31
ATOM     31  C   UNL A   1      37.877  19.696  25.024  1.00  0.00     0.023 C 
BRANCH  31  32
ATOM     32  C   UNL A   1      39.091  20.164  25.813  1.00  0.00     0.116 C 
BRANCH  32  33
ATOM     33  N   UNL A   1      40.178  19.199  25.857  1.00  0.00    -0.352 N 
ATOM     34  C   UNL A   1      41.517  19.399  26.107  1.00  0.00     0.251 C 
ATOM     35  H   UNL A   1      39.918  18.266  25.682  1.00  0.00     0.163 HD
ATOM     36  O   UNL A   1      42.306  18.469  26.027  1.00  0.00    -0.269 OA
BRANCH  34  37
ATOM     37  C   UNL A   1      42.007  20.756  26.436  1.00  0.00     0.039 A 
ATOM     38  C   UNL A   1      42.279  21.645  25.391  1.00  0.00     0.014 A 
ATOM     39  C   UNL A   1      42.181  21.160  27.762  1.00  0.00     0.014 A 
ATOM     40  C   UNL A   1      42.657  22.958  25.680  1.00  0.00     0.010 A 
ATOM     41  C   UNL A   1      42.467  22.490  28.048  1.00  0.00     0.010 A 
ATOM     42  C   UNL A   1      42.720  23.401  27.010  1.00  0.00    -0.014 A 
BRANCH  42  43
ATOM     43  C   UNL A   1      43.091  24.800  27.342  1.00  0.00     0.031 A 
ATOM     44  C   UNL A   1      44.498  25.277  27.099  1.00  0.00     0.074 A 
ATOM     45  C   UNL A   1      42.188  25.621  27.911  1.00  0.00     0.049 A 
ATOM     46  N   UNL A   1      45.042  26.434  27.378  1.00  0.00    -0.248 NA
ATOM     47  C   UNL A   1      45.426  24.310  26.489  1.00  0.00     0.031 C 
ATOM     48  C   UNL A   1      40.809  25.263  28.245  1.00  0.00     0.029 A 
ATOM     49  N   UNL A   1      42.298  26.928  28.317  1.00  0.00    -0.354 N 
ATOM     50  C   UNL A   1      46.373  26.325  26.997  1.00  0.00     0.074 A 
ATOM     51  C   UNL A   1      46.571  24.971  26.528  1.00  0.00     0.031 C 
ATOM     52  C   UNL A   1      40.193  26.331  28.778  1.00  0.00     0.029 A 
ATOM     53  C   UNL A   1      41.141  27.439  28.854  1.00  0.00     0.049 A 
ATOM     54  H   UNL A   1      43.128  27.450  28.231  1.00  0.00     0.167 HD
ATOM     55  C   UNL A   1      47.338  27.276  27.006  1.00  0.00     0.037 A 
ATOM     56  C   UNL A   1      40.879  28.663  29.348  1.00  0.00     0.037 A 
ATOM     57  C   UNL A   1      47.131  28.631  27.444  1.00  0.00     0.049 A 
ATOM     58  C   UNL A   1      41.964  29.707  29.333  1.00  0.00     0.074 A 
ATOM     59  C   UNL A   1      48.029  29.683  27.456  1.00  0.00     0.029 A 
ATOM     60  N   UNL A   1      45.932  29.121  27.943  1.00  0.00    -0.354 N 
ATOM     61  N   UNL A   1      43.203  29.611  28.914  1.00  0.00    -0.248 NA
ATOM     62  C   UNL A   1      41.608  31.038  29.846  1.00  0.00     0.031 C 
ATOM     63  C   UNL A   1      47.385  30.802  27.996  1.00  0.00     0.029 A 
ATOM     64  C   UNL A   1      46.070  30.460  28.270  1.00  0.00     0.049 A 
ATOM     65  H   UNL A   1      45.107  28.595  28.048  1.00  0.00     0.167 HD
ATOM     66  C   UNL A   1      43.759  30.873  29.071  1.00  0.00     0.074 A 
ATOM     67  C   UNL A   1      42.719  31.721  29.617  1.00  0.00     0.031 C 
ATOM     68  C   UNL A   1      45.016  31.294  28.787  1.00  0.00     0.037 A 
BRANCH  55  69
ATOM     69  C   UNL A   1      48.702  26.880  26.518  1.00  0.00     0.064 A 
ATOM     70  C   UNL A   1      49.665  26.338  27.384  1.00  0.00     0.173 A 
ATOM     71  C   UNL A   1      49.047  27.026  25.165  1.00  0.00     0.173 A 
ATOM     72  F   UNL A   1      49.392  26.191  28.690  1.00  0.00    -0.203 F 
ATOM     73  C   UNL A   1      50.932  25.991  26.923  1.00  0.00     0.198 A 
ATOM     74  C   UNL A   1      50.304  26.646  24.701  1.00  0.00     0.198 A 
ATOM     75  F   UNL A   1      48.164  27.533  24.293  1.00  0.00    -0.203 F 
ATOM     76  F   UNL A   1      51.853  25.532  27.782  1.00  0.00    -0.200 F 
ATOM     77  C   UNL A   1      51.248  26.138  25.581  1.00  0.00     0.200 A 
ATOM     78  F   UNL A   1      50.604  26.776  23.402  1.00  0.00    -0.200 F 
ATOM     79  F   UNL A   1      52.466  25.800  25.138  1.00  0.00    -0.200 F 
ENDBRANCH  55  69
BRANCH  56  80
ATOM     80  C   UNL A   1      39.520  28.990  29.856  1.00  0.00     0.064 A 
ATOM     81  C   UNL A   1      38.564  29.583  29.019  1.00  0.00     0.173 A 
ATOM     82  C   UNL A   1      39.153  28.733  31.185  1.00  0.00     0.173 A 
ATOM     83  F   UNL A   1      38.874  29.865  27.744  1.00  0.00    -0.203 F 
ATOM     84  C   UNL A   1      37.304  29.933  29.498  1.00  0.00     0.198 A 
ATOM     85  C   UNL A   1      37.882  29.059  31.655  1.00  0.00     0.198 A 
ATOM     86  F   UNL A   1      40.027  28.163  32.025  1.00  0.00    -0.203 F 
ATOM     87  F   UNL A   1      36.430  30.548  28.689  1.00  0.00    -0.200 F 
ATOM     88  C   UNL A   1      36.962  29.667  30.814  1.00  0.00     0.200 A 
ATOM     89  F   UNL A   1      37.550  28.788  32.925  1.00  0.00    -0.200 F 
ATOM     90  F   UNL A   1      35.750  30.006  31.276  1.00  0.00    -0.200 F 
ENDBRANCH  56  80
BRANCH  68  91
ATOM     91  C   UNL A   1      45.317  32.750  28.997  1.00  0.00     0.064 A 
ATOM     92  C   UNL A   1      45.061  33.711  28.008  1.00  0.00     0.173 A 
ATOM     93  C   UNL A   1      45.843  33.190  30.221  1.00  0.00     0.173 A 
ATOM     94  F   UNL A   1      44.570  33.340  26.816  1.00  0.00    -0.203 F 
ATOM     95  C   UNL A   1      45.356  35.055  28.224  1.00  0.00     0.198 A 
ATOM     96  C   UNL A   1      46.106  34.539  30.446  1.00  0.00     0.198 A 
ATOM     97  F   UNL A   1      46.097  32.312  31.203  1.00  0.00    -0.203 F 
ATOM     98  F   UNL A   1      45.158  35.948  27.245  1.00  0.00    -0.200 F 
ATOM     99  C   UNL A   1      45.871  35.468  29.444  1.00  0.00     0.200 A 
ATOM    100  F   UNL A   1      46.589  34.937  31.630  1.00  0.00    -0.200 F 
ATOM    101  F   UNL A   1      46.151  36.762  29.651  1.00  0.00    -0.200 F 
ENDBRANCH  68  91
ENDBRANCH  42  43
ENDBRANCH  34  37
ENDBRANCH  32  33
ENDBRANCH  31  32
ENDBRANCH  30  31
ENDBRANCH   1  30
TORSDOF 16
ENDMDL
