MODEL 1
REMARK VINA RESULT:     -12.4      0.000      0.000
REMARK SMILES Cc1nc(CN(CC(=O)NCCCCNC(=O)c2ccc(-c3c4nc(c(-c5c(F)c(F)c(F)c(F)c5F)c5ccc([nH]5)c(-c5c(F)c(F)c(F)c(F)c5F)c5nc(c(-c6c(F)c(F)c(F)c(F)c6F)c6ccc3[nH]6)C=C5)C=C4)cc2)c2cccc(Cl)c2)sc1C
REMARK SMILES IDX 12 1 11 2 10 3 8 4 9 5 7 7 6 8 5 9 4 10 1 11 2 12 3 13 89 14
REMARK SMILES IDX 88 15 90 16 81 17 82 18 87 19 83 20 85 21 84 22 86 23 13 24
REMARK SMILES IDX 14 25 15 26 16 27 17 29 18 30 19 31 80 32 20 33 79 34 21 35
REMARK SMILES IDX 22 36 23 37 73 38 24 39 78 40 72 41 74 42 25 43 77 44 71 45
REMARK SMILES IDX 70 46 26 48 58 49 38 50 57 51 39 52 42 53 56 54 75 55 40 56
REMARK SMILES IDX 41 57 55 59 76 60 43 61 27 62 28 63 36 64 29 65 30 66 34 67
REMARK SMILES IDX 37 68 31 69 32 70 35 71 33 72 59 73 60 74 68 75 61 76 62 77
REMARK SMILES IDX 66 78 69 79 63 80 64 81 67 82 65 83 44 84 45 85 53 86 46 87
REMARK SMILES IDX 47 88 51 89 54 90 48 91 49 92 52 93 50 94
REMARK H PARENT 10 6 15 28 74 47 42 58
REMARK Flexibility Score: inf
ROOT
ATOM      1  C   UNL A   1      31.593  30.653  25.751  1.00  0.00     0.023 C 
ENDROOT
BRANCH   1   2
ATOM      2  C   UNL A   1      32.841  29.819  26.041  1.00  0.00     0.116 C 
BRANCH   2   3
ATOM      3  N   UNL A   1      33.652  29.603  24.866  1.00  0.00    -0.355 N 
ATOM      4  C   UNL A   1      33.595  28.585  23.955  1.00  0.00     0.239 C 
ATOM      5  O   UNL A   1      34.360  28.657  22.987  1.00  0.00    -0.273 OA
ATOM      6  H   UNL A   1      34.342  30.283  24.697  1.00  0.00     0.163 HD
BRANCH   4   7
ATOM      7  C   UNL A   1      32.595  27.425  24.101  1.00  0.00     0.217 C 
BRANCH   7   8
ATOM      8  N   UNL A   1      31.691  27.218  22.947  1.00  0.00    -0.355 N 
BRANCH   8   9
ATOM      9  C   UNL A   1      32.062  26.148  21.986  1.00  0.00     0.184 C 
BRANCH   9  10
ATOM     10  C   UNL A   1      32.686  24.867  22.476  1.00  0.00     0.112 A 
ATOM     11  C   UNL A   1      35.633  22.979  23.278  1.00  0.00     0.068 C 
ATOM     12  C   UNL A   1      34.219  23.416  23.149  1.00  0.00     0.051 A 
ATOM     13  N   UNL A   1      33.964  24.559  22.404  1.00  0.00    -0.244 NA
ATOM     14  C   UNL A   1      33.102  22.841  23.734  1.00  0.00     0.025 A 
ATOM     15  S   UNL A   1      31.697  23.695  23.261  1.00  0.00    -0.122 S 
ATOM     16  C   UNL A   1      33.004  21.684  24.663  1.00  0.00     0.058 C 
ENDBRANCH   9  10
ENDBRANCH   8   9
BRANCH   8  17
ATOM     17  C   UNL A   1      30.436  27.819  22.950  1.00  0.00     0.039 A 
ATOM     18  C   UNL A   1      29.310  27.177  23.496  1.00  0.00     0.026 A 
ATOM     19  C   UNL A   1      30.197  29.087  22.400  1.00  0.00     0.046 A 
ATOM     20  C   UNL A   1      28.035  27.762  23.501  1.00  0.00     0.004 A 
ATOM     21  C   UNL A   1      28.931  29.683  22.406  1.00  0.00     0.043 A 
ATOM     22  C   UNL A   1      27.844  29.024  22.956  1.00  0.00     0.020 A 
ATOM     23  Cl  UNL A   1      28.723  31.244  21.708  1.00  0.00    -0.084 Cl
ENDBRANCH   8  17
ENDBRANCH   7   8
ENDBRANCH   4   7
ENDBRANCH   2   3
ENDBRANCH   1   2
BRANCH   1  24
ATOM     24  C   UNL A   1      31.367  31.828  26.704  1.00  0.00     0.023 C 
BRANCH  24  25
ATOM     25  C   UNL A   1      32.624  32.586  27.115  1.00  0.00     0.116 C 
BRANCH  25  26
ATOM     26  N   UNL A   1      32.363  33.961  27.515  1.00  0.00    -0.352 N 
ATOM     27  C   UNL A   1      32.991  34.722  28.470  1.00  0.00     0.251 C 
ATOM     28  H   UNL A   1      31.630  34.408  27.034  1.00  0.00     0.163 HD
ATOM     29  O   UNL A   1      32.556  35.834  28.752  1.00  0.00    -0.269 OA
BRANCH  27  30
ATOM     30  C   UNL A   1      34.170  34.188  29.185  1.00  0.00     0.039 A 
ATOM     31  C   UNL A   1      33.962  33.392  30.314  1.00  0.00     0.014 A 
ATOM     32  C   UNL A   1      35.469  34.454  28.745  1.00  0.00     0.014 A 
ATOM     33  C   UNL A   1      35.053  32.805  30.959  1.00  0.00     0.010 A 
ATOM     34  C   UNL A   1      36.549  33.806  29.340  1.00  0.00     0.010 A 
ATOM     35  C   UNL A   1      36.353  32.973  30.452  1.00  0.00    -0.014 A 
BRANCH  35  36
ATOM     36  C   UNL A   1      37.504  32.260  31.062  1.00  0.00     0.031 A 
ATOM     37  C   UNL A   1      37.991  32.628  32.436  1.00  0.00     0.074 A 
ATOM     38  C   UNL A   1      38.142  31.309  30.353  1.00  0.00     0.049 A 
ATOM     39  N   UNL A   1      38.986  32.123  33.124  1.00  0.00    -0.248 NA
ATOM     40  C   UNL A   1      37.285  33.722  33.121  1.00  0.00     0.031 C 
ATOM     41  C   UNL A   1      37.799  30.900  28.990  1.00  0.00     0.029 A 
ATOM     42  N   UNL A   1      39.211  30.512  30.678  1.00  0.00    -0.354 N 
ATOM     43  C   UNL A   1      39.029  32.842  34.310  1.00  0.00     0.074 A 
ATOM     44  C   UNL A   1      37.999  33.853  34.230  1.00  0.00     0.031 C 
ATOM     45  C   UNL A   1      38.617  29.905  28.609  1.00  0.00     0.029 A 
ATOM     46  C   UNL A   1      39.567  29.633  29.683  1.00  0.00     0.049 A 
ATOM     47  H   UNL A   1      39.680  30.565  31.542  1.00  0.00     0.167 HD
ATOM     48  C   UNL A   1      39.841  32.659  35.379  1.00  0.00     0.037 A 
ATOM     49  C   UNL A   1      40.549  28.713  29.641  1.00  0.00     0.037 A 
ATOM     50  C   UNL A   1      40.854  31.638  35.464  1.00  0.00     0.049 A 
ATOM     51  C   UNL A   1      41.444  28.542  30.840  1.00  0.00     0.074 A 
ATOM     52  C   UNL A   1      41.677  31.325  36.531  1.00  0.00     0.029 A 
ATOM     53  N   UNL A   1      41.187  30.767  34.435  1.00  0.00    -0.354 N 
ATOM     54  N   UNL A   1      41.416  29.167  31.991  1.00  0.00    -0.248 NA
ATOM     55  C   UNL A   1      42.503  27.529  30.732  1.00  0.00     0.031 C 
ATOM     56  C   UNL A   1      42.550  30.309  36.128  1.00  0.00     0.029 A 
ATOM     57  C   UNL A   1      42.227  29.942  34.832  1.00  0.00     0.049 A 
ATOM     58  H   UNL A   1      40.749  30.740  33.554  1.00  0.00     0.167 HD
ATOM     59  C   UNL A   1      42.430  28.604  32.755  1.00  0.00     0.074 A 
ATOM     60  C   UNL A   1      43.040  27.572  31.942  1.00  0.00     0.031 C 
ATOM     61  C   UNL A   1      42.824  28.917  34.015  1.00  0.00     0.037 A 
BRANCH  48  62
ATOM     62  C   UNL A   1      39.673  33.585  36.551  1.00  0.00     0.064 A 
ATOM     63  C   UNL A   1      40.343  34.817  36.621  1.00  0.00     0.173 A 
ATOM     64  C   UNL A   1      38.792  33.260  37.594  1.00  0.00     0.173 A 
ATOM     65  F   UNL A   1      41.204  35.173  35.655  1.00  0.00    -0.203 F 
ATOM     66  C   UNL A   1      40.159  35.675  37.702  1.00  0.00     0.198 A 
ATOM     67  C   UNL A   1      38.585  34.135  38.657  1.00  0.00     0.198 A 
ATOM     68  F   UNL A   1      38.122  32.099  37.576  1.00  0.00    -0.203 F 
ATOM     69  F   UNL A   1      40.846  36.823  37.769  1.00  0.00    -0.200 F 
ATOM     70  C   UNL A   1      39.273  35.337  38.714  1.00  0.00     0.200 A 
ATOM     71  F   UNL A   1      37.718  33.814  39.627  1.00  0.00    -0.200 F 
ATOM     72  F   UNL A   1      39.088  36.169  39.748  1.00  0.00    -0.200 F 
ENDBRANCH  48  62
BRANCH  49  73
ATOM     73  C   UNL A   1      40.727  27.863  28.434  1.00  0.00     0.064 A 
ATOM     74  C   UNL A   1      41.516  28.297  27.358  1.00  0.00     0.173 A 
ATOM     75  C   UNL A   1      40.098  26.615  28.318  1.00  0.00     0.173 A 
ATOM     76  F   UNL A   1      42.122  29.492  27.413  1.00  0.00    -0.203 F 
ATOM     77  C   UNL A   1      41.647  27.528  26.204  1.00  0.00     0.198 A 
ATOM     78  C   UNL A   1      40.255  25.833  27.175  1.00  0.00     0.198 A 
ATOM     79  F   UNL A   1      39.336  26.150  29.318  1.00  0.00    -0.203 F 
ATOM     80  F   UNL A   1      42.360  27.994  25.170  1.00  0.00    -0.200 F 
ATOM     81  C   UNL A   1      41.020  26.295  26.115  1.00  0.00     0.200 A 
ATOM     82  F   UNL A   1      39.662  24.634  27.099  1.00  0.00    -0.200 F 
ATOM     83  F   UNL A   1      41.145  25.557  25.003  1.00  0.00    -0.200 F 
ENDBRANCH  49  73
BRANCH  61  84
ATOM     84  C   UNL A   1      43.945  28.108  34.603  1.00  0.00     0.064 A 
ATOM     85  C   UNL A   1      45.280  28.531  34.528  1.00  0.00     0.173 A 
ATOM     86  C   UNL A   1      43.677  26.902  35.270  1.00  0.00     0.173 A 
ATOM     87  F   UNL A   1      45.593  29.669  33.889  1.00  0.00    -0.203 F 
ATOM     88  C   UNL A   1      46.308  27.759  35.066  1.00  0.00     0.198 A 
ATOM     89  C   UNL A   1      44.703  26.151  35.838  1.00  0.00     0.198 A 
ATOM     90  F   UNL A   1      42.417  26.454  35.378  1.00  0.00    -0.203 F 
ATOM     91  F   UNL A   1      47.582  28.154  34.927  1.00  0.00    -0.200 F 
ATOM     92  C   UNL A   1      46.018  26.575  35.726  1.00  0.00     0.200 A 
ATOM     93  F   UNL A   1      44.419  25.015  36.490  1.00  0.00    -0.200 F 
ATOM     94  F   UNL A   1      47.008  25.836  36.245  1.00  0.00    -0.200 F 
ENDBRANCH  61  84
ENDBRANCH  35  36
ENDBRANCH  27  30
ENDBRANCH  25  26
ENDBRANCH  24  25
ENDBRANCH   1  24
TORSDOF 15
ENDMDL
MODEL 2
REMARK VINA RESULT:     -12.3      0.764      7.395
REMARK SMILES Cc1nc(CN(CC(=O)NCCCCNC(=O)c2ccc(-c3c4nc(c(-c5c(F)c(F)c(F)c(F)c5F)c5ccc([nH]5)c(-c5c(F)c(F)c(F)c(F)c5F)c5nc(c(-c6c(F)c(F)c(F)c(F)c6F)c6ccc3[nH]6)C=C5)C=C4)cc2)c2cccc(Cl)c2)sc1C
REMARK SMILES IDX 12 1 11 2 10 3 8 4 9 5 7 7 6 8 5 9 4 10 1 11 2 12 3 13 89 14
REMARK SMILES IDX 88 15 90 16 81 17 82 18 87 19 83 20 85 21 84 22 86 23 13 24
REMARK SMILES IDX 14 25 15 26 16 27 17 29 18 30 19 31 80 32 20 33 79 34 21 35
REMARK SMILES IDX 22 36 23 37 73 38 24 39 78 40 72 41 74 42 25 43 77 44 71 45
REMARK SMILES IDX 70 46 26 48 58 49 38 50 57 51 39 52 42 53 56 54 75 55 40 56
REMARK SMILES IDX 41 57 55 59 76 60 43 61 27 62 28 63 36 64 29 65 30 66 34 67
REMARK SMILES IDX 37 68 31 69 32 70 35 71 33 72 59 73 60 74 68 75 61 76 62 77
REMARK SMILES IDX 66 78 69 79 63 80 64 81 67 82 65 83 44 84 45 85 53 86 46 87
REMARK SMILES IDX 47 88 51 89 54 90 48 91 49 92 52 93 50 94
REMARK H PARENT 10 6 15 28 74 47 42 58
REMARK Flexibility Score: inf
ROOT
ATOM      1  C   UNL A   1      31.569  30.532  26.413  1.00  0.00     0.023 C 
ENDROOT
BRANCH   1   2
ATOM      2  C   UNL A   1      32.990  29.975  26.479  1.00  0.00     0.116 C 
BRANCH   2   3
ATOM      3  N   UNL A   1      33.578  29.787  25.174  1.00  0.00    -0.355 N 
ATOM      4  C   UNL A   1      33.186  28.952  24.164  1.00  0.00     0.239 C 
ATOM      5  O   UNL A   1      33.817  29.022  23.104  1.00  0.00    -0.273 OA
ATOM      6  H   UNL A   1      34.371  30.338  24.984  1.00  0.00     0.163 HD
BRANCH   4   7
ATOM      7  C   UNL A   1      31.987  28.001  24.323  1.00  0.00     0.217 C 
BRANCH   7   8
ATOM      8  N   UNL A   1      31.083  27.922  23.153  1.00  0.00    -0.355 N 
BRANCH   8   9
ATOM      9  C   UNL A   1      31.371  26.864  22.150  1.00  0.00     0.184 C 
BRANCH   9  10
ATOM     10  C   UNL A   1      31.824  25.498  22.594  1.00  0.00     0.112 A 
ATOM     11  C   UNL A   1      34.495  23.164  23.158  1.00  0.00     0.068 C 
ATOM     12  C   UNL A   1      33.161  23.819  23.144  1.00  0.00     0.051 A 
ATOM     13  N   UNL A   1      33.028  24.993  22.418  1.00  0.00    -0.244 NA
ATOM     14  C   UNL A   1      32.020  23.422  23.823  1.00  0.00     0.025 A 
ATOM     15  S   UNL A   1      30.732  24.490  23.465  1.00  0.00    -0.122 S 
ATOM     16  C   UNL A   1      31.819  22.287  24.763  1.00  0.00     0.058 C 
ENDBRANCH   9  10
ENDBRANCH   8   9
BRANCH   8  17
ATOM     17  C   UNL A   1      29.883  28.628  23.172  1.00  0.00     0.039 A 
ATOM     18  C   UNL A   1      28.639  27.975  23.119  1.00  0.00     0.026 A 
ATOM     19  C   UNL A   1      29.826  30.029  23.227  1.00  0.00     0.046 A 
ATOM     20  C   UNL A   1      27.421  28.670  23.128  1.00  0.00     0.004 A 
ATOM     21  C   UNL A   1      28.616  30.731  23.244  1.00  0.00     0.043 A 
ATOM     22  C   UNL A   1      27.408  30.056  23.195  1.00  0.00     0.020 A 
ATOM     23  Cl  UNL A   1      28.633  32.453  23.312  1.00  0.00    -0.084 Cl
ENDBRANCH   8  17
ENDBRANCH   7   8
ENDBRANCH   4   7
ENDBRANCH   2   3
ENDBRANCH   1   2
BRANCH   1  24
ATOM     24  C   UNL A   1      31.464  32.052  26.551  1.00  0.00     0.023 C 
BRANCH  24  25
ATOM     25  C   UNL A   1      32.605  32.719  27.311  1.00  0.00     0.116 C 
BRANCH  25  26
ATOM     26  N   UNL A   1      32.347  34.115  27.628  1.00  0.00    -0.352 N 
ATOM     27  C   UNL A   1      32.974  34.930  28.538  1.00  0.00     0.251 C 
ATOM     28  H   UNL A   1      31.617  34.536  27.117  1.00  0.00     0.163 HD
ATOM     29  O   UNL A   1      32.541  36.058  28.753  1.00  0.00    -0.269 OA
BRANCH  27  30
ATOM     30  C   UNL A   1      34.147  34.435  29.290  1.00  0.00     0.039 A 
ATOM     31  C   UNL A   1      33.942  33.855  30.544  1.00  0.00     0.014 A 
ATOM     32  C   UNL A   1      35.438  34.526  28.763  1.00  0.00     0.014 A 
ATOM     33  C   UNL A   1      35.021  33.304  31.237  1.00  0.00     0.010 A 
ATOM     34  C   UNL A   1      36.500  33.907  29.418  1.00  0.00     0.010 A 
ATOM     35  C   UNL A   1      36.302  33.287  30.661  1.00  0.00    -0.014 A 
BRANCH  35  36
ATOM     36  C   UNL A   1      37.432  32.601  31.340  1.00  0.00     0.031 A 
ATOM     37  C   UNL A   1      38.147  31.460  30.673  1.00  0.00     0.074 A 
ATOM     38  C   UNL A   1      37.783  32.982  32.584  1.00  0.00     0.049 A 
ATOM     39  N   UNL A   1      39.145  30.736  31.117  1.00  0.00    -0.248 NA
ATOM     40  C   UNL A   1      37.663  31.059  29.343  1.00  0.00     0.031 C 
ATOM     41  C   UNL A   1      37.131  34.040  33.359  1.00  0.00     0.029 A 
ATOM     42  N   UNL A   1      38.773  32.524  33.418  1.00  0.00    -0.354 N 
ATOM     43  C   UNL A   1      39.400  29.795  30.129  1.00  0.00     0.074 A 
ATOM     44  C   UNL A   1      38.419  30.001  29.086  1.00  0.00     0.031 C 
ATOM     45  C   UNL A   1      37.760  34.175  34.537  1.00  0.00     0.029 A 
ATOM     46  C   UNL A   1      38.833  33.188  34.620  1.00  0.00     0.049 A 
ATOM     47  H   UNL A   1      39.382  31.790  33.177  1.00  0.00     0.167 HD
ATOM     48  C   UNL A   1      40.378  28.859  30.086  1.00  0.00     0.037 A 
ATOM     49  C   UNL A   1      39.658  33.018  35.670  1.00  0.00     0.037 A 
ATOM     50  C   UNL A   1      41.366  28.670  31.117  1.00  0.00     0.049 A 
ATOM     51  C   UNL A   1      40.727  31.961  35.598  1.00  0.00     0.074 A 
ATOM     52  C   UNL A   1      42.440  27.799  31.134  1.00  0.00     0.029 A 
ATOM     53  N   UNL A   1      41.394  29.360  32.322  1.00  0.00    -0.354 N 
ATOM     54  N   UNL A   1      41.015  31.138  34.620  1.00  0.00    -0.248 NA
ATOM     55  C   UNL A   1      41.592  31.817  36.778  1.00  0.00     0.031 C 
ATOM     56  C   UNL A   1      43.081  27.916  32.371  1.00  0.00     0.029 A 
ATOM     57  C   UNL A   1      42.447  28.907  33.102  1.00  0.00     0.049 A 
ATOM     58  H   UNL A   1      40.759  30.066  32.583  1.00  0.00     0.167 HD
ATOM     59  C   UNL A   1      42.109  30.400  35.052  1.00  0.00     0.074 A 
ATOM     60  C   UNL A   1      42.447  30.890  36.372  1.00  0.00     0.031 C 
ATOM     61  C   UNL A   1      42.774  29.405  34.413  1.00  0.00     0.037 A 
BRANCH  48  62
ATOM     62  C   UNL A   1      40.433  27.960  28.883  1.00  0.00     0.064 A 
ATOM     63  C   UNL A   1      39.736  26.742  28.840  1.00  0.00     0.173 A 
ATOM     64  C   UNL A   1      41.149  28.344  27.739  1.00  0.00     0.173 A 
ATOM     65  F   UNL A   1      39.043  26.322  29.909  1.00  0.00    -0.203 F 
ATOM     66  C   UNL A   1      39.777  25.930  27.708  1.00  0.00     0.198 A 
ATOM     67  C   UNL A   1      41.161  27.546  26.598  1.00  0.00     0.198 A 
ATOM     68  F   UNL A   1      41.828  29.500  27.723  1.00  0.00    -0.203 F 
ATOM     69  F   UNL A   1      39.143  24.750  27.709  1.00  0.00    -0.200 F 
ATOM     70  C   UNL A   1      40.482  26.337  26.586  1.00  0.00     0.200 A 
ATOM     71  F   UNL A   1      41.830  27.948  25.509  1.00  0.00    -0.200 F 
ATOM     72  F   UNL A   1      40.511  25.561  25.494  1.00  0.00    -0.200 F 
ENDBRANCH  48  62
BRANCH  49  73
ATOM     73  C   UNL A   1      39.526  33.884  36.872  1.00  0.00     0.064 A 
ATOM     74  C   UNL A   1      38.770  33.468  37.979  1.00  0.00     0.173 A 
ATOM     75  C   UNL A   1      40.129  35.148  36.934  1.00  0.00     0.173 A 
ATOM     76  F   UNL A   1      38.157  32.276  37.959  1.00  0.00    -0.203 F 
ATOM     77  C   UNL A   1      38.601  34.295  39.087  1.00  0.00     0.198 A 
ATOM     78  C   UNL A   1      39.985  35.960  38.057  1.00  0.00     0.198 A 
ATOM     79  F   UNL A   1      40.867  35.593  35.906  1.00  0.00    -0.203 F 
ATOM     80  F   UNL A   1      37.827  33.895  40.105  1.00  0.00    -0.200 F 
ATOM     81  C   UNL A   1      39.212  35.538  39.128  1.00  0.00     0.200 A 
ATOM     82  F   UNL A   1      40.592  37.155  38.100  1.00  0.00    -0.200 F 
ATOM     83  F   UNL A   1      39.048  36.333  40.194  1.00  0.00    -0.200 F 
ENDBRANCH  49  73
BRANCH  61  84
ATOM     84  C   UNL A   1      43.954  28.803  35.123  1.00  0.00     0.064 A 
ATOM     85  C   UNL A   1      45.247  29.328  34.983  1.00  0.00     0.173 A 
ATOM     86  C   UNL A   1      43.784  27.698  35.971  1.00  0.00     0.173 A 
ATOM     87  F   UNL A   1      45.466  30.375  34.172  1.00  0.00    -0.203 F 
ATOM     88  C   UNL A   1      46.332  28.748  35.636  1.00  0.00     0.198 A 
ATOM     89  C   UNL A   1      44.865  27.142  36.651  1.00  0.00     0.198 A 
ATOM     90  F   UNL A   1      42.568  27.160  36.148  1.00  0.00    -0.203 F 
ATOM     91  F   UNL A   1      47.567  29.229  35.438  1.00  0.00    -0.200 F 
ATOM     92  C   UNL A   1      46.138  27.660  36.474  1.00  0.00     0.200 A 
ATOM     93  F   UNL A   1      44.674  26.102  37.475  1.00  0.00    -0.200 F 
ATOM     94  F   UNL A   1      47.182  27.105  37.105  1.00  0.00    -0.200 F 
ENDBRANCH  61  84
ENDBRANCH  35  36
ENDBRANCH  27  30
ENDBRANCH  25  26
ENDBRANCH  24  25
ENDBRANCH   1  24
TORSDOF 15
ENDMDL
MODEL 3
REMARK VINA RESULT:     -12.3      0.634      7.379
REMARK SMILES Cc1nc(CN(CC(=O)NCCCCNC(=O)c2ccc(-c3c4nc(c(-c5c(F)c(F)c(F)c(F)c5F)c5ccc([nH]5)c(-c5c(F)c(F)c(F)c(F)c5F)c5nc(c(-c6c(F)c(F)c(F)c(F)c6F)c6ccc3[nH]6)C=C5)C=C4)cc2)c2cccc(Cl)c2)sc1C
REMARK SMILES IDX 12 1 11 2 10 3 8 4 9 5 7 7 6 8 5 9 4 10 1 11 2 12 3 13 89 14
REMARK SMILES IDX 88 15 90 16 81 17 82 18 87 19 83 20 85 21 84 22 86 23 13 24
REMARK SMILES IDX 14 25 15 26 16 27 17 29 18 30 19 31 80 32 20 33 79 34 21 35
REMARK SMILES IDX 22 36 23 37 73 38 24 39 78 40 72 41 74 42 25 43 77 44 71 45
REMARK SMILES IDX 70 46 26 48 58 49 38 50 57 51 39 52 42 53 56 54 75 55 40 56
REMARK SMILES IDX 41 57 55 59 76 60 43 61 27 62 28 63 36 64 29 65 30 66 34 67
REMARK SMILES IDX 37 68 31 69 32 70 35 71 33 72 59 73 60 74 68 75 61 76 62 77
REMARK SMILES IDX 66 78 69 79 63 80 64 81 67 82 65 83 44 84 45 85 53 86 46 87
REMARK SMILES IDX 47 88 51 89 54 90 48 91 49 92 52 93 50 94
REMARK H PARENT 10 6 15 28 74 47 42 58
REMARK Flexibility Score: inf
ROOT
ATOM      1  C   UNL A   1      31.782  30.539  26.671  1.00  0.00     0.023 C 
ENDROOT
BRANCH   1   2
ATOM      2  C   UNL A   1      31.621  30.057  25.229  1.00  0.00     0.116 C 
BRANCH   2   3
ATOM      3  N   UNL A   1      32.880  29.718  24.610  1.00  0.00    -0.355 N 
ATOM      4  C   UNL A   1      33.290  28.523  24.088  1.00  0.00     0.239 C 
ATOM      5  O   UNL A   1      34.400  28.500  23.546  1.00  0.00    -0.273 OA
ATOM      6  H   UNL A   1      33.535  30.450  24.556  1.00  0.00     0.163 HD
BRANCH   4   7
ATOM      7  C   UNL A   1      32.393  27.273  24.131  1.00  0.00     0.217 C 
BRANCH   7   8
ATOM      8  N   UNL A   1      31.523  27.078  22.950  1.00  0.00    -0.355 N 
BRANCH   8   9
ATOM      9  C   UNL A   1      31.914  26.010  21.994  1.00  0.00     0.184 C 
BRANCH   9  10
ATOM     10  C   UNL A   1      32.624  24.774  22.483  1.00  0.00     0.112 A 
ATOM     11  C   UNL A   1      35.695  23.077  23.245  1.00  0.00     0.068 C 
ATOM     12  C   UNL A   1      34.255  23.426  23.138  1.00  0.00     0.051 A 
ATOM     13  N   UNL A   1      33.917  24.544  22.390  1.00  0.00    -0.244 NA
ATOM     14  C   UNL A   1      33.186  22.788  23.747  1.00  0.00     0.025 A 
ATOM     15  S   UNL A   1      31.722  23.550  23.294  1.00  0.00    -0.122 S 
ATOM     16  C   UNL A   1      33.175  21.635  24.686  1.00  0.00     0.058 C 
ENDBRANCH   9  10
ENDBRANCH   8   9
BRANCH   8  17
ATOM     17  C   UNL A   1      30.271  27.686  22.920  1.00  0.00     0.039 A 
ATOM     18  C   UNL A   1      29.153  27.111  23.550  1.00  0.00     0.026 A 
ATOM     19  C   UNL A   1      30.029  28.897  22.253  1.00  0.00     0.046 A 
ATOM     20  C   UNL A   1      27.882  27.704  23.523  1.00  0.00     0.004 A 
ATOM     21  C   UNL A   1      28.767  29.501  22.227  1.00  0.00     0.043 A 
ATOM     22  C   UNL A   1      27.688  28.908  22.862  1.00  0.00     0.020 A 
ATOM     23  Cl  UNL A   1      28.554  30.988  21.384  1.00  0.00    -0.084 Cl
ENDBRANCH   8  17
ENDBRANCH   7   8
ENDBRANCH   4   7
ENDBRANCH   2   3
ENDBRANCH   1   2
BRANCH   1  24
ATOM     24  C   UNL A   1      31.518  32.030  26.886  1.00  0.00     0.023 C 
BRANCH  24  25
ATOM     25  C   UNL A   1      32.747  32.870  27.214  1.00  0.00     0.116 C 
BRANCH  25  26
ATOM     26  N   UNL A   1      32.423  34.228  27.626  1.00  0.00    -0.352 N 
ATOM     27  C   UNL A   1      32.991  34.994  28.613  1.00  0.00     0.251 C 
ATOM     28  H   UNL A   1      31.691  34.657  27.126  1.00  0.00     0.163 HD
ATOM     29  O   UNL A   1      32.507  36.085  28.898  1.00  0.00    -0.269 OA
BRANCH  27  30
ATOM     30  C   UNL A   1      34.163  34.490  29.361  1.00  0.00     0.039 A 
ATOM     31  C   UNL A   1      33.952  33.873  30.596  1.00  0.00     0.014 A 
ATOM     32  C   UNL A   1      35.458  34.609  28.848  1.00  0.00     0.014 A 
ATOM     33  C   UNL A   1      35.031  33.313  31.284  1.00  0.00     0.010 A 
ATOM     34  C   UNL A   1      36.520  33.981  29.496  1.00  0.00     0.010 A 
ATOM     35  C   UNL A   1      36.317  33.325  30.719  1.00  0.00    -0.014 A 
BRANCH  35  36
ATOM     36  C   UNL A   1      37.448  32.631  31.389  1.00  0.00     0.031 A 
ATOM     37  C   UNL A   1      38.143  31.479  30.719  1.00  0.00     0.074 A 
ATOM     38  C   UNL A   1      37.817  33.015  32.626  1.00  0.00     0.049 A 
ATOM     39  N   UNL A   1      39.139  30.748  31.155  1.00  0.00    -0.248 NA
ATOM     40  C   UNL A   1      37.640  31.076  29.397  1.00  0.00     0.031 C 
ATOM     41  C   UNL A   1      37.185  34.083  33.403  1.00  0.00     0.029 A 
ATOM     42  N   UNL A   1      38.811  32.551  33.450  1.00  0.00    -0.354 N 
ATOM     43  C   UNL A   1      39.373  29.799  30.169  1.00  0.00     0.074 A 
ATOM     44  C   UNL A   1      38.382  30.010  29.137  1.00  0.00     0.031 C 
ATOM     45  C   UNL A   1      37.829  34.218  34.573  1.00  0.00     0.029 A 
ATOM     46  C   UNL A   1      38.892  33.220  34.649  1.00  0.00     0.049 A 
ATOM     47  H   UNL A   1      39.411  31.809  33.207  1.00  0.00     0.167 HD
ATOM     48  C   UNL A   1      40.342  28.853  30.120  1.00  0.00     0.037 A 
ATOM     49  C   UNL A   1      39.728  33.048  35.690  1.00  0.00     0.037 A 
ATOM     50  C   UNL A   1      41.339  28.659  31.141  1.00  0.00     0.049 A 
ATOM     51  C   UNL A   1      40.786  31.979  35.611  1.00  0.00     0.074 A 
ATOM     52  C   UNL A   1      42.405  27.777  31.150  1.00  0.00     0.029 A 
ATOM     53  N   UNL A   1      41.388  29.355  32.341  1.00  0.00    -0.354 N 
ATOM     54  N   UNL A   1      41.053  31.148  34.634  1.00  0.00    -0.248 NA
ATOM     55  C   UNL A   1      41.662  31.833  36.782  1.00  0.00     0.031 C 
ATOM     56  C   UNL A   1      43.061  27.894  32.379  1.00  0.00     0.029 A 
ATOM     57  C   UNL A   1      42.445  28.896  33.111  1.00  0.00     0.049 A 
ATOM     58  H   UNL A   1      40.763  30.068  32.606  1.00  0.00     0.167 HD
ATOM     59  C   UNL A   1      42.145  30.402  35.057  1.00  0.00     0.074 A 
ATOM     60  C   UNL A   1      42.503  30.895  36.371  1.00  0.00     0.031 C 
ATOM     61  C   UNL A   1      42.792  29.396  34.416  1.00  0.00     0.037 A 
BRANCH  48  62
ATOM     62  C   UNL A   1      40.373  27.947  28.921  1.00  0.00     0.064 A 
ATOM     63  C   UNL A   1      41.126  28.259  27.779  1.00  0.00     0.173 A 
ATOM     64  C   UNL A   1      39.683  26.725  28.935  1.00  0.00     0.173 A 
ATOM     65  F   UNL A   1      41.797  29.419  27.708  1.00  0.00    -0.203 F 
ATOM     66  C   UNL A   1      41.164  27.397  26.685  1.00  0.00     0.198 A 
ATOM     67  C   UNL A   1      39.750  25.850  27.854  1.00  0.00     0.198 A 
ATOM     68  F   UNL A   1      38.953  26.373  30.004  1.00  0.00    -0.203 F 
ATOM     69  F   UNL A   1      41.851  27.741  25.587  1.00  0.00    -0.200 F 
ATOM     70  C   UNL A   1      40.483  26.190  26.727  1.00  0.00     0.200 A 
ATOM     71  F   UNL A   1      39.104  24.677  27.902  1.00  0.00    -0.200 F 
ATOM     72  F   UNL A   1      40.530  25.356  25.680  1.00  0.00    -0.200 F 
ENDBRANCH  48  62
BRANCH  49  73
ATOM     73  C   UNL A   1      39.619  33.921  36.889  1.00  0.00     0.064 A 
ATOM     74  C   UNL A   1      38.847  33.532  37.994  1.00  0.00     0.173 A 
ATOM     75  C   UNL A   1      40.260  35.166  36.949  1.00  0.00     0.173 A 
ATOM     76  F   UNL A   1      38.197  32.359  37.977  1.00  0.00    -0.203 F 
ATOM     77  C   UNL A   1      38.699  34.367  39.100  1.00  0.00     0.198 A 
ATOM     78  C   UNL A   1      40.137  35.986  38.069  1.00  0.00     0.198 A 
ATOM     79  F   UNL A   1      41.014  35.585  35.922  1.00  0.00    -0.203 F 
ATOM     80  F   UNL A   1      37.909  33.994  40.116  1.00  0.00    -0.200 F 
ATOM     81  C   UNL A   1      39.348  35.591  39.139  1.00  0.00     0.200 A 
ATOM     82  F   UNL A   1      40.780  37.161  38.110  1.00  0.00    -0.200 F 
ATOM     83  F   UNL A   1      39.205  36.394  40.202  1.00  0.00    -0.200 F 
ENDBRANCH  49  73
BRANCH  61  84
ATOM     84  C   UNL A   1      43.974  28.787  35.115  1.00  0.00     0.064 A 
ATOM     85  C   UNL A   1      43.833  27.715  36.009  1.00  0.00     0.173 A 
ATOM     86  C   UNL A   1      45.270  29.269  34.871  1.00  0.00     0.173 A 
ATOM     87  F   UNL A   1      42.615  27.226  36.290  1.00  0.00    -0.203 F 
ATOM     88  C   UNL A   1      44.939  27.173  36.660  1.00  0.00     0.198 A 
ATOM     89  C   UNL A   1      46.377  28.701  35.495  1.00  0.00     0.198 A 
ATOM     90  F   UNL A   1      45.463  30.287  34.019  1.00  0.00    -0.203 F 
ATOM     91  F   UNL A   1      44.772  26.191  37.556  1.00  0.00    -0.200 F 
ATOM     92  C   UNL A   1      46.210  27.662  36.397  1.00  0.00     0.200 A 
ATOM     93  F   UNL A   1      47.607  29.163  35.227  1.00  0.00    -0.200 F 
ATOM     94  F   UNL A   1      47.273  27.137  37.021  1.00  0.00    -0.200 F 
ENDBRANCH  61  84
ENDBRANCH  35  36
ENDBRANCH  27  30
ENDBRANCH  25  26
ENDBRANCH  24  25
ENDBRANCH   1  24
TORSDOF 15
ENDMDL
