MODEL 1
REMARK VINA RESULT:     -12.2      0.000      0.000
REMARK SMILES CCC[C@H](CNC(=O)N1C[C@H]2CCC[N@H+]2C[C@@H]1C)C(=O)NCCCCNC(=O)c1ccc(-c2c3nc(c(-c4c(F)c(F)c(F)c(F)c4F)c4ccc([nH]4)c(-c4c(F)c(F)c(F)c(F)c4F)c4nc(c(-c5c(F)c(F)c(F)c(F)c5F)c5ccc2[nH]5)C=C4)C=C3)cc1
REMARK SMILES IDX 23 1 22 2 21 3 19 4 20 5 4 7 3 8 2 9 1 10 5 11 6 12 7 13
REMARK SMILES IDX 8 15 9 16 10 17 17 18 11 19 16 20 18 21 12 22 15 23 13 24
REMARK SMILES IDX 14 25 24 27 25 28 26 29 27 30 28 32 29 33 30 34 91 35 31 36
REMARK SMILES IDX 90 37 32 38 33 39 34 40 84 41 35 42 89 43 83 44 85 45 36 46
REMARK SMILES IDX 88 47 82 48 81 49 37 51 69 52 49 53 68 54 50 55 53 56 67 57
REMARK SMILES IDX 86 58 51 59 52 60 66 62 87 63 54 64 38 65 39 66 47 67 40 68
REMARK SMILES IDX 41 69 45 70 48 71 42 72 43 73 46 74 44 75 70 76 71 77 79 78
REMARK SMILES IDX 72 79 73 80 77 81 80 82 74 83 75 84 78 85 76 86 55 87 56 88
REMARK SMILES IDX 64 89 57 90 58 91 62 92 65 93 59 94 60 95 63 96 61 97
REMARK H PARENT 21 6 6 14 15 26 26 31 85 50 53 61
REMARK Flexibility Score: inf
ROOT
ATOM      1  C   UNL A   1      31.881  28.304  27.601  1.00  0.00     0.023 C 
ENDROOT
BRANCH   1   2
ATOM      2  C   UNL A   1      32.271  27.133  26.706  1.00  0.00     0.116 C 
BRANCH   2   3
ATOM      3  N   UNL A   1      31.377  26.001  26.775  1.00  0.00    -0.356 N 
ATOM      4  C   UNL A   1      30.791  25.318  25.744  1.00  0.00     0.224 C 
ATOM      5  O   UNL A   1      30.230  24.253  26.008  1.00  0.00    -0.275 OA
ATOM      6  H   UNL A   1      31.162  25.680  27.679  1.00  0.00     0.163 HD
BRANCH   4   7
ATOM      7  C   UNL A   1      30.782  25.885  24.315  1.00  0.00     0.097 C 
BRANCH   7   8
ATOM      8  C   UNL A   1      29.695  26.969  24.118  1.00  0.00     0.015 C 
BRANCH   8   9
ATOM      9  C   UNL A   1      30.095  28.379  23.651  1.00  0.00    -0.003 C 
ATOM     10  C   UNL A   1      31.517  28.515  23.114  1.00  0.00     0.004 C 
ENDBRANCH   8   9
ENDBRANCH   7   8
BRANCH   7  11
ATOM     11  C   UNL A   1      30.841  24.699  23.352  1.00  0.00     0.131 C 
BRANCH  11  12
ATOM     12  N   UNL A   1      31.531  24.969  22.107  1.00  0.00    -0.337 N 
ATOM     13  C   UNL A   1      32.825  24.661  21.823  1.00  0.00     0.318 C 
ATOM     14  H   UNL A   1      31.015  25.418  21.399  1.00  0.00     0.165 HD
ATOM     15  O   UNL A   1      33.420  25.370  21.011  1.00  0.00    -0.249 OA
BRANCH  13  16
ATOM     16  N   UNL A   1      33.426  23.625  22.496  1.00  0.00    -0.311 N 
ATOM     17  C   UNL A   1      32.818  22.302  22.380  1.00  0.00     0.186 C 
ATOM     18  C   UNL A   1      34.579  23.742  23.424  1.00  0.00     0.139 C 
ATOM     19  C   UNL A   1      32.662  21.580  23.728  1.00  0.00     0.204 C 
ATOM     20  C   UNL A   1      34.955  22.383  24.077  1.00  0.00     0.287 C 
ATOM     21  C   UNL A   1      34.356  24.840  24.468  1.00  0.00     0.037 C 
ATOM     22  C   UNL A   1      32.366  20.092  23.535  1.00  0.00     0.073 C 
ATOM     23  N   UNL A   1      33.825  21.642  24.646  1.00  0.00    -0.329 N 
ATOM     24  C   UNL A   1      32.944  19.450  24.778  1.00  0.00     0.068 C 
ATOM     25  C   UNL A   1      34.197  20.270  25.017  1.00  0.00     0.262 C 
ATOM     26  H   UNL A   1      33.559  22.163  25.482  1.00  0.00     0.348 HD
ENDBRANCH  13  16
ENDBRANCH  11  12
ENDBRANCH   7  11
ENDBRANCH   4   7
ENDBRANCH   2   3
ENDBRANCH   1   2
BRANCH   1  27
ATOM     27  C   UNL A   1      31.585  29.608  26.866  1.00  0.00     0.023 C 
BRANCH  27  28
ATOM     28  C   UNL A   1      32.804  30.448  26.500  1.00  0.00     0.116 C 
BRANCH  28  29
ATOM     29  N   UNL A   1      32.695  31.855  26.851  1.00  0.00    -0.352 N 
ATOM     30  C   UNL A   1      33.573  32.618  27.589  1.00  0.00     0.251 C 
ATOM     31  H   UNL A   1      31.893  32.320  26.521  1.00  0.00     0.163 HD
ATOM     32  O   UNL A   1      33.302  33.782  27.866  1.00  0.00    -0.269 OA
BRANCH  30  33
ATOM     33  C   UNL A   1      34.823  32.007  28.093  1.00  0.00     0.039 A 
ATOM     34  C   UNL A   1      35.973  32.795  28.171  1.00  0.00     0.014 A 
ATOM     35  C   UNL A   1      34.852  30.681  28.535  1.00  0.00     0.014 A 
ATOM     36  C   UNL A   1      37.125  32.278  28.765  1.00  0.00     0.010 A 
ATOM     37  C   UNL A   1      35.970  30.198  29.208  1.00  0.00     0.010 A 
ATOM     38  C   UNL A   1      37.121  30.990  29.329  1.00  0.00    -0.014 A 
BRANCH  38  39
ATOM     39  C   UNL A   1      38.312  30.473  30.052  1.00  0.00     0.031 A 
ATOM     40  C   UNL A   1      38.578  30.878  31.476  1.00  0.00     0.074 A 
ATOM     41  C   UNL A   1      39.177  29.663  29.410  1.00  0.00     0.049 A 
ATOM     42  N   UNL A   1      39.546  30.503  32.275  1.00  0.00    -0.248 NA
ATOM     43  C   UNL A   1      37.656  31.856  32.073  1.00  0.00     0.031 C 
ATOM     44  C   UNL A   1      39.076  29.261  28.006  1.00  0.00     0.029 A 
ATOM     45  N   UNL A   1      40.311  29.031  29.855  1.00  0.00    -0.354 N 
ATOM     46  C   UNL A   1      39.351  31.201  33.459  1.00  0.00     0.074 A 
ATOM     47  C   UNL A   1      38.215  32.073  33.254  1.00  0.00     0.031 C 
ATOM     48  C   UNL A   1      40.078  28.415  27.717  1.00  0.00     0.029 A 
ATOM     49  C   UNL A   1      40.907  28.236  28.905  1.00  0.00     0.049 A 
ATOM     50  H   UNL A   1      40.664  29.136  30.768  1.00  0.00     0.167 HD
ATOM     51  C   UNL A   1      40.033  31.100  34.625  1.00  0.00     0.037 A 
ATOM     52  C   UNL A   1      41.990  27.441  28.988  1.00  0.00     0.037 A 
ATOM     53  C   UNL A   1      41.150  30.216  34.835  1.00  0.00     0.049 A 
ATOM     54  C   UNL A   1      42.714  27.324  30.302  1.00  0.00     0.074 A 
ATOM     55  C   UNL A   1      41.874  29.997  35.994  1.00  0.00     0.029 A 
ATOM     56  N   UNL A   1      41.706  29.404  33.857  1.00  0.00    -0.354 N 
ATOM     57  N   UNL A   1      42.463  27.919  31.443  1.00  0.00    -0.248 NA
ATOM     58  C   UNL A   1      43.861  26.407  30.344  1.00  0.00     0.031 C 
ATOM     59  C   UNL A   1      42.897  29.087  35.706  1.00  0.00     0.029 A 
ATOM     60  C   UNL A   1      42.775  28.694  34.383  1.00  0.00     0.049 A 
ATOM     61  H   UNL A   1      41.390  29.340  32.928  1.00  0.00     0.167 HD
ATOM     62  C   UNL A   1      43.397  27.426  32.345  1.00  0.00     0.074 A 
ATOM     63  C   UNL A   1      44.208  26.468  31.621  1.00  0.00     0.031 C 
ATOM     64  C   UNL A   1      43.568  27.739  33.653  1.00  0.00     0.037 A 
BRANCH  51  65
ATOM     65  C   UNL A   1      39.581  31.962  35.770  1.00  0.00     0.064 A 
ATOM     66  C   UNL A   1      38.552  31.555  36.635  1.00  0.00     0.173 A 
ATOM     67  C   UNL A   1      40.201  33.194  36.025  1.00  0.00     0.173 A 
ATOM     68  F   UNL A   1      37.917  30.391  36.428  1.00  0.00    -0.203 F 
ATOM     69  C   UNL A   1      38.140  32.363  37.690  1.00  0.00     0.198 A 
ATOM     70  C   UNL A   1      39.808  33.985  37.102  1.00  0.00     0.198 A 
ATOM     71  F   UNL A   1      41.191  33.630  35.234  1.00  0.00    -0.203 F 
ATOM     72  F   UNL A   1      37.119  31.977  38.468  1.00  0.00    -0.200 F 
ATOM     73  C   UNL A   1      38.773  33.574  37.928  1.00  0.00     0.200 A 
ATOM     74  F   UNL A   1      40.429  35.149  37.338  1.00  0.00    -0.200 F 
ATOM     75  F   UNL A   1      38.379  34.348  38.949  1.00  0.00    -0.200 F 
ENDBRANCH  51  65
BRANCH  52  76
ATOM     76  C   UNL A   1      42.424  26.649  27.808  1.00  0.00     0.064 A 
ATOM     77  C   UNL A   1      43.390  27.147  26.922  1.00  0.00     0.173 A 
ATOM     78  C   UNL A   1      41.881  25.384  27.537  1.00  0.00     0.173 A 
ATOM     79  F   UNL A   1      43.925  28.359  27.129  1.00  0.00    -0.203 F 
ATOM     80  C   UNL A   1      43.778  26.423  25.797  1.00  0.00     0.198 A 
ATOM     81  C   UNL A   1      42.292  24.648  26.427  1.00  0.00     0.198 A 
ATOM     82  F   UNL A   1      40.961  24.858  28.357  1.00  0.00    -0.203 F 
ATOM     83  F   UNL A   1      44.667  26.945  24.940  1.00  0.00    -0.200 F 
ATOM     84  C   UNL A   1      43.233  25.171  25.552  1.00  0.00     0.200 A 
ATOM     85  F   UNL A   1      41.775  23.432  26.204  1.00  0.00    -0.200 F 
ATOM     86  F   UNL A   1      43.608  24.474  24.472  1.00  0.00    -0.200 F 
ENDBRANCH  52  76
BRANCH  64  87
ATOM     87  C   UNL A   1      44.648  27.005  34.396  1.00  0.00     0.064 A 
ATOM     88  C   UNL A   1      45.953  27.510  34.497  1.00  0.00     0.173 A 
ATOM     89  C   UNL A   1      44.367  25.783  35.028  1.00  0.00     0.173 A 
ATOM     90  F   UNL A   1      46.276  28.667  33.900  1.00  0.00    -0.203 F 
ATOM     91  C   UNL A   1      46.946  26.800  35.167  1.00  0.00     0.198 A 
ATOM     92  C   UNL A   1      45.353  25.093  35.726  1.00  0.00     0.198 A 
ATOM     93  F   UNL A   1      43.133  25.260  34.971  1.00  0.00    -0.203 F 
ATOM     94  F   UNL A   1      48.200  27.271  35.196  1.00  0.00    -0.200 F 
ATOM     95  C   UNL A   1      46.644  25.596  35.786  1.00  0.00     0.200 A 
ATOM     96  F   UNL A   1      45.057  23.937  36.335  1.00  0.00    -0.200 F 
ATOM     97  F   UNL A   1      47.601  24.914  36.429  1.00  0.00    -0.200 F 
ENDBRANCH  64  87
ENDBRANCH  38  39
ENDBRANCH  30  33
ENDBRANCH  28  29
ENDBRANCH  27  28
ENDBRANCH   1  27
TORSDOF 16
ENDMDL
MODEL 2
REMARK VINA RESULT:     -12.1      1.691      2.800
REMARK SMILES CCC[C@H](CNC(=O)N1C[C@H]2CCC[N@H+]2C[C@@H]1C)C(=O)NCCCCNC(=O)c1ccc(-c2c3nc(c(-c4c(F)c(F)c(F)c(F)c4F)c4ccc([nH]4)c(-c4c(F)c(F)c(F)c(F)c4F)c4nc(c(-c5c(F)c(F)c(F)c(F)c5F)c5ccc2[nH]5)C=C4)C=C3)cc1
REMARK SMILES IDX 23 1 22 2 21 3 19 4 20 5 4 7 3 8 2 9 1 10 5 11 6 12 7 13
REMARK SMILES IDX 8 15 9 16 10 17 17 18 11 19 16 20 18 21 12 22 15 23 13 24
REMARK SMILES IDX 14 25 24 27 25 28 26 29 27 30 28 32 29 33 30 34 91 35 31 36
REMARK SMILES IDX 90 37 32 38 33 39 34 40 84 41 35 42 89 43 83 44 85 45 36 46
REMARK SMILES IDX 88 47 82 48 81 49 37 51 69 52 49 53 68 54 50 55 53 56 67 57
REMARK SMILES IDX 86 58 51 59 52 60 66 62 87 63 54 64 38 65 39 66 47 67 40 68
REMARK SMILES IDX 41 69 45 70 48 71 42 72 43 73 46 74 44 75 70 76 71 77 79 78
REMARK SMILES IDX 72 79 73 80 77 81 80 82 74 83 75 84 78 85 76 86 55 87 56 88
REMARK SMILES IDX 64 89 57 90 58 91 62 92 65 93 59 94 60 95 63 96 61 97
REMARK H PARENT 21 6 6 14 15 26 26 31 85 50 53 61
REMARK Flexibility Score: inf
ROOT
ATOM      1  C   UNL A   1      31.764  30.717  26.150  1.00  0.00     0.023 C 
ENDROOT
BRANCH   1   2
ATOM      2  C   UNL A   1      32.593  29.800  27.042  1.00  0.00     0.116 C 
BRANCH   2   3
ATOM      3  N   UNL A   1      31.971  28.532  27.343  1.00  0.00    -0.356 N 
ATOM      4  C   UNL A   1      31.592  27.545  26.474  1.00  0.00     0.224 C 
ATOM      5  O   UNL A   1      31.271  26.455  26.950  1.00  0.00    -0.275 OA
ATOM      6  H   UNL A   1      31.797  28.355  28.295  1.00  0.00     0.163 HD
BRANCH   4   7
ATOM      7  C   UNL A   1      31.512  27.803  24.960  1.00  0.00     0.097 C 
BRANCH   7   8
ATOM      8  C   UNL A   1      30.242  27.189  24.324  1.00  0.00     0.015 C 
BRANCH   8   9
ATOM      9  C   UNL A   1      29.415  28.011  23.320  1.00  0.00    -0.003 C 
ATOM     10  C   UNL A   1      29.911  29.431  23.066  1.00  0.00     0.004 C 
ENDBRANCH   8   9
ENDBRANCH   7   8
BRANCH   7  11
ATOM     11  C   UNL A   1      32.882  27.473  24.368  1.00  0.00     0.131 C 
BRANCH  11  12
ATOM     12  N   UNL A   1      32.841  26.918  23.030  1.00  0.00    -0.337 N 
ATOM     13  C   UNL A   1      33.322  25.705  22.648  1.00  0.00     0.318 C 
ATOM     14  H   UNL A   1      32.425  27.472  22.331  1.00  0.00     0.165 HD
ATOM     15  O   UNL A   1      33.702  25.577  21.484  1.00  0.00    -0.249 OA
BRANCH  13  16
ATOM     16  N   UNL A   1      33.425  24.704  23.584  1.00  0.00    -0.311 N 
ATOM     17  C   UNL A   1      34.748  24.129  23.813  1.00  0.00     0.186 C 
ATOM     18  C   UNL A   1      32.296  24.071  24.311  1.00  0.00     0.139 C 
ATOM     19  C   UNL A   1      34.751  22.591  23.836  1.00  0.00     0.204 C 
ATOM     20  C   UNL A   1      32.762  22.914  25.239  1.00  0.00     0.287 C 
ATOM     21  C   UNL A   1      31.183  23.631  23.357  1.00  0.00     0.037 C 
ATOM     22  C   UNL A   1      36.052  22.044  24.425  1.00  0.00     0.073 C 
ATOM     23  N   UNL A   1      33.660  21.944  24.604  1.00  0.00    -0.329 N 
ATOM     24  C   UNL A   1      35.639  20.720  25.031  1.00  0.00     0.068 C 
ATOM     25  C   UNL A   1      34.261  21.028  25.584  1.00  0.00     0.262 C 
ATOM     26  H   UNL A   1      33.070  21.417  23.960  1.00  0.00     0.348 HD
ENDBRANCH  13  16
ENDBRANCH  11  12
ENDBRANCH   7  11
ENDBRANCH   4   7
ENDBRANCH   2   3
ENDBRANCH   1   2
BRANCH   1  27
ATOM     27  C   UNL A   1      31.414  32.069  26.762  1.00  0.00     0.023 C 
BRANCH  27  28
ATOM     28  C   UNL A   1      32.585  32.847  27.352  1.00  0.00     0.116 C 
BRANCH  28  29
ATOM     29  N   UNL A   1      32.276  34.223  27.711  1.00  0.00    -0.352 N 
ATOM     30  C   UNL A   1      32.942  35.041  28.596  1.00  0.00     0.251 C 
ATOM     31  H   UNL A   1      31.493  34.619  27.264  1.00  0.00     0.163 HD
ATOM     32  O   UNL A   1      32.511  36.162  28.849  1.00  0.00    -0.269 OA
BRANCH  30  33
ATOM     33  C   UNL A   1      34.152  34.538  29.284  1.00  0.00     0.039 A 
ATOM     34  C   UNL A   1      34.008  33.895  30.515  1.00  0.00     0.014 A 
ATOM     35  C   UNL A   1      35.416  34.654  28.698  1.00  0.00     0.014 A 
ATOM     36  C   UNL A   1      35.118  33.300  31.117  1.00  0.00     0.010 A 
ATOM     37  C   UNL A   1      36.502  33.982  29.252  1.00  0.00     0.010 A 
ATOM     38  C   UNL A   1      36.366  33.299  30.470  1.00  0.00    -0.014 A 
BRANCH  38  39
ATOM     39  C   UNL A   1      37.525  32.579  31.057  1.00  0.00     0.031 A 
ATOM     40  C   UNL A   1      38.031  32.932  32.429  1.00  0.00     0.074 A 
ATOM     41  C   UNL A   1      38.149  31.628  30.334  1.00  0.00     0.049 A 
ATOM     42  N   UNL A   1      39.007  32.391  33.114  1.00  0.00    -0.248 NA
ATOM     43  C   UNL A   1      37.376  34.059  33.110  1.00  0.00     0.031 C 
ATOM     44  C   UNL A   1      37.808  31.249  28.962  1.00  0.00     0.029 A 
ATOM     45  N   UNL A   1      39.199  30.804  30.654  1.00  0.00    -0.354 N 
ATOM     46  C   UNL A   1      39.085  33.113  34.298  1.00  0.00     0.074 A 
ATOM     47  C   UNL A   1      38.105  34.173  34.210  1.00  0.00     0.031 C 
ATOM     48  C   UNL A   1      38.602  30.238  28.574  1.00  0.00     0.029 A 
ATOM     49  C   UNL A   1      39.525  29.915  29.658  1.00  0.00     0.049 A 
ATOM     50  H   UNL A   1      39.675  30.845  31.515  1.00  0.00     0.167 HD
ATOM     51  C   UNL A   1      39.876  32.893  35.375  1.00  0.00     0.037 A 
ATOM     52  C   UNL A   1      40.453  28.940  29.628  1.00  0.00     0.037 A 
ATOM     53  C   UNL A   1      40.836  31.825  35.469  1.00  0.00     0.049 A 
ATOM     54  C   UNL A   1      41.299  28.697  30.848  1.00  0.00     0.074 A 
ATOM     55  C   UNL A   1      41.646  31.482  36.538  1.00  0.00     0.029 A 
ATOM     56  N   UNL A   1      41.116  30.926  34.451  1.00  0.00    -0.354 N 
ATOM     57  N   UNL A   1      41.299  29.328  31.997  1.00  0.00    -0.248 NA
ATOM     58  C   UNL A   1      42.263  27.591  30.773  1.00  0.00     0.031 C 
ATOM     59  C   UNL A   1      42.449  30.404  36.150  1.00  0.00     0.029 A 
ATOM     60  C   UNL A   1      42.099  30.038  34.860  1.00  0.00     0.049 A 
ATOM     61  H   UNL A   1      40.683  30.919  33.568  1.00  0.00     0.167 HD
ATOM     62  C   UNL A   1      42.234  28.678  32.791  1.00  0.00     0.074 A 
ATOM     63  C   UNL A   1      42.768  27.590  31.997  1.00  0.00     0.031 C 
ATOM     64  C   UNL A   1      42.616  28.956  34.062  1.00  0.00     0.037 A 
BRANCH  51  65
ATOM     65  C   UNL A   1      39.726  33.823  36.546  1.00  0.00     0.064 A 
ATOM     66  C   UNL A   1      40.374  35.068  36.584  1.00  0.00     0.173 A 
ATOM     67  C   UNL A   1      38.901  33.482  37.629  1.00  0.00     0.173 A 
ATOM     68  F   UNL A   1      41.185  35.438  35.581  1.00  0.00    -0.203 F 
ATOM     69  C   UNL A   1      40.230  35.920  37.675  1.00  0.00     0.198 A 
ATOM     70  C   UNL A   1      38.732  34.352  38.703  1.00  0.00     0.198 A 
ATOM     71  F   UNL A   1      38.254  32.308  37.642  1.00  0.00    -0.203 F 
ATOM     72  F   UNL A   1      40.903  37.078  37.713  1.00  0.00    -0.200 F 
ATOM     73  C   UNL A   1      39.403  35.565  38.730  1.00  0.00     0.200 A 
ATOM     74  F   UNL A   1      37.923  34.013  39.716  1.00  0.00    -0.200 F 
ATOM     75  F   UNL A   1      39.259  36.390  39.777  1.00  0.00    -0.200 F 
ENDBRANCH  51  65
BRANCH  52  76
ATOM     76  C   UNL A   1      40.592  28.082  28.422  1.00  0.00     0.064 A 
ATOM     77  C   UNL A   1      39.925  26.852  28.332  1.00  0.00     0.173 A 
ATOM     78  C   UNL A   1      41.397  28.469  27.341  1.00  0.00     0.173 A 
ATOM     79  F   UNL A   1      39.159  26.431  29.349  1.00  0.00    -0.203 F 
ATOM     80  C   UNL A   1      40.077  26.030  27.218  1.00  0.00     0.198 A 
ATOM     81  C   UNL A   1      41.524  27.659  26.214  1.00  0.00     0.198 A 
ATOM     82  F   UNL A   1      42.049  29.639  27.372  1.00  0.00    -0.203 F 
ATOM     83  F   UNL A   1      39.467  24.837  27.180  1.00  0.00    -0.200 F 
ATOM     84  C   UNL A   1      40.872  26.436  26.157  1.00  0.00     0.200 A 
ATOM     85  F   UNL A   1      42.280  28.062  25.184  1.00  0.00    -0.200 F 
ATOM     86  F   UNL A   1      41.015  25.646  25.084  1.00  0.00    -0.200 F 
ENDBRANCH  52  76
BRANCH  64  87
ATOM     87  C   UNL A   1      43.631  28.042  34.687  1.00  0.00     0.064 A 
ATOM     88  C   UNL A   1      45.008  28.308  34.621  1.00  0.00     0.173 A 
ATOM     89  C   UNL A   1      43.218  26.889  35.373  1.00  0.00     0.173 A 
ATOM     90  F   UNL A   1      45.455  29.390  33.966  1.00  0.00    -0.203 F 
ATOM     91  C   UNL A   1      45.934  27.433  35.183  1.00  0.00     0.198 A 
ATOM     92  C   UNL A   1      44.145  26.034  35.962  1.00  0.00     0.198 A 
ATOM     93  F   UNL A   1      41.914  26.592  35.474  1.00  0.00    -0.203 F 
ATOM     94  F   UNL A   1      47.245  27.675  35.053  1.00  0.00    -0.200 F 
ATOM     95  C   UNL A   1      45.502  26.301  35.858  1.00  0.00     0.200 A 
ATOM     96  F   UNL A   1      43.726  24.949  36.626  1.00  0.00    -0.200 F 
ATOM     97  F   UNL A   1      46.395  25.460  36.397  1.00  0.00    -0.200 F 
ENDBRANCH  64  87
ENDBRANCH  38  39
ENDBRANCH  30  33
ENDBRANCH  28  29
ENDBRANCH  27  28
ENDBRANCH   1  27
TORSDOF 16
ENDMDL
MODEL 3
REMARK VINA RESULT:     -12.1      1.954      7.633
REMARK SMILES CCC[C@H](CNC(=O)N1C[C@H]2CCC[N@H+]2C[C@@H]1C)C(=O)NCCCCNC(=O)c1ccc(-c2c3nc(c(-c4c(F)c(F)c(F)c(F)c4F)c4ccc([nH]4)c(-c4c(F)c(F)c(F)c(F)c4F)c4nc(c(-c5c(F)c(F)c(F)c(F)c5F)c5ccc2[nH]5)C=C4)C=C3)cc1
REMARK SMILES IDX 23 1 22 2 21 3 19 4 20 5 4 7 3 8 2 9 1 10 5 11 6 12 7 13
REMARK SMILES IDX 8 15 9 16 10 17 17 18 11 19 16 20 18 21 12 22 15 23 13 24
REMARK SMILES IDX 14 25 24 27 25 28 26 29 27 30 28 32 29 33 30 34 91 35 31 36
REMARK SMILES IDX 90 37 32 38 33 39 34 40 84 41 35 42 89 43 83 44 85 45 36 46
REMARK SMILES IDX 88 47 82 48 81 49 37 51 69 52 49 53 68 54 50 55 53 56 67 57
REMARK SMILES IDX 86 58 51 59 52 60 66 62 87 63 54 64 38 65 39 66 47 67 40 68
REMARK SMILES IDX 41 69 45 70 48 71 42 72 43 73 46 74 44 75 70 76 71 77 79 78
REMARK SMILES IDX 72 79 73 80 77 81 80 82 74 83 75 84 78 85 76 86 55 87 56 88
REMARK SMILES IDX 64 89 57 90 58 91 62 92 65 93 59 94 60 95 63 96 61 97
REMARK H PARENT 21 6 6 14 15 26 26 31 85 50 53 61
REMARK Flexibility Score: inf
ROOT
ATOM      1  C   UNL A   1      31.784  30.592  26.887  1.00  0.00     0.023 C 
ENDROOT
BRANCH   1   2
ATOM      2  C   UNL A   1      33.232  30.115  26.847  1.00  0.00     0.116 C 
BRANCH   2   3
ATOM      3  N   UNL A   1      33.393  28.681  26.888  1.00  0.00    -0.356 N 
ATOM      4  C   UNL A   1      33.398  27.796  25.844  1.00  0.00     0.224 C 
ATOM      5  O   UNL A   1      33.759  26.641  26.073  1.00  0.00    -0.275 OA
ATOM      6  H   UNL A   1      33.515  28.289  27.782  1.00  0.00     0.163 HD
BRANCH   4   7
ATOM      7  C   UNL A   1      32.914  28.213  24.445  1.00  0.00     0.097 C 
BRANCH   7   8
ATOM      8  C   UNL A   1      31.400  27.963  24.246  1.00  0.00     0.015 C 
BRANCH   8   9
ATOM      9  C   UNL A   1      30.491  29.111  23.772  1.00  0.00    -0.003 C 
ATOM     10  C   UNL A   1      30.390  29.287  22.260  1.00  0.00     0.004 C 
ENDBRANCH   8   9
ENDBRANCH   7   8
BRANCH   7  11
ATOM     11  C   UNL A   1      33.907  27.644  23.430  1.00  0.00     0.131 C 
BRANCH  11  12
ATOM     12  N   UNL A   1      33.295  26.964  22.307  1.00  0.00    -0.337 N 
ATOM     13  C   UNL A   1      33.263  25.620  22.102  1.00  0.00     0.318 C 
ATOM     14  H   UNL A   1      32.861  27.529  21.627  1.00  0.00     0.165 HD
ATOM     15  O   UNL A   1      33.210  25.217  20.940  1.00  0.00    -0.249 OA
BRANCH  13  16
ATOM     16  N   UNL A   1      33.359  24.779  23.183  1.00  0.00    -0.311 N 
ATOM     17  C   UNL A   1      34.642  24.119  23.413  1.00  0.00     0.186 C 
ATOM     18  C   UNL A   1      32.245  24.386  24.083  1.00  0.00     0.139 C 
ATOM     19  C   UNL A   1      34.514  22.613  23.695  1.00  0.00     0.204 C 
ATOM     20  C   UNL A   1      32.686  23.353  25.158  1.00  0.00     0.287 C 
ATOM     21  C   UNL A   1      31.021  23.910  23.296  1.00  0.00     0.037 C 
ATOM     22  C   UNL A   1      35.809  22.041  24.275  1.00  0.00     0.073 C 
ATOM     23  N   UNL A   1      33.440  22.209  24.635  1.00  0.00    -0.329 N 
ATOM     24  C   UNL A   1      35.336  20.880  25.123  1.00  0.00     0.068 C 
ATOM     25  C   UNL A   1      34.041  21.408  25.710  1.00  0.00     0.262 C 
ATOM     26  H   UNL A   1      32.755  21.647  24.131  1.00  0.00     0.348 HD
ENDBRANCH  13  16
ENDBRANCH  11  12
ENDBRANCH   7  11
ENDBRANCH   4   7
ENDBRANCH   2   3
ENDBRANCH   1   2
BRANCH   1  27
ATOM     27  C   UNL A   1      31.600  32.104  26.801  1.00  0.00     0.023 C 
BRANCH  27  28
ATOM     28  C   UNL A   1      32.761  32.939  27.328  1.00  0.00     0.116 C 
BRANCH  28  29
ATOM     29  N   UNL A   1      32.413  34.309  27.671  1.00  0.00    -0.352 N 
ATOM     30  C   UNL A   1      32.989  35.120  28.623  1.00  0.00     0.251 C 
ATOM     31  H   UNL A   1      31.673  34.706  27.158  1.00  0.00     0.163 HD
ATOM     32  O   UNL A   1      32.530  36.236  28.847  1.00  0.00    -0.269 OA
BRANCH  30  33
ATOM     33  C   UNL A   1      34.132  34.615  29.416  1.00  0.00     0.039 A 
ATOM     34  C   UNL A   1      33.885  34.056  30.671  1.00  0.00     0.014 A 
ATOM     35  C   UNL A   1      35.434  34.646  28.906  1.00  0.00     0.014 A 
ATOM     36  C   UNL A   1      34.930  33.456  31.377  1.00  0.00     0.010 A 
ATOM     37  C   UNL A   1      36.454  33.969  29.567  1.00  0.00     0.010 A 
ATOM     38  C   UNL A   1      36.215  33.368  30.813  1.00  0.00    -0.014 A 
BRANCH  38  39
ATOM     39  C   UNL A   1      37.305  32.642  31.514  1.00  0.00     0.031 A 
ATOM     40  C   UNL A   1      37.999  31.482  30.855  1.00  0.00     0.074 A 
ATOM     41  C   UNL A   1      37.646  33.007  32.766  1.00  0.00     0.049 A 
ATOM     42  N   UNL A   1      38.990  30.751  31.300  1.00  0.00    -0.248 NA
ATOM     43  C   UNL A   1      37.495  31.065  29.538  1.00  0.00     0.031 C 
ATOM     44  C   UNL A   1      36.996  34.063  33.545  1.00  0.00     0.029 A 
ATOM     45  N   UNL A   1      38.626  32.534  33.602  1.00  0.00    -0.354 N 
ATOM     46  C   UNL A   1      39.222  29.791  30.323  1.00  0.00     0.074 A 
ATOM     47  C   UNL A   1      38.225  29.988  29.294  1.00  0.00     0.031 C 
ATOM     48  C   UNL A   1      37.622  34.187  34.726  1.00  0.00     0.029 A 
ATOM     49  C   UNL A   1      38.700  33.204  34.799  1.00  0.00     0.049 A 
ATOM     50  H   UNL A   1      39.220  31.785  33.367  1.00  0.00     0.167 HD
ATOM     51  C   UNL A   1      40.198  28.854  30.270  1.00  0.00     0.037 A 
ATOM     52  C   UNL A   1      39.550  33.054  35.832  1.00  0.00     0.037 A 
ATOM     53  C   UNL A   1      41.203  28.673  31.285  1.00  0.00     0.049 A 
ATOM     54  C   UNL A   1      40.643  32.025  35.737  1.00  0.00     0.074 A 
ATOM     55  C   UNL A   1      42.269  27.791  31.300  1.00  0.00     0.029 A 
ATOM     56  N   UNL A   1      41.263  29.392  32.470  1.00  0.00    -0.354 N 
ATOM     57  N   UNL A   1      40.910  31.185  34.766  1.00  0.00    -0.248 NA
ATOM     58  C   UNL A   1      41.568  31.937  36.875  1.00  0.00     0.031 C 
ATOM     59  C   UNL A   1      42.947  27.943  32.514  1.00  0.00     0.029 A 
ATOM     60  C   UNL A   1      42.339  28.961  33.231  1.00  0.00     0.049 A 
ATOM     61  H   UNL A   1      40.635  30.103  32.733  1.00  0.00     0.167 HD
ATOM     62  C   UNL A   1      42.047  30.493  35.160  1.00  0.00     0.074 A 
ATOM     63  C   UNL A   1      42.431  31.026  36.450  1.00  0.00     0.031 C 
ATOM     64  C   UNL A   1      42.714  29.506  34.511  1.00  0.00     0.037 A 
BRANCH  51  65
ATOM     65  C   UNL A   1      40.232  27.957  29.065  1.00  0.00     0.064 A 
ATOM     66  C   UNL A   1      40.966  28.295  27.918  1.00  0.00     0.173 A 
ATOM     67  C   UNL A   1      39.549  26.731  29.068  1.00  0.00     0.173 A 
ATOM     68  F   UNL A   1      41.627  29.462  27.858  1.00  0.00    -0.203 F 
ATOM     69  C   UNL A   1      40.988  27.457  26.806  1.00  0.00     0.198 A 
ATOM     70  C   UNL A   1      39.601  25.880  27.967  1.00  0.00     0.198 A 
ATOM     71  F   UNL A   1      38.837  26.355  30.139  1.00  0.00    -0.203 F 
ATOM     72  F   UNL A   1      41.651  27.829  25.702  1.00  0.00    -0.200 F 
ATOM     73  C   UNL A   1      40.312  26.247  26.834  1.00  0.00     0.200 A 
ATOM     74  F   UNL A   1      38.958  24.704  28.000  1.00  0.00    -0.200 F 
ATOM     75  F   UNL A   1      40.340  25.438  25.766  1.00  0.00    -0.200 F 
ENDBRANCH  51  65
BRANCH  52  76
ATOM     76  C   UNL A   1      39.438  33.936  37.023  1.00  0.00     0.064 A 
ATOM     77  C   UNL A   1      40.044  35.200  37.043  1.00  0.00     0.173 A 
ATOM     78  C   UNL A   1      38.729  33.535  38.165  1.00  0.00     0.173 A 
ATOM     79  F   UNL A   1      40.748  35.621  35.981  1.00  0.00    -0.203 F 
ATOM     80  C   UNL A   1      39.969  36.019  38.167  1.00  0.00     0.198 A 
ATOM     81  C   UNL A   1      38.629  34.367  39.278  1.00  0.00     0.198 A 
ATOM     82  F   UNL A   1      38.123  32.340  38.195  1.00  0.00    -0.203 F 
ATOM     83  F   UNL A   1      40.600  37.201  38.176  1.00  0.00    -0.200 F 
ATOM     84  C   UNL A   1      39.257  35.604  39.283  1.00  0.00     0.200 A 
ATOM     85  F   UNL A   1      37.927  33.970  40.348  1.00  0.00    -0.200 F 
ATOM     86  F   UNL A   1      39.181  36.393  40.363  1.00  0.00    -0.200 F 
ENDBRANCH  52  76
BRANCH  64  87
ATOM     87  C   UNL A   1      43.952  28.970  35.170  1.00  0.00     0.064 A 
ATOM     88  C   UNL A   1      45.222  29.507  34.910  1.00  0.00     0.173 A 
ATOM     89  C   UNL A   1      43.864  27.910  36.087  1.00  0.00     0.173 A 
ATOM     90  F   UNL A   1      45.362  30.513  34.033  1.00  0.00    -0.203 F 
ATOM     91  C   UNL A   1      46.361  28.977  35.511  1.00  0.00     0.198 A 
ATOM     92  C   UNL A   1      45.001  27.405  36.711  1.00  0.00     0.198 A 
ATOM     93  F   UNL A   1      42.673  27.366  36.378  1.00  0.00    -0.203 F 
ATOM     94  F   UNL A   1      47.569  29.465  35.199  1.00  0.00    -0.200 F 
ATOM     95  C   UNL A   1      46.249  27.931  36.415  1.00  0.00     0.200 A 
ATOM     96  F   UNL A   1      44.889  26.404  37.594  1.00  0.00    -0.200 F 
ATOM     97  F   UNL A   1      47.346  27.422  36.991  1.00  0.00    -0.200 F 
ENDBRANCH  64  87
ENDBRANCH  38  39
ENDBRANCH  30  33
ENDBRANCH  28  29
ENDBRANCH  27  28
ENDBRANCH   1  27
TORSDOF 16
ENDMDL
