MODEL 1
REMARK VINA RESULT:     -11.9      0.000      0.000
REMARK SMILES CC1(C)CCSC[C@H]1[NH+]1CCC(OCCC(=O)NCCCCNC(=O)c2ccc(-c3c4nc(c(-c5c(F)c(F)c(F)c(F)c5F)c5ccc([nH]5)c(-c5c(F)c(F)c(F)c(F)c5F)c5nc(c(-c6c(F)c(F)c(F)c(F)c6F)c6ccc3[nH]6)C=C5)C=C4)cc2)CC1
REMARK SMILES IDX 19 1 18 2 16 3 17 4 15 6 14 7 13 8 12 9 9 10 10 11 90 12
REMARK SMILES IDX 11 14 89 15 8 16 1 17 2 18 3 19 4 20 5 21 7 22 6 23 20 24
REMARK SMILES IDX 21 25 22 26 23 27 24 28 25 30 26 31 27 32 88 33 28 34 87 35
REMARK SMILES IDX 29 36 30 37 31 38 81 39 32 40 86 41 80 42 82 43 33 44 85 45
REMARK SMILES IDX 79 46 78 47 34 49 66 50 46 51 65 52 47 53 50 54 64 55 83 56
REMARK SMILES IDX 48 57 49 58 63 60 84 61 51 62 35 63 36 64 44 65 37 66 38 67
REMARK SMILES IDX 42 68 45 69 39 70 40 71 43 72 41 73 67 74 68 75 76 76 69 77
REMARK SMILES IDX 70 78 74 79 77 80 71 81 72 82 75 83 73 84 52 85 53 86 61 87
REMARK SMILES IDX 54 88 55 89 59 90 62 91 56 92 57 93 60 94 58 95
REMARK H PARENT 18 5 9 13 23 29 82 48 50 59
REMARK Flexibility Score: inf
ROOT
ATOM      1  C   UNL A   1      36.037  21.431  25.694  1.00  0.00     0.116 C 
ENDROOT
BRANCH   1   2
ATOM      2  N   UNL A   1      34.794  20.700  25.794  1.00  0.00    -0.356 N 
ATOM      3  C   UNL A   1      33.703  20.733  24.978  1.00  0.00     0.222 C 
ATOM      4  O   UNL A   1      32.890  19.812  25.075  1.00  0.00    -0.275 OA
ATOM      5  H   UNL A   1      34.726  20.089  26.564  1.00  0.00     0.163 HD
BRANCH   3   6
ATOM      6  C   UNL A   1      33.504  21.856  23.981  1.00  0.00     0.128 C 
BRANCH   6   7
ATOM      7  C   UNL A   1      32.218  22.701  24.033  1.00  0.00     0.170 C 
BRANCH   7   8
ATOM      8  O   UNL A   1      31.915  23.545  22.921  1.00  0.00    -0.377 OA
BRANCH   8   9
ATOM      9  C   UNL A   1      31.121  24.736  23.124  1.00  0.00     0.129 C 
ATOM     10  N   UNL A   1      30.784  27.363  24.408  1.00  0.00    -0.331 N 
ATOM     11  C   UNL A   1      31.192  27.290  23.028  1.00  0.00     0.265 C 
ATOM     12  C   UNL A   1      29.918  26.255  24.806  1.00  0.00     0.265 C 
ATOM     13  H   UNL A   1      30.164  28.173  24.441  1.00  0.00     0.348 HD
ATOM     14  C   UNL A   1      31.900  25.985  22.767  1.00  0.00     0.093 C 
ATOM     15  C   UNL A   1      30.437  24.834  24.494  1.00  0.00     0.093 C 
BRANCH  10  16
ATOM     16  C   UNL A   1      31.588  28.107  25.406  1.00  0.00     0.199 C 
ATOM     17  C   UNL A   1      34.048  28.173  24.452  1.00  0.00     0.017 C 
ATOM     18  C   UNL A   1      33.122  27.781  25.629  1.00  0.00     0.018 C 
ATOM     19  C   UNL A   1      33.306  26.297  25.965  1.00  0.00     0.017 C 
ATOM     20  C   UNL A   1      33.648  28.531  26.883  1.00  0.00     0.023 C 
ATOM     21  C   UNL A   1      33.632  30.048  26.784  1.00  0.00     0.070 C 
ATOM     22  C   UNL A   1      31.401  29.631  25.157  1.00  0.00     0.135 C 
ATOM     23  S   UNL A   1      31.954  30.688  26.541  1.00  0.00    -0.156 SA
ENDBRANCH  10  16
ENDBRANCH   8   9
ENDBRANCH   7   8
ENDBRANCH   6   7
ENDBRANCH   3   6
ENDBRANCH   1   2
BRANCH   1  24
ATOM     24  C   UNL A   1      37.047  20.975  24.638  1.00  0.00     0.023 C 
BRANCH  24  25
ATOM     25  C   UNL A   1      38.096  19.918  25.000  1.00  0.00     0.023 C 
BRANCH  25  26
ATOM     26  C   UNL A   1      39.230  20.368  25.898  1.00  0.00     0.116 C 
BRANCH  26  27
ATOM     27  N   UNL A   1      40.201  19.302  26.045  1.00  0.00    -0.352 N 
ATOM     28  C   UNL A   1      41.561  19.411  26.107  1.00  0.00     0.251 C 
ATOM     29  H   UNL A   1      39.837  18.390  26.110  1.00  0.00     0.163 HD
ATOM     30  O   UNL A   1      42.270  18.436  25.831  1.00  0.00    -0.269 OA
BRANCH  28  31
ATOM     31  C   UNL A   1      42.187  20.681  26.527  1.00  0.00     0.039 A 
ATOM     32  C   UNL A   1      42.230  21.007  27.885  1.00  0.00     0.014 A 
ATOM     33  C   UNL A   1      42.659  21.586  25.570  1.00  0.00     0.014 A 
ATOM     34  C   UNL A   1      42.741  22.243  28.285  1.00  0.00     0.010 A 
ATOM     35  C   UNL A   1      43.236  22.784  25.974  1.00  0.00     0.010 A 
ATOM     36  C   UNL A   1      43.244  23.140  27.330  1.00  0.00    -0.014 A 
BRANCH  36  37
ATOM     37  C   UNL A   1      43.691  24.502  27.705  1.00  0.00     0.031 A 
ATOM     38  C   UNL A   1      42.656  25.537  28.061  1.00  0.00     0.074 A 
ATOM     39  C   UNL A   1      44.996  24.823  27.662  1.00  0.00     0.049 A 
ATOM     40  N   UNL A   1      42.804  26.818  28.288  1.00  0.00    -0.248 NA
ATOM     41  C   UNL A   1      41.261  25.073  28.138  1.00  0.00     0.031 C 
ATOM     42  C   UNL A   1      46.079  23.909  27.303  1.00  0.00     0.029 A 
ATOM     43  N   UNL A   1      45.630  26.015  27.905  1.00  0.00    -0.354 N 
ATOM     44  C   UNL A   1      41.523  27.312  28.500  1.00  0.00     0.074 A 
ATOM     45  C   UNL A   1      40.605  26.208  28.325  1.00  0.00     0.031 C 
ATOM     46  C   UNL A   1      47.248  24.569  27.361  1.00  0.00     0.029 A 
ATOM     47  C   UNL A   1      46.989  25.960  27.722  1.00  0.00     0.049 A 
ATOM     48  H   UNL A   1      45.155  26.831  28.184  1.00  0.00     0.167 HD
ATOM     49  C   UNL A   1      41.150  28.569  28.834  1.00  0.00     0.037 A 
ATOM     50  C   UNL A   1      47.917  26.931  27.825  1.00  0.00     0.037 A 
ATOM     51  C   UNL A   1      42.077  29.647  29.049  1.00  0.00     0.049 A 
ATOM     52  C   UNL A   1      47.477  28.320  28.208  1.00  0.00     0.074 A 
ATOM     53  C   UNL A   1      41.814  30.947  29.444  1.00  0.00     0.029 A 
ATOM     54  N   UNL A   1      43.451  29.543  28.895  1.00  0.00    -0.354 N 
ATOM     55  N   UNL A   1      46.269  28.767  28.454  1.00  0.00    -0.248 NA
ATOM     56  C   UNL A   1      48.529  29.337  28.335  1.00  0.00     0.031 C 
ATOM     57  C   UNL A   1      43.029  31.639  29.495  1.00  0.00     0.029 A 
ATOM     58  C   UNL A   1      44.051  30.757  29.177  1.00  0.00     0.049 A 
ATOM     59  H   UNL A   1      43.929  28.726  28.624  1.00  0.00     0.167 HD
ATOM     60  C   UNL A   1      46.418  30.104  28.798  1.00  0.00     0.074 A 
ATOM     61  C   UNL A   1      47.836  30.393  28.737  1.00  0.00     0.031 C 
ATOM     62  C   UNL A   1      45.468  31.010  29.134  1.00  0.00     0.037 A 
BRANCH  49  63
ATOM     63  C   UNL A   1      39.681  28.842  28.996  1.00  0.00     0.064 A 
ATOM     64  C   UNL A   1      39.037  28.698  30.235  1.00  0.00     0.173 A 
ATOM     65  C   UNL A   1      38.914  29.282  27.907  1.00  0.00     0.173 A 
ATOM     66  F   UNL A   1      39.721  28.270  31.306  1.00  0.00    -0.203 F 
ATOM     67  C   UNL A   1      37.674  28.952  30.369  1.00  0.00     0.198 A 
ATOM     68  C   UNL A   1      37.558  29.565  28.053  1.00  0.00     0.198 A 
ATOM     69  F   UNL A   1      39.478  29.441  26.701  1.00  0.00    -0.203 F 
ATOM     70  F   UNL A   1      37.072  28.756  31.550  1.00  0.00    -0.200 F 
ATOM     71  C   UNL A   1      36.938  29.393  29.280  1.00  0.00     0.200 A 
ATOM     72  F   UNL A   1      36.849  30.003  27.002  1.00  0.00    -0.200 F 
ATOM     73  F   UNL A   1      35.628  29.643  29.413  1.00  0.00    -0.200 F 
ENDBRANCH  49  63
BRANCH  50  74
ATOM     74  C   UNL A   1      49.351  26.620  27.590  1.00  0.00     0.064 A 
ATOM     75  C   UNL A   1      50.212  26.350  28.663  1.00  0.00     0.173 A 
ATOM     76  C   UNL A   1      49.892  26.586  26.296  1.00  0.00     0.173 A 
ATOM     77  F   UNL A   1      49.745  26.387  29.920  1.00  0.00    -0.203 F 
ATOM     78  C   UNL A   1      51.563  26.082  28.454  1.00  0.00     0.198 A 
ATOM     79  C   UNL A   1      51.237  26.290  26.087  1.00  0.00     0.198 A 
ATOM     80  F   UNL A   1      49.111  26.829  25.234  1.00  0.00    -0.203 F 
ATOM     81  F   UNL A   1      52.371  25.873  29.502  1.00  0.00    -0.200 F 
ATOM     82  C   UNL A   1      52.073  26.047  27.166  1.00  0.00     0.200 A 
ATOM     83  F   UNL A   1      51.724  26.241  24.838  1.00  0.00    -0.200 F 
ATOM     84  F   UNL A   1      53.372  25.785  26.965  1.00  0.00    -0.200 F 
ENDBRANCH  50  74
BRANCH  62  85
ATOM     85  C   UNL A   1      45.931  32.385  29.515  1.00  0.00     0.064 A 
ATOM     86  C   UNL A   1      46.293  32.701  30.831  1.00  0.00     0.173 A 
ATOM     87  C   UNL A   1      46.077  33.377  28.533  1.00  0.00     0.173 A 
ATOM     88  F   UNL A   1      46.158  31.790  31.807  1.00  0.00    -0.203 F 
ATOM     89  C   UNL A   1      46.770  33.969  31.155  1.00  0.00     0.198 A 
ATOM     90  C   UNL A   1      46.580  34.633  28.855  1.00  0.00     0.198 A 
ATOM     91  F   UNL A   1      45.750  33.119  27.258  1.00  0.00    -0.203 F 
ATOM     92  F   UNL A   1      47.076  34.263  32.425  1.00  0.00    -0.200 F 
ATOM     93  C   UNL A   1      46.922  34.930  30.165  1.00  0.00     0.200 A 
ATOM     94  F   UNL A   1      46.741  35.554  27.895  1.00  0.00    -0.200 F 
ATOM     95  F   UNL A   1      47.396  36.143  30.476  1.00  0.00    -0.200 F 
ENDBRANCH  62  85
ENDBRANCH  36  37
ENDBRANCH  28  31
ENDBRANCH  26  27
ENDBRANCH  25  26
ENDBRANCH  24  25
ENDBRANCH   1  24
TORSDOF 15
ENDMDL
MODEL 2
REMARK VINA RESULT:     -11.9      1.189      2.056
REMARK SMILES CC1(C)CCSC[C@H]1[NH+]1CCC(OCCC(=O)NCCCCNC(=O)c2ccc(-c3c4nc(c(-c5c(F)c(F)c(F)c(F)c5F)c5ccc([nH]5)c(-c5c(F)c(F)c(F)c(F)c5F)c5nc(c(-c6c(F)c(F)c(F)c(F)c6F)c6ccc3[nH]6)C=C5)C=C4)cc2)CC1
REMARK SMILES IDX 19 1 18 2 16 3 17 4 15 6 14 7 13 8 12 9 9 10 10 11 90 12
REMARK SMILES IDX 11 14 89 15 8 16 1 17 2 18 3 19 4 20 5 21 7 22 6 23 20 24
REMARK SMILES IDX 21 25 22 26 23 27 24 28 25 30 26 31 27 32 88 33 28 34 87 35
REMARK SMILES IDX 29 36 30 37 31 38 81 39 32 40 86 41 80 42 82 43 33 44 85 45
REMARK SMILES IDX 79 46 78 47 34 49 66 50 46 51 65 52 47 53 50 54 64 55 83 56
REMARK SMILES IDX 48 57 49 58 63 60 84 61 51 62 35 63 36 64 44 65 37 66 38 67
REMARK SMILES IDX 42 68 45 69 39 70 40 71 43 72 41 73 67 74 68 75 76 76 69 77
REMARK SMILES IDX 70 78 74 79 77 80 71 81 72 82 75 83 73 84 52 85 53 86 61 87
REMARK SMILES IDX 54 88 55 89 59 90 62 91 56 92 57 93 60 94 58 95
REMARK H PARENT 18 5 9 13 23 29 82 48 50 59
REMARK Flexibility Score: inf
ROOT
ATOM      1  C   UNL A   1      37.385  22.325  25.278  1.00  0.00     0.116 C 
ENDROOT
BRANCH   1   2
ATOM      2  N   UNL A   1      36.290  22.735  26.128  1.00  0.00    -0.356 N 
ATOM      3  C   UNL A   1      35.122  23.355  25.795  1.00  0.00     0.222 C 
ATOM      4  O   UNL A   1      34.208  23.331  26.622  1.00  0.00    -0.275 OA
ATOM      5  H   UNL A   1      36.403  22.539  27.086  1.00  0.00     0.163 HD
BRANCH   3   6
ATOM      6  C   UNL A   1      34.951  24.035  24.454  1.00  0.00     0.128 C 
BRANCH   6   7
ATOM      7  C   UNL A   1      34.096  23.365  23.363  1.00  0.00     0.170 C 
BRANCH   7   8
ATOM      8  O   UNL A   1      33.797  24.110  22.181  1.00  0.00    -0.377 OA
BRANCH   8   9
ATOM      9  C   UNL A   1      32.679  25.026  22.179  1.00  0.00     0.129 C 
ATOM     10  N   UNL A   1      31.188  27.200  23.489  1.00  0.00    -0.331 N 
ATOM     11  C   UNL A   1      32.053  27.498  22.376  1.00  0.00     0.265 C 
ATOM     12  C   UNL A   1      30.589  25.869  23.406  1.00  0.00     0.265 C 
ATOM     13  H   UNL A   1      30.394  27.827  23.360  1.00  0.00     0.348 HD
ATOM     14  C   UNL A   1      33.146  26.464  22.280  1.00  0.00     0.093 C 
ATOM     15  C   UNL A   1      31.563  24.693  23.178  1.00  0.00     0.093 C 
BRANCH  10  16
ATOM     16  C   UNL A   1      31.350  27.891  24.790  1.00  0.00     0.199 C 
ATOM     17  C   UNL A   1      33.652  27.056  25.775  1.00  0.00     0.017 C 
ATOM     18  C   UNL A   1      32.126  27.207  25.989  1.00  0.00     0.018 C 
ATOM     19  C   UNL A   1      31.507  25.843  26.313  1.00  0.00     0.017 C 
ATOM     20  C   UNL A   1      31.936  28.037  27.288  1.00  0.00     0.023 C 
ATOM     21  C   UNL A   1      32.527  29.438  27.253  1.00  0.00     0.070 C 
ATOM     22  C   UNL A   1      31.924  29.313  24.529  1.00  0.00     0.135 C 
ATOM     23  S   UNL A   1      31.777  30.451  25.951  1.00  0.00    -0.156 SA
ENDBRANCH  10  16
ENDBRANCH   8   9
ENDBRANCH   7   8
ENDBRANCH   6   7
ENDBRANCH   3   6
ENDBRANCH   1   2
BRANCH   1  24
ATOM     24  C   UNL A   1      37.296  20.947  24.619  1.00  0.00     0.023 C 
BRANCH  24  25
ATOM     25  C   UNL A   1      38.306  19.858  25.000  1.00  0.00     0.023 C 
BRANCH  25  26
ATOM     26  C   UNL A   1      39.354  20.236  26.026  1.00  0.00     0.116 C 
BRANCH  26  27
ATOM     27  N   UNL A   1      40.352  19.188  26.126  1.00  0.00    -0.352 N 
ATOM     28  C   UNL A   1      41.709  19.316  26.051  1.00  0.00     0.251 C 
ATOM     29  H   UNL A   1      40.009  18.276  26.266  1.00  0.00     0.163 HD
ATOM     30  O   UNL A   1      42.403  18.337  25.751  1.00  0.00    -0.269 OA
BRANCH  28  31
ATOM     31  C   UNL A   1      42.353  20.610  26.352  1.00  0.00     0.039 A 
ATOM     32  C   UNL A   1      42.494  21.011  27.683  1.00  0.00     0.014 A 
ATOM     33  C   UNL A   1      42.743  21.463  25.313  1.00  0.00     0.014 A 
ATOM     34  C   UNL A   1      43.022  22.270  27.974  1.00  0.00     0.010 A 
ATOM     35  C   UNL A   1      43.338  22.685  25.606  1.00  0.00     0.010 A 
ATOM     36  C   UNL A   1      43.444  23.116  26.936  1.00  0.00    -0.014 A 
BRANCH  36  37
ATOM     37  C   UNL A   1      43.904  24.499  27.201  1.00  0.00     0.031 A 
ATOM     38  C   UNL A   1      42.915  25.512  27.713  1.00  0.00     0.074 A 
ATOM     39  C   UNL A   1      45.171  24.856  26.923  1.00  0.00     0.049 A 
ATOM     40  N   UNL A   1      43.058  26.802  27.885  1.00  0.00    -0.248 NA
ATOM     41  C   UNL A   1      41.571  25.010  28.042  1.00  0.00     0.031 C 
ATOM     42  C   UNL A   1      46.204  23.965  26.397  1.00  0.00     0.029 A 
ATOM     43  N   UNL A   1      45.798  26.071  27.027  1.00  0.00    -0.354 N 
ATOM     44  C   UNL A   1      41.818  27.264  28.309  1.00  0.00     0.074 A 
ATOM     45  C   UNL A   1      40.920  26.130  28.320  1.00  0.00     0.031 C 
ATOM     46  C   UNL A   1      47.343  24.660  26.236  1.00  0.00     0.029 A 
ATOM     47  C   UNL A   1      47.106  26.051  26.610  1.00  0.00     0.049 A 
ATOM     48  H   UNL A   1      45.353  26.880  27.370  1.00  0.00     0.167 HD
ATOM     49  C   UNL A   1      41.468  28.517  28.680  1.00  0.00     0.037 A 
ATOM     50  C   UNL A   1      48.005  27.051  26.530  1.00  0.00     0.037 A 
ATOM     51  C   UNL A   1      42.383  29.627  28.709  1.00  0.00     0.049 A 
ATOM     52  C   UNL A   1      47.593  28.435  26.958  1.00  0.00     0.074 A 
ATOM     53  C   UNL A   1      42.151  30.928  29.118  1.00  0.00     0.029 A 
ATOM     54  N   UNL A   1      43.712  29.558  28.317  1.00  0.00    -0.354 N 
ATOM     55  N   UNL A   1      46.433  28.853  27.403  1.00  0.00    -0.248 NA
ATOM     56  C   UNL A   1      48.617  29.485  26.878  1.00  0.00     0.031 C 
ATOM     57  C   UNL A   1      43.332  31.655  28.942  1.00  0.00     0.029 A 
ATOM     58  C   UNL A   1      44.312  30.796  28.466  1.00  0.00     0.049 A 
ATOM     59  H   UNL A   1      44.162  28.749  27.982  1.00  0.00     0.167 HD
ATOM     60  C   UNL A   1      46.596  30.202  27.690  1.00  0.00     0.074 A 
ATOM     61  C   UNL A   1      47.971  30.530  27.375  1.00  0.00     0.031 C 
ATOM     62  C   UNL A   1      45.691  31.088  28.170  1.00  0.00     0.037 A 
BRANCH  49  63
ATOM     63  C   UNL A   1      40.043  28.751  29.092  1.00  0.00     0.064 A 
ATOM     64  C   UNL A   1      39.063  29.143  28.167  1.00  0.00     0.173 A 
ATOM     65  C   UNL A   1      39.644  28.551  30.422  1.00  0.00     0.173 A 
ATOM     66  F   UNL A   1      39.392  29.359  26.885  1.00  0.00    -0.203 F 
ATOM     67  C   UNL A   1      37.745  29.359  28.565  1.00  0.00     0.198 A 
ATOM     68  C   UNL A   1      38.319  28.736  30.810  1.00  0.00     0.198 A 
ATOM     69  F   UNL A   1      40.538  28.171  31.347  1.00  0.00    -0.203 F 
ATOM     70  F   UNL A   1      36.839  29.785  27.673  1.00  0.00    -0.200 F 
ATOM     71  C   UNL A   1      37.373  29.147  29.884  1.00  0.00     0.200 A 
ATOM     72  F   UNL A   1      37.957  28.519  32.083  1.00  0.00    -0.200 F 
ATOM     73  F   UNL A   1      36.104  29.349  30.263  1.00  0.00    -0.200 F 
ENDBRANCH  49  63
BRANCH  50  74
ATOM     74  C   UNL A   1      49.385  26.776  26.053  1.00  0.00     0.064 A 
ATOM     75  C   UNL A   1      50.371  26.314  26.937  1.00  0.00     0.173 A 
ATOM     76  C   UNL A   1      49.750  26.967  24.712  1.00  0.00     0.173 A 
ATOM     77  F   UNL A   1      50.075  26.131  28.232  1.00  0.00    -0.203 F 
ATOM     78  C   UNL A   1      51.673  26.077  26.503  1.00  0.00     0.198 A 
ATOM     79  C   UNL A   1      51.045  26.702  24.274  1.00  0.00     0.198 A 
ATOM     80  F   UNL A   1      48.843  27.400  23.824  1.00  0.00    -0.203 F 
ATOM     81  F   UNL A   1      52.606  25.680  27.380  1.00  0.00    -0.200 F 
ATOM     82  C   UNL A   1      52.009  26.266  25.171  1.00  0.00     0.200 A 
ATOM     83  F   UNL A   1      51.362  26.871  22.982  1.00  0.00    -0.200 F 
ATOM     84  F   UNL A   1      53.261  26.034  24.754  1.00  0.00    -0.200 F 
ENDBRANCH  50  74
BRANCH  62  85
ATOM     85  C   UNL A   1      46.168  32.485  28.438  1.00  0.00     0.064 A 
ATOM     86  C   UNL A   1      46.070  33.495  27.471  1.00  0.00     0.173 A 
ATOM     87  C   UNL A   1      46.668  32.828  29.704  1.00  0.00     0.173 A 
ATOM     88  F   UNL A   1      45.611  33.211  26.243  1.00  0.00    -0.203 F 
ATOM     89  C   UNL A   1      46.470  34.797  27.757  1.00  0.00     0.198 A 
ATOM     90  C   UNL A   1      47.041  34.136  29.994  1.00  0.00     0.198 A 
ATOM     91  F   UNL A   1      46.774  31.897  30.664  1.00  0.00    -0.203 F 
ATOM     92  F   UNL A   1      46.402  35.740  26.808  1.00  0.00    -0.200 F 
ATOM     93  C   UNL A   1      46.947  35.118  29.020  1.00  0.00     0.200 A 
ATOM     94  F   UNL A   1      47.486  34.448  31.219  1.00  0.00    -0.200 F 
ATOM     95  F   UNL A   1      47.317  36.375  29.297  1.00  0.00    -0.200 F 
ENDBRANCH  62  85
ENDBRANCH  36  37
ENDBRANCH  28  31
ENDBRANCH  26  27
ENDBRANCH  25  26
ENDBRANCH  24  25
ENDBRANCH   1  24
TORSDOF 15
ENDMDL
MODEL 3
REMARK VINA RESULT:     -11.7      3.572      8.115
REMARK SMILES CC1(C)CCSC[C@H]1[NH+]1CCC(OCCC(=O)NCCCCNC(=O)c2ccc(-c3c4nc(c(-c5c(F)c(F)c(F)c(F)c5F)c5ccc([nH]5)c(-c5c(F)c(F)c(F)c(F)c5F)c5nc(c(-c6c(F)c(F)c(F)c(F)c6F)c6ccc3[nH]6)C=C5)C=C4)cc2)CC1
REMARK SMILES IDX 19 1 18 2 16 3 17 4 15 6 14 7 13 8 12 9 9 10 10 11 90 12
REMARK SMILES IDX 11 14 89 15 8 16 1 17 2 18 3 19 4 20 5 21 7 22 6 23 20 24
REMARK SMILES IDX 21 25 22 26 23 27 24 28 25 30 26 31 27 32 88 33 28 34 87 35
REMARK SMILES IDX 29 36 30 37 31 38 81 39 32 40 86 41 80 42 82 43 33 44 85 45
REMARK SMILES IDX 79 46 78 47 34 49 66 50 46 51 65 52 47 53 50 54 64 55 83 56
REMARK SMILES IDX 48 57 49 58 63 60 84 61 51 62 35 63 36 64 44 65 37 66 38 67
REMARK SMILES IDX 42 68 45 69 39 70 40 71 43 72 41 73 67 74 68 75 76 76 69 77
REMARK SMILES IDX 70 78 74 79 77 80 71 81 72 82 75 83 73 84 52 85 53 86 61 87
REMARK SMILES IDX 54 88 55 89 59 90 62 91 56 92 57 93 60 94 58 95
REMARK H PARENT 18 5 9 13 23 29 82 48 50 59
REMARK Flexibility Score: inf
ROOT
ATOM      1  C   UNL A   1      31.066  29.651  24.636  1.00  0.00     0.116 C 
ENDROOT
BRANCH   1   2
ATOM      2  N   UNL A   1      30.899  29.694  23.200  1.00  0.00    -0.356 N 
ATOM      3  C   UNL A   1      29.826  29.328  22.443  1.00  0.00     0.222 C 
ATOM      4  O   UNL A   1      29.785  29.734  21.280  1.00  0.00    -0.275 OA
ATOM      5  H   UNL A   1      31.672  30.037  22.697  1.00  0.00     0.163 HD
BRANCH   3   6
ATOM      6  C   UNL A   1      28.722  28.465  23.015  1.00  0.00     0.128 C 
BRANCH   6   7
ATOM      7  C   UNL A   1      29.050  27.054  23.535  1.00  0.00     0.170 C 
BRANCH   7   8
ATOM      8  O   UNL A   1      30.261  26.433  23.096  1.00  0.00    -0.377 OA
BRANCH   8   9
ATOM      9  C   UNL A   1      31.310  26.162  24.052  1.00  0.00     0.129 C 
ATOM     10  N   UNL A   1      33.325  24.313  25.140  1.00  0.00    -0.331 N 
ATOM     11  C   UNL A   1      33.737  25.385  24.269  1.00  0.00     0.265 C 
ATOM     12  C   UNL A   1      32.154  24.650  25.946  1.00  0.00     0.265 C 
ATOM     13  H   UNL A   1      34.077  24.249  25.827  1.00  0.00     0.348 HD
ATOM     14  C   UNL A   1      32.601  25.775  23.359  1.00  0.00     0.093 C 
ATOM     15  C   UNL A   1      30.928  25.193  25.179  1.00  0.00     0.093 C 
BRANCH  10  16
ATOM     16  C   UNL A   1      33.669  22.904  24.834  1.00  0.00     0.199 C 
ATOM     17  C   UNL A   1      34.344  21.805  27.137  1.00  0.00     0.017 C 
ATOM     18  C   UNL A   1      34.759  22.125  25.681  1.00  0.00     0.018 C 
ATOM     19  C   UNL A   1      36.086  22.893  25.672  1.00  0.00     0.017 C 
ATOM     20  C   UNL A   1      35.091  20.769  25.001  1.00  0.00     0.023 C 
ATOM     21  C   UNL A   1      33.939  19.780  24.934  1.00  0.00     0.070 C 
ATOM     22  C   UNL A   1      32.356  22.074  24.770  1.00  0.00     0.135 C 
ATOM     23  S   UNL A   1      32.543  20.436  23.982  1.00  0.00    -0.156 SA
ENDBRANCH  10  16
ENDBRANCH   8   9
ENDBRANCH   7   8
ENDBRANCH   6   7
ENDBRANCH   3   6
ENDBRANCH   1   2
BRANCH   1  24
ATOM     24  C   UNL A   1      32.422  29.193  25.179  1.00  0.00     0.023 C 
BRANCH  24  25
ATOM     25  C   UNL A   1      32.484  28.411  26.497  1.00  0.00     0.023 C 
BRANCH  25  26
ATOM     26  C   UNL A   1      33.656  28.713  27.408  1.00  0.00     0.116 C 
BRANCH  26  27
ATOM     27  N   UNL A   1      33.747  30.140  27.645  1.00  0.00    -0.352 N 
ATOM     28  C   UNL A   1      34.693  30.810  28.367  1.00  0.00     0.251 C 
ATOM     29  H   UNL A   1      33.042  30.693  27.237  1.00  0.00     0.163 HD
ATOM     30  O   UNL A   1      34.440  31.933  28.820  1.00  0.00    -0.269 OA
BRANCH  28  31
ATOM     31  C   UNL A   1      36.024  30.211  28.586  1.00  0.00     0.039 A 
ATOM     32  C   UNL A   1      36.298  29.577  29.801  1.00  0.00     0.014 A 
ATOM     33  C   UNL A   1      37.028  30.350  27.621  1.00  0.00     0.014 A 
ATOM     34  C   UNL A   1      37.580  29.084  30.051  1.00  0.00     0.010 A 
ATOM     35  C   UNL A   1      38.283  29.792  27.841  1.00  0.00     0.010 A 
ATOM     36  C   UNL A   1      38.581  29.193  29.073  1.00  0.00    -0.014 A 
BRANCH  36  37
ATOM     37  C   UNL A   1      39.979  28.783  29.344  1.00  0.00     0.031 A 
ATOM     38  C   UNL A   1      40.886  29.730  30.084  1.00  0.00     0.074 A 
ATOM     39  C   UNL A   1      40.444  27.610  28.877  1.00  0.00     0.049 A 
ATOM     40  N   UNL A   1      42.172  29.642  30.313  1.00  0.00    -0.248 NA
ATOM     41  C   UNL A   1      40.269  30.960  30.605  1.00  0.00     0.031 C 
ATOM     42  C   UNL A   1      39.661  26.630  28.125  1.00  0.00     0.029 A 
ATOM     43  N   UNL A   1      41.695  27.053  28.952  1.00  0.00    -0.354 N 
ATOM     44  C   UNL A   1      42.518  30.815  30.972  1.00  0.00     0.074 A 
ATOM     45  C   UNL A   1      41.321  31.622  31.062  1.00  0.00     0.031 C 
ATOM     46  C   UNL A   1      40.446  25.585  27.817  1.00  0.00     0.029 A 
ATOM     47  C   UNL A   1      41.795  25.841  28.316  1.00  0.00     0.049 A 
ATOM     48  H   UNL A   1      42.449  27.482  29.418  1.00  0.00     0.167 HD
ATOM     49  C   UNL A   1      43.720  31.174  31.478  1.00  0.00     0.037 A 
ATOM     50  C   UNL A   1      42.861  25.036  28.149  1.00  0.00     0.037 A 
ATOM     51  C   UNL A   1      44.892  30.342  31.422  1.00  0.00     0.049 A 
ATOM     52  C   UNL A   1      44.187  25.454  28.730  1.00  0.00     0.074 A 
ATOM     53  C   UNL A   1      46.148  30.581  31.949  1.00  0.00     0.029 A 
ATOM     54  N   UNL A   1      44.943  29.101  30.805  1.00  0.00    -0.354 N 
ATOM     55  N   UNL A   1      44.493  26.543  29.394  1.00  0.00    -0.248 NA
ATOM     56  C   UNL A   1      45.313  24.530  28.545  1.00  0.00     0.031 C 
ATOM     57  C   UNL A   1      46.970  29.499  31.620  1.00  0.00     0.029 A 
ATOM     58  C   UNL A   1      46.213  28.565  30.928  1.00  0.00     0.049 A 
ATOM     59  H   UNL A   1      44.189  28.665  30.345  1.00  0.00     0.167 HD
ATOM     60  C   UNL A   1      45.832  26.419  29.736  1.00  0.00     0.074 A 
ATOM     61  C   UNL A   1      46.279  25.145  29.212  1.00  0.00     0.031 C 
ATOM     62  C   UNL A   1      46.622  27.281  30.421  1.00  0.00     0.037 A 
BRANCH  49  63
ATOM     63  C   UNL A   1      43.825  32.517  32.143  1.00  0.00     0.064 A 
ATOM     64  C   UNL A   1      44.069  33.687  31.406  1.00  0.00     0.173 A 
ATOM     65  C   UNL A   1      43.648  32.642  33.529  1.00  0.00     0.173 A 
ATOM     66  F   UNL A   1      44.257  33.624  30.080  1.00  0.00    -0.203 F 
ATOM     67  C   UNL A   1      44.166  34.925  32.037  1.00  0.00     0.198 A 
ATOM     68  C   UNL A   1      43.714  33.886  34.152  1.00  0.00     0.198 A 
ATOM     69  F   UNL A   1      43.407  31.558  34.281  1.00  0.00    -0.203 F 
ATOM     70  F   UNL A   1      44.454  36.020  31.319  1.00  0.00    -0.200 F 
ATOM     71  C   UNL A   1      43.980  35.025  33.408  1.00  0.00     0.200 A 
ATOM     72  F   UNL A   1      43.522  33.982  35.475  1.00  0.00    -0.200 F 
ATOM     73  F   UNL A   1      44.067  36.217  34.012  1.00  0.00    -0.200 F 
ENDBRANCH  49  63
BRANCH  50  74
ATOM     74  C   UNL A   1      42.716  23.746  27.425  1.00  0.00     0.064 A 
ATOM     75  C   UNL A   1      43.040  23.646  26.065  1.00  0.00     0.173 A 
ATOM     76  C   UNL A   1      42.250  22.591  28.072  1.00  0.00     0.173 A 
ATOM     77  F   UNL A   1      43.474  24.727  25.400  1.00  0.00    -0.203 F 
ATOM     78  C   UNL A   1      42.883  22.447  25.373  1.00  0.00     0.198 A 
ATOM     79  C   UNL A   1      42.121  21.386  27.385  1.00  0.00     0.198 A 
ATOM     80  F   UNL A   1      41.933  22.631  29.373  1.00  0.00    -0.203 F 
ATOM     81  F   UNL A   1      43.157  22.393  24.063  1.00  0.00    -0.200 F 
ATOM     82  C   UNL A   1      42.428  21.317  26.034  1.00  0.00     0.200 A 
ATOM     83  F   UNL A   1      41.696  20.291  28.031  1.00  0.00    -0.200 F 
ATOM     84  F   UNL A   1      42.281  20.163  25.369  1.00  0.00    -0.200 F 
ENDBRANCH  50  74
BRANCH  62  85
ATOM     85  C   UNL A   1      48.034  26.855  30.693  1.00  0.00     0.064 A 
ATOM     86  C   UNL A   1      48.364  26.064  31.802  1.00  0.00     0.173 A 
ATOM     87  C   UNL A   1      49.057  27.189  29.792  1.00  0.00     0.173 A 
ATOM     88  F   UNL A   1      47.423  25.731  32.698  1.00  0.00    -0.203 F 
ATOM     89  C   UNL A   1      49.673  25.635  32.009  1.00  0.00     0.198 A 
ATOM     90  C   UNL A   1      50.358  26.736  29.987  1.00  0.00     0.198 A 
ATOM     91  F   UNL A   1      48.789  27.938  28.712  1.00  0.00    -0.203 F 
ATOM     92  F   UNL A   1      49.974  24.910  33.094  1.00  0.00    -0.200 F 
ATOM     93  C   UNL A   1      50.666  25.964  31.096  1.00  0.00     0.200 A 
ATOM     94  F   UNL A   1      51.312  27.041  29.097  1.00  0.00    -0.200 F 
ATOM     95  F   UNL A   1      51.920  25.537  31.289  1.00  0.00    -0.200 F 
ENDBRANCH  62  85
ENDBRANCH  36  37
ENDBRANCH  28  31
ENDBRANCH  26  27
ENDBRANCH  25  26
ENDBRANCH  24  25
ENDBRANCH   1  24
TORSDOF 15
ENDMDL
