MODEL 1
REMARK VINA RESULT:     -14.8      0.000      0.000
REMARK SMILES Cc1ccccc1C(=O)Nc1cc(NC(=O)c2ccccc2C)cc(C(=O)NCCCCNC(=O)c2ccc(-c3c4nc(c(-c5c(F)c(F)c(F)c(F)c5F)c5ccc([nH]5)c(-c5c(F)c(F)c(F)c(F)c5F)c5nc(c(-c6c(F)c(F)c(F)c(F)c6F)c6ccc3[nH]6)C=C5)C=C4)cc2)c1
REMARK SMILES IDX 30 1 29 2 28 3 26 4 27 5 25 7 11 8 12 9 99 10 13 11 24 12
REMARK SMILES IDX 10 13 8 14 9 15 7 17 1 18 2 19 3 20 4 21 6 22 5 23 14 24
REMARK SMILES IDX 15 25 16 27 17 28 18 29 22 30 19 31 21 32 23 33 20 34 31 35
REMARK SMILES IDX 32 36 33 37 34 38 35 40 36 41 37 42 98 43 38 44 97 45 39 46
REMARK SMILES IDX 40 47 41 48 91 49 42 50 96 51 90 52 92 53 43 54 95 55 89 56
REMARK SMILES IDX 88 57 44 59 76 60 56 61 75 62 57 63 60 64 74 65 93 66 58 67
REMARK SMILES IDX 59 68 73 70 94 71 61 72 45 73 46 74 54 75 47 76 48 77 52 78
REMARK SMILES IDX 55 79 49 80 50 81 53 82 51 83 77 84 78 85 86 86 79 87 80 88
REMARK SMILES IDX 84 89 87 90 81 91 82 92 85 93 83 94 62 95 63 96 71 97 64 98
REMARK SMILES IDX 65 99 69 100 72 101 66 102 67 103 70 104 68 105
REMARK H PARENT 28 6 10 16 14 26 33 39 92 58 60 69
REMARK Flexibility Score: inf
ROOT
ATOM      1  C   UNL A   1      32.550  28.380  27.708  1.00  0.00     0.023 C 
ENDROOT
BRANCH   1   2
ATOM      2  C   UNL A   1      32.273  27.343  26.621  1.00  0.00     0.116 C 
BRANCH   2   3
ATOM      3  N   UNL A   1      31.068  26.563  26.856  1.00  0.00    -0.352 N 
ATOM      4  C   UNL A   1      30.522  25.404  26.360  1.00  0.00     0.251 C 
ATOM      5  O   UNL A   1      29.422  25.084  26.817  1.00  0.00    -0.269 OA
ATOM      6  H   UNL A   1      30.497  26.969  27.547  1.00  0.00     0.163 HD
BRANCH   4   7
ATOM      7  C   UNL A   1      31.139  24.521  25.329  1.00  0.00     0.043 A 
ATOM      8  C   UNL A   1      31.776  22.268  24.688  1.00  0.00     0.044 A 
ATOM      9  C   UNL A   1      32.333  22.741  23.499  1.00  0.00     0.052 A 
ATOM     10  C   UNL A   1      31.058  23.133  25.522  1.00  0.00     0.040 A 
ATOM     11  C   UNL A   1      32.379  24.108  23.272  1.00  0.00     0.044 A 
ATOM     12  C   UNL A   1      31.894  24.974  24.251  1.00  0.00     0.040 A 
BRANCH   8  13
ATOM     13  N   UNL A   1      32.035  20.977  25.173  1.00  0.00    -0.322 N 
ATOM     14  C   UNL A   1      33.243  20.417  25.553  1.00  0.00     0.255 C 
ATOM     15  O   UNL A   1      33.275  19.230  25.879  1.00  0.00    -0.269 OA
ATOM     16  H   UNL A   1      31.250  20.389  25.255  1.00  0.00     0.170 HD
BRANCH  14  17
ATOM     17  C   UNL A   1      34.509  21.207  25.626  1.00  0.00     0.043 A 
ATOM     18  C   UNL A   1      33.920  22.579  27.736  1.00  0.00     0.045 C 
ATOM     19  C   UNL A   1      34.789  22.225  26.563  1.00  0.00    -0.038 A 
ATOM     20  C   UNL A   1      35.989  22.952  26.434  1.00  0.00     0.004 A 
ATOM     21  C   UNL A   1      36.939  22.610  25.473  1.00  0.00     0.000 A 
ATOM     22  C   UNL A   1      35.497  20.842  24.695  1.00  0.00     0.014 A 
ATOM     23  C   UNL A   1      36.708  21.533  24.626  1.00  0.00     0.001 A 
ENDBRANCH  14  17
ENDBRANCH   8  13
BRANCH  11  24
ATOM     24  N   UNL A   1      32.938  24.719  22.142  1.00  0.00    -0.322 N 
ATOM     25  C   UNL A   1      32.771  25.968  21.601  1.00  0.00     0.255 C 
ATOM     26  H   UNL A   1      33.565  24.146  21.643  1.00  0.00     0.170 HD
ATOM     27  O   UNL A   1      33.278  26.222  20.509  1.00  0.00    -0.269 OA
BRANCH  25  28
ATOM     28  C   UNL A   1      32.053  27.038  22.323  1.00  0.00     0.043 A 
ATOM     29  C   UNL A   1      30.653  26.944  22.299  1.00  0.00     0.014 A 
ATOM     30  C   UNL A   1      32.687  28.125  22.957  1.00  0.00    -0.038 A 
ATOM     31  C   UNL A   1      29.877  27.888  22.964  1.00  0.00     0.001 A 
ATOM     32  C   UNL A   1      31.886  29.048  23.647  1.00  0.00     0.004 A 
ATOM     33  C   UNL A   1      34.174  28.353  22.955  1.00  0.00     0.045 C 
ATOM     34  C   UNL A   1      30.493  28.929  23.651  1.00  0.00     0.000 A 
ENDBRANCH  25  28
ENDBRANCH  11  24
ENDBRANCH   4   7
ENDBRANCH   2   3
ENDBRANCH   1   2
BRANCH   1  35
ATOM     35  C   UNL A   1      32.409  29.832  27.251  1.00  0.00     0.023 C 
BRANCH  35  36
ATOM     36  C   UNL A   1      33.697  30.453  26.724  1.00  0.00     0.116 C 
BRANCH  36  37
ATOM     37  N   UNL A   1      34.331  31.422  27.599  1.00  0.00    -0.352 N 
ATOM     38  C   UNL A   1      35.346  31.264  28.537  1.00  0.00     0.251 C 
ATOM     39  H   UNL A   1      33.986  32.341  27.517  1.00  0.00     0.163 HD
ATOM     40  O   UNL A   1      35.614  32.186  29.279  1.00  0.00    -0.269 OA
BRANCH  38  41
ATOM     41  C   UNL A   1      36.214  30.046  28.531  1.00  0.00     0.039 A 
ATOM     42  C   UNL A   1      36.378  29.355  29.743  1.00  0.00     0.014 A 
ATOM     43  C   UNL A   1      37.025  29.720  27.454  1.00  0.00     0.014 A 
ATOM     44  C   UNL A   1      37.518  28.578  29.948  1.00  0.00     0.010 A 
ATOM     45  C   UNL A   1      38.218  29.081  27.692  1.00  0.00     0.010 A 
ATOM     46  C   UNL A   1      38.495  28.574  28.964  1.00  0.00    -0.014 A 
BRANCH  46  47
ATOM     47  C   UNL A   1      39.875  28.159  29.160  1.00  0.00     0.031 A 
ATOM     48  C   UNL A   1      40.306  26.819  28.721  1.00  0.00     0.074 A 
ATOM     49  C   UNL A   1      40.779  29.105  29.494  1.00  0.00     0.049 A 
ATOM     50  N   UNL A   1      41.460  26.306  28.968  1.00  0.00    -0.248 NA
ATOM     51  C   UNL A   1      39.427  25.916  27.990  1.00  0.00     0.031 C 
ATOM     52  C   UNL A   1      42.229  29.063  29.316  1.00  0.00     0.029 A 
ATOM     53  N   UNL A   1      40.561  30.260  30.264  1.00  0.00    -0.354 N 
ATOM     54  C   UNL A   1      41.595  25.173  28.200  1.00  0.00     0.074 A 
ATOM     55  C   UNL A   1      40.269  24.922  27.693  1.00  0.00     0.031 C 
ATOM     56  C   UNL A   1      42.797  29.925  30.175  1.00  0.00     0.029 A 
ATOM     57  C   UNL A   1      41.736  30.407  31.039  1.00  0.00     0.049 A 
ATOM     58  H   UNL A   1      39.764  30.839  30.265  1.00  0.00     0.167 HD
ATOM     59  C   UNL A   1      42.852  24.683  27.994  1.00  0.00     0.037 A 
ATOM     60  C   UNL A   1      41.710  30.236  32.393  1.00  0.00     0.037 A 
ATOM     61  C   UNL A   1      43.809  25.357  28.879  1.00  0.00     0.049 A 
ATOM     62  C   UNL A   1      42.632  29.147  32.889  1.00  0.00     0.074 A 
ATOM     63  C   UNL A   1      44.758  26.350  28.682  1.00  0.00     0.029 A 
ATOM     64  N   UNL A   1      43.647  25.244  30.258  1.00  0.00    -0.354 N 
ATOM     65  N   UNL A   1      43.051  28.150  32.160  1.00  0.00    -0.248 NA
ATOM     66  C   UNL A   1      43.156  29.105  34.248  1.00  0.00     0.031 C 
ATOM     67  C   UNL A   1      45.135  26.857  29.954  1.00  0.00     0.029 A 
ATOM     68  C   UNL A   1      44.433  26.163  30.925  1.00  0.00     0.049 A 
ATOM     69  H   UNL A   1      43.052  24.594  30.698  1.00  0.00     0.167 HD
ATOM     70  C   UNL A   1      43.881  27.348  32.907  1.00  0.00     0.074 A 
ATOM     71  C   UNL A   1      43.927  28.006  34.200  1.00  0.00     0.031 C 
ATOM     72  C   UNL A   1      44.449  26.216  32.383  1.00  0.00     0.037 A 
BRANCH  59  73
ATOM     73  C   UNL A   1      43.277  23.792  26.832  1.00  0.00     0.064 A 
ATOM     74  C   UNL A   1      42.914  22.424  26.811  1.00  0.00     0.173 A 
ATOM     75  C   UNL A   1      44.106  24.174  25.759  1.00  0.00     0.173 A 
ATOM     76  F   UNL A   1      42.060  21.910  27.707  1.00  0.00    -0.203 F 
ATOM     77  C   UNL A   1      43.417  21.516  25.868  1.00  0.00     0.198 A 
ATOM     78  C   UNL A   1      44.630  23.265  24.832  1.00  0.00     0.198 A 
ATOM     79  F   UNL A   1      44.419  25.446  25.519  1.00  0.00    -0.203 F 
ATOM     80  F   UNL A   1      43.050  20.228  25.924  1.00  0.00    -0.200 F 
ATOM     81  C   UNL A   1      44.296  21.933  24.894  1.00  0.00     0.200 A 
ATOM     82  F   UNL A   1      45.464  23.703  23.877  1.00  0.00    -0.200 F 
ATOM     83  F   UNL A   1      44.801  21.064  24.007  1.00  0.00    -0.200 F 
ENDBRANCH  59  73
BRANCH  60  84
ATOM     84  C   UNL A   1      40.397  30.596  32.996  1.00  0.00     0.064 A 
ATOM     85  C   UNL A   1      40.066  31.963  33.094  1.00  0.00     0.173 A 
ATOM     86  C   UNL A   1      39.350  29.671  33.077  1.00  0.00     0.173 A 
ATOM     87  F   UNL A   1      41.033  32.892  33.019  1.00  0.00    -0.203 F 
ATOM     88  C   UNL A   1      38.740  32.388  33.130  1.00  0.00     0.198 A 
ATOM     89  C   UNL A   1      38.022  30.101  33.135  1.00  0.00     0.198 A 
ATOM     90  F   UNL A   1      39.596  28.357  32.969  1.00  0.00    -0.203 F 
ATOM     91  F   UNL A   1      38.455  33.697  33.085  1.00  0.00    -0.200 F 
ATOM     92  C   UNL A   1      37.717  31.456  33.120  1.00  0.00     0.200 A 
ATOM     93  F   UNL A   1      37.028  29.202  33.093  1.00  0.00    -0.200 F 
ATOM     94  F   UNL A   1      36.440  31.858  33.045  1.00  0.00    -0.200 F 
ENDBRANCH  60  84
BRANCH  72  95
ATOM     95  C   UNL A   1      45.152  25.092  33.136  1.00  0.00     0.064 A 
ATOM     96  C   UNL A   1      44.572  23.858  33.472  1.00  0.00     0.173 A 
ATOM     97  C   UNL A   1      46.538  25.191  33.440  1.00  0.00     0.173 A 
ATOM     98  F   UNL A   1      43.315  23.553  33.134  1.00  0.00    -0.203 F 
ATOM     99  C   UNL A   1      45.289  22.842  34.117  1.00  0.00     0.198 A 
ATOM    100  C   UNL A   1      47.267  24.152  34.020  1.00  0.00     0.198 A 
ATOM    101  F   UNL A   1      47.252  26.290  33.154  1.00  0.00    -0.203 F 
ATOM    102  F   UNL A   1      44.665  21.706  34.453  1.00  0.00    -0.200 F 
ATOM    103  C   UNL A   1      46.637  22.982  34.377  1.00  0.00     0.200 A 
ATOM    104  F   UNL A   1      48.587  24.288  34.206  1.00  0.00    -0.200 F 
ATOM    105  F   UNL A   1      47.329  21.986  34.945  1.00  0.00    -0.200 F 
ENDBRANCH  72  95
ENDBRANCH  46  47
ENDBRANCH  38  41
ENDBRANCH  36  37
ENDBRANCH  35  36
ENDBRANCH   1  35
TORSDOF 15
ENDMDL
MODEL 2
REMARK VINA RESULT:     -14.5      3.368      9.687
REMARK SMILES Cc1ccccc1C(=O)Nc1cc(NC(=O)c2ccccc2C)cc(C(=O)NCCCCNC(=O)c2ccc(-c3c4nc(c(-c5c(F)c(F)c(F)c(F)c5F)c5ccc([nH]5)c(-c5c(F)c(F)c(F)c(F)c5F)c5nc(c(-c6c(F)c(F)c(F)c(F)c6F)c6ccc3[nH]6)C=C5)C=C4)cc2)c1
REMARK SMILES IDX 30 1 29 2 28 3 26 4 27 5 25 7 11 8 12 9 99 10 13 11 24 12
REMARK SMILES IDX 10 13 8 14 9 15 7 17 1 18 2 19 3 20 4 21 6 22 5 23 14 24
REMARK SMILES IDX 15 25 16 27 17 28 18 29 22 30 19 31 21 32 23 33 20 34 31 35
REMARK SMILES IDX 32 36 33 37 34 38 35 40 36 41 37 42 98 43 38 44 97 45 39 46
REMARK SMILES IDX 40 47 41 48 91 49 42 50 96 51 90 52 92 53 43 54 95 55 89 56
REMARK SMILES IDX 88 57 44 59 76 60 56 61 75 62 57 63 60 64 74 65 93 66 58 67
REMARK SMILES IDX 59 68 73 70 94 71 61 72 45 73 46 74 54 75 47 76 48 77 52 78
REMARK SMILES IDX 55 79 49 80 50 81 53 82 51 83 77 84 78 85 86 86 79 87 80 88
REMARK SMILES IDX 84 89 87 90 81 91 82 92 85 93 83 94 62 95 63 96 71 97 64 98
REMARK SMILES IDX 65 99 69 100 72 101 66 102 67 103 70 104 68 105
REMARK H PARENT 28 6 10 16 14 26 33 39 92 58 60 69
REMARK Flexibility Score: inf
ROOT
ATOM      1  C   UNL A   1      36.823  22.994  24.272  1.00  0.00     0.023 C 
ENDROOT
BRANCH   1   2
ATOM      2  C   UNL A   1      35.524  23.769  24.056  1.00  0.00     0.116 C 
BRANCH   2   3
ATOM      3  N   UNL A   1      34.912  23.525  22.759  1.00  0.00    -0.352 N 
ATOM      4  C   UNL A   1      33.690  23.762  22.177  1.00  0.00     0.251 C 
ATOM      5  O   UNL A   1      33.552  23.356  21.021  1.00  0.00    -0.269 OA
ATOM      6  H   UNL A   1      35.530  23.076  22.139  1.00  0.00     0.163 HD
BRANCH   4   7
ATOM      7  C   UNL A   1      32.537  24.453  22.822  1.00  0.00     0.043 A 
ATOM      8  C   UNL A   1      30.949  26.289  22.736  1.00  0.00     0.044 A 
ATOM      9  C   UNL A   1      30.397  25.896  23.956  1.00  0.00     0.052 A 
ATOM     10  C   UNL A   1      31.911  25.487  22.109  1.00  0.00     0.040 A 
ATOM     11  C   UNL A   1      30.975  24.845  24.652  1.00  0.00     0.044 A 
ATOM     12  C   UNL A   1      32.111  24.229  24.127  1.00  0.00     0.040 A 
BRANCH   8  13
ATOM     13  N   UNL A   1      30.696  27.548  22.171  1.00  0.00    -0.322 N 
ATOM     14  C   UNL A   1      31.038  28.801  22.650  1.00  0.00     0.255 C 
ATOM     15  O   UNL A   1      30.650  29.799  22.042  1.00  0.00    -0.269 OA
ATOM     16  H   UNL A   1      30.207  27.538  21.316  1.00  0.00     0.170 HD
BRANCH  14  17
ATOM     17  C   UNL A   1      31.899  28.994  23.856  1.00  0.00     0.043 A 
ATOM     18  C   UNL A   1      34.162  28.436  22.737  1.00  0.00     0.045 C 
ATOM     19  C   UNL A   1      33.291  28.766  23.917  1.00  0.00    -0.038 A 
ATOM     20  C   UNL A   1      33.944  28.892  25.159  1.00  0.00     0.004 A 
ATOM     21  C   UNL A   1      33.262  29.339  26.289  1.00  0.00     0.000 A 
ATOM     22  C   UNL A   1      31.236  29.491  24.992  1.00  0.00     0.014 A 
ATOM     23  C   UNL A   1      31.916  29.672  26.198  1.00  0.00     0.001 A 
ENDBRANCH  14  17
ENDBRANCH   8  13
BRANCH  11  24
ATOM     24  N   UNL A   1      30.546  24.370  25.898  1.00  0.00    -0.322 N 
ATOM     25  C   UNL A   1      30.796  23.199  26.566  1.00  0.00     0.255 C 
ATOM     26  H   UNL A   1      29.955  24.991  26.383  1.00  0.00     0.170 HD
ATOM     27  O   UNL A   1      30.181  22.957  27.604  1.00  0.00    -0.269 OA
BRANCH  25  28
ATOM     28  C   UNL A   1      31.828  22.248  26.108  1.00  0.00     0.043 A 
ATOM     29  C   UNL A   1      31.437  21.391  25.068  1.00  0.00     0.014 A 
ATOM     30  C   UNL A   1      33.110  22.138  26.683  1.00  0.00    -0.038 A 
ATOM     31  C   UNL A   1      32.338  20.468  24.545  1.00  0.00     0.001 A 
ATOM     32  C   UNL A   1      34.012  21.221  26.119  1.00  0.00     0.004 A 
ATOM     33  C   UNL A   1      33.581  22.951  27.857  1.00  0.00     0.045 C 
ATOM     34  C   UNL A   1      33.628  20.396  25.060  1.00  0.00     0.000 A 
ENDBRANCH  25  28
ENDBRANCH  11  24
ENDBRANCH   4   7
ENDBRANCH   2   3
ENDBRANCH   1   2
BRANCH   1  35
ATOM     35  C   UNL A   1      37.651  23.465  25.468  1.00  0.00     0.023 C 
BRANCH  35  36
ATOM     36  C   UNL A   1      38.151  22.341  26.368  1.00  0.00     0.116 C 
BRANCH  36  37
ATOM     37  N   UNL A   1      39.570  22.366  26.674  1.00  0.00    -0.352 N 
ATOM     38  C   UNL A   1      40.434  23.440  26.866  1.00  0.00     0.251 C 
ATOM     39  H   UNL A   1      39.990  21.479  26.758  1.00  0.00     0.163 HD
ATOM     40  O   UNL A   1      41.626  23.230  26.954  1.00  0.00    -0.269 OA
BRANCH  38  41
ATOM     41  C   UNL A   1      39.905  24.813  27.131  1.00  0.00     0.039 A 
ATOM     42  C   UNL A   1      40.312  25.847  26.271  1.00  0.00     0.014 A 
ATOM     43  C   UNL A   1      39.231  25.134  28.300  1.00  0.00     0.014 A 
ATOM     44  C   UNL A   1      40.306  27.166  26.724  1.00  0.00     0.010 A 
ATOM     45  C   UNL A   1      39.357  26.404  28.810  1.00  0.00     0.010 A 
ATOM     46  C   UNL A   1      39.963  27.404  28.046  1.00  0.00    -0.014 A 
BRANCH  46  47
ATOM     47  C   UNL A   1      40.272  28.621  28.781  1.00  0.00     0.031 A 
ATOM     48  C   UNL A   1      39.253  29.679  28.906  1.00  0.00     0.074 A 
ATOM     49  C   UNL A   1      41.383  28.631  29.550  1.00  0.00     0.049 A 
ATOM     50  N   UNL A   1      39.467  30.842  29.415  1.00  0.00    -0.248 NA
ATOM     51  C   UNL A   1      37.892  29.516  28.411  1.00  0.00     0.031 C 
ATOM     52  C   UNL A   1      41.678  29.500  30.688  1.00  0.00     0.029 A 
ATOM     53  N   UNL A   1      42.589  27.950  29.315  1.00  0.00    -0.354 N 
ATOM     54  C   UNL A   1      38.249  31.457  29.595  1.00  0.00     0.074 A 
ATOM     55  C   UNL A   1      37.319  30.635  28.863  1.00  0.00     0.031 C 
ATOM     56  C   UNL A   1      43.008  29.543  30.868  1.00  0.00     0.029 A 
ATOM     57  C   UNL A   1      43.600  28.844  29.742  1.00  0.00     0.049 A 
ATOM     58  H   UNL A   1      42.705  27.048  28.936  1.00  0.00     0.167 HD
ATOM     59  C   UNL A   1      38.184  32.511  30.461  1.00  0.00     0.037 A 
ATOM     60  C   UNL A   1      44.454  29.417  28.845  1.00  0.00     0.037 A 
ATOM     61  C   UNL A   1      39.536  32.936  30.842  1.00  0.00     0.049 A 
ATOM     62  C   UNL A   1      44.414  30.927  28.841  1.00  0.00     0.074 A 
ATOM     63  C   UNL A   1      40.310  32.758  31.979  1.00  0.00     0.029 A 
ATOM     64  N   UNL A   1      40.403  33.393  29.850  1.00  0.00    -0.354 N 
ATOM     65  N   UNL A   1      43.398  31.637  29.249  1.00  0.00    -0.248 NA
ATOM     66  C   UNL A   1      45.523  31.752  28.381  1.00  0.00     0.031 C 
ATOM     67  C   UNL A   1      41.655  33.076  31.651  1.00  0.00     0.029 A 
ATOM     68  C   UNL A   1      41.698  33.465  30.323  1.00  0.00     0.049 A 
ATOM     69  H   UNL A   1      40.128  33.632  28.936  1.00  0.00     0.167 HD
ATOM     70  C   UNL A   1      43.688  32.975  29.124  1.00  0.00     0.074 A 
ATOM     71  C   UNL A   1      45.040  32.987  28.595  1.00  0.00     0.031 C 
ATOM     72  C   UNL A   1      42.782  33.942  29.469  1.00  0.00     0.037 A 
BRANCH  59  73
ATOM     73  C   UNL A   1      36.926  32.999  31.170  1.00  0.00     0.064 A 
ATOM     74  C   UNL A   1      35.960  33.758  30.468  1.00  0.00     0.173 A 
ATOM     75  C   UNL A   1      36.639  32.844  32.540  1.00  0.00     0.173 A 
ATOM     76  F   UNL A   1      36.030  33.931  29.142  1.00  0.00    -0.203 F 
ATOM     77  C   UNL A   1      34.875  34.382  31.101  1.00  0.00     0.198 A 
ATOM     78  C   UNL A   1      35.571  33.487  33.178  1.00  0.00     0.198 A 
ATOM     79  F   UNL A   1      37.342  32.031  33.328  1.00  0.00    -0.203 F 
ATOM     80  F   UNL A   1      34.012  35.109  30.377  1.00  0.00    -0.200 F 
ATOM     81  C   UNL A   1      34.697  34.268  32.461  1.00  0.00     0.200 A 
ATOM     82  F   UNL A   1      35.405  33.336  34.501  1.00  0.00    -0.200 F 
ATOM     83  F   UNL A   1      33.677  34.884  33.074  1.00  0.00    -0.200 F 
ENDBRANCH  59  73
BRANCH  60  84
ATOM     84  C   UNL A   1      44.706  28.558  27.655  1.00  0.00     0.064 A 
ATOM     85  C   UNL A   1      45.523  27.420  27.820  1.00  0.00     0.173 A 
ATOM     86  C   UNL A   1      43.864  28.591  26.538  1.00  0.00     0.173 A 
ATOM     87  F   UNL A   1      46.346  27.337  28.879  1.00  0.00    -0.203 F 
ATOM     88  C   UNL A   1      45.402  26.312  26.985  1.00  0.00     0.198 A 
ATOM     89  C   UNL A   1      43.762  27.486  25.689  1.00  0.00     0.198 A 
ATOM     90  F   UNL A   1      43.046  29.634  26.335  1.00  0.00    -0.203 F 
ATOM     91  F   UNL A   1      46.095  25.196  27.250  1.00  0.00    -0.200 F 
ATOM     92  C   UNL A   1      44.498  26.335  25.938  1.00  0.00     0.200 A 
ATOM     93  F   UNL A   1      42.864  27.491  24.693  1.00  0.00    -0.200 F 
ATOM     94  F   UNL A   1      44.298  25.235  25.197  1.00  0.00    -0.200 F 
ENDBRANCH  60  84
BRANCH  72  95
ATOM     95  C   UNL A   1      42.835  35.429  29.140  1.00  0.00     0.064 A 
ATOM     96  C   UNL A   1      42.144  36.050  28.086  1.00  0.00     0.173 A 
ATOM     97  C   UNL A   1      43.521  36.330  30.002  1.00  0.00     0.173 A 
ATOM     98  F   UNL A   1      41.344  35.362  27.265  1.00  0.00    -0.203 F 
ATOM     99  C   UNL A   1      42.191  37.432  27.869  1.00  0.00     0.198 A 
ATOM    100  C   UNL A   1      43.508  37.714  29.823  1.00  0.00     0.198 A 
ATOM    101  F   UNL A   1      44.202  35.905  31.076  1.00  0.00    -0.203 F 
ATOM    102  F   UNL A   1      41.549  37.958  26.817  1.00  0.00    -0.200 F 
ATOM    103  C   UNL A   1      42.859  38.265  28.744  1.00  0.00     0.200 A 
ATOM    104  F   UNL A   1      44.111  38.505  30.721  1.00  0.00    -0.200 F 
ATOM    105  F   UNL A   1      42.854  39.592  28.561  1.00  0.00    -0.200 F 
ENDBRANCH  72  95
ENDBRANCH  46  47
ENDBRANCH  38  41
ENDBRANCH  36  37
ENDBRANCH  35  36
ENDBRANCH   1  35
TORSDOF 15
ENDMDL
MODEL 3
REMARK VINA RESULT:     -14.1      3.541      9.307
REMARK SMILES Cc1ccccc1C(=O)Nc1cc(NC(=O)c2ccccc2C)cc(C(=O)NCCCCNC(=O)c2ccc(-c3c4nc(c(-c5c(F)c(F)c(F)c(F)c5F)c5ccc([nH]5)c(-c5c(F)c(F)c(F)c(F)c5F)c5nc(c(-c6c(F)c(F)c(F)c(F)c6F)c6ccc3[nH]6)C=C5)C=C4)cc2)c1
REMARK SMILES IDX 30 1 29 2 28 3 26 4 27 5 25 7 11 8 12 9 99 10 13 11 24 12
REMARK SMILES IDX 10 13 8 14 9 15 7 17 1 18 2 19 3 20 4 21 6 22 5 23 14 24
REMARK SMILES IDX 15 25 16 27 17 28 18 29 22 30 19 31 21 32 23 33 20 34 31 35
REMARK SMILES IDX 32 36 33 37 34 38 35 40 36 41 37 42 98 43 38 44 97 45 39 46
REMARK SMILES IDX 40 47 41 48 91 49 42 50 96 51 90 52 92 53 43 54 95 55 89 56
REMARK SMILES IDX 88 57 44 59 76 60 56 61 75 62 57 63 60 64 74 65 93 66 58 67
REMARK SMILES IDX 59 68 73 70 94 71 61 72 45 73 46 74 54 75 47 76 48 77 52 78
REMARK SMILES IDX 55 79 49 80 50 81 53 82 51 83 77 84 78 85 86 86 79 87 80 88
REMARK SMILES IDX 84 89 87 90 81 91 82 92 85 93 83 94 62 95 63 96 71 97 64 98
REMARK SMILES IDX 65 99 69 100 72 101 66 102 67 103 70 104 68 105
REMARK H PARENT 28 6 10 16 14 26 33 39 92 58 60 69
REMARK Flexibility Score: inf
ROOT
ATOM      1  C   UNL A   1      37.391  21.962  25.787  1.00  0.00     0.023 C 
ENDROOT
BRANCH   1   2
ATOM      2  C   UNL A   1      37.059  23.436  25.557  1.00  0.00     0.116 C 
BRANCH   2   3
ATOM      3  N   UNL A   1      36.260  23.672  24.364  1.00  0.00    -0.352 N 
ATOM      4  C   UNL A   1      35.048  24.251  24.079  1.00  0.00     0.251 C 
ATOM      5  O   UNL A   1      34.696  24.220  22.897  1.00  0.00    -0.269 OA
ATOM      6  H   UNL A   1      36.700  23.328  23.553  1.00  0.00     0.163 HD
BRANCH   4   7
ATOM      7  C   UNL A   1      34.138  24.899  25.066  1.00  0.00     0.043 A 
ATOM      8  C   UNL A   1      32.264  24.643  26.590  1.00  0.00     0.044 A 
ATOM      9  C   UNL A   1      32.307  26.001  26.904  1.00  0.00     0.052 A 
ATOM     10  C   UNL A   1      33.263  24.074  25.790  1.00  0.00     0.040 A 
ATOM     11  C   UNL A   1      33.197  26.823  26.230  1.00  0.00     0.044 A 
ATOM     12  C   UNL A   1      34.006  26.274  25.235  1.00  0.00     0.040 A 
BRANCH   8  13
ATOM     13  N   UNL A   1      31.164  23.834  26.914  1.00  0.00    -0.322 N 
ATOM     14  C   UNL A   1      30.608  22.791  26.194  1.00  0.00     0.255 C 
ATOM     15  O   UNL A   1      29.584  22.253  26.616  1.00  0.00    -0.269 OA
ATOM     16  H   UNL A   1      30.728  24.038  27.773  1.00  0.00     0.170 HD
BRANCH  14  17
ATOM     17  C   UNL A   1      31.226  22.258  24.942  1.00  0.00     0.043 A 
ATOM     18  C   UNL A   1      30.575  24.222  23.392  1.00  0.00     0.045 C 
ATOM     19  C   UNL A   1      31.156  22.864  23.669  1.00  0.00    -0.038 A 
ATOM     20  C   UNL A   1      31.701  22.181  22.564  1.00  0.00     0.004 A 
ATOM     21  C   UNL A   1      32.395  20.984  22.727  1.00  0.00     0.000 A 
ATOM     22  C   UNL A   1      31.971  21.077  25.098  1.00  0.00     0.014 A 
ATOM     23  C   UNL A   1      32.561  20.449  23.999  1.00  0.00     0.001 A 
ENDBRANCH  14  17
ENDBRANCH   8  13
BRANCH  11  24
ATOM     24  N   UNL A   1      33.323  28.205  26.421  1.00  0.00    -0.322 N 
ATOM     25  C   UNL A   1      32.969  29.273  25.637  1.00  0.00     0.255 C 
ATOM     26  H   UNL A   1      33.744  28.457  27.275  1.00  0.00     0.170 HD
ATOM     27  O   UNL A   1      33.315  30.405  25.973  1.00  0.00    -0.269 OA
BRANCH  25  28
ATOM     28  C   UNL A   1      32.130  29.109  24.432  1.00  0.00     0.043 A 
ATOM     29  C   UNL A   1      30.745  29.147  24.655  1.00  0.00     0.014 A 
ATOM     30  C   UNL A   1      32.643  28.874  23.141  1.00  0.00    -0.038 A 
ATOM     31  C   UNL A   1      29.862  29.023  23.587  1.00  0.00     0.001 A 
ATOM     32  C   UNL A   1      31.734  28.784  22.075  1.00  0.00     0.004 A 
ATOM     33  C   UNL A   1      34.106  28.729  22.827  1.00  0.00     0.045 C 
ATOM     34  C   UNL A   1      30.356  28.859  22.297  1.00  0.00     0.000 A 
ENDBRANCH  25  28
ENDBRANCH  11  24
ENDBRANCH   4   7
ENDBRANCH   2   3
ENDBRANCH   1   2
BRANCH   1  35
ATOM     35  C   UNL A   1      38.881  21.629  25.717  1.00  0.00     0.023 C 
BRANCH  35  36
ATOM     36  C   UNL A   1      39.695  22.139  26.900  1.00  0.00     0.116 C 
BRANCH  36  37
ATOM     37  N   UNL A   1      41.049  22.564  26.593  1.00  0.00    -0.352 N 
ATOM     38  C   UNL A   1      41.577  23.838  26.410  1.00  0.00     0.251 C 
ATOM     39  H   UNL A   1      41.701  21.831  26.499  1.00  0.00     0.163 HD
ATOM     40  O   UNL A   1      42.712  23.954  25.999  1.00  0.00    -0.269 OA
BRANCH  38  41
ATOM     41  C   UNL A   1      40.830  25.050  26.866  1.00  0.00     0.039 A 
ATOM     42  C   UNL A   1      40.860  26.186  26.040  1.00  0.00     0.014 A 
ATOM     43  C   UNL A   1      40.318  25.165  28.151  1.00  0.00     0.014 A 
ATOM     44  C   UNL A   1      40.661  27.450  26.592  1.00  0.00     0.010 A 
ATOM     45  C   UNL A   1      40.266  26.408  28.735  1.00  0.00     0.010 A 
ATOM     46  C   UNL A   1      40.511  27.549  27.968  1.00  0.00    -0.014 A 
BRANCH  46  47
ATOM     47  C   UNL A   1      40.685  28.769  28.741  1.00  0.00     0.031 A 
ATOM     48  C   UNL A   1      39.594  29.759  28.800  1.00  0.00     0.074 A 
ATOM     49  C   UNL A   1      41.731  28.835  29.593  1.00  0.00     0.049 A 
ATOM     50  N   UNL A   1      39.695  30.924  29.340  1.00  0.00    -0.248 NA
ATOM     51  C   UNL A   1      38.289  29.521  28.199  1.00  0.00     0.031 C 
ATOM     52  C   UNL A   1      41.883  29.699  30.761  1.00  0.00     0.029 A 
ATOM     53  N   UNL A   1      42.993  28.235  29.442  1.00  0.00    -0.354 N 
ATOM     54  C   UNL A   1      38.430  31.458  29.433  1.00  0.00     0.074 A 
ATOM     55  C   UNL A   1      37.613  30.593  28.620  1.00  0.00     0.031 C 
ATOM     56  C   UNL A   1      43.190  29.822  31.043  1.00  0.00     0.029 A 
ATOM     57  C   UNL A   1      43.909  29.181  29.958  1.00  0.00     0.049 A 
ATOM     58  H   UNL A   1      43.194  27.348  29.062  1.00  0.00     0.167 HD
ATOM     59  C   UNL A   1      38.233  32.491  30.305  1.00  0.00     0.037 A 
ATOM     60  C   UNL A   1      44.791  29.822  29.137  1.00  0.00     0.037 A 
ATOM     61  C   UNL A   1      39.523  32.992  30.794  1.00  0.00     0.049 A 
ATOM     62  C   UNL A   1      44.656  31.328  29.150  1.00  0.00     0.074 A 
ATOM     63  C   UNL A   1      40.217  32.843  31.985  1.00  0.00     0.029 A 
ATOM     64  N   UNL A   1      40.431  33.520  29.879  1.00  0.00    -0.354 N 
ATOM     65  N   UNL A   1      43.569  31.965  29.487  1.00  0.00    -0.248 NA
ATOM     66  C   UNL A   1      45.742  32.228  28.787  1.00  0.00     0.031 C 
ATOM     67  C   UNL A   1      41.561  33.249  31.766  1.00  0.00     0.029 A 
ATOM     68  C   UNL A   1      41.680  33.664  30.451  1.00  0.00     0.049 A 
ATOM     69  H   UNL A   1      40.212  33.758  28.949  1.00  0.00     0.167 HD
ATOM     70  C   UNL A   1      43.782  33.320  29.403  1.00  0.00     0.074 A 
ATOM     71  C   UNL A   1      45.167  33.427  28.979  1.00  0.00     0.031 C 
ATOM     72  C   UNL A   1      42.793  34.223  29.689  1.00  0.00     0.037 A 
BRANCH  59  73
ATOM     73  C   UNL A   1      36.896  32.887  30.922  1.00  0.00     0.064 A 
ATOM     74  C   UNL A   1      35.958  33.635  30.172  1.00  0.00     0.173 A 
ATOM     75  C   UNL A   1      36.501  32.653  32.253  1.00  0.00     0.173 A 
ATOM     76  F   UNL A   1      36.133  33.874  28.866  1.00  0.00    -0.203 F 
ATOM     77  C   UNL A   1      34.793  34.178  30.733  1.00  0.00     0.198 A 
ATOM     78  C   UNL A   1      35.352  33.216  32.822  1.00  0.00     0.198 A 
ATOM     79  F   UNL A   1      37.172  31.836  33.063  1.00  0.00    -0.203 F 
ATOM     80  F   UNL A   1      33.961  34.899  29.969  1.00  0.00    -0.200 F 
ATOM     81  C   UNL A   1      34.504  33.990  32.065  1.00  0.00     0.200 A 
ATOM     82  F   UNL A   1      35.080  32.994  34.117  1.00  0.00    -0.200 F 
ATOM     83  F   UNL A   1      33.407  34.529  32.613  1.00  0.00    -0.200 F 
ENDBRANCH  59  73
BRANCH  60  84
ATOM     84  C   UNL A   1      45.186  29.002  27.959  1.00  0.00     0.064 A 
ATOM     85  C   UNL A   1      46.165  28.005  28.144  1.00  0.00     0.173 A 
ATOM     86  C   UNL A   1      44.364  28.898  26.831  1.00  0.00     0.173 A 
ATOM     87  F   UNL A   1      46.977  28.057  29.213  1.00  0.00    -0.203 F 
ATOM     88  C   UNL A   1      46.226  26.884  27.320  1.00  0.00     0.198 A 
ATOM     89  C   UNL A   1      44.443  27.783  25.993  1.00  0.00     0.198 A 
ATOM     90  F   UNL A   1      43.400  29.802  26.609  1.00  0.00    -0.203 F 
ATOM     91  F   UNL A   1      47.078  25.889  27.604  1.00  0.00    -0.200 F 
ATOM     92  C   UNL A   1      45.343  26.760  26.261  1.00  0.00     0.200 A 
ATOM     93  F   UNL A   1      43.568  27.643  24.985  1.00  0.00    -0.200 F 
ATOM     94  F   UNL A   1      45.323  25.636  25.530  1.00  0.00    -0.200 F 
ENDBRANCH  60  84
BRANCH  72  95
ATOM     95  C   UNL A   1      42.776  35.716  29.385  1.00  0.00     0.064 A 
ATOM     96  C   UNL A   1      43.478  36.696  30.107  1.00  0.00     0.173 A 
ATOM     97  C   UNL A   1      42.119  36.204  28.222  1.00  0.00     0.173 A 
ATOM     98  F   UNL A   1      44.257  36.384  31.148  1.00  0.00    -0.203 F 
ATOM     99  C   UNL A   1      43.467  38.048  29.743  1.00  0.00     0.198 A 
ATOM    100  C   UNL A   1      42.166  37.541  27.824  1.00  0.00     0.198 A 
ATOM    101  F   UNL A   1      41.431  35.395  27.403  1.00  0.00    -0.203 F 
ATOM    102  F   UNL A   1      44.118  38.941  30.501  1.00  0.00    -0.200 F 
ATOM    103  C   UNL A   1      42.825  38.468  28.596  1.00  0.00     0.200 A 
ATOM    104  F   UNL A   1      41.588  37.913  26.673  1.00  0.00    -0.200 F 
ATOM    105  F   UNL A   1      42.863  39.755  28.225  1.00  0.00    -0.200 F 
ENDBRANCH  72  95
ENDBRANCH  46  47
ENDBRANCH  38  41
ENDBRANCH  36  37
ENDBRANCH  35  36
ENDBRANCH   1  35
TORSDOF 15
ENDMDL
