MODEL 1
REMARK VINA RESULT:     -13.3      0.000      0.000
REMARK SMILES O=C(NCCCCNC(=O)c1ccccc1C(=O)c1cccc(S(=O)(=O)N2CCOCC2)c1)c1ccc(-c2c3nc(c(-c4c(F)c(F)c(F)c(F)c4F)c4ccc([nH]4)c(-c4c(F)c(F)c(F)c(F)c4F)c4nc(c(-c5c(F)c(F)c(F)c(F)c5F)c5ccc2[nH]5)C=C4)C=C3)cc1
REMARK SMILES IDX 6 1 5 2 4 3 3 4 1 5 2 6 34 8 35 9 96 10 36 11 95 12 37 13
REMARK SMILES IDX 38 14 39 15 89 16 40 17 94 18 88 19 90 20 41 21 93 22 87 23
REMARK SMILES IDX 86 24 42 26 74 27 54 28 73 29 55 30 58 31 72 32 91 33 56 34
REMARK SMILES IDX 57 35 71 37 92 38 59 39 43 40 44 41 52 42 45 43 46 44 50 45
REMARK SMILES IDX 53 46 47 47 48 48 51 49 49 50 75 51 76 52 84 53 77 54 78 55
REMARK SMILES IDX 82 56 85 57 79 58 80 59 83 60 81 61 60 62 61 63 69 64 62 65
REMARK SMILES IDX 63 66 67 67 70 68 64 69 65 70 68 71 66 72 7 73 8 74 9 75
REMARK SMILES IDX 10 77 11 78 12 79 16 80 13 81 15 82 14 83 17 84 18 85 19 86
REMARK SMILES IDX 20 87 33 88 21 89 23 90 22 91 24 92 25 93 26 94 27 95 28 96
REMARK SMILES IDX 32 97 29 98 31 99 30 100
REMARK H PARENT 3 7 90 25 58 36 8 76
REMARK Flexibility Score: inf
ROOT
ATOM      1  C   UNL A   1      36.738  20.228  25.002  1.00  0.00     0.023 C 
ENDROOT
BRANCH   1   2
ATOM      2  C   UNL A   1      38.194  19.890  24.664  1.00  0.00     0.023 C 
BRANCH   2   3
ATOM      3  C   UNL A   1      39.205  20.124  25.777  1.00  0.00     0.116 C 
BRANCH   3   4
ATOM      4  N   UNL A   1      40.213  19.081  25.875  1.00  0.00    -0.352 N 
ATOM      5  O   UNL A   1      42.293  18.225  26.093  1.00  0.00    -0.269 OA
ATOM      6  C   UNL A   1      41.557  19.205  26.127  1.00  0.00     0.251 C 
ATOM      7  H   UNL A   1      39.886  18.161  25.742  1.00  0.00     0.163 HD
BRANCH   6   8
ATOM      8  C   UNL A   1      42.120  20.540  26.408  1.00  0.00     0.039 A 
ATOM      9  C   UNL A   1      42.270  20.985  27.722  1.00  0.00     0.014 A 
ATOM     10  C   UNL A   1      42.474  21.366  25.339  1.00  0.00     0.014 A 
ATOM     11  C   UNL A   1      42.650  22.299  27.970  1.00  0.00     0.010 A 
ATOM     12  C   UNL A   1      42.926  22.663  25.592  1.00  0.00     0.010 A 
ATOM     13  C   UNL A   1      42.989  23.151  26.908  1.00  0.00    -0.014 A 
BRANCH  13  14
ATOM     14  C   UNL A   1      43.441  24.538  27.185  1.00  0.00     0.031 A 
ATOM     15  C   UNL A   1      42.494  25.561  27.746  1.00  0.00     0.074 A 
ATOM     16  C   UNL A   1      44.720  24.872  26.924  1.00  0.00     0.049 A 
ATOM     17  N   UNL A   1      42.699  26.831  27.993  1.00  0.00    -0.248 NA
ATOM     18  C   UNL A   1      41.133  25.102  28.063  1.00  0.00     0.031 C 
ATOM     19  C   UNL A   1      45.733  23.964  26.382  1.00  0.00     0.029 A 
ATOM     20  N   UNL A   1      45.385  26.061  27.075  1.00  0.00    -0.354 N 
ATOM     21  C   UNL A   1      41.494  27.326  28.474  1.00  0.00     0.074 A 
ATOM     22  C   UNL A   1      40.552  26.227  28.456  1.00  0.00     0.031 C 
ATOM     23  C   UNL A   1      46.896  24.621  26.271  1.00  0.00     0.029 A 
ATOM     24  C   UNL A   1      46.696  26.010  26.667  1.00  0.00     0.049 A 
ATOM     25  H   UNL A   1      44.966  26.873  27.443  1.00  0.00     0.167 HD
ATOM     26  C   UNL A   1      41.207  28.581  28.897  1.00  0.00     0.037 A 
ATOM     27  C   UNL A   1      47.625  26.980  26.588  1.00  0.00     0.037 A 
ATOM     28  C   UNL A   1      42.154  29.667  28.919  1.00  0.00     0.049 A 
ATOM     29  C   UNL A   1      47.261  28.375  27.015  1.00  0.00     0.074 A 
ATOM     30  C   UNL A   1      41.970  30.966  29.361  1.00  0.00     0.029 A 
ATOM     31  N   UNL A   1      43.467  29.583  28.474  1.00  0.00    -0.354 N 
ATOM     32  N   UNL A   1      46.128  28.824  27.494  1.00  0.00    -0.248 NA
ATOM     33  C   UNL A   1      48.308  29.397  26.886  1.00  0.00     0.031 C 
ATOM     34  C   UNL A   1      43.147  31.683  29.125  1.00  0.00     0.029 A 
ATOM     35  C   UNL A   1      44.091  30.815  28.601  1.00  0.00     0.049 A 
ATOM     36  H   UNL A   1      43.891  28.768  28.119  1.00  0.00     0.167 HD
ATOM     37  C   UNL A   1      46.332  30.174  27.751  1.00  0.00     0.074 A 
ATOM     38  C   UNL A   1      47.704  30.464  27.390  1.00  0.00     0.031 C 
ATOM     39  C   UNL A   1      45.460  31.089  28.241  1.00  0.00     0.037 A 
BRANCH  26  40
ATOM     40  C   UNL A   1      39.800  28.862  29.350  1.00  0.00     0.064 A 
ATOM     41  C   UNL A   1      38.808  29.301  28.459  1.00  0.00     0.173 A 
ATOM     42  C   UNL A   1      39.427  28.643  30.685  1.00  0.00     0.173 A 
ATOM     43  F   UNL A   1      39.110  29.535  27.173  1.00  0.00    -0.203 F 
ATOM     44  C   UNL A   1      37.506  29.538  28.895  1.00  0.00     0.198 A 
ATOM     45  C   UNL A   1      38.117  28.848  31.110  1.00  0.00     0.198 A 
ATOM     46  F   UNL A   1      40.331  28.215  31.579  1.00  0.00    -0.203 F 
ATOM     47  F   UNL A   1      36.589  30.005  28.037  1.00  0.00    -0.200 F 
ATOM     48  C   UNL A   1      37.160  29.304  30.218  1.00  0.00     0.200 A 
ATOM     49  F   UNL A   1      37.781  28.606  32.385  1.00  0.00    -0.200 F 
ATOM     50  F   UNL A   1      35.904  29.523  30.632  1.00  0.00    -0.200 F 
ENDBRANCH  26  40
BRANCH  27  51
ATOM     51  C   UNL A   1      48.981  26.664  26.069  1.00  0.00     0.064 A 
ATOM     52  C   UNL A   1      49.962  26.112  26.905  1.00  0.00     0.173 A 
ATOM     53  C   UNL A   1      49.324  26.905  24.731  1.00  0.00     0.173 A 
ATOM     54  F   UNL A   1      49.688  25.881  28.197  1.00  0.00    -0.203 F 
ATOM     55  C   UNL A   1      51.240  25.833  26.426  1.00  0.00     0.198 A 
ATOM     56  C   UNL A   1      50.591  26.593  24.244  1.00  0.00     0.198 A 
ATOM     57  F   UNL A   1      48.420  27.427  23.888  1.00  0.00    -0.203 F 
ATOM     58  F   UNL A   1      52.174  25.353  27.256  1.00  0.00    -0.200 F 
ATOM     59  C   UNL A   1      51.552  26.067  25.094  1.00  0.00     0.200 A 
ATOM     60  F   UNL A   1      50.880  26.804  22.952  1.00  0.00    -0.200 F 
ATOM     61  F   UNL A   1      52.778  25.792  24.632  1.00  0.00    -0.200 F 
ENDBRANCH  27  51
BRANCH  39  62
ATOM     62  C   UNL A   1      45.977  32.483  28.455  1.00  0.00     0.064 A 
ATOM     63  C   UNL A   1      45.872  33.472  27.466  1.00  0.00     0.173 A 
ATOM     64  C   UNL A   1      46.560  32.841  29.680  1.00  0.00     0.173 A 
ATOM     65  F   UNL A   1      45.339  33.178  26.271  1.00  0.00    -0.203 F 
ATOM     66  C   UNL A   1      46.360  34.758  27.684  1.00  0.00     0.198 A 
ATOM     67  C   UNL A   1      47.015  34.137  29.908  1.00  0.00     0.198 A 
ATOM     68  F   UNL A   1      46.680  31.936  30.664  1.00  0.00    -0.203 F 
ATOM     69  F   UNL A   1      46.301  35.670  26.704  1.00  0.00    -0.200 F 
ATOM     70  C   UNL A   1      46.923  35.092  28.907  1.00  0.00     0.200 A 
ATOM     71  F   UNL A   1      47.543  34.462  31.097  1.00  0.00    -0.200 F 
ATOM     72  F   UNL A   1      47.385  36.332  29.117  1.00  0.00    -0.200 F 
ENDBRANCH  39  62
ENDBRANCH  13  14
ENDBRANCH   6   8
ENDBRANCH   3   4
ENDBRANCH   2   3
ENDBRANCH   1   2
BRANCH   1  73
ATOM     73  C   UNL A   1      36.485  21.643  25.518  1.00  0.00     0.116 C 
BRANCH  73  74
ATOM     74  N   UNL A   1      35.494  21.656  26.573  1.00  0.00    -0.352 N 
ATOM     75  C   UNL A   1      34.136  21.617  26.479  1.00  0.00     0.252 C 
ATOM     76  H   UNL A   1      35.852  21.699  27.489  1.00  0.00     0.163 HD
ATOM     77  O   UNL A   1      33.455  21.873  27.466  1.00  0.00    -0.269 OA
BRANCH  75  78
ATOM     78  C   UNL A   1      33.462  21.319  25.208  1.00  0.00     0.050 A 
ATOM     79  C   UNL A   1      33.148  19.957  25.020  1.00  0.00     0.014 A 
ATOM     80  C   UNL A   1      33.189  22.254  24.199  1.00  0.00     0.035 A 
ATOM     81  C   UNL A   1      32.507  19.528  23.861  1.00  0.00     0.001 A 
ATOM     82  C   UNL A   1      32.518  21.801  23.045  1.00  0.00     0.013 A 
ATOM     83  C   UNL A   1      32.178  20.453  22.879  1.00  0.00     0.001 A 
BRANCH  80  84
ATOM     84  C   UNL A   1      33.477  23.716  24.238  1.00  0.00     0.193 C 
ATOM     85  O   UNL A   1      34.580  24.093  23.839  1.00  0.00    -0.289 OA
BRANCH  84  86
ATOM     86  C   UNL A   1      32.528  24.763  24.691  1.00  0.00     0.024 A 
ATOM     87  C   UNL A   1      31.627  24.419  25.707  1.00  0.00     0.012 A 
ATOM     88  C   UNL A   1      32.481  26.043  24.138  1.00  0.00     0.034 A 
ATOM     89  C   UNL A   1      30.764  25.374  26.240  1.00  0.00     0.002 A 
ATOM     90  C   UNL A   1      31.646  27.012  24.702  1.00  0.00     0.083 A 
ATOM     91  C   UNL A   1      30.801  26.682  25.769  1.00  0.00     0.022 A 
BRANCH  90  92
ATOM     92  S   UNL A   1      31.601  28.705  24.142  1.00  0.00     0.243 S 
ATOM     93  O   UNL A   1      31.254  29.490  25.309  1.00  0.00    -0.207 OA
ATOM     94  O   UNL A   1      32.843  28.914  23.431  1.00  0.00    -0.207 OA
BRANCH  92  95
ATOM     95  N   UNL A   1      30.352  28.806  23.048  1.00  0.00    -0.193 NA
ATOM     96  C   UNL A   1      30.378  29.706  21.884  1.00  0.00     0.131 C 
ATOM     97  C   UNL A   1      29.148  27.958  23.126  1.00  0.00     0.131 C 
ATOM     98  C   UNL A   1      29.096  30.542  21.870  1.00  0.00     0.177 C 
ATOM     99  C   UNL A   1      27.889  28.834  23.002  1.00  0.00     0.177 C 
ATOM    100  O   UNL A   1      27.931  29.702  21.857  1.00  0.00    -0.379 OA
ENDBRANCH  92  95
ENDBRANCH  90  92
ENDBRANCH  84  86
ENDBRANCH  80  84
ENDBRANCH  75  78
ENDBRANCH  73  74
ENDBRANCH   1  73
TORSDOF 15
ENDMDL
MODEL 2
REMARK VINA RESULT:     -13.3      0.917      1.741
REMARK SMILES O=C(NCCCCNC(=O)c1ccccc1C(=O)c1cccc(S(=O)(=O)N2CCOCC2)c1)c1ccc(-c2c3nc(c(-c4c(F)c(F)c(F)c(F)c4F)c4ccc([nH]4)c(-c4c(F)c(F)c(F)c(F)c4F)c4nc(c(-c5c(F)c(F)c(F)c(F)c5F)c5ccc2[nH]5)C=C4)C=C3)cc1
REMARK SMILES IDX 6 1 5 2 4 3 3 4 1 5 2 6 34 8 35 9 96 10 36 11 95 12 37 13
REMARK SMILES IDX 38 14 39 15 89 16 40 17 94 18 88 19 90 20 41 21 93 22 87 23
REMARK SMILES IDX 86 24 42 26 74 27 54 28 73 29 55 30 58 31 72 32 91 33 56 34
REMARK SMILES IDX 57 35 71 37 92 38 59 39 43 40 44 41 52 42 45 43 46 44 50 45
REMARK SMILES IDX 53 46 47 47 48 48 51 49 49 50 75 51 76 52 84 53 77 54 78 55
REMARK SMILES IDX 82 56 85 57 79 58 80 59 83 60 81 61 60 62 61 63 69 64 62 65
REMARK SMILES IDX 63 66 67 67 70 68 64 69 65 70 68 71 66 72 7 73 8 74 9 75
REMARK SMILES IDX 10 77 11 78 12 79 16 80 13 81 15 82 14 83 17 84 18 85 19 86
REMARK SMILES IDX 20 87 33 88 21 89 23 90 22 91 24 92 25 93 26 94 27 95 28 96
REMARK SMILES IDX 32 97 29 98 31 99 30 100
REMARK H PARENT 3 7 90 25 58 36 8 76
REMARK Flexibility Score: inf
ROOT
ATOM      1  C   UNL A   1      36.733  20.062  25.000  1.00  0.00     0.023 C 
ENDROOT
BRANCH   1   2
ATOM      2  C   UNL A   1      38.210  19.892  24.635  1.00  0.00     0.023 C 
BRANCH   2   3
ATOM      3  C   UNL A   1      39.205  20.122  25.764  1.00  0.00     0.116 C 
BRANCH   3   4
ATOM      4  N   UNL A   1      40.212  19.079  25.871  1.00  0.00    -0.352 N 
ATOM      5  O   UNL A   1      42.292  18.225  26.103  1.00  0.00    -0.269 OA
ATOM      6  C   UNL A   1      41.556  19.205  26.129  1.00  0.00     0.251 C 
ATOM      7  H   UNL A   1      39.886  18.158  25.741  1.00  0.00     0.163 HD
BRANCH   6   8
ATOM      8  C   UNL A   1      42.117  20.542  26.406  1.00  0.00     0.039 A 
ATOM      9  C   UNL A   1      42.330  20.963  27.719  1.00  0.00     0.014 A 
ATOM     10  C   UNL A   1      42.405  21.391  25.336  1.00  0.00     0.014 A 
ATOM     11  C   UNL A   1      42.708  22.277  27.972  1.00  0.00     0.010 A 
ATOM     12  C   UNL A   1      42.854  22.689  25.591  1.00  0.00     0.010 A 
ATOM     13  C   UNL A   1      42.980  23.153  26.910  1.00  0.00    -0.014 A 
BRANCH  13  14
ATOM     14  C   UNL A   1      43.430  24.540  27.191  1.00  0.00     0.031 A 
ATOM     15  C   UNL A   1      42.482  25.560  27.757  1.00  0.00     0.074 A 
ATOM     16  C   UNL A   1      44.707  24.878  26.927  1.00  0.00     0.049 A 
ATOM     17  N   UNL A   1      42.685  26.829  28.008  1.00  0.00    -0.248 NA
ATOM     18  C   UNL A   1      41.123  25.097  28.076  1.00  0.00     0.031 C 
ATOM     19  C   UNL A   1      45.721  23.974  26.380  1.00  0.00     0.029 A 
ATOM     20  N   UNL A   1      45.371  26.068  27.081  1.00  0.00    -0.354 N 
ATOM     21  C   UNL A   1      41.480  27.321  28.493  1.00  0.00     0.074 A 
ATOM     22  C   UNL A   1      40.540  26.220  28.474  1.00  0.00     0.031 C 
ATOM     23  C   UNL A   1      46.883  24.633  26.268  1.00  0.00     0.029 A 
ATOM     24  C   UNL A   1      46.680  26.021  26.669  1.00  0.00     0.049 A 
ATOM     25  H   UNL A   1      44.950  26.878  27.451  1.00  0.00     0.167 HD
ATOM     26  C   UNL A   1      41.191  28.573  28.921  1.00  0.00     0.037 A 
ATOM     27  C   UNL A   1      47.607  26.993  26.590  1.00  0.00     0.037 A 
ATOM     28  C   UNL A   1      42.137  29.662  28.943  1.00  0.00     0.049 A 
ATOM     29  C   UNL A   1      47.242  28.386  27.022  1.00  0.00     0.074 A 
ATOM     30  C   UNL A   1      41.950  30.959  29.390  1.00  0.00     0.029 A 
ATOM     31  N   UNL A   1      43.448  29.581  28.494  1.00  0.00    -0.354 N 
ATOM     32  N   UNL A   1      46.109  28.832  27.506  1.00  0.00    -0.248 NA
ATOM     33  C   UNL A   1      48.285  29.411  26.894  1.00  0.00     0.031 C 
ATOM     34  C   UNL A   1      43.126  31.679  29.152  1.00  0.00     0.029 A 
ATOM     35  C   UNL A   1      44.070  30.814  28.624  1.00  0.00     0.049 A 
ATOM     36  H   UNL A   1      43.873  28.769  28.136  1.00  0.00     0.167 HD
ATOM     37  C   UNL A   1      46.310  30.181  27.766  1.00  0.00     0.074 A 
ATOM     38  C   UNL A   1      47.680  30.474  27.403  1.00  0.00     0.031 C 
ATOM     39  C   UNL A   1      45.437  31.093  28.261  1.00  0.00     0.037 A 
BRANCH  26  40
ATOM     40  C   UNL A   1      39.785  28.850  29.377  1.00  0.00     0.064 A 
ATOM     41  C   UNL A   1      38.801  29.329  28.499  1.00  0.00     0.173 A 
ATOM     42  C   UNL A   1      39.405  28.587  30.703  1.00  0.00     0.173 A 
ATOM     43  F   UNL A   1      39.110  29.607  27.224  1.00  0.00    -0.203 F 
ATOM     44  C   UNL A   1      37.499  29.562  28.938  1.00  0.00     0.198 A 
ATOM     45  C   UNL A   1      38.094  28.788  31.129  1.00  0.00     0.198 A 
ATOM     46  F   UNL A   1      40.301  28.118  31.584  1.00  0.00    -0.203 F 
ATOM     47  F   UNL A   1      36.589  30.067  28.094  1.00  0.00    -0.200 F 
ATOM     48  C   UNL A   1      37.145  29.283  30.250  1.00  0.00     0.200 A 
ATOM     49  F   UNL A   1      37.751  28.502  32.393  1.00  0.00    -0.200 F 
ATOM     50  F   UNL A   1      35.889  29.498  30.667  1.00  0.00    -0.200 F 
ENDBRANCH  26  40
BRANCH  27  51
ATOM     51  C   UNL A   1      48.962  26.681  26.068  1.00  0.00     0.064 A 
ATOM     52  C   UNL A   1      49.297  26.938  24.731  1.00  0.00     0.173 A 
ATOM     53  C   UNL A   1      49.950  26.122  26.892  1.00  0.00     0.173 A 
ATOM     54  F   UNL A   1      48.381  27.454  23.899  1.00  0.00    -0.203 F 
ATOM     55  C   UNL A   1      50.561  26.627  24.234  1.00  0.00     0.198 A 
ATOM     56  C   UNL A   1      51.225  25.845  26.403  1.00  0.00     0.198 A 
ATOM     57  F   UNL A   1      49.683  25.861  28.180  1.00  0.00    -0.203 F 
ATOM     58  F   UNL A   1      50.839  26.836  22.941  1.00  0.00    -0.200 F 
ATOM     59  C   UNL A   1      51.526  26.088  25.072  1.00  0.00     0.200 A 
ATOM     60  F   UNL A   1      52.158  25.340  27.222  1.00  0.00    -0.200 F 
ATOM     61  F   UNL A   1      52.743  25.796  24.595  1.00  0.00    -0.200 F 
ENDBRANCH  27  51
BRANCH  39  62
ATOM     62  C   UNL A   1      45.952  32.487  28.478  1.00  0.00     0.064 A 
ATOM     63  C   UNL A   1      45.845  33.478  27.490  1.00  0.00     0.173 A 
ATOM     64  C   UNL A   1      46.535  32.844  29.704  1.00  0.00     0.173 A 
ATOM     65  F   UNL A   1      45.313  33.185  26.295  1.00  0.00    -0.203 F 
ATOM     66  C   UNL A   1      46.332  34.764  27.711  1.00  0.00     0.198 A 
ATOM     67  C   UNL A   1      46.987  34.140  29.934  1.00  0.00     0.198 A 
ATOM     68  F   UNL A   1      46.656  31.937  30.685  1.00  0.00    -0.203 F 
ATOM     69  F   UNL A   1      46.271  35.678  26.733  1.00  0.00    -0.200 F 
ATOM     70  C   UNL A   1      46.894  35.096  28.935  1.00  0.00     0.200 A 
ATOM     71  F   UNL A   1      47.515  34.463  31.123  1.00  0.00    -0.200 F 
ATOM     72  F   UNL A   1      47.354  36.337  29.148  1.00  0.00    -0.200 F 
ENDBRANCH  39  62
ENDBRANCH  13  14
ENDBRANCH   6   8
ENDBRANCH   3   4
ENDBRANCH   2   3
ENDBRANCH   1   2
BRANCH   1  73
ATOM     73  C   UNL A   1      36.291  21.483  25.346  1.00  0.00     0.116 C 
BRANCH  73  74
ATOM     74  N   UNL A   1      35.356  21.497  26.451  1.00  0.00    -0.352 N 
ATOM     75  C   UNL A   1      34.024  21.215  26.453  1.00  0.00     0.252 C 
ATOM     76  H   UNL A   1      35.736  21.745  27.324  1.00  0.00     0.163 HD
ATOM     77  O   UNL A   1      33.348  21.506  27.434  1.00  0.00    -0.269 OA
BRANCH  75  78
ATOM     78  C   UNL A   1      33.363  20.608  25.290  1.00  0.00     0.050 A 
ATOM     79  C   UNL A   1      33.197  19.211  25.376  1.00  0.00     0.014 A 
ATOM     80  C   UNL A   1      32.972  21.297  24.132  1.00  0.00     0.035 A 
ATOM     81  C   UNL A   1      32.586  18.502  24.345  1.00  0.00     0.001 A 
ATOM     82  C   UNL A   1      32.334  20.563  23.113  1.00  0.00     0.013 A 
ATOM     83  C   UNL A   1      32.141  19.181  23.219  1.00  0.00     0.001 A 
BRANCH  80  84
ATOM     84  C   UNL A   1      33.099  22.762  23.882  1.00  0.00     0.193 C 
ATOM     85  O   UNL A   1      34.119  23.160  23.318  1.00  0.00    -0.289 OA
BRANCH  84  86
ATOM     86  C   UNL A   1      32.078  23.780  24.230  1.00  0.00     0.024 A 
ATOM     87  C   UNL A   1      31.347  23.584  25.409  1.00  0.00     0.012 A 
ATOM     88  C   UNL A   1      31.802  24.890  23.431  1.00  0.00     0.034 A 
ATOM     89  C   UNL A   1      30.431  24.540  25.841  1.00  0.00     0.002 A 
ATOM     90  C   UNL A   1      30.916  25.870  23.886  1.00  0.00     0.083 A 
ATOM     91  C   UNL A   1      30.245  25.705  25.104  1.00  0.00     0.022 A 
BRANCH  90  92
ATOM     92  S   UNL A   1      30.588  27.379  22.993  1.00  0.00     0.243 S 
ATOM     93  O   UNL A   1      31.052  27.138  21.642  1.00  0.00    -0.207 OA
ATOM     94  O   UNL A   1      29.207  27.706  23.271  1.00  0.00    -0.207 OA
BRANCH  92  95
ATOM     95  N   UNL A   1      31.549  28.551  23.679  1.00  0.00    -0.193 NA
ATOM     96  C   UNL A   1      32.985  28.680  23.388  1.00  0.00     0.131 C 
ATOM     97  C   UNL A   1      31.022  29.588  24.586  1.00  0.00     0.131 C 
ATOM     98  C   UNL A   1      33.760  28.724  24.707  1.00  0.00     0.177 C 
ATOM     99  C   UNL A   1      31.898  29.664  25.849  1.00  0.00     0.177 C 
ATOM    100  O   UNL A   1      33.297  29.795  25.544  1.00  0.00    -0.379 OA
ENDBRANCH  92  95
ENDBRANCH  90  92
ENDBRANCH  84  86
ENDBRANCH  80  84
ENDBRANCH  75  78
ENDBRANCH  73  74
ENDBRANCH   1  73
TORSDOF 15
ENDMDL
MODEL 3
REMARK VINA RESULT:     -13.3      1.203      2.238
REMARK SMILES O=C(NCCCCNC(=O)c1ccccc1C(=O)c1cccc(S(=O)(=O)N2CCOCC2)c1)c1ccc(-c2c3nc(c(-c4c(F)c(F)c(F)c(F)c4F)c4ccc([nH]4)c(-c4c(F)c(F)c(F)c(F)c4F)c4nc(c(-c5c(F)c(F)c(F)c(F)c5F)c5ccc2[nH]5)C=C4)C=C3)cc1
REMARK SMILES IDX 6 1 5 2 4 3 3 4 1 5 2 6 34 8 35 9 96 10 36 11 95 12 37 13
REMARK SMILES IDX 38 14 39 15 89 16 40 17 94 18 88 19 90 20 41 21 93 22 87 23
REMARK SMILES IDX 86 24 42 26 74 27 54 28 73 29 55 30 58 31 72 32 91 33 56 34
REMARK SMILES IDX 57 35 71 37 92 38 59 39 43 40 44 41 52 42 45 43 46 44 50 45
REMARK SMILES IDX 53 46 47 47 48 48 51 49 49 50 75 51 76 52 84 53 77 54 78 55
REMARK SMILES IDX 82 56 85 57 79 58 80 59 83 60 81 61 60 62 61 63 69 64 62 65
REMARK SMILES IDX 63 66 67 67 70 68 64 69 65 70 68 71 66 72 7 73 8 74 9 75
REMARK SMILES IDX 10 77 11 78 12 79 16 80 13 81 15 82 14 83 17 84 18 85 19 86
REMARK SMILES IDX 20 87 33 88 21 89 23 90 22 91 24 92 25 93 26 94 27 95 28 96
REMARK SMILES IDX 32 97 29 98 31 99 30 100
REMARK H PARENT 3 7 90 25 58 36 8 76
REMARK Flexibility Score: inf
ROOT
ATOM      1  C   UNL A   1      36.991  20.072  25.007  1.00  0.00     0.023 C 
ENDROOT
BRANCH   1   2
ATOM      2  C   UNL A   1      38.503  20.043  24.765  1.00  0.00     0.023 C 
BRANCH   2   3
ATOM      3  C   UNL A   1      39.373  19.978  26.012  1.00  0.00     0.116 C 
BRANCH   3   4
ATOM      4  N   UNL A   1      40.431  18.984  25.930  1.00  0.00    -0.352 N 
ATOM      5  O   UNL A   1      42.558  18.219  25.918  1.00  0.00    -0.269 OA
ATOM      6  C   UNL A   1      41.783  19.150  26.106  1.00  0.00     0.251 C 
ATOM      7  H   UNL A   1      40.137  18.067  25.721  1.00  0.00     0.163 HD
BRANCH   6   8
ATOM      8  C   UNL A   1      42.305  20.477  26.491  1.00  0.00     0.039 A 
ATOM      9  C   UNL A   1      42.374  20.849  27.834  1.00  0.00     0.014 A 
ATOM     10  C   UNL A   1      42.701  21.366  25.491  1.00  0.00     0.014 A 
ATOM     11  C   UNL A   1      42.715  22.153  28.175  1.00  0.00     0.010 A 
ATOM     12  C   UNL A   1      43.114  22.654  25.840  1.00  0.00     0.010 A 
ATOM     13  C   UNL A   1      43.095  23.068  27.182  1.00  0.00    -0.014 A 
BRANCH  13  14
ATOM     14  C   UNL A   1      43.505  24.444  27.560  1.00  0.00     0.031 A 
ATOM     15  C   UNL A   1      42.481  25.482  27.928  1.00  0.00     0.074 A 
ATOM     16  C   UNL A   1      44.815  24.756  27.568  1.00  0.00     0.049 A 
ATOM     17  N   UNL A   1      42.654  26.745  28.226  1.00  0.00    -0.248 NA
ATOM     18  C   UNL A   1      41.077  25.046  27.957  1.00  0.00     0.031 C 
ATOM     19  C   UNL A   1      45.902  23.833  27.234  1.00  0.00     0.029 A 
ATOM     20  N   UNL A   1      45.457  25.931  27.865  1.00  0.00    -0.354 N 
ATOM     21  C   UNL A   1      41.384  27.260  28.457  1.00  0.00     0.074 A 
ATOM     22  C   UNL A   1      40.447  26.179  28.236  1.00  0.00     0.031 C 
ATOM     23  C   UNL A   1      47.075  24.468  27.369  1.00  0.00     0.029 A 
ATOM     24  C   UNL A   1      46.822  25.858  27.731  1.00  0.00     0.049 A 
ATOM     25  H   UNL A   1      44.985  26.748  28.148  1.00  0.00     0.167 HD
ATOM     26  C   UNL A   1      41.038  28.517  28.826  1.00  0.00     0.037 A 
ATOM     27  C   UNL A   1      47.764  26.811  27.853  1.00  0.00     0.037 A 
ATOM     28  C   UNL A   1      41.980  29.585  29.052  1.00  0.00     0.049 A 
ATOM     29  C   UNL A   1      47.345  28.209  28.212  1.00  0.00     0.074 A 
ATOM     30  C   UNL A   1      41.732  30.884  29.461  1.00  0.00     0.029 A 
ATOM     31  N   UNL A   1      43.354  29.479  28.882  1.00  0.00    -0.354 N 
ATOM     32  N   UNL A   1      46.146  28.677  28.456  1.00  0.00    -0.248 NA
ATOM     33  C   UNL A   1      48.413  29.213  28.310  1.00  0.00     0.031 C 
ATOM     34  C   UNL A   1      42.945  31.580  29.477  1.00  0.00     0.029 A 
ATOM     35  C   UNL A   1      43.960  30.698  29.147  1.00  0.00     0.049 A 
ATOM     36  H   UNL A   1      43.828  28.659  28.613  1.00  0.00     0.167 HD
ATOM     37  C   UNL A   1      46.316  30.020  28.764  1.00  0.00     0.074 A 
ATOM     38  C   UNL A   1      47.737  30.287  28.692  1.00  0.00     0.031 C 
ATOM     39  C   UNL A   1      45.378  30.949  29.076  1.00  0.00     0.037 A 
BRANCH  26  40
ATOM     40  C   UNL A   1      39.574  28.822  28.986  1.00  0.00     0.064 A 
ATOM     41  C   UNL A   1      38.923  28.707  30.224  1.00  0.00     0.173 A 
ATOM     42  C   UNL A   1      38.822  29.282  27.893  1.00  0.00     0.173 A 
ATOM     43  F   UNL A   1      39.590  28.264  31.300  1.00  0.00    -0.203 F 
ATOM     44  C   UNL A   1      37.570  29.012  30.354  1.00  0.00     0.198 A 
ATOM     45  C   UNL A   1      37.478  29.619  28.035  1.00  0.00     0.198 A 
ATOM     46  F   UNL A   1      39.395  29.420  26.688  1.00  0.00    -0.203 F 
ATOM     47  F   UNL A   1      36.958  28.847  31.535  1.00  0.00    -0.200 F 
ATOM     48  C   UNL A   1      36.851  29.476  29.262  1.00  0.00     0.200 A 
ATOM     49  F   UNL A   1      36.790  30.082  26.982  1.00  0.00    -0.200 F 
ATOM     50  F   UNL A   1      35.551  29.779  29.392  1.00  0.00    -0.200 F 
ENDBRANCH  26  40
BRANCH  27  51
ATOM     51  C   UNL A   1      49.191  26.473  27.618  1.00  0.00     0.064 A 
ATOM     52  C   UNL A   1      50.055  26.206  28.689  1.00  0.00     0.173 A 
ATOM     53  C   UNL A   1      49.721  26.409  26.320  1.00  0.00     0.173 A 
ATOM     54  F   UNL A   1      49.601  26.274  29.949  1.00  0.00    -0.203 F 
ATOM     55  C   UNL A   1      51.399  25.908  28.471  1.00  0.00     0.198 A 
ATOM     56  C   UNL A   1      51.056  26.076  26.102  1.00  0.00     0.198 A 
ATOM     57  F   UNL A   1      48.935  26.651  25.261  1.00  0.00    -0.203 F 
ATOM     58  F   UNL A   1      52.215  25.706  29.514  1.00  0.00    -0.200 F 
ATOM     59  C   UNL A   1      51.896  25.836  27.179  1.00  0.00     0.200 A 
ATOM     60  F   UNL A   1      51.526  25.990  24.850  1.00  0.00    -0.200 F 
ATOM     61  F   UNL A   1      53.186  25.542  26.970  1.00  0.00    -0.200 F 
ENDBRANCH  27  51
BRANCH  39  62
ATOM     62  C   UNL A   1      45.865  32.331  29.406  1.00  0.00     0.064 A 
ATOM     63  C   UNL A   1      46.239  32.693  30.709  1.00  0.00     0.173 A 
ATOM     64  C   UNL A   1      45.987  33.299  28.397  1.00  0.00     0.173 A 
ATOM     65  F   UNL A   1      46.125  31.811  31.713  1.00  0.00    -0.203 F 
ATOM     66  C   UNL A   1      46.685  33.980  30.994  1.00  0.00     0.198 A 
ATOM     67  C   UNL A   1      46.467  34.574  28.679  1.00  0.00     0.198 A 
ATOM     68  F   UNL A   1      45.650  33.004  27.132  1.00  0.00    -0.203 F 
ATOM     69  F   UNL A   1      46.982  34.321  32.256  1.00  0.00    -0.200 F 
ATOM     70  C   UNL A   1      46.808  34.917  29.979  1.00  0.00     0.200 A 
ATOM     71  F   UNL A   1      46.601  35.472  27.693  1.00  0.00    -0.200 F 
ATOM     72  F   UNL A   1      47.245  36.153  30.254  1.00  0.00    -0.200 F 
ENDBRANCH  39  62
ENDBRANCH  13  14
ENDBRANCH   6   8
ENDBRANCH   3   4
ENDBRANCH   2   3
ENDBRANCH   1   2
BRANCH   1  73
ATOM     73  C   UNL A   1      36.369  21.456  25.177  1.00  0.00     0.116 C 
BRANCH  73  74
ATOM     74  N   UNL A   1      35.447  21.494  26.293  1.00  0.00    -0.352 N 
ATOM     75  C   UNL A   1      34.109  21.242  26.311  1.00  0.00     0.252 C 
ATOM     76  H   UNL A   1      35.843  21.735  27.161  1.00  0.00     0.163 HD
ATOM     77  O   UNL A   1      33.451  21.551  27.299  1.00  0.00    -0.269 OA
BRANCH  75  78
ATOM     78  C   UNL A   1      33.422  20.649  25.156  1.00  0.00     0.050 A 
ATOM     79  C   UNL A   1      33.289  19.246  25.214  1.00  0.00     0.014 A 
ATOM     80  C   UNL A   1      32.976  21.356  24.030  1.00  0.00     0.035 A 
ATOM     81  C   UNL A   1      32.658  18.548  24.188  1.00  0.00     0.001 A 
ATOM     82  C   UNL A   1      32.320  20.631  23.015  1.00  0.00     0.013 A 
ATOM     83  C   UNL A   1      32.160  19.243  23.095  1.00  0.00     0.001 A 
BRANCH  80  84
ATOM     84  C   UNL A   1      33.064  22.828  23.811  1.00  0.00     0.193 C 
ATOM     85  O   UNL A   1      34.061  23.263  23.233  1.00  0.00    -0.289 OA
BRANCH  84  86
ATOM     86  C   UNL A   1      32.028  23.814  24.204  1.00  0.00     0.024 A 
ATOM     87  C   UNL A   1      31.303  23.555  25.375  1.00  0.00     0.012 A 
ATOM     88  C   UNL A   1      31.733  24.954  23.455  1.00  0.00     0.034 A 
ATOM     89  C   UNL A   1      30.373  24.477  25.850  1.00  0.00     0.002 A 
ATOM     90  C   UNL A   1      30.832  25.899  23.954  1.00  0.00     0.083 A 
ATOM     91  C   UNL A   1      30.167  25.670  25.165  1.00  0.00     0.022 A 
BRANCH  90  92
ATOM     92  S   UNL A   1      30.479  27.440  23.128  1.00  0.00     0.243 S 
ATOM     93  O   UNL A   1      30.863  27.235  21.746  1.00  0.00    -0.207 OA
ATOM     94  O   UNL A   1      29.121  27.776  23.494  1.00  0.00    -0.207 OA
BRANCH  92  95
ATOM     95  N   UNL A   1      31.494  28.575  23.796  1.00  0.00    -0.193 NA
ATOM     96  C   UNL A   1      32.949  28.572  23.582  1.00  0.00     0.131 C 
ATOM     97  C   UNL A   1      31.007  29.709  24.605  1.00  0.00     0.131 C 
ATOM     98  C   UNL A   1      33.654  28.642  24.939  1.00  0.00     0.177 C 
ATOM     99  C   UNL A   1      31.817  29.800  25.909  1.00  0.00     0.177 C 
ATOM    100  O   UNL A   1      33.236  29.800  25.679  1.00  0.00    -0.379 OA
ENDBRANCH  92  95
ENDBRANCH  90  92
ENDBRANCH  84  86
ENDBRANCH  80  84
ENDBRANCH  75  78
ENDBRANCH  73  74
ENDBRANCH   1  73
TORSDOF 15
ENDMDL
