MODEL 1
REMARK VINA RESULT:     -11.8      0.000      0.000
REMARK SMILES C[C@H]1CN([C@@H](C(=O)NCCCCNC(=O)c2ccc(-c3c4nc(c(-c5c(F)c(F)c(F)c(F)c5F)c5ccc([nH]5)c(-c5c(F)c(F)c(F)c(F)c5F)c5nc(c(-c6c(F)c(F)c(F)c(F)c6F)c6ccc3[nH]6)C=C5)C=C4)cc2)C(C)(C)C)S(=O)(=O)C1
REMARK SMILES IDX 11 1 10 2 9 3 8 4 6 5 7 6 5 8 4 9 1 10 2 11 3 12 86 13 83 14
REMARK SMILES IDX 84 15 85 16 79 17 80 18 81 19 82 20 12 21 13 22 14 23 15 25
REMARK SMILES IDX 16 26 17 27 78 28 18 29 77 30 19 31 20 32 21 33 71 34 22 35
REMARK SMILES IDX 76 36 70 37 72 38 23 39 75 40 69 41 68 42 24 44 56 45 36 46
REMARK SMILES IDX 55 47 37 48 40 49 54 50 73 51 38 52 39 53 53 55 74 56 41 57
REMARK SMILES IDX 25 58 26 59 34 60 27 61 28 62 32 63 35 64 29 65 30 66 33 67
REMARK SMILES IDX 31 68 57 69 58 70 66 71 59 72 60 73 64 74 67 75 61 76 62 77
REMARK SMILES IDX 65 78 63 79 42 80 43 81 51 82 44 83 45 84 49 85 52 86 46 87
REMARK SMILES IDX 47 88 50 89 48 90
REMARK H PARENT 8 7 13 24 72 43 40 54
REMARK Flexibility Score: inf
ROOT
ATOM      1  C   UNL A   1      31.507  32.287  26.660  1.00  0.00     0.023 C 
ENDROOT
BRANCH   1   2
ATOM      2  C   UNL A   1      31.532  30.765  26.655  1.00  0.00     0.023 C 
BRANCH   2   3
ATOM      3  C   UNL A   1      32.909  30.128  26.429  1.00  0.00     0.116 C 
BRANCH   3   4
ATOM      4  N   UNL A   1      33.163  29.756  25.044  1.00  0.00    -0.355 N 
ATOM      5  C   UNL A   1      32.420  29.114  24.085  1.00  0.00     0.238 C 
ATOM      6  O   UNL A   1      32.925  29.102  22.960  1.00  0.00    -0.273 OA
ATOM      7  H   UNL A   1      34.057  30.022  24.729  1.00  0.00     0.163 HD
BRANCH   5   8
ATOM      8  C   UNL A   1      31.050  28.471  24.402  1.00  0.00     0.167 C 
BRANCH   8   9
ATOM      9  N   UNL A   1      31.113  27.014  24.767  1.00  0.00    -0.189 NA
ATOM     10  C   UNL A   1      34.062  26.390  25.704  1.00  0.00     0.010 C 
ATOM     11  C   UNL A   1      32.721  25.739  26.071  1.00  0.00     0.017 C 
ATOM     12  C   UNL A   1      31.488  26.663  26.147  1.00  0.00     0.107 C 
ATOM     13  C   UNL A   1      32.322  24.749  24.985  1.00  0.00     0.159 C 
ATOM     14  S   UNL A   1      31.588  25.769  23.714  1.00  0.00     0.215 S 
ATOM     15  O   UNL A   1      30.405  25.100  23.234  1.00  0.00    -0.212 OA
ATOM     16  O   UNL A   1      32.647  26.233  22.846  1.00  0.00    -0.212 OA
ENDBRANCH   8   9
BRANCH   8  17
ATOM     17  C   UNL A   1      29.917  28.820  23.355  1.00  0.00    -0.013 C 
ATOM     18  C   UNL A   1      28.682  27.929  23.624  1.00  0.00     0.013 C 
ATOM     19  C   UNL A   1      29.457  30.288  23.546  1.00  0.00     0.013 C 
ATOM     20  C   UNL A   1      30.300  28.675  21.870  1.00  0.00     0.013 C 
ENDBRANCH   8  17
ENDBRANCH   5   8
ENDBRANCH   3   4
ENDBRANCH   2   3
ENDBRANCH   1   2
BRANCH   1  21
ATOM     21  C   UNL A   1      32.713  32.888  27.341  1.00  0.00     0.116 C 
BRANCH  21  22
ATOM     22  N   UNL A   1      32.499  34.297  27.659  1.00  0.00    -0.352 N 
ATOM     23  C   UNL A   1      33.035  35.048  28.675  1.00  0.00     0.251 C 
ATOM     24  H   UNL A   1      31.883  34.777  27.060  1.00  0.00     0.163 HD
ATOM     25  O   UNL A   1      32.572  36.150  28.945  1.00  0.00    -0.269 OA
BRANCH  23  26
ATOM     26  C   UNL A   1      34.165  34.500  29.446  1.00  0.00     0.039 A 
ATOM     27  C   UNL A   1      33.921  33.838  30.651  1.00  0.00     0.014 A 
ATOM     28  C   UNL A   1      35.465  34.617  28.950  1.00  0.00     0.014 A 
ATOM     29  C   UNL A   1      34.984  33.243  31.327  1.00  0.00     0.010 A 
ATOM     30  C   UNL A   1      36.492  33.909  29.548  1.00  0.00     0.010 A 
ATOM     31  C   UNL A   1      36.269  33.245  30.761  1.00  0.00    -0.014 A 
BRANCH  31  32
ATOM     32  C   UNL A   1      37.420  32.610  31.441  1.00  0.00     0.031 A 
ATOM     33  C   UNL A   1      38.130  31.464  30.771  1.00  0.00     0.074 A 
ATOM     34  C   UNL A   1      37.771  33.013  32.676  1.00  0.00     0.049 A 
ATOM     35  N   UNL A   1      39.099  30.712  31.224  1.00  0.00    -0.248 NA
ATOM     36  C   UNL A   1      37.657  31.082  29.429  1.00  0.00     0.031 C 
ATOM     37  C   UNL A   1      37.109  34.070  33.443  1.00  0.00     0.029 A 
ATOM     38  N   UNL A   1      38.769  32.574  33.507  1.00  0.00    -0.354 N 
ATOM     39  C   UNL A   1      39.331  29.763  30.235  1.00  0.00     0.074 A 
ATOM     40  C   UNL A   1      38.352  29.981  29.196  1.00  0.00     0.031 C 
ATOM     41  C   UNL A   1      37.742  34.223  34.617  1.00  0.00     0.029 A 
ATOM     42  C   UNL A   1      38.822  33.246  34.704  1.00  0.00     0.049 A 
ATOM     43  H   UNL A   1      39.389  31.847  33.270  1.00  0.00     0.167 HD
ATOM     44  C   UNL A   1      40.297  28.819  30.184  1.00  0.00     0.037 A 
ATOM     45  C   UNL A   1      39.650  33.083  35.753  1.00  0.00     0.037 A 
ATOM     46  C   UNL A   1      41.288  28.640  31.210  1.00  0.00     0.049 A 
ATOM     47  C   UNL A   1      40.721  32.030  35.668  1.00  0.00     0.074 A 
ATOM     48  C   UNL A   1      42.356  27.763  31.235  1.00  0.00     0.029 A 
ATOM     49  N   UNL A   1      41.328  29.359  32.398  1.00  0.00    -0.354 N 
ATOM     50  N   UNL A   1      40.983  31.189  34.695  1.00  0.00    -0.248 NA
ATOM     51  C   UNL A   1      41.619  31.906  36.824  1.00  0.00     0.031 C 
ATOM     52  C   UNL A   1      43.009  27.910  32.462  1.00  0.00     0.029 A 
ATOM     53  C   UNL A   1      42.389  28.925  33.174  1.00  0.00     0.049 A 
ATOM     54  H   UNL A   1      40.696  30.070  32.649  1.00  0.00     0.167 HD
ATOM     55  C   UNL A   1      42.090  30.460  35.106  1.00  0.00     0.074 A 
ATOM     56  C   UNL A   1      42.461  30.971  36.410  1.00  0.00     0.031 C 
ATOM     57  C   UNL A   1      42.742  29.458  34.466  1.00  0.00     0.037 A 
BRANCH  44  58
ATOM     58  C   UNL A   1      40.331  27.918  28.983  1.00  0.00     0.064 A 
ATOM     59  C   UNL A   1      41.083  28.236  27.840  1.00  0.00     0.173 A 
ATOM     60  C   UNL A   1      39.620  26.709  28.980  1.00  0.00     0.173 A 
ATOM     61  F   UNL A   1      41.769  29.389  27.781  1.00  0.00    -0.203 F 
ATOM     62  C   UNL A   1      41.095  27.395  26.731  1.00  0.00     0.198 A 
ATOM     63  C   UNL A   1      39.665  25.852  27.883  1.00  0.00     0.198 A 
ATOM     64  F   UNL A   1      38.885  26.354  30.044  1.00  0.00    -0.203 F 
ATOM     65  F   UNL A   1      41.773  27.752  25.630  1.00  0.00    -0.200 F 
ATOM     66  C   UNL A   1      40.394  26.200  26.756  1.00  0.00     0.200 A 
ATOM     67  F   UNL A   1      38.996  24.691  27.914  1.00  0.00    -0.200 F 
ATOM     68  F   UNL A   1      40.413  25.388  25.691  1.00  0.00    -0.200 F 
ENDBRANCH  44  58
BRANCH  45  69
ATOM     69  C   UNL A   1      39.516  33.953  36.952  1.00  0.00     0.064 A 
ATOM     70  C   UNL A   1      38.774  33.535  38.066  1.00  0.00     0.173 A 
ATOM     71  C   UNL A   1      40.124  35.215  37.011  1.00  0.00     0.173 A 
ATOM     72  F   UNL A   1      38.160  32.342  38.053  1.00  0.00    -0.203 F 
ATOM     73  C   UNL A   1      38.622  34.357  39.181  1.00  0.00     0.198 A 
ATOM     74  C   UNL A   1      39.999  36.023  38.140  1.00  0.00     0.198 A 
ATOM     75  F   UNL A   1      40.855  35.658  35.978  1.00  0.00    -0.203 F 
ATOM     76  F   UNL A   1      37.865  33.953  40.209  1.00  0.00    -0.200 F 
ATOM     77  C   UNL A   1      39.239  35.598  39.219  1.00  0.00     0.200 A 
ATOM     78  F   UNL A   1      40.614  37.212  38.182  1.00  0.00    -0.200 F 
ATOM     79  F   UNL A   1      39.097  36.386  40.293  1.00  0.00    -0.200 F 
ENDBRANCH  45  69
BRANCH  57  80
ATOM     80  C   UNL A   1      43.947  28.877  35.147  1.00  0.00     0.064 A 
ATOM     81  C   UNL A   1      45.233  29.398  34.941  1.00  0.00     0.173 A 
ATOM     82  C   UNL A   1      43.803  27.816  36.053  1.00  0.00     0.173 A 
ATOM     83  F   UNL A   1      45.425  30.404  34.074  1.00  0.00    -0.203 F 
ATOM     84  C   UNL A   1      46.335  28.855  35.595  1.00  0.00     0.198 A 
ATOM     85  C   UNL A   1      44.902  27.302  36.734  1.00  0.00     0.198 A 
ATOM     86  F   UNL A   1      42.593  27.289  36.292  1.00  0.00    -0.203 F 
ATOM     87  F   UNL A   1      47.562  29.332  35.344  1.00  0.00    -0.200 F 
ATOM     88  C   UNL A   1      46.168  27.815  36.498  1.00  0.00     0.200 A 
ATOM     89  F   UNL A   1      44.735  26.310  37.620  1.00  0.00    -0.200 F 
ATOM     90  F   UNL A   1      47.229  27.303  37.135  1.00  0.00    -0.200 F 
ENDBRANCH  57  80
ENDBRANCH  31  32
ENDBRANCH  23  26
ENDBRANCH  21  22
ENDBRANCH   1  21
TORSDOF 13
ENDMDL
MODEL 2
REMARK VINA RESULT:     -11.7      2.455      8.160
REMARK SMILES C[C@H]1CN([C@@H](C(=O)NCCCCNC(=O)c2ccc(-c3c4nc(c(-c5c(F)c(F)c(F)c(F)c5F)c5ccc([nH]5)c(-c5c(F)c(F)c(F)c(F)c5F)c5nc(c(-c6c(F)c(F)c(F)c(F)c6F)c6ccc3[nH]6)C=C5)C=C4)cc2)C(C)(C)C)S(=O)(=O)C1
REMARK SMILES IDX 11 1 10 2 9 3 8 4 6 5 7 6 5 8 4 9 1 10 2 11 3 12 86 13 83 14
REMARK SMILES IDX 84 15 85 16 79 17 80 18 81 19 82 20 12 21 13 22 14 23 15 25
REMARK SMILES IDX 16 26 17 27 78 28 18 29 77 30 19 31 20 32 21 33 71 34 22 35
REMARK SMILES IDX 76 36 70 37 72 38 23 39 75 40 69 41 68 42 24 44 56 45 36 46
REMARK SMILES IDX 55 47 37 48 40 49 54 50 73 51 38 52 39 53 53 55 74 56 41 57
REMARK SMILES IDX 25 58 26 59 34 60 27 61 28 62 32 63 35 64 29 65 30 66 33 67
REMARK SMILES IDX 31 68 57 69 58 70 66 71 59 72 60 73 64 74 67 75 61 76 62 77
REMARK SMILES IDX 65 78 63 79 42 80 43 81 51 82 44 83 45 84 49 85 52 86 46 87
REMARK SMILES IDX 47 88 50 89 48 90
REMARK H PARENT 8 7 13 24 72 43 40 54
REMARK Flexibility Score: inf
ROOT
ATOM      1  C   UNL A   1      31.966  28.569  26.084  1.00  0.00     0.023 C 
ENDROOT
BRANCH   1   2
ATOM      2  C   UNL A   1      32.177  27.158  25.554  1.00  0.00     0.023 C 
BRANCH   2   3
ATOM      3  C   UNL A   1      33.630  26.776  25.246  1.00  0.00     0.116 C 
BRANCH   3   4
ATOM      4  N   UNL A   1      33.844  26.336  23.875  1.00  0.00    -0.355 N 
ATOM      5  C   UNL A   1      33.676  25.138  23.228  1.00  0.00     0.238 C 
ATOM      6  O   UNL A   1      33.831  25.182  22.006  1.00  0.00    -0.273 OA
ATOM      7  H   UNL A   1      34.180  27.051  23.287  1.00  0.00     0.163 HD
BRANCH   5   8
ATOM      8  C   UNL A   1      33.310  23.840  23.986  1.00  0.00     0.167 C 
BRANCH   8   9
ATOM      9  N   UNL A   1      34.354  22.761  23.921  1.00  0.00    -0.189 NA
ATOM     10  C   UNL A   1      34.948  21.828  26.877  1.00  0.00     0.010 C 
ATOM     11  C   UNL A   1      35.054  21.085  25.538  1.00  0.00     0.017 C 
ATOM     12  C   UNL A   1      34.009  21.434  24.457  1.00  0.00     0.107 C 
ATOM     13  C   UNL A   1      36.365  21.449  24.856  1.00  0.00     0.159 C 
ATOM     14  S   UNL A   1      36.026  23.018  24.068  1.00  0.00     0.215 S 
ATOM     15  O   UNL A   1      36.610  22.991  22.751  1.00  0.00    -0.212 OA
ATOM     16  O   UNL A   1      36.282  24.066  25.031  1.00  0.00    -0.212 OA
ENDBRANCH   8   9
BRANCH   8  17
ATOM     17  C   UNL A   1      31.840  23.326  23.709  1.00  0.00    -0.013 C 
ATOM     18  C   UNL A   1      31.184  22.913  25.046  1.00  0.00     0.013 C 
ATOM     19  C   UNL A   1      30.979  24.477  23.127  1.00  0.00     0.013 C 
ATOM     20  C   UNL A   1      31.710  22.148  22.725  1.00  0.00     0.013 C 
ENDBRANCH   8  17
ENDBRANCH   5   8
ENDBRANCH   3   4
ENDBRANCH   2   3
ENDBRANCH   1   2
BRANCH   1  21
ATOM     21  C   UNL A   1      33.195  29.435  25.938  1.00  0.00     0.116 C 
BRANCH  21  22
ATOM     22  N   UNL A   1      32.917  30.821  26.305  1.00  0.00    -0.352 N 
ATOM     23  C   UNL A   1      33.516  31.602  27.261  1.00  0.00     0.251 C 
ATOM     24  H   UNL A   1      32.198  31.258  25.794  1.00  0.00     0.163 HD
ATOM     25  O   UNL A   1      33.008  32.663  27.605  1.00  0.00    -0.269 OA
BRANCH  23  26
ATOM     26  C   UNL A   1      34.769  31.135  27.880  1.00  0.00     0.039 A 
ATOM     27  C   UNL A   1      35.848  32.013  28.000  1.00  0.00     0.014 A 
ATOM     28  C   UNL A   1      34.857  29.831  28.372  1.00  0.00     0.014 A 
ATOM     29  C   UNL A   1      36.996  31.593  28.668  1.00  0.00     0.010 A 
ATOM     30  C   UNL A   1      35.938  29.465  29.153  1.00  0.00     0.010 A 
ATOM     31  C   UNL A   1      37.033  30.329  29.279  1.00  0.00    -0.014 A 
BRANCH  31  32
ATOM     32  C   UNL A   1      38.228  29.853  30.011  1.00  0.00     0.031 A 
ATOM     33  C   UNL A   1      38.475  30.340  31.414  1.00  0.00     0.074 A 
ATOM     34  C   UNL A   1      39.114  29.052  29.392  1.00  0.00     0.049 A 
ATOM     35  N   UNL A   1      39.496  30.120  32.199  1.00  0.00    -0.248 NA
ATOM     36  C   UNL A   1      37.457  31.233  31.996  1.00  0.00     0.031 C 
ATOM     37  C   UNL A   1      39.005  28.573  28.013  1.00  0.00     0.029 A 
ATOM     38  N   UNL A   1      40.288  28.504  29.842  1.00  0.00    -0.354 N 
ATOM     39  C   UNL A   1      39.252  30.861  33.349  1.00  0.00     0.074 A 
ATOM     40  C   UNL A   1      38.030  31.599  33.131  1.00  0.00     0.031 C 
ATOM     41  C   UNL A   1      40.049  27.774  27.742  1.00  0.00     0.029 A 
ATOM     42  C   UNL A   1      40.922  27.721  28.909  1.00  0.00     0.049 A 
ATOM     43  H   UNL A   1      40.642  28.658  30.748  1.00  0.00     0.167 HD
ATOM     44  C   UNL A   1      39.965  30.894  34.497  1.00  0.00     0.037 A 
ATOM     45  C   UNL A   1      42.083  27.044  28.992  1.00  0.00     0.037 A 
ATOM     46  C   UNL A   1      41.159  30.123  34.713  1.00  0.00     0.049 A 
ATOM     47  C   UNL A   1      42.854  27.091  30.283  1.00  0.00     0.074 A 
ATOM     48  C   UNL A   1      41.926  30.023  35.858  1.00  0.00     0.029 A 
ATOM     49  N   UNL A   1      41.759  29.318  33.753  1.00  0.00    -0.354 N 
ATOM     50  N   UNL A   1      42.574  27.731  31.394  1.00  0.00    -0.248 NA
ATOM     51  C   UNL A   1      44.099  26.314  30.338  1.00  0.00     0.031 C 
ATOM     52  C   UNL A   1      43.023  29.202  35.575  1.00  0.00     0.029 A 
ATOM     53  C   UNL A   1      42.902  28.737  34.275  1.00  0.00     0.049 A 
ATOM     54  H   UNL A   1      41.420  29.180  32.840  1.00  0.00     0.167 HD
ATOM     55  C   UNL A   1      43.588  27.412  32.287  1.00  0.00     0.074 A 
ATOM     56  C   UNL A   1      44.479  26.505  31.592  1.00  0.00     0.031 C 
ATOM     57  C   UNL A   1      43.768  27.830  33.564  1.00  0.00     0.037 A 
BRANCH  44  58
ATOM     58  C   UNL A   1      39.469  31.781  35.603  1.00  0.00     0.064 A 
ATOM     59  C   UNL A   1      38.543  31.328  36.557  1.00  0.00     0.173 A 
ATOM     60  C   UNL A   1      39.942  33.096  35.725  1.00  0.00     0.173 A 
ATOM     61  F   UNL A   1      38.044  30.085  36.478  1.00  0.00    -0.203 F 
ATOM     62  C   UNL A   1      38.086  32.168  37.569  1.00  0.00     0.198 A 
ATOM     63  C   UNL A   1      39.510  33.921  36.762  1.00  0.00     0.198 A 
ATOM     64  F   UNL A   1      40.828  33.581  34.844  1.00  0.00    -0.203 F 
ATOM     65  F   UNL A   1      37.156  31.730  38.430  1.00  0.00    -0.200 F 
ATOM     66  C   UNL A   1      38.576  33.459  37.676  1.00  0.00     0.200 A 
ATOM     67  F   UNL A   1      39.995  35.165  36.871  1.00  0.00    -0.200 F 
ATOM     68  F   UNL A   1      38.141  34.263  38.656  1.00  0.00    -0.200 F 
ENDBRANCH  44  58
BRANCH  45  69
ATOM     69  C   UNL A   1      42.565  26.246  27.834  1.00  0.00     0.064 A 
ATOM     70  C   UNL A   1      42.112  24.936  27.623  1.00  0.00     0.173 A 
ATOM     71  C   UNL A   1      43.485  26.772  26.915  1.00  0.00     0.173 A 
ATOM     72  F   UNL A   1      41.244  24.381  28.482  1.00  0.00    -0.203 F 
ATOM     73  C   UNL A   1      42.581  24.173  26.555  1.00  0.00     0.198 A 
ATOM     74  C   UNL A   1      43.928  26.020  25.829  1.00  0.00     0.198 A 
ATOM     75  F   UNL A   1      43.941  28.024  27.063  1.00  0.00    -0.203 F 
ATOM     76  F   UNL A   1      42.170  22.907  26.408  1.00  0.00    -0.200 F 
ATOM     77  C   UNL A   1      43.485  24.719  25.656  1.00  0.00     0.200 A 
ATOM     78  F   UNL A   1      44.785  26.557  24.950  1.00  0.00    -0.200 F 
ATOM     79  F   UNL A   1      43.932  23.987  24.626  1.00  0.00    -0.200 F 
ENDBRANCH  45  69
BRANCH  57  80
ATOM     80  C   UNL A   1      44.950  27.279  34.307  1.00  0.00     0.064 A 
ATOM     81  C   UNL A   1      46.185  27.941  34.322  1.00  0.00     0.173 A 
ATOM     82  C   UNL A   1      44.826  26.096  35.052  1.00  0.00     0.173 A 
ATOM     83  F   UNL A   1      46.358  29.068  33.615  1.00  0.00    -0.203 F 
ATOM     84  C   UNL A   1      47.264  27.422  35.032  1.00  0.00     0.198 A 
ATOM     85  C   UNL A   1      45.896  25.601  35.791  1.00  0.00     0.198 A 
ATOM     86  F   UNL A   1      43.662  25.430  35.078  1.00  0.00    -0.203 F 
ATOM     87  F   UNL A   1      48.452  28.042  34.990  1.00  0.00    -0.200 F 
ATOM     88  C   UNL A   1      47.117  26.258  35.773  1.00  0.00     0.200 A 
ATOM     89  F   UNL A   1      45.745  24.488  36.522  1.00  0.00    -0.200 F 
ATOM     90  F   UNL A   1      48.153  25.767  36.465  1.00  0.00    -0.200 F 
ENDBRANCH  57  80
ENDBRANCH  31  32
ENDBRANCH  23  26
ENDBRANCH  21  22
ENDBRANCH   1  21
TORSDOF 13
ENDMDL
MODEL 3
REMARK VINA RESULT:     -11.7      2.390      8.196
REMARK SMILES C[C@H]1CN([C@@H](C(=O)NCCCCNC(=O)c2ccc(-c3c4nc(c(-c5c(F)c(F)c(F)c(F)c5F)c5ccc([nH]5)c(-c5c(F)c(F)c(F)c(F)c5F)c5nc(c(-c6c(F)c(F)c(F)c(F)c6F)c6ccc3[nH]6)C=C5)C=C4)cc2)C(C)(C)C)S(=O)(=O)C1
REMARK SMILES IDX 11 1 10 2 9 3 8 4 6 5 7 6 5 8 4 9 1 10 2 11 3 12 86 13 83 14
REMARK SMILES IDX 84 15 85 16 79 17 80 18 81 19 82 20 12 21 13 22 14 23 15 25
REMARK SMILES IDX 16 26 17 27 78 28 18 29 77 30 19 31 20 32 21 33 71 34 22 35
REMARK SMILES IDX 76 36 70 37 72 38 23 39 75 40 69 41 68 42 24 44 56 45 36 46
REMARK SMILES IDX 55 47 37 48 40 49 54 50 73 51 38 52 39 53 53 55 74 56 41 57
REMARK SMILES IDX 25 58 26 59 34 60 27 61 28 62 32 63 35 64 29 65 30 66 33 67
REMARK SMILES IDX 31 68 57 69 58 70 66 71 59 72 60 73 64 74 67 75 61 76 62 77
REMARK SMILES IDX 65 78 63 79 42 80 43 81 51 82 44 83 45 84 49 85 52 86 46 87
REMARK SMILES IDX 47 88 50 89 48 90
REMARK H PARENT 8 7 13 24 72 43 40 54
REMARK Flexibility Score: inf
ROOT
ATOM      1  C   UNL A   1      31.831  28.661  26.172  1.00  0.00     0.023 C 
ENDROOT
BRANCH   1   2
ATOM      2  C   UNL A   1      31.995  27.257  25.607  1.00  0.00     0.023 C 
BRANCH   2   3
ATOM      3  C   UNL A   1      33.441  26.810  25.354  1.00  0.00     0.116 C 
BRANCH   3   4
ATOM      4  N   UNL A   1      33.695  26.395  23.982  1.00  0.00    -0.355 N 
ATOM      5  C   UNL A   1      33.552  25.207  23.311  1.00  0.00     0.238 C 
ATOM      6  O   UNL A   1      33.740  25.274  22.094  1.00  0.00    -0.273 OA
ATOM      7  H   UNL A   1      34.043  27.122  23.416  1.00  0.00     0.163 HD
BRANCH   5   8
ATOM      8  C   UNL A   1      33.172  23.895  24.036  1.00  0.00     0.167 C 
BRANCH   8   9
ATOM      9  N   UNL A   1      34.204  22.806  23.939  1.00  0.00    -0.189 NA
ATOM     10  C   UNL A   1      34.819  21.811  26.872  1.00  0.00     0.010 C 
ATOM     11  C   UNL A   1      34.902  21.092  25.518  1.00  0.00     0.017 C 
ATOM     12  C   UNL A   1      33.850  21.472  24.455  1.00  0.00     0.107 C 
ATOM     13  C   UNL A   1      36.210  21.455  24.829  1.00  0.00     0.159 C 
ATOM     14  S   UNL A   1      35.880  23.042  24.074  1.00  0.00     0.215 S 
ATOM     15  O   UNL A   1      36.450  23.032  22.750  1.00  0.00    -0.212 OA
ATOM     16  O   UNL A   1      36.158  24.068  25.052  1.00  0.00    -0.212 OA
ENDBRANCH   8   9
BRANCH   8  17
ATOM     17  C   UNL A   1      31.696  23.405  23.750  1.00  0.00    -0.013 C 
ATOM     18  C   UNL A   1      31.032  22.983  25.081  1.00  0.00     0.013 C 
ATOM     19  C   UNL A   1      30.852  24.576  23.183  1.00  0.00     0.013 C 
ATOM     20  C   UNL A   1      31.552  22.242  22.750  1.00  0.00     0.013 C 
ENDBRANCH   8  17
ENDBRANCH   5   8
ENDBRANCH   3   4
ENDBRANCH   2   3
ENDBRANCH   1   2
BRANCH   1  21
ATOM     21  C   UNL A   1      33.056  29.520  25.963  1.00  0.00     0.116 C 
BRANCH  21  22
ATOM     22  N   UNL A   1      32.794  30.914  26.309  1.00  0.00    -0.352 N 
ATOM     23  C   UNL A   1      33.406  31.704  27.250  1.00  0.00     0.251 C 
ATOM     24  H   UNL A   1      32.078  31.351  25.793  1.00  0.00     0.163 HD
ATOM     25  O   UNL A   1      32.911  32.776  27.578  1.00  0.00    -0.269 OA
BRANCH  23  26
ATOM     26  C   UNL A   1      34.656  31.233  27.872  1.00  0.00     0.039 A 
ATOM     27  C   UNL A   1      35.734  32.110  28.002  1.00  0.00     0.014 A 
ATOM     28  C   UNL A   1      34.741  29.927  28.357  1.00  0.00     0.014 A 
ATOM     29  C   UNL A   1      36.880  31.686  28.673  1.00  0.00     0.010 A 
ATOM     30  C   UNL A   1      35.818  29.556  29.141  1.00  0.00     0.010 A 
ATOM     31  C   UNL A   1      36.914  30.419  29.277  1.00  0.00    -0.014 A 
BRANCH  31  32
ATOM     32  C   UNL A   1      38.105  29.938  30.012  1.00  0.00     0.031 A 
ATOM     33  C   UNL A   1      38.347  30.420  31.417  1.00  0.00     0.074 A 
ATOM     34  C   UNL A   1      38.993  29.139  29.393  1.00  0.00     0.049 A 
ATOM     35  N   UNL A   1      39.365  30.195  32.205  1.00  0.00    -0.248 NA
ATOM     36  C   UNL A   1      37.328  31.312  31.999  1.00  0.00     0.031 C 
ATOM     37  C   UNL A   1      38.889  28.666  28.011  1.00  0.00     0.029 A 
ATOM     38  N   UNL A   1      40.164  28.588  29.845  1.00  0.00    -0.354 N 
ATOM     39  C   UNL A   1      39.117  30.932  33.357  1.00  0.00     0.074 A 
ATOM     40  C   UNL A   1      37.897  31.672  33.138  1.00  0.00     0.031 C 
ATOM     41  C   UNL A   1      39.933  27.866  27.741  1.00  0.00     0.029 A 
ATOM     42  C   UNL A   1      40.801  27.808  28.912  1.00  0.00     0.049 A 
ATOM     43  H   UNL A   1      40.515  28.738  30.753  1.00  0.00     0.167 HD
ATOM     44  C   UNL A   1      39.826  30.959  34.508  1.00  0.00     0.037 A 
ATOM     45  C   UNL A   1      41.960  27.129  28.996  1.00  0.00     0.037 A 
ATOM     46  C   UNL A   1      41.018  30.186  34.726  1.00  0.00     0.049 A 
ATOM     47  C   UNL A   1      42.727  27.170  30.291  1.00  0.00     0.074 A 
ATOM     48  C   UNL A   1      41.781  30.080  35.873  1.00  0.00     0.029 A 
ATOM     49  N   UNL A   1      41.620  29.384  33.765  1.00  0.00    -0.354 N 
ATOM     50  N   UNL A   1      42.443  27.806  31.403  1.00  0.00    -0.248 NA
ATOM     51  C   UNL A   1      43.971  26.391  30.347  1.00  0.00     0.031 C 
ATOM     52  C   UNL A   1      42.877  29.260  35.591  1.00  0.00     0.029 A 
ATOM     53  C   UNL A   1      42.761  28.800  34.289  1.00  0.00     0.049 A 
ATOM     54  H   UNL A   1      41.285  29.251  32.850  1.00  0.00     0.167 HD
ATOM     55  C   UNL A   1      43.453  27.482  32.298  1.00  0.00     0.074 A 
ATOM     56  C   UNL A   1      44.346  26.577  31.603  1.00  0.00     0.031 C 
ATOM     57  C   UNL A   1      43.628  27.895  33.577  1.00  0.00     0.037 A 
BRANCH  44  58
ATOM     58  C   UNL A   1      39.326  31.843  35.616  1.00  0.00     0.064 A 
ATOM     59  C   UNL A   1      39.729  33.183  35.732  1.00  0.00     0.173 A 
ATOM     60  C   UNL A   1      38.416  31.351  36.562  1.00  0.00     0.173 A 
ATOM     61  F   UNL A   1      40.612  33.702  34.864  1.00  0.00    -0.203 F 
ATOM     62  C   UNL A   1      39.265  33.985  36.771  1.00  0.00     0.198 A 
ATOM     63  C   UNL A   1      37.925  32.168  37.578  1.00  0.00     0.198 A 
ATOM     64  F   UNL A   1      37.996  30.079  36.500  1.00  0.00    -0.203 F 
ATOM     65  F   UNL A   1      39.712  35.243  36.894  1.00  0.00    -0.200 F 
ATOM     66  C   UNL A   1      38.357  33.480  37.687  1.00  0.00     0.200 A 
ATOM     67  F   UNL A   1      37.037  31.680  38.456  1.00  0.00    -0.200 F 
ATOM     68  F   UNL A   1      37.905  34.256  38.682  1.00  0.00    -0.200 F 
ENDBRANCH  44  58
BRANCH  45  69
ATOM     69  C   UNL A   1      42.446  26.335  27.837  1.00  0.00     0.064 A 
ATOM     70  C   UNL A   1      43.380  26.870  26.938  1.00  0.00     0.173 A 
ATOM     71  C   UNL A   1      41.992  25.029  27.602  1.00  0.00     0.173 A 
ATOM     72  F   UNL A   1      43.835  28.120  27.109  1.00  0.00    -0.203 F 
ATOM     73  C   UNL A   1      43.818  26.141  25.834  1.00  0.00     0.198 A 
ATOM     74  C   UNL A   1      42.455  24.289  26.517  1.00  0.00     0.198 A 
ATOM     75  F   UNL A   1      41.108  24.465  28.438  1.00  0.00    -0.203 F 
ATOM     76  F   UNL A   1      44.671  26.696  24.963  1.00  0.00    -0.200 F 
ATOM     77  C   UNL A   1      43.359  24.848  25.628  1.00  0.00     0.200 A 
ATOM     78  F   UNL A   1      42.025  23.033  26.332  1.00  0.00    -0.200 F 
ATOM     79  F   UNL A   1      43.785  24.145  24.569  1.00  0.00    -0.200 F 
ENDBRANCH  45  69
BRANCH  57  80
ATOM     80  C   UNL A   1      44.807  27.339  34.323  1.00  0.00     0.064 A 
ATOM     81  C   UNL A   1      44.730  26.131  35.030  1.00  0.00     0.173 A 
ATOM     82  C   UNL A   1      46.042  28.005  34.289  1.00  0.00     0.173 A 
ATOM     83  F   UNL A   1      43.568  25.463  35.104  1.00  0.00    -0.203 F 
ATOM     84  C   UNL A   1      45.839  25.624  35.700  1.00  0.00     0.198 A 
ATOM     85  C   UNL A   1      47.158  27.475  34.928  1.00  0.00     0.198 A 
ATOM     86  F   UNL A   1      46.170  29.159  33.618  1.00  0.00    -0.203 F 
ATOM     87  F   UNL A   1      45.730  24.495  36.414  1.00  0.00    -0.200 F 
ATOM     88  C   UNL A   1      47.054  26.291  35.642  1.00  0.00     0.200 A 
ATOM     89  F   UNL A   1      48.335  28.112  34.853  1.00  0.00    -0.200 F 
ATOM     90  F   UNL A   1      48.124  25.796  36.278  1.00  0.00    -0.200 F 
ENDBRANCH  57  80
ENDBRANCH  31  32
ENDBRANCH  23  26
ENDBRANCH  21  22
ENDBRANCH   1  21
TORSDOF 13
ENDMDL
