MODEL 1
REMARK VINA RESULT:     -14.2      0.000      0.000
REMARK SMILES O=C(NCCCCNC(=O)C1(Cc2ccccc2Cl)CCN(c2ncnc3[nH]ccc23)CC1)c1ccc(-c2c3nc(c(-c4c(F)c(F)c(F)c(F)c4F)c4ccc([nH]4)c(-c4c(F)c(F)c(F)c(F)c4F)c4nc(c(-c5c(F)c(F)c(F)c(F)c5F)c5ccc2[nH]5)C=C4)C=C3)cc1
REMARK SMILES IDX 5 1 4 2 3 3 1 4 2 5 34 7 35 8 96 9 36 10 95 11 37 12 38 13
REMARK SMILES IDX 39 14 89 15 40 16 94 17 88 18 90 19 41 20 93 21 87 22 86 23
REMARK SMILES IDX 42 25 74 26 54 27 73 28 55 29 58 30 72 31 91 32 56 33 57 34
REMARK SMILES IDX 71 36 92 37 59 38 43 39 44 40 52 41 45 42 46 43 50 44 53 45
REMARK SMILES IDX 47 46 48 47 51 48 49 49 75 50 76 51 84 52 77 53 78 54 82 55
REMARK SMILES IDX 85 56 79 57 80 58 83 59 81 60 60 61 61 62 69 63 62 64 63 65
REMARK SMILES IDX 67 66 70 67 64 68 65 69 68 70 66 71 6 72 7 73 8 74 9 75
REMARK SMILES IDX 10 77 11 78 20 79 33 80 21 81 32 82 22 83 12 84 13 85 14 86
REMARK SMILES IDX 18 87 15 88 17 89 19 90 16 91 23 92 24 93 31 94 25 95 27 96
REMARK SMILES IDX 30 97 26 98 28 99 29 100
REMARK H PARENT 3 6 90 24 58 35 8 76 28 101
REMARK Flexibility Score: inf
ROOT
ATOM      1  C   UNL A   1      31.605  32.011  26.879  1.00  0.00     0.023 C 
ENDROOT
BRANCH   1   2
ATOM      2  C   UNL A   1      32.797  32.839  27.299  1.00  0.00     0.116 C 
BRANCH   2   3
ATOM      3  N   UNL A   1      32.452  34.208  27.667  1.00  0.00    -0.352 N 
ATOM      4  O   UNL A   1      32.576  36.092  28.920  1.00  0.00    -0.269 OA
ATOM      5  C   UNL A   1      33.020  34.989  28.651  1.00  0.00     0.251 C 
ATOM      6  H   UNL A   1      31.724  34.624  27.151  1.00  0.00     0.163 HD
BRANCH   5   7
ATOM      7  C   UNL A   1      34.160  34.428  29.405  1.00  0.00     0.039 A 
ATOM      8  C   UNL A   1      35.462  34.646  28.950  1.00  0.00     0.014 A 
ATOM      9  C   UNL A   1      33.916  33.602  30.503  1.00  0.00     0.014 A 
ATOM     10  C   UNL A   1      36.498  33.894  29.474  1.00  0.00     0.010 A 
ATOM     11  C   UNL A   1      34.984  32.939  31.112  1.00  0.00     0.010 A 
ATOM     12  C   UNL A   1      36.277  33.056  30.579  1.00  0.00    -0.014 A 
BRANCH  12  13
ATOM     13  C   UNL A   1      37.443  32.392  31.206  1.00  0.00     0.031 A 
ATOM     14  C   UNL A   1      37.903  32.751  32.588  1.00  0.00     0.074 A 
ATOM     15  C   UNL A   1      38.059  31.420  30.506  1.00  0.00     0.049 A 
ATOM     16  N   UNL A   1      38.909  32.265  33.270  1.00  0.00    -0.248 NA
ATOM     17  C   UNL A   1      37.146  33.793  33.300  1.00  0.00     0.031 C 
ATOM     18  C   UNL A   1      37.691  31.000  29.151  1.00  0.00     0.029 A 
ATOM     19  N   UNL A   1      39.100  30.594  30.836  1.00  0.00    -0.354 N 
ATOM     20  C   UNL A   1      38.927  32.959  34.472  1.00  0.00     0.074 A 
ATOM     21  C   UNL A   1      37.836  33.909  34.428  1.00  0.00     0.031 C 
ATOM     22  C   UNL A   1      38.451  29.959  28.789  1.00  0.00     0.029 A 
ATOM     23  C   UNL A   1      39.413  29.693  29.848  1.00  0.00     0.049 A 
ATOM     24  H   UNL A   1      39.576  30.640  31.696  1.00  0.00     0.167 HD
ATOM     25  C   UNL A   1      39.781  32.809  35.514  1.00  0.00     0.037 A 
ATOM     26  C   UNL A   1      40.390  28.772  29.788  1.00  0.00     0.037 A 
ATOM     27  C   UNL A   1      40.847  31.838  35.551  1.00  0.00     0.049 A 
ATOM     28  C   UNL A   1      41.322  28.638  30.953  1.00  0.00     0.074 A 
ATOM     29  C   UNL A   1      41.748  31.585  36.570  1.00  0.00     0.029 A 
ATOM     30  N   UNL A   1      41.153  30.961  34.520  1.00  0.00    -0.354 N 
ATOM     31  N   UNL A   1      41.322  29.294  32.088  1.00  0.00    -0.248 NA
ATOM     32  C   UNL A   1      42.396  27.646  30.827  1.00  0.00     0.031 C 
ATOM     33  C   UNL A   1      42.625  30.582  36.141  1.00  0.00     0.029 A 
ATOM     34  C   UNL A   1      42.241  30.178  34.872  1.00  0.00     0.049 A 
ATOM     35  H   UNL A   1      40.669  30.902  33.665  1.00  0.00     0.167 HD
ATOM     36  C   UNL A   1      42.387  28.789  32.817  1.00  0.00     0.074 A 
ATOM     37  C   UNL A   1      42.995  27.754  32.004  1.00  0.00     0.031 C 
ATOM     38  C   UNL A   1      42.827  29.155  34.045  1.00  0.00     0.037 A 
BRANCH  25  39
ATOM     39  C   UNL A   1      39.621  33.722  36.694  1.00  0.00     0.064 A 
ATOM     40  C   UNL A   1      40.205  34.995  36.729  1.00  0.00     0.173 A 
ATOM     41  C   UNL A   1      38.811  33.342  37.776  1.00  0.00     0.173 A 
ATOM     42  F   UNL A   1      40.998  35.402  35.726  1.00  0.00    -0.203 F 
ATOM     43  C   UNL A   1      39.997  35.850  37.810  1.00  0.00     0.198 A 
ATOM     44  C   UNL A   1      38.584  34.208  38.843  1.00  0.00     0.198 A 
ATOM     45  F   UNL A   1      38.222  32.137  37.789  1.00  0.00    -0.203 F 
ATOM     46  F   UNL A   1      40.590  37.052  37.836  1.00  0.00    -0.200 F 
ATOM     47  C   UNL A   1      39.180  35.460  38.861  1.00  0.00     0.200 A 
ATOM     48  F   UNL A   1      37.785  33.833  39.851  1.00  0.00    -0.200 F 
ATOM     49  F   UNL A   1      38.970  36.289  39.893  1.00  0.00    -0.200 F 
ENDBRANCH  25  39
BRANCH  26  50
ATOM     50  C   UNL A   1      40.534  27.931  28.573  1.00  0.00     0.064 A 
ATOM     51  C   UNL A   1      39.896  26.688  28.475  1.00  0.00     0.173 A 
ATOM     52  C   UNL A   1      41.287  28.369  27.473  1.00  0.00     0.173 A 
ATOM     53  F   UNL A   1      39.176  26.222  29.506  1.00  0.00    -0.203 F 
ATOM     54  C   UNL A   1      40.018  25.908  27.328  1.00  0.00     0.198 A 
ATOM     55  C   UNL A   1      41.381  27.603  26.315  1.00  0.00     0.198 A 
ATOM     56  F   UNL A   1      41.908  29.557  27.512  1.00  0.00    -0.203 F 
ATOM     57  F   UNL A   1      39.428  24.707  27.273  1.00  0.00    -0.200 F 
ATOM     58  C   UNL A   1      40.753  26.370  26.246  1.00  0.00     0.200 A 
ATOM     59  F   UNL A   1      42.074  28.063  25.264  1.00  0.00    -0.200 F 
ATOM     60  F   UNL A   1      40.858  25.623  25.138  1.00  0.00    -0.200 F 
ENDBRANCH  26  50
BRANCH  38  61
ATOM     61  C   UNL A   1      44.010  28.409  34.585  1.00  0.00     0.064 A 
ATOM     62  C   UNL A   1      45.319  28.877  34.397  1.00  0.00     0.173 A 
ATOM     63  C   UNL A   1      43.830  27.223  35.311  1.00  0.00     0.173 A 
ATOM     64  F   UNL A   1      45.540  29.995  33.690  1.00  0.00    -0.203 F 
ATOM     65  C   UNL A   1      46.408  28.167  34.894  1.00  0.00     0.198 A 
ATOM     66  C   UNL A   1      44.919  26.532  35.831  1.00  0.00     0.198 A 
ATOM     67  F   UNL A   1      42.597  26.738  35.519  1.00  0.00    -0.203 F 
ATOM     68  F   UNL A   1      47.653  28.604  34.659  1.00  0.00    -0.200 F 
ATOM     69  C   UNL A   1      46.207  27.000  35.616  1.00  0.00     0.200 A 
ATOM     70  F   UNL A   1      44.724  25.409  36.536  1.00  0.00    -0.200 F 
ATOM     71  F   UNL A   1      47.257  26.320  36.094  1.00  0.00    -0.200 F 
ENDBRANCH  38  61
ENDBRANCH  12  13
ENDBRANCH   5   7
ENDBRANCH   2   3
ENDBRANCH   1   2
BRANCH   1  72
ATOM     72  C   UNL A   1      31.951  30.549  26.674  1.00  0.00     0.023 C 
BRANCH  72  73
ATOM     73  C   UNL A   1      31.443  29.927  25.369  1.00  0.00     0.116 C 
BRANCH  73  74
ATOM     74  N   UNL A   1      32.503  29.715  24.389  1.00  0.00    -0.356 N 
ATOM     75  C   UNL A   1      32.765  28.738  23.467  1.00  0.00     0.226 C 
ATOM     76  H   UNL A   1      33.177  30.433  24.392  1.00  0.00     0.163 HD
ATOM     77  O   UNL A   1      33.764  28.920  22.763  1.00  0.00    -0.274 OA
BRANCH  75  78
ATOM     78  C   UNL A   1      31.896  27.470  23.283  1.00  0.00     0.057 C 
ATOM     79  C   UNL A   1      31.397  26.918  24.623  1.00  0.00     0.039 C 
ATOM     80  C   UNL A   1      32.790  26.301  22.657  1.00  0.00     0.039 C 
ATOM     81  C   UNL A   1      32.632  26.599  25.464  1.00  0.00     0.119 C 
ATOM     82  C   UNL A   1      33.785  25.569  23.604  1.00  0.00     0.119 C 
ATOM     83  N   UNL A   1      33.171  25.388  24.915  1.00  0.00    -0.356 N 
BRANCH  78  84
ATOM     84  C   UNL A   1      30.765  27.720  22.234  1.00  0.00     0.054 C 
BRANCH  84  85
ATOM     85  C   UNL A   1      29.639  28.710  22.465  1.00  0.00    -0.028 A 
ATOM     86  C   UNL A   1      29.842  30.058  22.105  1.00  0.00     0.005 A 
ATOM     87  C   UNL A   1      28.443  28.388  23.136  1.00  0.00     0.044 A 
ATOM     88  C   UNL A   1      28.890  31.040  22.400  1.00  0.00     0.000 A 
ATOM     89  C   UNL A   1      27.476  29.368  23.394  1.00  0.00     0.021 A 
ATOM     90  Cl  UNL A   1      28.112  26.804  23.740  1.00  0.00    -0.084 Cl
ATOM     91  C   UNL A   1      27.702  30.695  23.036  1.00  0.00     0.002 A 
ENDBRANCH  84  85
ENDBRANCH  78  84
BRANCH  83  92
ATOM     92  C   UNL A   1      33.427  24.334  25.768  1.00  0.00     0.141 A 
ATOM     93  N   UNL A   1      32.434  23.850  26.557  1.00  0.00    -0.219 NA
ATOM     94  C   UNL A   1      34.697  23.693  25.872  1.00  0.00     0.061 A 
ATOM     95  C   UNL A   1      32.674  22.765  27.323  1.00  0.00     0.226 A 
ATOM     96  C   UNL A   1      34.780  22.568  26.677  1.00  0.00     0.142 A 
ATOM     97  C   UNL A   1      36.021  23.886  25.351  1.00  0.00     0.033 A 
ATOM     98  N   UNL A   1      33.804  22.043  27.429  1.00  0.00    -0.218 NA
ATOM     99  N   UNL A   1      36.044  22.050  26.578  1.00  0.00    -0.346 N 
ATOM    100  C   UNL A   1      36.810  22.834  25.759  1.00  0.00     0.085 A 
ATOM    101  H   UNL A   1      36.356  21.231  27.028  1.00  0.00     0.167 HD
ENDBRANCH  83  92
ENDBRANCH  75  78
ENDBRANCH  73  74
ENDBRANCH  72  73
ENDBRANCH   1  72
TORSDOF 14
ENDMDL
MODEL 2
REMARK VINA RESULT:     -14.2      0.280      7.221
REMARK SMILES O=C(NCCCCNC(=O)C1(Cc2ccccc2Cl)CCN(c2ncnc3[nH]ccc23)CC1)c1ccc(-c2c3nc(c(-c4c(F)c(F)c(F)c(F)c4F)c4ccc([nH]4)c(-c4c(F)c(F)c(F)c(F)c4F)c4nc(c(-c5c(F)c(F)c(F)c(F)c5F)c5ccc2[nH]5)C=C4)C=C3)cc1
REMARK SMILES IDX 5 1 4 2 3 3 1 4 2 5 34 7 35 8 96 9 36 10 95 11 37 12 38 13
REMARK SMILES IDX 39 14 89 15 40 16 94 17 88 18 90 19 41 20 93 21 87 22 86 23
REMARK SMILES IDX 42 25 74 26 54 27 73 28 55 29 58 30 72 31 91 32 56 33 57 34
REMARK SMILES IDX 71 36 92 37 59 38 43 39 44 40 52 41 45 42 46 43 50 44 53 45
REMARK SMILES IDX 47 46 48 47 51 48 49 49 75 50 76 51 84 52 77 53 78 54 82 55
REMARK SMILES IDX 85 56 79 57 80 58 83 59 81 60 60 61 61 62 69 63 62 64 63 65
REMARK SMILES IDX 67 66 70 67 64 68 65 69 68 70 66 71 6 72 7 73 8 74 9 75
REMARK SMILES IDX 10 77 11 78 20 79 33 80 21 81 32 82 22 83 12 84 13 85 14 86
REMARK SMILES IDX 18 87 15 88 17 89 19 90 16 91 23 92 24 93 31 94 25 95 27 96
REMARK SMILES IDX 30 97 26 98 28 99 29 100
REMARK H PARENT 3 6 90 24 58 35 8 76 28 101
REMARK Flexibility Score: inf
ROOT
ATOM      1  C   UNL A   1      31.600  32.036  26.845  1.00  0.00     0.023 C 
ENDROOT
BRANCH   1   2
ATOM      2  C   UNL A   1      32.796  32.848  27.286  1.00  0.00     0.116 C 
BRANCH   2   3
ATOM      3  N   UNL A   1      32.462  34.218  27.661  1.00  0.00    -0.352 N 
ATOM      4  O   UNL A   1      32.594  36.091  28.927  1.00  0.00    -0.269 OA
ATOM      5  C   UNL A   1      33.029  34.986  28.654  1.00  0.00     0.251 C 
ATOM      6  H   UNL A   1      31.742  34.644  27.141  1.00  0.00     0.163 HD
BRANCH   5   7
ATOM      7  C   UNL A   1      34.158  34.409  29.413  1.00  0.00     0.039 A 
ATOM      8  C   UNL A   1      35.466  34.632  28.981  1.00  0.00     0.014 A 
ATOM      9  C   UNL A   1      33.896  33.563  30.493  1.00  0.00     0.014 A 
ATOM     10  C   UNL A   1      36.493  33.868  29.505  1.00  0.00     0.010 A 
ATOM     11  C   UNL A   1      34.954  32.887  31.103  1.00  0.00     0.010 A 
ATOM     12  C   UNL A   1      36.255  33.010  30.591  1.00  0.00    -0.014 A 
BRANCH  12  13
ATOM     13  C   UNL A   1      37.411  32.332  31.222  1.00  0.00     0.031 A 
ATOM     14  C   UNL A   1      38.180  31.261  30.506  1.00  0.00     0.074 A 
ATOM     15  C   UNL A   1      37.778  32.737  32.453  1.00  0.00     0.049 A 
ATOM     16  N   UNL A   1      39.210  30.570  30.927  1.00  0.00    -0.248 NA
ATOM     17  C   UNL A   1      37.740  30.910  29.147  1.00  0.00     0.031 C 
ATOM     18  C   UNL A   1      37.090  33.769  33.236  1.00  0.00     0.029 A 
ATOM     19  N   UNL A   1      38.823  32.358  33.252  1.00  0.00    -0.354 N 
ATOM     20  C   UNL A   1      39.520  29.685  29.904  1.00  0.00     0.074 A 
ATOM     21  C   UNL A   1      38.565  29.917  28.841  1.00  0.00     0.031 C 
ATOM     22  C   UNL A   1      37.763  33.982  34.373  1.00  0.00     0.029 A 
ATOM     23  C   UNL A   1      38.878  33.048  34.439  1.00  0.00     0.049 A 
ATOM     24  H   UNL A   1      39.470  31.661  33.002  1.00  0.00     0.167 HD
ATOM     25  C   UNL A   1      40.515  28.766  29.864  1.00  0.00     0.037 A 
ATOM     26  C   UNL A   1      39.716  32.921  35.482  1.00  0.00     0.037 A 
ATOM     27  C   UNL A   1      41.474  28.567  30.923  1.00  0.00     0.049 A 
ATOM     28  C   UNL A   1      40.800  31.888  35.408  1.00  0.00     0.074 A 
ATOM     29  C   UNL A   1      42.538  27.684  30.968  1.00  0.00     0.029 A 
ATOM     30  N   UNL A   1      41.482  29.265  32.122  1.00  0.00    -0.354 N 
ATOM     31  N   UNL A   1      41.089  31.065  34.430  1.00  0.00    -0.248 NA
ATOM     32  C   UNL A   1      41.666  31.760  36.585  1.00  0.00     0.031 C 
ATOM     33  C   UNL A   1      43.166  27.818  32.212  1.00  0.00     0.029 A 
ATOM     34  C   UNL A   1      42.521  28.818  32.923  1.00  0.00     0.049 A 
ATOM     35  H   UNL A   1      40.844  29.972  32.369  1.00  0.00     0.167 HD
ATOM     36  C   UNL A   1      42.176  30.325  34.868  1.00  0.00     0.074 A 
ATOM     37  C   UNL A   1      42.510  30.817  36.189  1.00  0.00     0.031 C 
ATOM     38  C   UNL A   1      42.833  29.323  34.235  1.00  0.00     0.037 A 
BRANCH  25  39
ATOM     39  C   UNL A   1      40.614  27.887  28.652  1.00  0.00     0.064 A 
ATOM     40  C   UNL A   1      39.916  26.675  28.558  1.00  0.00     0.173 A 
ATOM     41  C   UNL A   1      41.365  28.299  27.539  1.00  0.00     0.173 A 
ATOM     42  F   UNL A   1      39.193  26.230  29.597  1.00  0.00    -0.203 F 
ATOM     43  C   UNL A   1      39.977  25.901  27.400  1.00  0.00     0.198 A 
ATOM     44  C   UNL A   1      41.403  27.535  26.375  1.00  0.00     0.198 A 
ATOM     45  F   UNL A   1      42.047  29.454  27.574  1.00  0.00    -0.203 F 
ATOM     46  F   UNL A   1      39.325  24.731  27.344  1.00  0.00    -0.200 F 
ATOM     47  C   UNL A   1      40.713  26.335  26.308  1.00  0.00     0.200 A 
ATOM     48  F   UNL A   1      42.105  27.964  25.317  1.00  0.00    -0.200 F 
ATOM     49  F   UNL A   1      40.758  25.596  25.191  1.00  0.00    -0.200 F 
ENDBRANCH  25  39
BRANCH  26  50
ATOM     50  C   UNL A   1      39.538  33.782  36.677  1.00  0.00     0.064 A 
ATOM     51  C   UNL A   1      40.120  35.055  36.743  1.00  0.00     0.173 A 
ATOM     52  C   UNL A   1      38.757  33.362  37.764  1.00  0.00     0.173 A 
ATOM     53  F   UNL A   1      40.887  35.493  35.733  1.00  0.00    -0.203 F 
ATOM     54  C   UNL A   1      39.939  35.869  37.858  1.00  0.00     0.198 A 
ATOM     55  C   UNL A   1      38.550  34.191  38.864  1.00  0.00     0.198 A 
ATOM     56  F   UNL A   1      38.168  32.158  37.744  1.00  0.00    -0.203 F 
ATOM     57  F   UNL A   1      40.536  37.067  37.912  1.00  0.00    -0.200 F 
ATOM     58  C   UNL A   1      39.147  35.440  38.913  1.00  0.00     0.200 A 
ATOM     59  F   UNL A   1      37.766  33.781  39.870  1.00  0.00    -0.200 F 
ATOM     60  F   UNL A   1      38.964  36.231  39.979  1.00  0.00    -0.200 F 
ENDBRANCH  26  50
BRANCH  38  61
ATOM     61  C   UNL A   1      43.994  28.715  34.964  1.00  0.00     0.064 A 
ATOM     62  C   UNL A   1      43.834  27.589  35.784  1.00  0.00     0.173 A 
ATOM     63  C   UNL A   1      45.280  29.257  34.826  1.00  0.00     0.173 A 
ATOM     64  F   UNL A   1      42.618  27.051  35.962  1.00  0.00    -0.203 F 
ATOM     65  C   UNL A   1      44.918  27.043  36.464  1.00  0.00     0.198 A 
ATOM     66  C   UNL A   1      46.366  28.689  35.484  1.00  0.00     0.198 A 
ATOM     67  F   UNL A   1      45.483  30.331  34.050  1.00  0.00    -0.203 F 
ATOM     68  F   UNL A   1      44.735  25.997  37.283  1.00  0.00    -0.200 F 
ATOM     69  C   UNL A   1      46.183  27.589  36.308  1.00  0.00     0.200 A 
ATOM     70  F   UNL A   1      47.590  29.212  35.327  1.00  0.00    -0.200 F 
ATOM     71  F   UNL A   1      47.226  27.059  36.962  1.00  0.00    -0.200 F 
ENDBRANCH  38  61
ENDBRANCH  12  13
ENDBRANCH   5   7
ENDBRANCH   2   3
ENDBRANCH   1   2
BRANCH   1  72
ATOM     72  C   UNL A   1      31.927  30.567  26.658  1.00  0.00     0.023 C 
BRANCH  72  73
ATOM     73  C   UNL A   1      31.430  29.942  25.350  1.00  0.00     0.116 C 
BRANCH  73  74
ATOM     74  N   UNL A   1      32.498  29.723  24.382  1.00  0.00    -0.356 N 
ATOM     75  C   UNL A   1      32.767  28.741  23.468  1.00  0.00     0.226 C 
ATOM     76  H   UNL A   1      33.174  30.439  24.387  1.00  0.00     0.163 HD
ATOM     77  O   UNL A   1      33.773  28.917  22.773  1.00  0.00    -0.274 OA
BRANCH  75  78
ATOM     78  C   UNL A   1      31.897  27.473  23.282  1.00  0.00     0.057 C 
ATOM     79  C   UNL A   1      31.393  26.924  24.621  1.00  0.00     0.039 C 
ATOM     80  C   UNL A   1      32.793  26.303  22.661  1.00  0.00     0.039 C 
ATOM     81  C   UNL A   1      32.624  26.604  25.467  1.00  0.00     0.119 C 
ATOM     82  C   UNL A   1      33.783  25.571  23.613  1.00  0.00     0.119 C 
ATOM     83  N   UNL A   1      33.164  25.392  24.922  1.00  0.00    -0.356 N 
BRANCH  78  84
ATOM     84  C   UNL A   1      30.771  27.723  22.229  1.00  0.00     0.054 C 
BRANCH  84  85
ATOM     85  C   UNL A   1      29.638  28.705  22.459  1.00  0.00    -0.028 A 
ATOM     86  C   UNL A   1      29.830  30.054  22.094  1.00  0.00     0.005 A 
ATOM     87  C   UNL A   1      28.447  28.377  23.135  1.00  0.00     0.044 A 
ATOM     88  C   UNL A   1      28.872  31.030  22.388  1.00  0.00     0.000 A 
ATOM     89  C   UNL A   1      27.473  29.351  23.392  1.00  0.00     0.021 A 
ATOM     90  Cl  UNL A   1      28.129  26.794  23.746  1.00  0.00    -0.084 Cl
ATOM     91  C   UNL A   1      27.689  30.678  23.028  1.00  0.00     0.002 A 
ENDBRANCH  84  85
ENDBRANCH  78  84
BRANCH  83  92
ATOM     92  C   UNL A   1      33.416  24.339  25.777  1.00  0.00     0.141 A 
ATOM     93  N   UNL A   1      32.422  23.863  26.570  1.00  0.00    -0.219 NA
ATOM     94  C   UNL A   1      34.682  23.690  25.880  1.00  0.00     0.061 A 
ATOM     95  C   UNL A   1      32.657  22.778  27.338  1.00  0.00     0.226 A 
ATOM     96  C   UNL A   1      34.760  22.567  26.688  1.00  0.00     0.142 A 
ATOM     97  C   UNL A   1      36.006  23.874  25.356  1.00  0.00     0.033 A 
ATOM     98  N   UNL A   1      33.782  22.050  27.443  1.00  0.00    -0.218 NA
ATOM     99  N   UNL A   1      36.020  22.041  26.587  1.00  0.00    -0.346 N 
ATOM    100  C   UNL A   1      36.789  22.818  25.764  1.00  0.00     0.085 A 
ATOM    101  H   UNL A   1      36.329  21.222  27.039  1.00  0.00     0.167 HD
ENDBRANCH  83  92
ENDBRANCH  75  78
ENDBRANCH  73  74
ENDBRANCH  72  73
ENDBRANCH   1  72
TORSDOF 14
ENDMDL
MODEL 3
REMARK VINA RESULT:     -14.2      0.327      7.059
REMARK SMILES O=C(NCCCCNC(=O)C1(Cc2ccccc2Cl)CCN(c2ncnc3[nH]ccc23)CC1)c1ccc(-c2c3nc(c(-c4c(F)c(F)c(F)c(F)c4F)c4ccc([nH]4)c(-c4c(F)c(F)c(F)c(F)c4F)c4nc(c(-c5c(F)c(F)c(F)c(F)c5F)c5ccc2[nH]5)C=C4)C=C3)cc1
REMARK SMILES IDX 5 1 4 2 3 3 1 4 2 5 34 7 35 8 96 9 36 10 95 11 37 12 38 13
REMARK SMILES IDX 39 14 89 15 40 16 94 17 88 18 90 19 41 20 93 21 87 22 86 23
REMARK SMILES IDX 42 25 74 26 54 27 73 28 55 29 58 30 72 31 91 32 56 33 57 34
REMARK SMILES IDX 71 36 92 37 59 38 43 39 44 40 52 41 45 42 46 43 50 44 53 45
REMARK SMILES IDX 47 46 48 47 51 48 49 49 75 50 76 51 84 52 77 53 78 54 82 55
REMARK SMILES IDX 85 56 79 57 80 58 83 59 81 60 60 61 61 62 69 63 62 64 63 65
REMARK SMILES IDX 67 66 70 67 64 68 65 69 68 70 66 71 6 72 7 73 8 74 9 75
REMARK SMILES IDX 10 77 11 78 20 79 33 80 21 81 32 82 22 83 12 84 13 85 14 86
REMARK SMILES IDX 18 87 15 88 17 89 19 90 16 91 23 92 24 93 31 94 25 95 27 96
REMARK SMILES IDX 30 97 26 98 28 99 29 100
REMARK H PARENT 3 6 90 24 58 35 8 76 28 101
REMARK Flexibility Score: inf
ROOT
ATOM      1  C   UNL A   1      31.597  32.073  26.789  1.00  0.00     0.023 C 
ENDROOT
BRANCH   1   2
ATOM      2  C   UNL A   1      32.785  32.886  27.249  1.00  0.00     0.116 C 
BRANCH   2   3
ATOM      3  N   UNL A   1      32.442  34.255  27.620  1.00  0.00    -0.352 N 
ATOM      4  O   UNL A   1      32.559  36.131  28.884  1.00  0.00    -0.269 OA
ATOM      5  C   UNL A   1      33.000  35.028  28.616  1.00  0.00     0.251 C 
ATOM      6  H   UNL A   1      31.723  34.678  27.095  1.00  0.00     0.163 HD
BRANCH   5   7
ATOM      7  C   UNL A   1      34.127  34.456  29.382  1.00  0.00     0.039 A 
ATOM      8  C   UNL A   1      35.434  34.644  28.930  1.00  0.00     0.014 A 
ATOM      9  C   UNL A   1      33.863  33.650  30.490  1.00  0.00     0.014 A 
ATOM     10  C   UNL A   1      36.454  33.880  29.469  1.00  0.00     0.010 A 
ATOM     11  C   UNL A   1      34.916  32.976  31.112  1.00  0.00     0.010 A 
ATOM     12  C   UNL A   1      36.213  33.061  30.584  1.00  0.00    -0.014 A 
BRANCH  12  13
ATOM     13  C   UNL A   1      37.364  32.385  31.225  1.00  0.00     0.031 A 
ATOM     14  C   UNL A   1      38.139  31.312  30.518  1.00  0.00     0.074 A 
ATOM     15  C   UNL A   1      37.722  32.794  32.458  1.00  0.00     0.049 A 
ATOM     16  N   UNL A   1      39.165  30.622  30.948  1.00  0.00    -0.248 NA
ATOM     17  C   UNL A   1      37.708  30.957  29.156  1.00  0.00     0.031 C 
ATOM     18  C   UNL A   1      37.030  33.828  33.233  1.00  0.00     0.029 A 
ATOM     19  N   UNL A   1      38.761  32.417  33.265  1.00  0.00    -0.354 N 
ATOM     20  C   UNL A   1      39.482  29.734  29.929  1.00  0.00     0.074 A 
ATOM     21  C   UNL A   1      38.535  29.963  28.859  1.00  0.00     0.031 C 
ATOM     22  C   UNL A   1      37.694  34.044  34.373  1.00  0.00     0.029 A 
ATOM     23  C   UNL A   1      38.808  33.109  34.450  1.00  0.00     0.049 A 
ATOM     24  H   UNL A   1      39.411  31.719  33.021  1.00  0.00     0.167 HD
ATOM     25  C   UNL A   1      40.478  28.815  29.900  1.00  0.00     0.037 A 
ATOM     26  C   UNL A   1      39.639  32.985  35.499  1.00  0.00     0.037 A 
ATOM     27  C   UNL A   1      41.429  28.618  30.966  1.00  0.00     0.049 A 
ATOM     28  C   UNL A   1      40.723  31.953  35.436  1.00  0.00     0.074 A 
ATOM     29  C   UNL A   1      42.493  27.736  31.021  1.00  0.00     0.029 A 
ATOM     30  N   UNL A   1      41.428  29.320  32.163  1.00  0.00    -0.354 N 
ATOM     31  N   UNL A   1      41.018  31.126  34.463  1.00  0.00    -0.248 NA
ATOM     32  C   UNL A   1      41.581  31.827  36.620  1.00  0.00     0.031 C 
ATOM     33  C   UNL A   1      43.112  27.873  32.269  1.00  0.00     0.029 A 
ATOM     34  C   UNL A   1      42.462  28.875  32.973  1.00  0.00     0.049 A 
ATOM     35  H   UNL A   1      40.789  30.028  32.404  1.00  0.00     0.167 HD
ATOM     36  C   UNL A   1      42.103  30.388  34.911  1.00  0.00     0.074 A 
ATOM     37  C   UNL A   1      42.427  30.883  36.233  1.00  0.00     0.031 C 
ATOM     38  C   UNL A   1      42.765  29.384  34.285  1.00  0.00     0.037 A 
BRANCH  25  39
ATOM     39  C   UNL A   1      40.585  27.932  28.690  1.00  0.00     0.064 A 
ATOM     40  C   UNL A   1      39.885  26.721  28.594  1.00  0.00     0.173 A 
ATOM     41  C   UNL A   1      41.347  28.339  27.583  1.00  0.00     0.173 A 
ATOM     42  F   UNL A   1      39.153  26.280  29.627  1.00  0.00    -0.203 F 
ATOM     43  C   UNL A   1      39.954  25.944  27.438  1.00  0.00     0.198 A 
ATOM     44  C   UNL A   1      41.394  27.573  26.422  1.00  0.00     0.198 A 
ATOM     45  F   UNL A   1      42.031  29.493  27.621  1.00  0.00    -0.203 F 
ATOM     46  F   UNL A   1      39.301  24.775  27.379  1.00  0.00    -0.200 F 
ATOM     47  C   UNL A   1      40.701  26.374  26.351  1.00  0.00     0.200 A 
ATOM     48  F   UNL A   1      42.106  27.997  25.368  1.00  0.00    -0.200 F 
ATOM     49  F   UNL A   1      40.754  25.632  25.237  1.00  0.00    -0.200 F 
ENDBRANCH  25  39
BRANCH  26  50
ATOM     50  C   UNL A   1      39.452  33.850  36.691  1.00  0.00     0.064 A 
ATOM     51  C   UNL A   1      38.704  33.413  37.791  1.00  0.00     0.173 A 
ATOM     52  C   UNL A   1      40.046  35.119  36.766  1.00  0.00     0.173 A 
ATOM     53  F   UNL A   1      38.106  32.213  37.759  1.00  0.00    -0.203 F 
ATOM     54  C   UNL A   1      38.543  34.219  38.915  1.00  0.00     0.198 A 
ATOM     55  C   UNL A   1      39.912  35.910  37.904  1.00  0.00     0.198 A 
ATOM     56  F   UNL A   1      40.783  35.579  35.744  1.00  0.00    -0.203 F 
ATOM     57  F   UNL A   1      37.792  33.793  39.939  1.00  0.00    -0.200 F 
ATOM     58  C   UNL A   1      39.155  35.463  38.974  1.00  0.00     0.200 A 
ATOM     59  F   UNL A   1      40.523  37.101  37.964  1.00  0.00    -0.200 F 
ATOM     60  F   UNL A   1      39.010  36.231  40.062  1.00  0.00    -0.200 F 
ENDBRANCH  26  50
BRANCH  38  61
ATOM     61  C   UNL A   1      43.919  28.778  35.024  1.00  0.00     0.064 A 
ATOM     62  C   UNL A   1      45.221  29.283  34.889  1.00  0.00     0.173 A 
ATOM     63  C   UNL A   1      43.717  27.691  35.888  1.00  0.00     0.173 A 
ATOM     64  F   UNL A   1      45.464  30.307  34.059  1.00  0.00    -0.203 F 
ATOM     65  C   UNL A   1      46.285  28.702  35.573  1.00  0.00     0.198 A 
ATOM     66  C   UNL A   1      44.779  27.133  36.591  1.00  0.00     0.198 A 
ATOM     67  F   UNL A   1      42.490  27.177  36.051  1.00  0.00    -0.203 F 
ATOM     68  F   UNL A   1      47.529  29.167  35.391  1.00  0.00    -0.200 F 
ATOM     69  C   UNL A   1      46.062  27.633  36.428  1.00  0.00     0.200 A 
ATOM     70  F   UNL A   1      44.561  26.105  37.424  1.00  0.00    -0.200 F 
ATOM     71  F   UNL A   1      47.088  27.077  37.086  1.00  0.00    -0.200 F 
ENDBRANCH  38  61
ENDBRANCH  12  13
ENDBRANCH   5   7
ENDBRANCH   2   3
ENDBRANCH   1   2
BRANCH   1  72
ATOM     72  C   UNL A   1      31.916  30.596  26.654  1.00  0.00     0.023 C 
BRANCH  72  73
ATOM     73  C   UNL A   1      31.417  29.929  25.368  1.00  0.00     0.116 C 
BRANCH  73  74
ATOM     74  N   UNL A   1      32.478  29.715  24.390  1.00  0.00    -0.356 N 
ATOM     75  C   UNL A   1      32.740  28.737  23.469  1.00  0.00     0.226 C 
ATOM     76  H   UNL A   1      33.153  30.432  24.393  1.00  0.00     0.163 HD
ATOM     77  O   UNL A   1      33.740  28.918  22.766  1.00  0.00    -0.274 OA
BRANCH  75  78
ATOM     78  C   UNL A   1      31.870  27.469  23.285  1.00  0.00     0.057 C 
ATOM     79  C   UNL A   1      31.375  26.916  24.625  1.00  0.00     0.039 C 
ATOM     80  C   UNL A   1      32.763  26.301  22.655  1.00  0.00     0.039 C 
ATOM     81  C   UNL A   1      32.611  26.595  25.464  1.00  0.00     0.119 C 
ATOM     82  C   UNL A   1      33.760  25.568  23.599  1.00  0.00     0.119 C 
ATOM     83  N   UNL A   1      33.148  25.385  24.911  1.00  0.00    -0.356 N 
BRANCH  78  84
ATOM     84  C   UNL A   1      30.737  27.721  22.239  1.00  0.00     0.054 C 
BRANCH  84  85
ATOM     85  C   UNL A   1      29.620  28.721  22.467  1.00  0.00    -0.028 A 
ATOM     86  C   UNL A   1      29.834  30.066  22.101  1.00  0.00     0.005 A 
ATOM     87  C   UNL A   1      28.423  28.413  23.142  1.00  0.00     0.044 A 
ATOM     88  C   UNL A   1      28.890  31.058  22.393  1.00  0.00     0.000 A 
ATOM     89  C   UNL A   1      27.464  29.402  23.398  1.00  0.00     0.021 A 
ATOM     90  Cl  UNL A   1      28.080  26.835  23.755  1.00  0.00    -0.084 Cl
ATOM     91  C   UNL A   1      27.701  30.725  23.033  1.00  0.00     0.002 A 
ENDBRANCH  84  85
ENDBRANCH  78  84
BRANCH  83  92
ATOM     92  C   UNL A   1      33.407  24.330  25.762  1.00  0.00     0.141 A 
ATOM     93  N   UNL A   1      32.411  23.835  26.542  1.00  0.00    -0.219 NA
ATOM     94  C   UNL A   1      34.681  23.698  25.874  1.00  0.00     0.061 A 
ATOM     95  C   UNL A   1      32.654  22.748  27.306  1.00  0.00     0.226 A 
ATOM     96  C   UNL A   1      34.766  22.571  26.675  1.00  0.00     0.142 A 
ATOM     97  C   UNL A   1      36.007  23.904  25.364  1.00  0.00     0.033 A 
ATOM     98  N   UNL A   1      33.788  22.035  27.417  1.00  0.00    -0.218 NA
ATOM     99  N   UNL A   1      36.034  22.063  26.583  1.00  0.00    -0.346 N 
ATOM    100  C   UNL A   1      36.801  22.855  25.773  1.00  0.00     0.085 A 
ATOM    101  H   UNL A   1      36.350  21.245  27.033  1.00  0.00     0.167 HD
ENDBRANCH  83  92
ENDBRANCH  75  78
ENDBRANCH  73  74
ENDBRANCH  72  73
ENDBRANCH   1  72
TORSDOF 14
ENDMDL
