MODEL 1
REMARK VINA RESULT:     -13.2      0.000      0.000
REMARK SMILES Cc1nc(C(=O)N2C[C@@H]3CC[N@@H+](C)C[C@]3(C(=O)NCCCCNC(=O)c3ccc(-c4c5nc(c(-c6c(F)c(F)c(F)c(F)c6F)c6ccc([nH]6)c(-c6c(F)c(F)c(F)c(F)c6F)c6nc(c(-c7c(F)c(F)c(F)c(F)c7F)c7ccc4[nH]7)C=C6)C=C5)cc3)C2)cs1
REMARK SMILES IDX 20 1 19 2 18 3 16 4 17 5 15 7 7 8 8 9 89 10 9 11 10 12 14 13
REMARK SMILES IDX 11 14 12 15 13 16 5 18 6 19 4 20 1 21 2 22 3 23 91 24 90 25
REMARK SMILES IDX 21 26 22 27 23 28 24 29 25 31 26 32 27 33 88 34 28 35 87 36
REMARK SMILES IDX 29 37 30 38 31 39 81 40 32 41 86 42 80 43 82 44 33 45 85 46
REMARK SMILES IDX 79 47 78 48 34 50 66 51 46 52 65 53 47 54 50 55 64 56 83 57
REMARK SMILES IDX 48 58 49 59 63 61 84 62 51 63 35 64 36 65 44 66 37 67 38 68
REMARK SMILES IDX 42 69 45 70 39 71 40 72 43 73 41 74 67 75 68 76 76 77 69 78
REMARK SMILES IDX 70 79 74 80 77 81 71 82 72 83 75 84 73 85 52 86 53 87 61 88
REMARK SMILES IDX 54 89 55 90 59 91 62 92 56 93 57 94 60 95 58 96
REMARK H PARENT 18 6 12 17 23 30 82 49 50 60
REMARK Flexibility Score: inf
ROOT
ATOM      1  C   UNL A   1      31.736  30.807  25.919  1.00  0.00     0.023 C 
ENDROOT
BRANCH   1   2
ATOM      2  C   UNL A   1      32.298  29.469  26.405  1.00  0.00     0.116 C 
BRANCH   2   3
ATOM      3  N   UNL A   1      31.372  28.352  26.639  1.00  0.00    -0.355 N 
ATOM      4  C   UNL A   1      31.077  27.191  25.946  1.00  0.00     0.234 C 
ATOM      5  O   UNL A   1      30.679  26.239  26.624  1.00  0.00    -0.274 OA
ATOM      6  H   UNL A   1      30.848  28.450  27.466  1.00  0.00     0.163 HD
BRANCH   4   7
ATOM      7  C   UNL A   1      31.080  27.134  24.405  1.00  0.00     0.120 C 
ATOM      8  N   UNL A   1      29.277  28.213  23.220  1.00  0.00    -0.336 N 
ATOM      9  C   UNL A   1      30.437  28.796  22.646  1.00  0.00     0.125 C 
ATOM     10  C   UNL A   1      29.600  27.027  23.984  1.00  0.00     0.143 C 
ATOM     11  C   UNL A   1      31.559  28.414  23.616  1.00  0.00     0.037 C 
ATOM     12  C   UNL A   1      32.817  28.210  22.761  1.00  0.00     0.068 C 
ATOM     13  C   UNL A   1      32.045  25.971  24.049  1.00  0.00     0.281 C 
ATOM     14  C   UNL A   1      33.911  27.551  23.563  1.00  0.00     0.262 C 
ATOM     15  N   UNL A   1      33.501  26.253  24.105  1.00  0.00    -0.336 N 
ATOM     16  C   UNL A   1      34.113  26.066  25.421  1.00  0.00     0.332 C 
ATOM     17  H   UNL A   1      33.860  25.532  23.480  1.00  0.00     0.347 HD
BRANCH   8  18
ATOM     18  C   UNL A   1      28.050  28.827  23.095  1.00  0.00     0.273 C 
ATOM     19  O   UNL A   1      27.002  28.199  23.233  1.00  0.00    -0.267 OA
BRANCH  18  20
ATOM     20  C   UNL A   1      28.058  30.214  22.604  1.00  0.00     0.139 A 
ATOM     21  C   UNL A   1      29.080  33.680  23.218  1.00  0.00     0.079 C 
ATOM     22  C   UNL A   1      28.566  32.382  22.697  1.00  0.00     0.090 A 
ATOM     23  N   UNL A   1      28.367  31.304  23.427  1.00  0.00    -0.236 NA
ATOM     24  S   UNL A   1      28.241  32.206  21.020  1.00  0.00    -0.127 S 
ATOM     25  C   UNL A   1      27.926  30.542  21.265  1.00  0.00     0.101 A 
ENDBRANCH  18  20
ENDBRANCH   8  18
ENDBRANCH   4   7
ENDBRANCH   2   3
ENDBRANCH   1   2
BRANCH   1  26
ATOM     26  C   UNL A   1      31.542  31.881  26.993  1.00  0.00     0.023 C 
BRANCH  26  27
ATOM     27  C   UNL A   1      32.748  32.782  27.250  1.00  0.00     0.116 C 
BRANCH  27  28
ATOM     28  N   UNL A   1      32.412  34.146  27.636  1.00  0.00    -0.352 N 
ATOM     29  C   UNL A   1      33.017  34.944  28.586  1.00  0.00     0.251 C 
ATOM     30  H   UNL A   1      31.655  34.552  27.155  1.00  0.00     0.163 HD
ATOM     31  O   UNL A   1      32.594  36.058  28.824  1.00  0.00    -0.269 OA
BRANCH  29  32
ATOM     32  C   UNL A   1      34.156  34.395  29.355  1.00  0.00     0.039 A 
ATOM     33  C   UNL A   1      33.888  33.668  30.518  1.00  0.00     0.014 A 
ATOM     34  C   UNL A   1      35.466  34.545  28.899  1.00  0.00     0.014 A 
ATOM     35  C   UNL A   1      34.930  33.010  31.173  1.00  0.00     0.010 A 
ATOM     36  C   UNL A   1      36.490  33.833  29.510  1.00  0.00     0.010 A 
ATOM     37  C   UNL A   1      36.230  33.049  30.646  1.00  0.00    -0.014 A 
BRANCH  37  38
ATOM     38  C   UNL A   1      37.340  32.274  31.252  1.00  0.00     0.031 A 
ATOM     39  C   UNL A   1      37.850  32.645  32.614  1.00  0.00     0.074 A 
ATOM     40  C   UNL A   1      37.950  31.310  30.536  1.00  0.00     0.049 A 
ATOM     41  N   UNL A   1      38.894  32.192  33.260  1.00  0.00    -0.248 NA
ATOM     42  C   UNL A   1      37.106  33.692  33.332  1.00  0.00     0.031 C 
ATOM     43  C   UNL A   1      37.577  30.893  29.183  1.00  0.00     0.029 A 
ATOM     44  N   UNL A   1      39.030  30.520  30.841  1.00  0.00    -0.354 N 
ATOM     45  C   UNL A   1      38.947  32.915  34.443  1.00  0.00     0.074 A 
ATOM     46  C   UNL A   1      37.857  33.867  34.409  1.00  0.00     0.031 C 
ATOM     47  C   UNL A   1      38.406  29.918  28.780  1.00  0.00     0.029 A 
ATOM     48  C   UNL A   1      39.390  29.665  29.828  1.00  0.00     0.049 A 
ATOM     49  H   UNL A   1      39.503  30.561  31.704  1.00  0.00     0.167 HD
ATOM     50  C   UNL A   1      39.816  32.784  35.473  1.00  0.00     0.037 A 
ATOM     51  C   UNL A   1      40.407  28.785  29.751  1.00  0.00     0.037 A 
ATOM     52  C   UNL A   1      40.873  31.809  35.520  1.00  0.00     0.049 A 
ATOM     53  C   UNL A   1      41.344  28.643  30.919  1.00  0.00     0.074 A 
ATOM     54  C   UNL A   1      41.764  31.551  36.546  1.00  0.00     0.029 A 
ATOM     55  N   UNL A   1      41.175  30.926  34.494  1.00  0.00    -0.354 N 
ATOM     56  N   UNL A   1      41.350  29.292  32.057  1.00  0.00    -0.248 NA
ATOM     57  C   UNL A   1      42.414  27.641  30.793  1.00  0.00     0.031 C 
ATOM     58  C   UNL A   1      42.628  30.533  36.128  1.00  0.00     0.029 A 
ATOM     59  C   UNL A   1      42.249  30.130  34.858  1.00  0.00     0.049 A 
ATOM     60  H   UNL A   1      40.698  30.873  33.634  1.00  0.00     0.167 HD
ATOM     61  C   UNL A   1      42.399  28.760  32.795  1.00  0.00     0.074 A 
ATOM     62  C   UNL A   1      43.004  27.728  31.977  1.00  0.00     0.031 C 
ATOM     63  C   UNL A   1      42.822  29.096  34.037  1.00  0.00     0.037 A 
BRANCH  50  64
ATOM     64  C   UNL A   1      39.653  33.715  36.637  1.00  0.00     0.064 A 
ATOM     65  C   UNL A   1      40.278  34.971  36.666  1.00  0.00     0.173 A 
ATOM     66  C   UNL A   1      38.842  33.359  37.725  1.00  0.00     0.173 A 
ATOM     67  F   UNL A   1      41.074  35.352  35.656  1.00  0.00    -0.203 F 
ATOM     68  C   UNL A   1      40.121  35.825  37.754  1.00  0.00     0.198 A 
ATOM     69  C   UNL A   1      38.665  34.227  38.799  1.00  0.00     0.198 A 
ATOM     70  F   UNL A   1      38.220  32.172  37.745  1.00  0.00    -0.203 F 
ATOM     71  F   UNL A   1      40.768  36.997  37.783  1.00  0.00    -0.200 F 
ATOM     72  C   UNL A   1      39.309  35.455  38.817  1.00  0.00     0.200 A 
ATOM     73  F   UNL A   1      37.873  33.873  39.821  1.00  0.00    -0.200 F 
ATOM     74  F   UNL A   1      39.157  36.279  39.863  1.00  0.00    -0.200 F 
ENDBRANCH  50  64
BRANCH  51  75
ATOM     75  C   UNL A   1      40.575  27.950  28.534  1.00  0.00     0.064 A 
ATOM     76  C   UNL A   1      41.339  28.407  27.452  1.00  0.00     0.173 A 
ATOM     77  C   UNL A   1      39.977  26.687  28.426  1.00  0.00     0.173 A 
ATOM     78  F   UNL A   1      41.913  29.617  27.501  1.00  0.00    -0.203 F 
ATOM     79  C   UNL A   1      41.485  27.637  26.299  1.00  0.00     0.198 A 
ATOM     80  C   UNL A   1      40.145  25.907  27.283  1.00  0.00     0.198 A 
ATOM     81  F   UNL A   1      39.240  26.203  29.437  1.00  0.00    -0.203 F 
ATOM     82  F   UNL A   1      42.188  28.115  25.263  1.00  0.00    -0.200 F 
ATOM     83  C   UNL A   1      40.893  26.387  26.217  1.00  0.00     0.200 A 
ATOM     84  F   UNL A   1      39.580  24.695  27.212  1.00  0.00    -0.200 F 
ATOM     85  F   UNL A   1      41.037  25.646  25.110  1.00  0.00    -0.200 F 
ENDBRANCH  51  75
BRANCH  63  86
ATOM     86  C   UNL A   1      43.967  28.314  34.610  1.00  0.00     0.064 A 
ATOM     87  C   UNL A   1      45.292  28.753  34.485  1.00  0.00     0.173 A 
ATOM     88  C   UNL A   1      43.725  27.139  35.339  1.00  0.00     0.173 A 
ATOM     89  F   UNL A   1      45.573  29.862  33.785  1.00  0.00    -0.203 F 
ATOM     90  C   UNL A   1      46.338  28.036  35.060  1.00  0.00     0.198 A 
ATOM     91  C   UNL A   1      44.771  26.439  35.932  1.00  0.00     0.198 A 
ATOM     92  F   UNL A   1      42.473  26.682  35.489  1.00  0.00    -0.203 F 
ATOM     93  F   UNL A   1      47.602  28.454  34.900  1.00  0.00    -0.200 F 
ATOM     94  C   UNL A   1      46.076  26.885  35.788  1.00  0.00     0.200 A 
ATOM     95  F   UNL A   1      44.516  25.333  36.645  1.00  0.00    -0.200 F 
ATOM     96  F   UNL A   1      47.083  26.202  36.350  1.00  0.00    -0.200 F 
ENDBRANCH  63  86
ENDBRANCH  37  38
ENDBRANCH  29  32
ENDBRANCH  27  28
ENDBRANCH  26  27
ENDBRANCH   1  26
TORSDOF 13
ENDMDL
MODEL 2
REMARK VINA RESULT:     -13.1      0.441      7.241
REMARK SMILES Cc1nc(C(=O)N2C[C@@H]3CC[N@@H+](C)C[C@]3(C(=O)NCCCCNC(=O)c3ccc(-c4c5nc(c(-c6c(F)c(F)c(F)c(F)c6F)c6ccc([nH]6)c(-c6c(F)c(F)c(F)c(F)c6F)c6nc(c(-c7c(F)c(F)c(F)c(F)c7F)c7ccc4[nH]7)C=C6)C=C5)cc3)C2)cs1
REMARK SMILES IDX 20 1 19 2 18 3 16 4 17 5 15 7 7 8 8 9 89 10 9 11 10 12 14 13
REMARK SMILES IDX 11 14 12 15 13 16 5 18 6 19 4 20 1 21 2 22 3 23 91 24 90 25
REMARK SMILES IDX 21 26 22 27 23 28 24 29 25 31 26 32 27 33 88 34 28 35 87 36
REMARK SMILES IDX 29 37 30 38 31 39 81 40 32 41 86 42 80 43 82 44 33 45 85 46
REMARK SMILES IDX 79 47 78 48 34 50 66 51 46 52 65 53 47 54 50 55 64 56 83 57
REMARK SMILES IDX 48 58 49 59 63 61 84 62 51 63 35 64 36 65 44 66 37 67 38 68
REMARK SMILES IDX 42 69 45 70 39 71 40 72 43 73 41 74 67 75 68 76 76 77 69 78
REMARK SMILES IDX 70 79 74 80 77 81 71 82 72 83 75 84 73 85 52 86 53 87 61 88
REMARK SMILES IDX 54 89 55 90 59 91 62 92 56 93 57 94 60 95 58 96
REMARK H PARENT 18 6 12 17 23 30 82 49 50 60
REMARK Flexibility Score: inf
ROOT
ATOM      1  C   UNL A   1      32.003  30.424  25.782  1.00  0.00     0.023 C 
ENDROOT
BRANCH   1   2
ATOM      2  C   UNL A   1      32.439  28.989  26.090  1.00  0.00     0.116 C 
BRANCH   2   3
ATOM      3  N   UNL A   1      31.414  27.989  26.421  1.00  0.00    -0.355 N 
ATOM      4  C   UNL A   1      30.935  26.860  25.781  1.00  0.00     0.234 C 
ATOM      5  O   UNL A   1      30.487  25.970  26.509  1.00  0.00    -0.274 OA
ATOM      6  H   UNL A   1      30.972  28.159  27.284  1.00  0.00     0.163 HD
BRANCH   4   7
ATOM      7  C   UNL A   1      30.809  26.781  24.246  1.00  0.00     0.120 C 
ATOM      8  N   UNL A   1      29.018  27.998  23.183  1.00  0.00    -0.336 N 
ATOM      9  C   UNL A   1      30.175  28.467  22.508  1.00  0.00     0.125 C 
ATOM     10  C   UNL A   1      29.296  26.800  23.945  1.00  0.00     0.143 C 
ATOM     11  C   UNL A   1      31.333  28.001  23.393  1.00  0.00     0.037 C 
ATOM     12  C   UNL A   1      32.495  27.672  22.446  1.00  0.00     0.068 C 
ATOM     13  C   UNL A   1      31.636  25.531  23.840  1.00  0.00     0.281 C 
ATOM     14  C   UNL A   1      33.589  26.930  23.173  1.00  0.00     0.262 C 
ATOM     15  N   UNL A   1      33.111  25.682  23.774  1.00  0.00    -0.336 N 
ATOM     16  C   UNL A   1      33.808  25.460  25.042  1.00  0.00     0.332 C 
ATOM     17  H   UNL A   1      33.354  24.923  23.139  1.00  0.00     0.347 HD
BRANCH   8  18
ATOM     18  C   UNL A   1      27.843  28.718  23.143  1.00  0.00     0.273 C 
ATOM     19  O   UNL A   1      26.760  28.191  23.391  1.00  0.00    -0.267 OA
BRANCH  18  20
ATOM     20  C   UNL A   1      27.930  30.085  22.604  1.00  0.00     0.139 A 
ATOM     21  C   UNL A   1      29.028  33.536  23.160  1.00  0.00     0.079 C 
ATOM     22  C   UNL A   1      28.505  32.237  22.653  1.00  0.00     0.090 A 
ATOM     23  N   UNL A   1      28.223  31.194  23.407  1.00  0.00    -0.236 NA
ATOM     24  S   UNL A   1      28.282  32.009  20.965  1.00  0.00    -0.127 S 
ATOM     25  C   UNL A   1      27.896  30.366  21.249  1.00  0.00     0.101 A 
ENDBRANCH  18  20
ENDBRANCH   8  18
ENDBRANCH   4   7
ENDBRANCH   2   3
ENDBRANCH   1   2
BRANCH   1  26
ATOM     26  C   UNL A   1      31.799  31.335  26.996  1.00  0.00     0.023 C 
BRANCH  26  27
ATOM     27  C   UNL A   1      32.924  32.332  27.267  1.00  0.00     0.116 C 
BRANCH  27  28
ATOM     28  N   UNL A   1      32.475  33.693  27.527  1.00  0.00    -0.352 N 
ATOM     29  C   UNL A   1      33.011  34.624  28.393  1.00  0.00     0.251 C 
ATOM     30  H   UNL A   1      31.687  33.989  27.017  1.00  0.00     0.163 HD
ATOM     31  O   UNL A   1      32.497  35.717  28.531  1.00  0.00    -0.269 OA
BRANCH  29  32
ATOM     32  C   UNL A   1      34.193  34.247  29.201  1.00  0.00     0.039 A 
ATOM     33  C   UNL A   1      34.000  33.467  30.344  1.00  0.00     0.014 A 
ATOM     34  C   UNL A   1      35.479  34.607  28.798  1.00  0.00     0.014 A 
ATOM     35  C   UNL A   1      35.106  32.967  31.032  1.00  0.00     0.010 A 
ATOM     36  C   UNL A   1      36.579  34.053  29.442  1.00  0.00     0.010 A 
ATOM     37  C   UNL A   1      36.403  33.219  30.557  1.00  0.00    -0.014 A 
BRANCH  37  38
ATOM     38  C   UNL A   1      37.598  32.616  31.197  1.00  0.00     0.031 A 
ATOM     39  C   UNL A   1      38.324  31.495  30.513  1.00  0.00     0.074 A 
ATOM     40  C   UNL A   1      37.962  33.009  32.433  1.00  0.00     0.049 A 
ATOM     41  N   UNL A   1      39.296  30.742  30.961  1.00  0.00    -0.248 NA
ATOM     42  C   UNL A   1      37.872  31.151  29.155  1.00  0.00     0.031 C 
ATOM     43  C   UNL A   1      37.305  34.054  33.220  1.00  0.00     0.029 A 
ATOM     44  N   UNL A   1      38.965  32.557  33.255  1.00  0.00    -0.354 N 
ATOM     45  C   UNL A   1      39.552  29.822  29.954  1.00  0.00     0.074 A 
ATOM     46  C   UNL A   1      38.606  30.081  28.890  1.00  0.00     0.031 C 
ATOM     47  C   UNL A   1      37.927  34.171  34.402  1.00  0.00     0.029 A 
ATOM     48  C   UNL A   1      39.004  33.187  34.474  1.00  0.00     0.049 A 
ATOM     49  H   UNL A   1      39.597  31.849  32.994  1.00  0.00     0.167 HD
ATOM     50  C   UNL A   1      40.503  28.859  29.914  1.00  0.00     0.037 A 
ATOM     51  C   UNL A   1      39.809  32.984  35.534  1.00  0.00     0.037 A 
ATOM     52  C   UNL A   1      41.467  28.631  30.957  1.00  0.00     0.049 A 
ATOM     53  C   UNL A   1      40.873  31.923  35.455  1.00  0.00     0.074 A 
ATOM     54  C   UNL A   1      42.512  27.726  30.984  1.00  0.00     0.029 A 
ATOM     55  N   UNL A   1      41.505  29.324  32.159  1.00  0.00    -0.354 N 
ATOM     56  N   UNL A   1      41.144  31.097  34.475  1.00  0.00    -0.248 NA
ATOM     57  C   UNL A   1      41.746  31.770  36.627  1.00  0.00     0.031 C 
ATOM     58  C   UNL A   1      43.164  27.847  32.216  1.00  0.00     0.029 A 
ATOM     59  C   UNL A   1      42.549  28.856  32.940  1.00  0.00     0.049 A 
ATOM     60  H   UNL A   1      40.882  30.040  32.418  1.00  0.00     0.167 HD
ATOM     61  C   UNL A   1      42.234  30.348  34.897  1.00  0.00     0.074 A 
ATOM     62  C   UNL A   1      42.580  30.823  36.221  1.00  0.00     0.031 C 
ATOM     63  C   UNL A   1      42.889  29.357  34.246  1.00  0.00     0.037 A 
BRANCH  50  64
ATOM     64  C   UNL A   1      40.549  27.983  28.698  1.00  0.00     0.064 A 
ATOM     65  C   UNL A   1      41.302  28.334  27.568  1.00  0.00     0.173 A 
ATOM     66  C   UNL A   1      39.852  26.765  28.672  1.00  0.00     0.173 A 
ATOM     67  F   UNL A   1      41.974  29.494  27.538  1.00  0.00    -0.203 F 
ATOM     68  C   UNL A   1      41.333  27.512  26.444  1.00  0.00     0.198 A 
ATOM     69  C   UNL A   1      39.908  25.933  27.557  1.00  0.00     0.198 A 
ATOM     70  F   UNL A   1      39.120  26.382  29.728  1.00  0.00    -0.203 F 
ATOM     71  F   UNL A   1      42.018  27.892  25.358  1.00  0.00    -0.200 F 
ATOM     72  C   UNL A   1      40.642  26.309  26.442  1.00  0.00     0.200 A 
ATOM     73  F   UNL A   1      39.249  24.766  27.560  1.00  0.00    -0.200 F 
ATOM     74  F   UNL A   1      40.676  25.518  25.361  1.00  0.00    -0.200 F 
ENDBRANCH  50  64
BRANCH  51  75
ATOM     75  C   UNL A   1      39.659  33.822  36.751  1.00  0.00     0.064 A 
ATOM     76  C   UNL A   1      38.868  33.391  37.825  1.00  0.00     0.173 A 
ATOM     77  C   UNL A   1      40.297  35.065  36.866  1.00  0.00     0.173 A 
ATOM     78  F   UNL A   1      38.223  32.219  37.752  1.00  0.00    -0.203 F 
ATOM     79  C   UNL A   1      38.707  34.181  38.962  1.00  0.00     0.198 A 
ATOM     80  C   UNL A   1      40.156  35.842  38.014  1.00  0.00     0.198 A 
ATOM     81  F   UNL A   1      41.069  35.520  35.868  1.00  0.00    -0.203 F 
ATOM     82  F   UNL A   1      37.914  33.763  39.957  1.00  0.00    -0.200 F 
ATOM     83  C   UNL A   1      39.355  35.403  39.058  1.00  0.00     0.200 A 
ATOM     84  F   UNL A   1      40.792  37.018  38.108  1.00  0.00    -0.200 F 
ATOM     85  F   UNL A   1      39.203  36.159  40.153  1.00  0.00    -0.200 F 
ENDBRANCH  51  75
BRANCH  63  86
ATOM     86  C   UNL A   1      44.074  28.747  34.934  1.00  0.00     0.064 A 
ATOM     87  C   UNL A   1      45.354  29.305  34.824  1.00  0.00     0.173 A 
ATOM     88  C   UNL A   1      43.911  27.621  35.756  1.00  0.00     0.173 A 
ATOM     89  F   UNL A   1      45.561  30.373  34.038  1.00  0.00    -0.203 F 
ATOM     90  C   UNL A   1      46.435  28.749  35.504  1.00  0.00     0.198 A 
ATOM     91  C   UNL A   1      44.990  27.083  36.452  1.00  0.00     0.198 A 
ATOM     92  F   UNL A   1      42.704  27.054  35.895  1.00  0.00    -0.203 F 
ATOM     93  F   UNL A   1      47.659  29.278  35.358  1.00  0.00    -0.200 F 
ATOM     94  C   UNL A   1      46.251  27.645  36.321  1.00  0.00     0.200 A 
ATOM     95  F   UNL A   1      44.808  26.023  37.251  1.00  0.00    -0.200 F 
ATOM     96  F   UNL A   1      47.291  27.117  36.983  1.00  0.00    -0.200 F 
ENDBRANCH  63  86
ENDBRANCH  37  38
ENDBRANCH  29  32
ENDBRANCH  27  28
ENDBRANCH  26  27
ENDBRANCH   1  26
TORSDOF 13
ENDMDL
MODEL 3
REMARK VINA RESULT:     -13.1      0.761      7.360
REMARK SMILES Cc1nc(C(=O)N2C[C@@H]3CC[N@@H+](C)C[C@]3(C(=O)NCCCCNC(=O)c3ccc(-c4c5nc(c(-c6c(F)c(F)c(F)c(F)c6F)c6ccc([nH]6)c(-c6c(F)c(F)c(F)c(F)c6F)c6nc(c(-c7c(F)c(F)c(F)c(F)c7F)c7ccc4[nH]7)C=C6)C=C5)cc3)C2)cs1
REMARK SMILES IDX 20 1 19 2 18 3 16 4 17 5 15 7 7 8 8 9 89 10 9 11 10 12 14 13
REMARK SMILES IDX 11 14 12 15 13 16 5 18 6 19 4 20 1 21 2 22 3 23 91 24 90 25
REMARK SMILES IDX 21 26 22 27 23 28 24 29 25 31 26 32 27 33 88 34 28 35 87 36
REMARK SMILES IDX 29 37 30 38 31 39 81 40 32 41 86 42 80 43 82 44 33 45 85 46
REMARK SMILES IDX 79 47 78 48 34 50 66 51 46 52 65 53 47 54 50 55 64 56 83 57
REMARK SMILES IDX 48 58 49 59 63 61 84 62 51 63 35 64 36 65 44 66 37 67 38 68
REMARK SMILES IDX 42 69 45 70 39 71 40 72 43 73 41 74 67 75 68 76 76 77 69 78
REMARK SMILES IDX 70 79 74 80 77 81 71 82 72 83 75 84 73 85 52 86 53 87 61 88
REMARK SMILES IDX 54 89 55 90 59 91 62 92 56 93 57 94 60 95 58 96
REMARK H PARENT 18 6 12 17 23 30 82 49 50 60
REMARK Flexibility Score: inf
ROOT
ATOM      1  C   UNL A   1      32.344  30.076  26.979  1.00  0.00     0.023 C 
ENDROOT
BRANCH   1   2
ATOM      2  C   UNL A   1      31.769  29.143  25.909  1.00  0.00     0.116 C 
BRANCH   2   3
ATOM      3  N   UNL A   1      31.144  27.881  26.329  1.00  0.00    -0.355 N 
ATOM      4  C   UNL A   1      30.992  26.642  25.732  1.00  0.00     0.234 C 
ATOM      5  O   UNL A   1      30.913  25.676  26.496  1.00  0.00    -0.274 OA
ATOM      6  H   UNL A   1      30.746  27.926  27.228  1.00  0.00     0.163 HD
BRANCH   4   7
ATOM      7  C   UNL A   1      30.767  26.487  24.214  1.00  0.00     0.120 C 
ATOM      8  N   UNL A   1      29.109  27.884  23.158  1.00  0.00    -0.336 N 
ATOM      9  C   UNL A   1      30.279  28.136  22.395  1.00  0.00     0.125 C 
ATOM     10  C   UNL A   1      29.258  26.707  23.987  1.00  0.00     0.143 C 
ATOM     11  C   UNL A   1      31.409  27.562  23.254  1.00  0.00     0.037 C 
ATOM     12  C   UNL A   1      32.455  27.010  22.277  1.00  0.00     0.068 C 
ATOM     13  C   UNL A   1      31.383  25.107  23.856  1.00  0.00     0.281 C 
ATOM     14  C   UNL A   1      33.472  26.162  22.999  1.00  0.00     0.262 C 
ATOM     15  N   UNL A   1      32.858  25.037  23.708  1.00  0.00    -0.336 N 
ATOM     16  C   UNL A   1      33.589  24.795  24.953  1.00  0.00     0.332 C 
ATOM     17  H   UNL A   1      32.953  24.212  23.117  1.00  0.00     0.347 HD
BRANCH   8  18
ATOM     18  C   UNL A   1      28.048  28.763  23.125  1.00  0.00     0.273 C 
ATOM     19  O   UNL A   1      26.894  28.384  23.318  1.00  0.00    -0.267 OA
BRANCH  18  20
ATOM     20  C   UNL A   1      28.342  30.129  22.661  1.00  0.00     0.139 A 
ATOM     21  C   UNL A   1      27.737  32.704  20.125  1.00  0.00     0.079 C 
ATOM     22  C   UNL A   1      28.150  31.878  21.295  1.00  0.00     0.090 A 
ATOM     23  N   UNL A   1      28.036  30.568  21.367  1.00  0.00    -0.236 NA
ATOM     24  S   UNL A   1      28.778  32.643  22.699  1.00  0.00    -0.127 S 
ATOM     25  C   UNL A   1      28.789  31.132  23.504  1.00  0.00     0.101 A 
ENDBRANCH  18  20
ENDBRANCH   8  18
ENDBRANCH   4   7
ENDBRANCH   2   3
ENDBRANCH   1   2
BRANCH   1  26
ATOM     26  C   UNL A   1      31.959  31.553  26.855  1.00  0.00     0.023 C 
BRANCH  26  27
ATOM     27  C   UNL A   1      33.042  32.552  27.257  1.00  0.00     0.116 C 
BRANCH  27  28
ATOM     28  N   UNL A   1      32.544  33.876  27.603  1.00  0.00    -0.352 N 
ATOM     29  C   UNL A   1      33.036  34.761  28.541  1.00  0.00     0.251 C 
ATOM     30  H   UNL A   1      31.754  34.181  27.101  1.00  0.00     0.163 HD
ATOM     31  O   UNL A   1      32.483  35.824  28.745  1.00  0.00    -0.269 OA
BRANCH  29  32
ATOM     32  C   UNL A   1      34.217  34.366  29.341  1.00  0.00     0.039 A 
ATOM     33  C   UNL A   1      34.011  33.730  30.568  1.00  0.00     0.014 A 
ATOM     34  C   UNL A   1      35.509  34.567  28.854  1.00  0.00     0.014 A 
ATOM     35  C   UNL A   1      35.102  33.209  31.265  1.00  0.00     0.010 A 
ATOM     36  C   UNL A   1      36.587  33.987  29.513  1.00  0.00     0.010 A 
ATOM     37  C   UNL A   1      36.392  33.293  30.718  1.00  0.00    -0.014 A 
BRANCH  37  38
ATOM     38  C   UNL A   1      37.560  32.656  31.375  1.00  0.00     0.031 A 
ATOM     39  C   UNL A   1      38.263  31.514  30.702  1.00  0.00     0.074 A 
ATOM     40  C   UNL A   1      37.918  33.040  32.616  1.00  0.00     0.049 A 
ATOM     41  N   UNL A   1      39.206  30.733  31.164  1.00  0.00    -0.248 NA
ATOM     42  C   UNL A   1      37.820  31.181  29.338  1.00  0.00     0.031 C 
ATOM     43  C   UNL A   1      37.280  34.104  33.392  1.00  0.00     0.029 A 
ATOM     44  N   UNL A   1      38.896  32.560  33.452  1.00  0.00    -0.354 N 
ATOM     45  C   UNL A   1      39.449  29.805  30.161  1.00  0.00     0.074 A 
ATOM     46  C   UNL A   1      38.526  30.090  29.084  1.00  0.00     0.031 C 
ATOM     47  C   UNL A   1      37.890  34.205  34.584  1.00  0.00     0.029 A 
ATOM     48  C   UNL A   1      38.936  33.190  34.671  1.00  0.00     0.049 A 
ATOM     49  H   UNL A   1      39.511  31.833  33.200  1.00  0.00     0.167 HD
ATOM     50  C   UNL A   1      40.372  28.815  30.135  1.00  0.00     0.037 A 
ATOM     51  C   UNL A   1      39.720  32.964  35.742  1.00  0.00     0.037 A 
ATOM     52  C   UNL A   1      41.314  28.560  31.192  1.00  0.00     0.049 A 
ATOM     53  C   UNL A   1      40.753  31.873  35.679  1.00  0.00     0.074 A 
ATOM     54  C   UNL A   1      42.333  27.625  31.234  1.00  0.00     0.029 A 
ATOM     55  N   UNL A   1      41.356  29.253  32.394  1.00  0.00    -0.354 N 
ATOM     56  N   UNL A   1      41.014  31.038  34.703  1.00  0.00    -0.248 NA
ATOM     57  C   UNL A   1      41.606  31.696  36.864  1.00  0.00     0.031 C 
ATOM     58  C   UNL A   1      42.970  27.728  32.475  1.00  0.00     0.029 A 
ATOM     59  C   UNL A   1      42.375  28.756  33.189  1.00  0.00     0.049 A 
ATOM     60  H   UNL A   1      40.751  29.987  32.644  1.00  0.00     0.167 HD
ATOM     61  C   UNL A   1      42.076  30.258  35.141  1.00  0.00     0.074 A 
ATOM     62  C   UNL A   1      42.417  30.724  36.469  1.00  0.00     0.031 C 
ATOM     63  C   UNL A   1      42.710  29.248  34.500  1.00  0.00     0.037 A 
BRANCH  50  64
ATOM     64  C   UNL A   1      40.410  27.937  28.921  1.00  0.00     0.064 A 
ATOM     65  C   UNL A   1      39.654  26.757  28.843  1.00  0.00     0.173 A 
ATOM     66  C   UNL A   1      41.191  28.292  27.810  1.00  0.00     0.173 A 
ATOM     67  F   UNL A   1      38.903  26.367  29.883  1.00  0.00    -0.203 F 
ATOM     68  C   UNL A   1      39.701  25.950  27.709  1.00  0.00     0.198 A 
ATOM     69  C   UNL A   1      41.213  27.497  26.667  1.00  0.00     0.198 A 
ATOM     70  F   UNL A   1      41.928  29.412  27.832  1.00  0.00    -0.203 F 
ATOM     71  F   UNL A   1      39.011  24.802  27.677  1.00  0.00    -0.200 F 
ATOM     72  C   UNL A   1      40.475  26.324  26.620  1.00  0.00     0.200 A 
ATOM     73  F   UNL A   1      41.953  27.864  25.612  1.00  0.00    -0.200 F 
ATOM     74  F   UNL A   1      40.517  25.547  25.529  1.00  0.00    -0.200 F 
ENDBRANCH  50  64
BRANCH  51  75
ATOM     75  C   UNL A   1      39.577  33.808  36.957  1.00  0.00     0.064 A 
ATOM     76  C   UNL A   1      38.759  33.401  38.020  1.00  0.00     0.173 A 
ATOM     77  C   UNL A   1      40.250  35.031  37.080  1.00  0.00     0.173 A 
ATOM     78  F   UNL A   1      38.081  32.248  37.938  1.00  0.00    -0.203 F 
ATOM     79  C   UNL A   1      38.606  34.196  39.154  1.00  0.00     0.198 A 
ATOM     80  C   UNL A   1      40.115  35.814  38.226  1.00  0.00     0.198 A 
ATOM     81  F   UNL A   1      41.048  35.462  36.092  1.00  0.00    -0.203 F 
ATOM     82  F   UNL A   1      37.786  33.803  40.138  1.00  0.00    -0.200 F 
ATOM     83  C   UNL A   1      39.287  35.399  39.258  1.00  0.00     0.200 A 
ATOM     84  F   UNL A   1      40.784  36.970  38.328  1.00  0.00    -0.200 F 
ATOM     85  F   UNL A   1      39.141  36.161  40.351  1.00  0.00    -0.200 F 
ENDBRANCH  51  75
BRANCH  63  86
ATOM     86  C   UNL A   1      43.868  28.604  35.205  1.00  0.00     0.064 A 
ATOM     87  C   UNL A   1      45.164  29.129  35.118  1.00  0.00     0.173 A 
ATOM     88  C   UNL A   1      43.662  27.481  36.020  1.00  0.00     0.173 A 
ATOM     89  F   UNL A   1      45.411  30.193  34.339  1.00  0.00    -0.203 F 
ATOM     90  C   UNL A   1      46.219  28.542  35.813  1.00  0.00     0.198 A 
ATOM     91  C   UNL A   1      44.714  26.912  36.732  1.00  0.00     0.198 A 
ATOM     92  F   UNL A   1      42.438  26.945  36.138  1.00  0.00    -0.203 F 
ATOM     93  F   UNL A   1      47.458  29.038  35.689  1.00  0.00    -0.200 F 
ATOM     94  C   UNL A   1      45.992  27.440  36.624  1.00  0.00     0.200 A 
ATOM     95  F   UNL A   1      44.491  25.855  37.524  1.00  0.00    -0.200 F 
ATOM     96  F   UNL A   1      47.006  26.883  37.300  1.00  0.00    -0.200 F 
ENDBRANCH  63  86
ENDBRANCH  37  38
ENDBRANCH  29  32
ENDBRANCH  27  28
ENDBRANCH  26  27
ENDBRANCH   1  26
TORSDOF 13
ENDMDL
