MODEL 1
REMARK VINA RESULT:     -14.4      0.000      0.000
REMARK SMILES O=C(NCCCCNC(=O)[C@H]1[C@H]2CC[C@H](C2)[C@@H]1C(=O)Nc1sc2c(c1C(=O)NC1CCCCC1)CCCC2)c1ccc(-c2c3nc(c(-c4c(F)c(F)c(F)c(F)c4F)c4ccc([nH]4)c(-c4c(F)c(F)c(F)c(F)c4F)c4nc(c(-c5c(F)c(F)c(F)c(F)c5F)c5ccc2[nH]5)C=C4)C=C3)cc1
REMARK SMILES IDX 6 1 5 2 4 3 3 4 1 5 2 6 39 8 40 9 101 10 41 11 100 12 42 13
REMARK SMILES IDX 43 14 44 15 94 16 45 17 99 18 93 19 95 20 46 21 98 22 92 23
REMARK SMILES IDX 91 24 47 26 79 27 59 28 78 29 60 30 63 31 77 32 96 33 61 34
REMARK SMILES IDX 62 35 76 37 97 38 64 39 48 40 49 41 57 42 50 43 51 44 55 45
REMARK SMILES IDX 58 46 52 47 53 48 56 49 54 50 80 51 81 52 89 53 82 54 83 55
REMARK SMILES IDX 87 56 90 57 84 58 85 59 88 60 86 61 65 62 66 63 74 64 67 65
REMARK SMILES IDX 68 66 72 67 75 68 69 69 70 70 73 71 71 72 7 73 8 74 9 75
REMARK SMILES IDX 10 77 11 78 12 79 17 80 13 81 16 82 15 83 14 84 18 85 19 86
REMARK SMILES IDX 20 87 21 89 22 90 25 91 23 92 24 93 38 94 35 95 37 96 36 97
REMARK SMILES IDX 26 98 27 99 28 100 29 102 30 103 34 104 31 105 33 106 32 107
REMARK H PARENT 3 7 95 25 63 36 8 76 20 88 28 101
REMARK Flexibility Score: inf
ROOT
ATOM      1  C   UNL A   1      31.674  30.603  26.175  1.00  0.00     0.023 C 
ENDROOT
BRANCH   1   2
ATOM      2  C   UNL A   1      31.464  31.964  26.851  1.00  0.00     0.023 C 
BRANCH   2   3
ATOM      3  C   UNL A   1      32.731  32.790  27.040  1.00  0.00     0.116 C 
BRANCH   3   4
ATOM      4  N   UNL A   1      32.451  34.105  27.590  1.00  0.00    -0.352 N 
ATOM      5  O   UNL A   1      32.563  35.788  29.088  1.00  0.00    -0.269 OA
ATOM      6  C   UNL A   1      33.047  34.750  28.641  1.00  0.00     0.251 C 
ATOM      7  H   UNL A   1      31.729  34.604  27.143  1.00  0.00     0.163 HD
BRANCH   6   8
ATOM      8  C   UNL A   1      34.266  34.187  29.256  1.00  0.00     0.039 A 
ATOM      9  C   UNL A   1      35.536  34.562  28.807  1.00  0.00     0.014 A 
ATOM     10  C   UNL A   1      34.130  33.282  30.311  1.00  0.00     0.014 A 
ATOM     11  C   UNL A   1      36.668  33.948  29.336  1.00  0.00     0.010 A 
ATOM     12  C   UNL A   1      35.269  32.722  30.890  1.00  0.00     0.010 A 
ATOM     13  C   UNL A   1      36.545  33.032  30.391  1.00  0.00    -0.014 A 
BRANCH  13  14
ATOM     14  C   UNL A   1      37.752  32.432  31.012  1.00  0.00     0.031 A 
ATOM     15  C   UNL A   1      38.492  31.322  30.327  1.00  0.00     0.074 A 
ATOM     16  C   UNL A   1      38.147  32.861  32.225  1.00  0.00     0.049 A 
ATOM     17  N   UNL A   1      39.491  30.597  30.765  1.00  0.00    -0.248 NA
ATOM     18  C   UNL A   1      38.042  30.969  28.973  1.00  0.00     0.031 C 
ATOM     19  C   UNL A   1      37.506  33.934  32.986  1.00  0.00     0.029 A 
ATOM     20  N   UNL A   1      39.165  32.434  33.038  1.00  0.00    -0.354 N 
ATOM     21  C   UNL A   1      39.772  29.688  29.754  1.00  0.00     0.074 A 
ATOM     22  C   UNL A   1      38.821  29.935  28.691  1.00  0.00     0.031 C 
ATOM     23  C   UNL A   1      38.144  34.082  34.156  1.00  0.00     0.029 A 
ATOM     24  C   UNL A   1      39.194  33.072  34.253  1.00  0.00     0.049 A 
ATOM     25  H   UNL A   1      39.811  31.739  32.778  1.00  0.00     0.167 HD
ATOM     26  C   UNL A   1      40.739  28.738  29.720  1.00  0.00     0.037 A 
ATOM     27  C   UNL A   1      39.950  32.846  35.343  1.00  0.00     0.037 A 
ATOM     28  C   UNL A   1      41.678  28.504  30.788  1.00  0.00     0.049 A 
ATOM     29  C   UNL A   1      40.982  31.755  35.305  1.00  0.00     0.074 A 
ATOM     30  C   UNL A   1      42.721  27.595  30.837  1.00  0.00     0.029 A 
ATOM     31  N   UNL A   1      41.675  29.173  32.004  1.00  0.00    -0.354 N 
ATOM     32  N   UNL A   1      41.268  30.923  34.332  1.00  0.00    -0.248 NA
ATOM     33  C   UNL A   1      41.797  31.568  36.513  1.00  0.00     0.031 C 
ATOM     34  C   UNL A   1      43.304  27.666  32.106  1.00  0.00     0.029 A 
ATOM     35  C   UNL A   1      42.678  28.673  32.822  1.00  0.00     0.049 A 
ATOM     36  H   UNL A   1      41.054  29.896  32.250  1.00  0.00     0.167 HD
ATOM     37  C   UNL A   1      42.315  30.138  34.795  1.00  0.00     0.074 A 
ATOM     38  C   UNL A   1      42.613  30.591  36.138  1.00  0.00     0.031 C 
ATOM     39  C   UNL A   1      42.973  29.141  34.156  1.00  0.00     0.037 A 
BRANCH  26  40
ATOM     40  C   UNL A   1      40.798  27.853  28.505  1.00  0.00     0.064 A 
ATOM     41  C   UNL A   1      40.121  26.625  28.443  1.00  0.00     0.173 A 
ATOM     42  C   UNL A   1      41.541  28.245  27.381  1.00  0.00     0.173 A 
ATOM     43  F   UNL A   1      39.400  26.199  29.491  1.00  0.00    -0.203 F 
ATOM     44  C   UNL A   1      40.225  25.803  27.323  1.00  0.00     0.198 A 
ATOM     45  C   UNL A   1      41.612  27.438  26.248  1.00  0.00     0.198 A 
ATOM     46  F   UNL A   1      42.199  29.414  27.377  1.00  0.00    -0.203 F 
ATOM     47  F   UNL A   1      39.625  24.605  27.316  1.00  0.00    -0.200 F 
ATOM     48  C   UNL A   1      40.967  26.212  26.226  1.00  0.00     0.200 A 
ATOM     49  F   UNL A   1      42.314  27.844  25.181  1.00  0.00    -0.200 F 
ATOM     50  F   UNL A   1      41.068  25.419  25.150  1.00  0.00    -0.200 F 
ENDBRANCH  26  40
BRANCH  27  51
ATOM     51  C   UNL A   1      39.737  33.674  36.556  1.00  0.00     0.064 A 
ATOM     52  C   UNL A   1      40.335  34.933  36.686  1.00  0.00     0.173 A 
ATOM     53  C   UNL A   1      38.881  33.247  37.584  1.00  0.00     0.173 A 
ATOM     54  F   UNL A   1      41.171  35.378  35.737  1.00  0.00    -0.203 F 
ATOM     55  C   UNL A   1      40.089  35.734  37.799  1.00  0.00     0.198 A 
ATOM     56  C   UNL A   1      38.613  34.060  38.682  1.00  0.00     0.198 A 
ATOM     57  F   UNL A   1      38.277  32.052  37.501  1.00  0.00    -0.203 F 
ATOM     58  F   UNL A   1      40.692  36.925  37.911  1.00  0.00    -0.200 F 
ATOM     59  C   UNL A   1      39.220  35.301  38.791  1.00  0.00     0.200 A 
ATOM     60  F   UNL A   1      37.756  33.647  39.626  1.00  0.00    -0.200 F 
ATOM     61  F   UNL A   1      38.967  36.081  39.850  1.00  0.00    -0.200 F 
ENDBRANCH  27  51
BRANCH  39  62
ATOM     62  C   UNL A   1      44.127  28.498  34.870  1.00  0.00     0.064 A 
ATOM     63  C   UNL A   1      43.975  27.325  35.623  1.00  0.00     0.173 A 
ATOM     64  C   UNL A   1      45.421  29.024  34.727  1.00  0.00     0.173 A 
ATOM     65  F   UNL A   1      42.758  26.792  35.806  1.00  0.00    -0.203 F 
ATOM     66  C   UNL A   1      45.075  26.708  36.213  1.00  0.00     0.198 A 
ATOM     67  C   UNL A   1      46.521  28.388  35.291  1.00  0.00     0.198 A 
ATOM     68  F   UNL A   1      45.620  30.143  34.013  1.00  0.00    -0.203 F 
ATOM     69  F   UNL A   1      44.904  25.606  36.957  1.00  0.00    -0.200 F 
ATOM     70  C   UNL A   1      46.347  27.231  36.037  1.00  0.00     0.200 A 
ATOM     71  F   UNL A   1      47.752  28.886  35.106  1.00  0.00    -0.200 F 
ATOM     72  F   UNL A   1      47.407  26.622  36.587  1.00  0.00    -0.200 F 
ENDBRANCH  39  62
ENDBRANCH  13  14
ENDBRANCH   6   8
ENDBRANCH   3   4
ENDBRANCH   2   3
ENDBRANCH   1   2
BRANCH   1  73
ATOM     73  C   UNL A   1      31.792  29.426  27.141  1.00  0.00     0.116 C 
BRANCH  73  74
ATOM     74  N   UNL A   1      32.786  28.483  26.679  1.00  0.00    -0.356 N 
ATOM     75  C   UNL A   1      32.661  27.271  26.091  1.00  0.00     0.224 C 
ATOM     76  H   UNL A   1      33.716  28.773  26.817  1.00  0.00     0.163 HD
ATOM     77  O   UNL A   1      33.712  26.694  25.813  1.00  0.00    -0.275 OA
BRANCH  75  78
ATOM     78  C   UNL A   1      31.287  26.725  25.736  1.00  0.00     0.094 C 
ATOM     79  C   UNL A   1      30.650  27.547  24.571  1.00  0.00     0.002 C 
ATOM     80  C   UNL A   1      31.241  25.276  25.191  1.00  0.00     0.094 C 
ATOM     81  C   UNL A   1      31.390  27.457  23.221  1.00  0.00     0.005 C 
ATOM     82  C   UNL A   1      29.469  26.654  24.256  1.00  0.00     0.009 C 
ATOM     83  C   UNL A   1      30.343  25.426  23.945  1.00  0.00     0.002 C 
ATOM     84  C   UNL A   1      31.204  25.994  22.801  1.00  0.00     0.005 C 
BRANCH  80  85
ATOM     85  C   UNL A   1      30.920  24.157  26.208  1.00  0.00     0.229 C 
ATOM     86  O   UNL A   1      29.809  24.204  26.764  1.00  0.00    -0.274 OA
ATOM     87  N   UNL A   1      31.635  23.024  26.445  1.00  0.00    -0.317 N 
ATOM     88  H   UNL A   1      31.133  22.319  26.914  1.00  0.00     0.170 HD
BRANCH  87  89
ATOM     89  C   UNL A   1      32.933  22.687  26.147  1.00  0.00     0.108 A 
ATOM     90  S   UNL A   1      34.085  22.822  27.387  1.00  0.00    -0.122 S 
ATOM     91  C   UNL A   1      33.420  21.952  25.060  1.00  0.00     0.078 A 
ATOM     92  C   UNL A   1      35.313  22.656  26.237  1.00  0.00     0.011 A 
ATOM     93  C   UNL A   1      34.882  21.926  25.138  1.00  0.00    -0.019 A 
ATOM     94  C   UNL A   1      36.681  23.225  26.443  1.00  0.00     0.047 C 
ATOM     95  C   UNL A   1      35.908  21.357  24.199  1.00  0.00     0.037 C 
ATOM     96  C   UNL A   1      37.418  23.212  25.099  1.00  0.00     0.006 C 
ATOM     97  C   UNL A   1      37.354  21.802  24.505  1.00  0.00     0.005 C 
BRANCH  91  98
ATOM     98  C   UNL A   1      32.435  21.421  24.105  1.00  0.00     0.254 C 
ATOM     99  O   UNL A   1      31.629  22.190  23.571  1.00  0.00    -0.269 OA
ATOM    100  N   UNL A   1      32.398  20.134  23.633  1.00  0.00    -0.349 N 
ATOM    101  H   UNL A   1      31.782  20.029  22.872  1.00  0.00     0.164 HD
BRANCH 100 102
ATOM    102  C   UNL A   1      33.053  18.889  23.995  1.00  0.00     0.082 C 
ATOM    103  C   UNL A   1      32.435  18.287  25.274  1.00  0.00     0.025 C 
ATOM    104  C   UNL A   1      33.006  17.811  22.906  1.00  0.00     0.025 C 
ATOM    105  C   UNL A   1      33.191  17.032  25.727  1.00  0.00     0.002 C 
ATOM    106  C   UNL A   1      33.903  16.644  23.322  1.00  0.00     0.002 C 
ATOM    107  C   UNL A   1      33.396  16.008  24.609  1.00  0.00     0.000 C 
ENDBRANCH 100 102
ENDBRANCH  91  98
ENDBRANCH  87  89
ENDBRANCH  80  85
ENDBRANCH  75  78
ENDBRANCH  73  74
ENDBRANCH   1  73
TORSDOF 15
ENDMDL
MODEL 2
REMARK VINA RESULT:     -13.7      0.420      6.973
REMARK SMILES O=C(NCCCCNC(=O)[C@H]1[C@H]2CC[C@H](C2)[C@@H]1C(=O)Nc1sc2c(c1C(=O)NC1CCCCC1)CCCC2)c1ccc(-c2c3nc(c(-c4c(F)c(F)c(F)c(F)c4F)c4ccc([nH]4)c(-c4c(F)c(F)c(F)c(F)c4F)c4nc(c(-c5c(F)c(F)c(F)c(F)c5F)c5ccc2[nH]5)C=C4)C=C3)cc1
REMARK SMILES IDX 6 1 5 2 4 3 3 4 1 5 2 6 39 8 40 9 101 10 41 11 100 12 42 13
REMARK SMILES IDX 43 14 44 15 94 16 45 17 99 18 93 19 95 20 46 21 98 22 92 23
REMARK SMILES IDX 91 24 47 26 79 27 59 28 78 29 60 30 63 31 77 32 96 33 61 34
REMARK SMILES IDX 62 35 76 37 97 38 64 39 48 40 49 41 57 42 50 43 51 44 55 45
REMARK SMILES IDX 58 46 52 47 53 48 56 49 54 50 80 51 81 52 89 53 82 54 83 55
REMARK SMILES IDX 87 56 90 57 84 58 85 59 88 60 86 61 65 62 66 63 74 64 67 65
REMARK SMILES IDX 68 66 72 67 75 68 69 69 70 70 73 71 71 72 7 73 8 74 9 75
REMARK SMILES IDX 10 77 11 78 12 79 17 80 13 81 16 82 15 83 14 84 18 85 19 86
REMARK SMILES IDX 20 87 21 89 22 90 25 91 23 92 24 93 38 94 35 95 37 96 36 97
REMARK SMILES IDX 26 98 27 99 28 100 29 102 30 103 34 104 31 105 33 106 32 107
REMARK H PARENT 3 7 95 25 63 36 8 76 20 88 28 101
REMARK Flexibility Score: inf
ROOT
ATOM      1  C   UNL A   1      31.562  30.718  26.129  1.00  0.00     0.023 C 
ENDROOT
BRANCH   1   2
ATOM      2  C   UNL A   1      31.451  32.068  26.849  1.00  0.00     0.023 C 
BRANCH   2   3
ATOM      3  C   UNL A   1      32.752  32.857  26.939  1.00  0.00     0.116 C 
BRANCH   3   4
ATOM      4  N   UNL A   1      32.572  34.139  27.599  1.00  0.00    -0.352 N 
ATOM      5  O   UNL A   1      32.767  35.658  29.255  1.00  0.00    -0.269 OA
ATOM      6  C   UNL A   1      33.171  34.621  28.733  1.00  0.00     0.251 C 
ATOM      7  H   UNL A   1      31.927  34.747  27.171  1.00  0.00     0.163 HD
BRANCH   6   8
ATOM      8  C   UNL A   1      34.295  33.884  29.343  1.00  0.00     0.039 A 
ATOM      9  C   UNL A   1      34.067  32.884  30.294  1.00  0.00     0.014 A 
ATOM     10  C   UNL A   1      35.597  34.189  28.941  1.00  0.00     0.014 A 
ATOM     11  C   UNL A   1      35.144  32.269  30.926  1.00  0.00     0.010 A 
ATOM     12  C   UNL A   1      36.674  33.520  29.522  1.00  0.00     0.010 A 
ATOM     13  C   UNL A   1      36.457  32.572  30.536  1.00  0.00    -0.014 A 
BRANCH  13  14
ATOM     14  C   UNL A   1      37.607  31.863  31.150  1.00  0.00     0.031 A 
ATOM     15  C   UNL A   1      38.117  32.263  32.503  1.00  0.00     0.074 A 
ATOM     16  C   UNL A   1      38.224  30.890  30.455  1.00  0.00     0.049 A 
ATOM     17  N   UNL A   1      39.177  31.844  33.147  1.00  0.00    -0.248 NA
ATOM     18  C   UNL A   1      37.338  33.280  33.224  1.00  0.00     0.031 C 
ATOM     19  C   UNL A   1      37.818  30.416  29.132  1.00  0.00     0.029 A 
ATOM     20  N   UNL A   1      39.333  30.141  30.754  1.00  0.00    -0.354 N 
ATOM     21  C   UNL A   1      39.208  32.560  34.336  1.00  0.00     0.074 A 
ATOM     22  C   UNL A   1      38.075  33.461  34.311  1.00  0.00     0.031 C 
ATOM     23  C   UNL A   1      38.664  29.457  28.731  1.00  0.00     0.029 A 
ATOM     24  C   UNL A   1      39.708  29.297  29.739  1.00  0.00     0.049 A 
ATOM     25  H   UNL A   1      39.812  30.201  31.611  1.00  0.00     0.167 HD
ATOM     26  C   UNL A   1      40.101  32.470  35.351  1.00  0.00     0.037 A 
ATOM     27  C   UNL A   1      40.794  28.512  29.610  1.00  0.00     0.037 A 
ATOM     28  C   UNL A   1      41.225  31.568  35.360  1.00  0.00     0.049 A 
ATOM     29  C   UNL A   1      41.800  28.463  30.724  1.00  0.00     0.074 A 
ATOM     30  C   UNL A   1      42.165  31.369  36.356  1.00  0.00     0.029 A 
ATOM     31  N   UNL A   1      41.572  30.727  34.311  1.00  0.00    -0.354 N 
ATOM     32  N   UNL A   1      41.803  29.116  31.862  1.00  0.00    -0.248 NA
ATOM     33  C   UNL A   1      42.951  27.570  30.542  1.00  0.00     0.031 C 
ATOM     34  C   UNL A   1      43.117  30.460  35.884  1.00  0.00     0.029 A 
ATOM     35  C   UNL A   1      42.730  30.032  34.624  1.00  0.00     0.049 A 
ATOM     36  H   UNL A   1      41.070  30.636  33.469  1.00  0.00     0.167 HD
ATOM     37  C   UNL A   1      42.934  28.690  32.544  1.00  0.00     0.074 A 
ATOM     38  C   UNL A   1      43.596  27.723  31.691  1.00  0.00     0.031 C 
ATOM     39  C   UNL A   1      43.375  29.062  33.771  1.00  0.00     0.037 A 
BRANCH  26  40
ATOM     40  C   UNL A   1      39.920  33.402  36.518  1.00  0.00     0.064 A 
ATOM     41  C   UNL A   1      40.613  34.618  36.615  1.00  0.00     0.173 A 
ATOM     42  C   UNL A   1      39.032  33.073  37.554  1.00  0.00     0.173 A 
ATOM     43  F   UNL A   1      41.478  34.981  35.656  1.00  0.00    -0.203 F 
ATOM     44  C   UNL A   1      40.460  35.446  37.726  1.00  0.00     0.198 A 
ATOM     45  C   UNL A   1      38.853  33.921  38.645  1.00  0.00     0.198 A 
ATOM     46  F   UNL A   1      38.332  31.929  37.510  1.00  0.00    -0.203 F 
ATOM     47  F   UNL A   1      41.185  36.568  37.827  1.00  0.00    -0.200 F 
ATOM     48  C   UNL A   1      39.578  35.098  38.737  1.00  0.00     0.200 A 
ATOM     49  F   UNL A   1      37.986  33.591  39.612  1.00  0.00    -0.200 F 
ATOM     50  F   UNL A   1      39.434  35.893  39.806  1.00  0.00    -0.200 F 
ENDBRANCH  26  40
BRANCH  27  51
ATOM     51  C   UNL A   1      40.973  27.725  28.364  1.00  0.00     0.064 A 
ATOM     52  C   UNL A   1      41.745  28.215  27.304  1.00  0.00     0.173 A 
ATOM     53  C   UNL A   1      40.424  26.439  28.234  1.00  0.00     0.173 A 
ATOM     54  F   UNL A   1      42.279  29.443  27.377  1.00  0.00    -0.203 F 
ATOM     55  C   UNL A   1      41.959  27.451  26.158  1.00  0.00     0.198 A 
ATOM     56  C   UNL A   1      40.662  25.666  27.101  1.00  0.00     0.198 A 
ATOM     57  F   UNL A   1      39.684  25.922  29.226  1.00  0.00    -0.203 F 
ATOM     58  F   UNL A   1      42.681  27.953  25.148  1.00  0.00    -0.200 F 
ATOM     59  C   UNL A   1      41.426  26.174  26.062  1.00  0.00     0.200 A 
ATOM     60  F   UNL A   1      40.164  24.424  27.022  1.00  0.00    -0.200 F 
ATOM     61  F   UNL A   1      41.651  25.433  24.969  1.00  0.00    -0.200 F 
ENDBRANCH  27  51
BRANCH  39  62
ATOM     62  C   UNL A   1      44.603  28.384  34.305  1.00  0.00     0.064 A 
ATOM     63  C   UNL A   1      45.882  28.941  34.162  1.00  0.00     0.173 A 
ATOM     64  C   UNL A   1      44.483  27.197  35.045  1.00  0.00     0.173 A 
ATOM     65  F   UNL A   1      46.053  30.065  33.449  1.00  0.00    -0.203 F 
ATOM     66  C   UNL A   1      46.995  28.330  34.732  1.00  0.00     0.198 A 
ATOM     67  C   UNL A   1      45.593  26.606  35.639  1.00  0.00     0.198 A 
ATOM     68  F   UNL A   1      43.281  26.625  35.213  1.00  0.00    -0.203 F 
ATOM     69  F   UNL A   1      48.213  28.862  34.556  1.00  0.00    -0.200 F 
ATOM     70  C   UNL A   1      46.849  27.171  35.480  1.00  0.00     0.200 A 
ATOM     71  F   UNL A   1      45.447  25.495  36.375  1.00  0.00    -0.200 F 
ATOM     72  F   UNL A   1      47.919  26.598  36.047  1.00  0.00    -0.200 F 
ENDBRANCH  39  62
ENDBRANCH  13  14
ENDBRANCH   6   8
ENDBRANCH   3   4
ENDBRANCH   2   3
ENDBRANCH   1   2
BRANCH   1  73
ATOM     73  C   UNL A   1      31.716  29.516  27.057  1.00  0.00     0.116 C 
BRANCH  73  74
ATOM     74  N   UNL A   1      32.730  28.612  26.560  1.00  0.00    -0.356 N 
ATOM     75  C   UNL A   1      32.632  27.405  25.955  1.00  0.00     0.224 C 
ATOM     76  H   UNL A   1      33.653  28.931  26.682  1.00  0.00     0.163 HD
ATOM     77  O   UNL A   1      33.695  26.868  25.647  1.00  0.00    -0.275 OA
BRANCH  75  78
ATOM     78  C   UNL A   1      31.269  26.820  25.623  1.00  0.00     0.094 C 
ATOM     79  C   UNL A   1      30.614  27.588  24.431  1.00  0.00     0.002 C 
ATOM     80  C   UNL A   1      31.252  25.352  25.128  1.00  0.00     0.094 C 
ATOM     81  C   UNL A   1      31.355  27.467  23.084  1.00  0.00     0.005 C 
ATOM     82  C   UNL A   1      29.451  26.660  24.148  1.00  0.00     0.009 C 
ATOM     83  C   UNL A   1      30.350  25.441  23.879  1.00  0.00     0.002 C 
ATOM     84  C   UNL A   1      31.198  25.987  22.714  1.00  0.00     0.005 C 
BRANCH  80  85
ATOM     85  C   UNL A   1      30.955  24.262  26.183  1.00  0.00     0.229 C 
ATOM     86  O   UNL A   1      29.859  24.326  26.764  1.00  0.00    -0.274 OA
ATOM     87  N   UNL A   1      31.676  23.135  26.433  1.00  0.00    -0.317 N 
ATOM     88  H   UNL A   1      31.184  22.445  26.934  1.00  0.00     0.170 HD
BRANCH  87  89
ATOM     89  C   UNL A   1      32.965  22.788  26.113  1.00  0.00     0.108 A 
ATOM     90  S   UNL A   1      34.148  22.957  27.321  1.00  0.00    -0.122 S 
ATOM     91  C   UNL A   1      33.424  22.022  25.036  1.00  0.00     0.078 A 
ATOM     92  C   UNL A   1      35.347  22.757  26.145  1.00  0.00     0.011 A 
ATOM     93  C   UNL A   1      34.888  21.997  25.079  1.00  0.00    -0.019 A 
ATOM     94  C   UNL A   1      36.719  23.329  26.301  1.00  0.00     0.047 C 
ATOM     95  C   UNL A   1      35.891  21.400  24.131  1.00  0.00     0.037 C 
ATOM     96  C   UNL A   1      37.424  23.277  24.941  1.00  0.00     0.006 C 
ATOM     97  C   UNL A   1      37.344  21.851  24.389  1.00  0.00     0.005 C 
BRANCH  91  98
ATOM     98  C   UNL A   1      32.416  21.466  24.121  1.00  0.00     0.254 C 
ATOM     99  O   UNL A   1      31.592  22.219  23.591  1.00  0.00    -0.269 OA
ATOM    100  N   UNL A   1      32.371  20.168  23.680  1.00  0.00    -0.349 N 
ATOM    101  H   UNL A   1      31.735  20.044  22.939  1.00  0.00     0.164 HD
BRANCH 100 102
ATOM    102  C   UNL A   1      33.041  18.934  24.052  1.00  0.00     0.082 C 
ATOM    103  C   UNL A   1      32.345  18.265  25.256  1.00  0.00     0.025 C 
ATOM    104  C   UNL A   1      33.121  17.895  22.928  1.00  0.00     0.025 C 
ATOM    105  C   UNL A   1      33.108  17.022  25.727  1.00  0.00     0.002 C 
ATOM    106  C   UNL A   1      34.025  16.745  23.376  1.00  0.00     0.002 C 
ATOM    107  C   UNL A   1      33.440  16.046  24.596  1.00  0.00     0.000 C 
ENDBRANCH 100 102
ENDBRANCH  91  98
ENDBRANCH  87  89
ENDBRANCH  80  85
ENDBRANCH  75  78
ENDBRANCH  73  74
ENDBRANCH   1  73
TORSDOF 15
ENDMDL
MODEL 3
REMARK VINA RESULT:     -13.5      0.700      2.011
REMARK SMILES O=C(NCCCCNC(=O)[C@H]1[C@H]2CC[C@H](C2)[C@@H]1C(=O)Nc1sc2c(c1C(=O)NC1CCCCC1)CCCC2)c1ccc(-c2c3nc(c(-c4c(F)c(F)c(F)c(F)c4F)c4ccc([nH]4)c(-c4c(F)c(F)c(F)c(F)c4F)c4nc(c(-c5c(F)c(F)c(F)c(F)c5F)c5ccc2[nH]5)C=C4)C=C3)cc1
REMARK SMILES IDX 6 1 5 2 4 3 3 4 1 5 2 6 39 8 40 9 101 10 41 11 100 12 42 13
REMARK SMILES IDX 43 14 44 15 94 16 45 17 99 18 93 19 95 20 46 21 98 22 92 23
REMARK SMILES IDX 91 24 47 26 79 27 59 28 78 29 60 30 63 31 77 32 96 33 61 34
REMARK SMILES IDX 62 35 76 37 97 38 64 39 48 40 49 41 57 42 50 43 51 44 55 45
REMARK SMILES IDX 58 46 52 47 53 48 56 49 54 50 80 51 81 52 89 53 82 54 83 55
REMARK SMILES IDX 87 56 90 57 84 58 85 59 88 60 86 61 65 62 66 63 74 64 67 65
REMARK SMILES IDX 68 66 72 67 75 68 69 69 70 70 73 71 71 72 7 73 8 74 9 75
REMARK SMILES IDX 10 77 11 78 12 79 17 80 13 81 16 82 15 83 14 84 18 85 19 86
REMARK SMILES IDX 20 87 21 89 22 90 25 91 23 92 24 93 38 94 35 95 37 96 36 97
REMARK SMILES IDX 26 98 27 99 28 100 29 102 30 103 34 104 31 105 33 106 32 107
REMARK H PARENT 3 7 95 25 63 36 8 76 20 88 28 101
REMARK Flexibility Score: inf
ROOT
ATOM      1  C   UNL A   1      30.819  31.836  25.598  1.00  0.00     0.023 C 
ENDROOT
BRANCH   1   2
ATOM      2  C   UNL A   1      31.403  31.956  27.011  1.00  0.00     0.023 C 
BRANCH   2   3
ATOM      3  C   UNL A   1      32.672  32.795  27.113  1.00  0.00     0.116 C 
BRANCH   3   4
ATOM      4  N   UNL A   1      32.408  34.129  27.626  1.00  0.00    -0.352 N 
ATOM      5  O   UNL A   1      32.528  35.846  29.083  1.00  0.00    -0.269 OA
ATOM      6  C   UNL A   1      32.999  34.788  28.671  1.00  0.00     0.251 C 
ATOM      7  H   UNL A   1      31.703  34.630  27.155  1.00  0.00     0.163 HD
BRANCH   6   8
ATOM      8  C   UNL A   1      34.197  34.218  29.319  1.00  0.00     0.039 A 
ATOM      9  C   UNL A   1      35.481  34.534  28.863  1.00  0.00     0.014 A 
ATOM     10  C   UNL A   1      34.028  33.368  30.414  1.00  0.00     0.014 A 
ATOM     11  C   UNL A   1      36.590  33.912  29.427  1.00  0.00     0.010 A 
ATOM     12  C   UNL A   1      35.146  32.801  31.026  1.00  0.00     0.010 A 
ATOM     13  C   UNL A   1      36.434  33.050  30.522  1.00  0.00    -0.014 A 
BRANCH  13  14
ATOM     14  C   UNL A   1      37.619  32.444  31.179  1.00  0.00     0.031 A 
ATOM     15  C   UNL A   1      38.341  31.294  30.541  1.00  0.00     0.074 A 
ATOM     16  C   UNL A   1      38.008  32.904  32.382  1.00  0.00     0.049 A 
ATOM     17  N   UNL A   1      39.318  30.562  31.016  1.00  0.00    -0.248 NA
ATOM     18  C   UNL A   1      37.900  30.907  29.193  1.00  0.00     0.031 C 
ATOM     19  C   UNL A   1      37.383  34.016  33.099  1.00  0.00     0.029 A 
ATOM     20  N   UNL A   1      39.006  32.481  33.223  1.00  0.00    -0.354 N 
ATOM     21  C   UNL A   1      39.590  29.614  30.039  1.00  0.00     0.074 A 
ATOM     22  C   UNL A   1      38.658  29.847  28.956  1.00  0.00     0.031 C 
ATOM     23  C   UNL A   1      38.010  34.189  34.271  1.00  0.00     0.029 A 
ATOM     24  C   UNL A   1      39.034  33.159  34.416  1.00  0.00     0.049 A 
ATOM     25  H   UNL A   1      39.639  31.764  32.994  1.00  0.00     0.167 HD
ATOM     26  C   UNL A   1      40.534  28.641  30.050  1.00  0.00     0.037 A 
ATOM     27  C   UNL A   1      39.772  32.952  35.522  1.00  0.00     0.037 A 
ATOM     28  C   UNL A   1      41.454  28.421  31.137  1.00  0.00     0.049 A 
ATOM     29  C   UNL A   1      40.778  31.837  35.535  1.00  0.00     0.074 A 
ATOM     30  C   UNL A   1      42.475  27.491  31.230  1.00  0.00     0.029 A 
ATOM     31  N   UNL A   1      41.453  29.131  32.331  1.00  0.00    -0.354 N 
ATOM     32  N   UNL A   1      41.057  30.967  34.594  1.00  0.00    -0.248 NA
ATOM     33  C   UNL A   1      41.573  31.672  36.758  1.00  0.00     0.031 C 
ATOM     34  C   UNL A   1      43.044  27.592  32.503  1.00  0.00     0.029 A 
ATOM     35  C   UNL A   1      42.433  28.636  33.178  1.00  0.00     0.049 A 
ATOM     36  H   UNL A   1      40.845  29.876  32.544  1.00  0.00     0.167 HD
ATOM     37  C   UNL A   1      42.079  30.174  35.096  1.00  0.00     0.074 A 
ATOM     38  C   UNL A   1      42.371  30.665  36.427  1.00  0.00     0.031 C 
ATOM     39  C   UNL A   1      42.722  29.141  34.499  1.00  0.00     0.037 A 
BRANCH  26  40
ATOM     40  C   UNL A   1      40.589  27.715  28.866  1.00  0.00     0.064 A 
ATOM     41  C   UNL A   1      41.417  27.965  27.761  1.00  0.00     0.173 A 
ATOM     42  C   UNL A   1      39.803  26.552  28.842  1.00  0.00     0.173 A 
ATOM     43  F   UNL A   1      42.186  29.064  27.729  1.00  0.00    -0.203 F 
ATOM     44  C   UNL A   1      41.419  27.113  26.658  1.00  0.00     0.198 A 
ATOM     45  C   UNL A   1      39.836  25.683  27.754  1.00  0.00     0.198 A 
ATOM     46  F   UNL A   1      39.001  26.254  29.876  1.00  0.00    -0.203 F 
ATOM     47  F   UNL A   1      42.167  27.411  25.587  1.00  0.00    -0.200 F 
ATOM     48  C   UNL A   1      40.632  25.973  26.657  1.00  0.00     0.200 A 
ATOM     49  F   UNL A   1      39.089  24.571  27.764  1.00  0.00    -0.200 F 
ATOM     50  F   UNL A   1      40.633  25.156  25.595  1.00  0.00    -0.200 F 
ENDBRANCH  26  40
BRANCH  27  51
ATOM     51  C   UNL A   1      39.562  33.824  36.704  1.00  0.00     0.064 A 
ATOM     52  C   UNL A   1      38.740  33.421  37.764  1.00  0.00     0.173 A 
ATOM     53  C   UNL A   1      40.228  35.055  36.825  1.00  0.00     0.173 A 
ATOM     54  F   UNL A   1      38.073  32.260  37.689  1.00  0.00    -0.203 F 
ATOM     55  C   UNL A   1      38.589  34.215  38.899  1.00  0.00     0.198 A 
ATOM     56  C   UNL A   1      40.098  35.834  37.971  1.00  0.00     0.198 A 
ATOM     57  F   UNL A   1      41.033  35.480  35.841  1.00  0.00    -0.203 F 
ATOM     58  F   UNL A   1      37.778  33.818  39.888  1.00  0.00    -0.200 F 
ATOM     59  C   UNL A   1      39.276  35.416  39.005  1.00  0.00     0.200 A 
ATOM     60  F   UNL A   1      40.781  36.982  38.079  1.00  0.00    -0.200 F 
ATOM     61  F   UNL A   1      39.147  36.168  40.106  1.00  0.00    -0.200 F 
ENDBRANCH  27  51
BRANCH  39  62
ATOM     62  C   UNL A   1      43.851  28.496  35.249  1.00  0.00     0.064 A 
ATOM     63  C   UNL A   1      45.164  28.986  35.184  1.00  0.00     0.173 A 
ATOM     64  C   UNL A   1      43.595  27.419  36.113  1.00  0.00     0.173 A 
ATOM     65  F   UNL A   1      45.465  30.002  34.361  1.00  0.00    -0.203 F 
ATOM     66  C   UNL A   1      46.178  28.416  35.948  1.00  0.00     0.198 A 
ATOM     67  C   UNL A   1      44.604  26.873  36.898  1.00  0.00     0.198 A 
ATOM     68  F   UNL A   1      42.356  26.915  36.214  1.00  0.00    -0.203 F 
ATOM     69  F   UNL A   1      47.433  28.878  35.847  1.00  0.00    -0.200 F 
ATOM     70  C   UNL A   1      45.896  27.369  36.814  1.00  0.00     0.200 A 
ATOM     71  F   UNL A   1      44.326  25.872  37.745  1.00  0.00    -0.200 F 
ATOM     72  F   UNL A   1      46.870  26.838  37.565  1.00  0.00    -0.200 F 
ENDBRANCH  39  62
ENDBRANCH  13  14
ENDBRANCH   6   8
ENDBRANCH   3   4
ENDBRANCH   2   3
ENDBRANCH   1   2
BRANCH   1  73
ATOM     73  C   UNL A   1      30.887  30.433  25.001  1.00  0.00     0.116 C 
BRANCH  73  74
ATOM     74  N   UNL A   1      31.840  29.616  25.721  1.00  0.00    -0.356 N 
ATOM     75  C   UNL A   1      32.160  28.306  25.606  1.00  0.00     0.224 C 
ATOM     76  H   UNL A   1      32.343  30.098  26.416  1.00  0.00     0.163 HD
ATOM     77  O   UNL A   1      33.023  27.892  26.379  1.00  0.00    -0.275 OA
BRANCH  75  78
ATOM     78  C   UNL A   1      31.527  27.452  24.519  1.00  0.00     0.094 C 
ATOM     79  C   UNL A   1      31.833  28.041  23.106  1.00  0.00     0.002 C 
ATOM     80  C   UNL A   1      32.044  25.997  24.398  1.00  0.00     0.094 C 
ATOM     81  C   UNL A   1      33.321  28.032  22.697  1.00  0.00     0.005 C 
ATOM     82  C   UNL A   1      31.344  26.892  22.248  1.00  0.00     0.009 C 
ATOM     83  C   UNL A   1      32.303  25.869  22.882  1.00  0.00     0.002 C 
ATOM     84  C   UNL A   1      33.653  26.540  22.569  1.00  0.00     0.005 C 
BRANCH  80  85
ATOM     85  C   UNL A   1      31.217  24.900  25.106  1.00  0.00     0.229 C 
ATOM     86  O   UNL A   1      30.012  25.138  25.294  1.00  0.00    -0.274 OA
ATOM     87  N   UNL A   1      31.606  23.629  25.397  1.00  0.00    -0.317 N 
ATOM     88  H   UNL A   1      30.862  23.013  25.590  1.00  0.00     0.170 HD
BRANCH  87  89
ATOM     89  C   UNL A   1      32.849  23.051  25.471  1.00  0.00     0.108 A 
ATOM     90  S   UNL A   1      33.763  23.329  26.876  1.00  0.00    -0.122 S 
ATOM     91  C   UNL A   1      33.378  22.008  24.702  1.00  0.00     0.078 A 
ATOM     92  C   UNL A   1      35.126  22.712  26.086  1.00  0.00     0.011 A 
ATOM     93  C   UNL A   1      34.771  21.799  25.103  1.00  0.00    -0.019 A 
ATOM     94  C   UNL A   1      36.515  23.117  26.460  1.00  0.00     0.047 C 
ATOM     95  C   UNL A   1      35.825  20.877  24.557  1.00  0.00     0.037 C 
ATOM     96  C   UNL A   1      37.468  22.668  25.346  1.00  0.00     0.006 C 
ATOM     97  C   UNL A   1      37.249  21.177  25.071  1.00  0.00     0.005 C 
BRANCH  91  98
ATOM     98  C   UNL A   1      32.500  21.398  23.691  1.00  0.00     0.254 C 
ATOM     99  O   UNL A   1      31.778  22.121  22.996  1.00  0.00    -0.269 OA
ATOM    100  N   UNL A   1      32.490  20.073  23.341  1.00  0.00    -0.349 N 
ATOM    101  H   UNL A   1      31.965  19.903  22.526  1.00  0.00     0.164 HD
BRANCH 100 102
ATOM    102  C   UNL A   1      33.072  18.861  23.892  1.00  0.00     0.082 C 
ATOM    103  C   UNL A   1      32.251  18.347  25.093  1.00  0.00     0.025 C 
ATOM    104  C   UNL A   1      33.198  17.709  22.890  1.00  0.00     0.025 C 
ATOM    105  C   UNL A   1      32.917  17.133  25.751  1.00  0.00     0.002 C 
ATOM    106  C   UNL A   1      34.010  16.580  23.528  1.00  0.00     0.002 C 
ATOM    107  C   UNL A   1      33.298  16.034  24.757  1.00  0.00     0.000 C 
ENDBRANCH 100 102
ENDBRANCH  91  98
ENDBRANCH  87  89
ENDBRANCH  80  85
ENDBRANCH  75  78
ENDBRANCH  73  74
ENDBRANCH   1  73
TORSDOF 15
ENDMDL
