MODEL 1
REMARK VINA RESULT:     -13.9      0.000      0.000
REMARK SMILES Cc1ccc(-c2cc([C@@H](C)C(=O)NCCCCNC(=O)c3ccc(-c4c5nc(c(-c6c(F)c(F)c(F)c(F)c6F)c6ccc([nH]6)c(-c6c(F)c(F)c(F)c(F)c6F)c6nc(c(-c7c(F)c(F)c(F)c(F)c7F)c7ccc4[nH]7)C=C6)C=C5)cc3)ccc2C[C@H]2CCCC2=O)cc1
REMARK SMILES IDX 15 1 14 2 13 3 11 4 12 5 9 7 10 8 8 9 6 10 7 11 86 12 85 13
REMARK SMILES IDX 84 14 5 15 1 16 2 17 3 18 95 19 4 20 94 21 87 22 88 23 89 24
REMARK SMILES IDX 92 25 90 26 91 27 93 28 16 29 17 30 18 31 19 32 20 34 21 35
REMARK SMILES IDX 22 36 83 37 23 38 82 39 24 40 25 41 26 42 76 43 27 44 81 45
REMARK SMILES IDX 75 46 77 47 28 48 80 49 74 50 73 51 29 53 61 54 41 55 60 56
REMARK SMILES IDX 42 57 45 58 59 59 78 60 43 61 44 62 58 64 79 65 46 66 30 67
REMARK SMILES IDX 31 68 39 69 32 70 33 71 37 72 40 73 34 74 35 75 38 76 36 77
REMARK SMILES IDX 62 78 63 79 71 80 64 81 65 82 69 83 72 84 66 85 67 86 70 87
REMARK SMILES IDX 68 88 47 89 48 90 56 91 49 92 50 93 54 94 57 95 51 96 52 97
REMARK SMILES IDX 55 98 53 99
REMARK H PARENT 13 6 18 33 77 52 45 63
REMARK Flexibility Score: inf
ROOT
ATOM      1  C   UNL A   1      31.724  30.101  26.042  1.00  0.00     0.023 C 
ENDROOT
BRANCH   1   2
ATOM      2  C   UNL A   1      31.577  28.604  25.731  1.00  0.00     0.116 C 
BRANCH   2   3
ATOM      3  N   UNL A   1      31.055  28.370  24.397  1.00  0.00    -0.356 N 
ATOM      4  C   UNL A   1      31.639  27.937  23.246  1.00  0.00     0.227 C 
ATOM      5  O   UNL A   1      30.920  27.951  22.238  1.00  0.00    -0.274 OA
ATOM      6  H   UNL A   1      30.094  28.562  24.308  1.00  0.00     0.163 HD
BRANCH   4   7
ATOM      7  C   UNL A   1      33.082  27.417  23.147  1.00  0.00     0.105 C 
ATOM      8  C   UNL A   1      33.885  28.081  22.030  1.00  0.00     0.023 C 
BRANCH   7   9
ATOM      9  C   UNL A   1      33.201  25.903  23.246  1.00  0.00    -0.035 A 
ATOM     10  C   UNL A   1      34.370  23.941  24.176  1.00  0.00    -0.015 A 
ATOM     11  C   UNL A   1      34.250  25.335  23.991  1.00  0.00     0.013 A 
ATOM     12  C   UNL A   1      33.317  23.110  23.733  1.00  0.00    -0.039 A 
ATOM     13  C   UNL A   1      32.326  23.665  22.911  1.00  0.00     0.004 A 
ATOM     14  C   UNL A   1      32.308  25.031  22.624  1.00  0.00     0.005 A 
BRANCH  10  15
ATOM     15  C   UNL A   1      35.641  23.390  24.681  1.00  0.00    -0.018 A 
ATOM     16  C   UNL A   1      39.348  21.605  26.025  1.00  0.00     0.044 C 
ATOM     17  C   UNL A   1      38.078  22.247  25.554  1.00  0.00    -0.051 A 
ATOM     18  C   UNL A   1      37.349  21.647  24.526  1.00  0.00     0.004 A 
ATOM     19  C   UNL A   1      37.595  23.429  26.130  1.00  0.00     0.004 A 
ATOM     20  C   UNL A   1      36.157  22.222  24.089  1.00  0.00     0.009 A 
ATOM     21  C   UNL A   1      36.389  23.998  25.695  1.00  0.00     0.009 A 
ENDBRANCH  10  15
BRANCH  12  22
ATOM     22  C   UNL A   1      33.206  21.642  24.101  1.00  0.00     0.047 C 
BRANCH  22  23
ATOM     23  C   UNL A   1      32.666  21.320  25.502  1.00  0.00     0.060 C 
ATOM     24  C   UNL A   1      33.685  21.215  26.646  1.00  0.00     0.012 C 
ATOM     25  C   UNL A   1      31.709  22.365  26.023  1.00  0.00     0.136 C 
ATOM     26  C   UNL A   1      33.585  22.522  27.422  1.00  0.00     0.009 C 
ATOM     27  C   UNL A   1      32.109  22.881  27.374  1.00  0.00     0.076 C 
ATOM     28  O   UNL A   1      30.696  22.729  25.436  1.00  0.00    -0.299 OA
ENDBRANCH  22  23
ENDBRANCH  12  22
ENDBRANCH   7   9
ENDBRANCH   4   7
ENDBRANCH   2   3
ENDBRANCH   1   2
BRANCH   1  29
ATOM     29  C   UNL A   1      33.157  30.542  26.327  1.00  0.00     0.023 C 
BRANCH  29  30
ATOM     30  C   UNL A   1      33.616  30.226  27.738  1.00  0.00     0.116 C 
BRANCH  30  31
ATOM     31  N   UNL A   1      34.322  31.295  28.435  1.00  0.00    -0.352 N 
ATOM     32  C   UNL A   1      35.560  31.244  29.067  1.00  0.00     0.251 C 
ATOM     33  H   UNL A   1      33.863  32.165  28.463  1.00  0.00     0.163 HD
ATOM     34  O   UNL A   1      35.994  32.209  29.673  1.00  0.00    -0.269 OA
BRANCH  32  35
ATOM     35  C   UNL A   1      36.412  30.040  28.876  1.00  0.00     0.039 A 
ATOM     36  C   UNL A   1      36.742  29.277  30.002  1.00  0.00     0.014 A 
ATOM     37  C   UNL A   1      37.085  29.838  27.677  1.00  0.00     0.014 A 
ATOM     38  C   UNL A   1      37.919  28.529  29.993  1.00  0.00     0.010 A 
ATOM     39  C   UNL A   1      38.322  29.227  27.715  1.00  0.00     0.010 A 
ATOM     40  C   UNL A   1      38.771  28.624  28.892  1.00  0.00    -0.014 A 
BRANCH  40  41
ATOM     41  C   UNL A   1      40.181  28.246  28.929  1.00  0.00     0.031 A 
ATOM     42  C   UNL A   1      40.629  26.934  28.409  1.00  0.00     0.074 A 
ATOM     43  C   UNL A   1      41.107  29.134  29.361  1.00  0.00     0.049 A 
ATOM     44  N   UNL A   1      41.719  26.353  28.785  1.00  0.00    -0.248 NA
ATOM     45  C   UNL A   1      39.871  26.148  27.440  1.00  0.00     0.031 C 
ATOM     46  C   UNL A   1      42.558  29.039  29.202  1.00  0.00     0.029 A 
ATOM     47  N   UNL A   1      40.925  30.237  30.214  1.00  0.00    -0.354 N 
ATOM     48  C   UNL A   1      41.934  25.278  27.957  1.00  0.00     0.074 A 
ATOM     49  C   UNL A   1      40.737  25.170  27.158  1.00  0.00     0.031 C 
ATOM     50  C   UNL A   1      43.147  29.802  30.135  1.00  0.00     0.029 A 
ATOM     51  C   UNL A   1      42.100  30.311  30.998  1.00  0.00     0.049 A 
ATOM     52  H   UNL A   1      40.142  30.833  30.257  1.00  0.00     0.167 HD
ATOM     53  C   UNL A   1      43.150  24.661  27.960  1.00  0.00     0.037 A 
ATOM     54  C   UNL A   1      42.076  30.187  32.355  1.00  0.00     0.037 A 
ATOM     55  C   UNL A   1      44.059  25.273  28.920  1.00  0.00     0.049 A 
ATOM     56  C   UNL A   1      42.930  29.066  32.893  1.00  0.00     0.074 A 
ATOM     57  C   UNL A   1      45.068  26.214  28.792  1.00  0.00     0.029 A 
ATOM     58  N   UNL A   1      43.794  25.161  30.278  1.00  0.00    -0.354 N 
ATOM     59  N   UNL A   1      43.372  28.076  32.169  1.00  0.00    -0.248 NA
ATOM     60  C   UNL A   1      43.320  28.946  34.295  1.00  0.00     0.031 C 
ATOM     61  C   UNL A   1      45.413  26.670  30.086  1.00  0.00     0.029 A 
ATOM     62  C   UNL A   1      44.618  26.001  31.000  1.00  0.00     0.049 A 
ATOM     63  H   UNL A   1      43.115  24.567  30.672  1.00  0.00     0.167 HD
ATOM     64  C   UNL A   1      44.055  27.190  32.965  1.00  0.00     0.074 A 
ATOM     65  C   UNL A   1      44.020  27.798  34.281  1.00  0.00     0.031 C 
ATOM     66  C   UNL A   1      44.566  26.029  32.454  1.00  0.00     0.037 A 
BRANCH  53  67
ATOM     67  C   UNL A   1      43.587  23.667  26.913  1.00  0.00     0.064 A 
ATOM     68  C   UNL A   1      43.131  22.331  26.939  1.00  0.00     0.173 A 
ATOM     69  C   UNL A   1      44.483  23.968  25.872  1.00  0.00     0.173 A 
ATOM     70  F   UNL A   1      42.205  21.921  27.815  1.00  0.00    -0.203 F 
ATOM     71  C   UNL A   1      43.618  21.356  26.066  1.00  0.00     0.198 A 
ATOM     72  C   UNL A   1      45.014  22.982  25.036  1.00  0.00     0.198 A 
ATOM     73  F   UNL A   1      44.836  25.235  25.610  1.00  0.00    -0.203 F 
ATOM     74  F   UNL A   1      43.151  20.102  26.141  1.00  0.00    -0.200 F 
ATOM     75  C   UNL A   1      44.590  21.673  25.139  1.00  0.00     0.200 A 
ATOM     76  F   UNL A   1      45.946  23.310  24.128  1.00  0.00    -0.200 F 
ATOM     77  F   UNL A   1      45.097  20.727  24.338  1.00  0.00    -0.200 F 
ENDBRANCH  53  67
BRANCH  54  78
ATOM     78  C   UNL A   1      40.814  30.675  32.964  1.00  0.00     0.064 A 
ATOM     79  C   UNL A   1      40.605  32.066  33.030  1.00  0.00     0.173 A 
ATOM     80  C   UNL A   1      39.698  29.843  33.100  1.00  0.00     0.173 A 
ATOM     81  F   UNL A   1      41.644  32.905  32.897  1.00  0.00    -0.203 F 
ATOM     82  C   UNL A   1      39.321  32.602  33.104  1.00  0.00     0.198 A 
ATOM     83  C   UNL A   1      38.413  30.384  33.186  1.00  0.00     0.198 A 
ATOM     84  F   UNL A   1      39.832  28.511  33.019  1.00  0.00    -0.203 F 
ATOM     85  F   UNL A   1      39.149  33.930  33.044  1.00  0.00    -0.200 F 
ATOM     86  C   UNL A   1      38.225  31.759  33.152  1.00  0.00     0.200 A 
ATOM     87  F   UNL A   1      37.348  29.570  33.198  1.00  0.00    -0.200 F 
ATOM     88  F   UNL A   1      36.984  32.268  33.119  1.00  0.00    -0.200 F 
ENDBRANCH  54  78
BRANCH  66  89
ATOM     89  C   UNL A   1      45.139  24.842  33.210  1.00  0.00     0.064 A 
ATOM     90  C   UNL A   1      44.432  23.670  33.515  1.00  0.00     0.173 A 
ATOM     91  C   UNL A   1      46.522  24.806  33.539  1.00  0.00     0.173 A 
ATOM     92  F   UNL A   1      43.153  23.508  33.161  1.00  0.00    -0.203 F 
ATOM     93  C   UNL A   1      45.039  22.576  34.147  1.00  0.00     0.198 A 
ATOM     94  C   UNL A   1      47.137  23.692  34.110  1.00  0.00     0.198 A 
ATOM     95  F   UNL A   1      47.337  25.842  33.290  1.00  0.00    -0.203 F 
ATOM     96  F   UNL A   1      44.304  21.497  34.452  1.00  0.00    -0.200 F 
ATOM     97  C   UNL A   1      46.391  22.581  34.430  1.00  0.00     0.200 A 
ATOM     98  F   UNL A   1      48.460  23.700  34.326  1.00  0.00    -0.200 F 
ATOM     99  F   UNL A   1      46.976  21.512  34.986  1.00  0.00    -0.200 F 
ENDBRANCH  66  89
ENDBRANCH  40  41
ENDBRANCH  32  35
ENDBRANCH  30  31
ENDBRANCH  29  30
ENDBRANCH   1  29
TORSDOF 15
ENDMDL
MODEL 2
REMARK VINA RESULT:     -13.8      3.554      9.921
REMARK SMILES Cc1ccc(-c2cc([C@@H](C)C(=O)NCCCCNC(=O)c3ccc(-c4c5nc(c(-c6c(F)c(F)c(F)c(F)c6F)c6ccc([nH]6)c(-c6c(F)c(F)c(F)c(F)c6F)c6nc(c(-c7c(F)c(F)c(F)c(F)c7F)c7ccc4[nH]7)C=C6)C=C5)cc3)ccc2C[C@H]2CCCC2=O)cc1
REMARK SMILES IDX 15 1 14 2 13 3 11 4 12 5 9 7 10 8 8 9 6 10 7 11 86 12 85 13
REMARK SMILES IDX 84 14 5 15 1 16 2 17 3 18 95 19 4 20 94 21 87 22 88 23 89 24
REMARK SMILES IDX 92 25 90 26 91 27 93 28 16 29 17 30 18 31 19 32 20 34 21 35
REMARK SMILES IDX 22 36 83 37 23 38 82 39 24 40 25 41 26 42 76 43 27 44 81 45
REMARK SMILES IDX 75 46 77 47 28 48 80 49 74 50 73 51 29 53 61 54 41 55 60 56
REMARK SMILES IDX 42 57 45 58 59 59 78 60 43 61 44 62 58 64 79 65 46 66 30 67
REMARK SMILES IDX 31 68 39 69 32 70 33 71 37 72 40 73 34 74 35 75 38 76 36 77
REMARK SMILES IDX 62 78 63 79 71 80 64 81 65 82 69 83 72 84 66 85 67 86 70 87
REMARK SMILES IDX 68 88 47 89 48 90 56 91 49 92 50 93 54 94 57 95 51 96 52 97
REMARK SMILES IDX 55 98 53 99
REMARK H PARENT 13 6 18 33 77 52 45 63
REMARK Flexibility Score: inf
ROOT
ATOM      1  C   UNL A   1      36.666  21.093  25.418  1.00  0.00     0.023 C 
ENDROOT
BRANCH   1   2
ATOM      2  C   UNL A   1      35.663  21.762  24.468  1.00  0.00     0.116 C 
BRANCH   2   3
ATOM      3  N   UNL A   1      34.329  21.208  24.602  1.00  0.00    -0.356 N 
ATOM      4  C   UNL A   1      33.302  21.483  25.453  1.00  0.00     0.227 C 
ATOM      5  O   UNL A   1      32.317  20.738  25.368  1.00  0.00    -0.274 OA
ATOM      6  H   UNL A   1      34.127  20.497  23.952  1.00  0.00     0.163 HD
BRANCH   4   7
ATOM      7  C   UNL A   1      33.292  22.651  26.452  1.00  0.00     0.105 C 
ATOM      8  C   UNL A   1      33.053  22.206  27.894  1.00  0.00     0.023 C 
BRANCH   7   9
ATOM      9  C   UNL A   1      32.491  23.857  25.984  1.00  0.00    -0.035 A 
ATOM     10  C   UNL A   1      32.341  26.302  25.703  1.00  0.00    -0.015 A 
ATOM     11  C   UNL A   1      33.005  25.152  26.179  1.00  0.00     0.013 A 
ATOM     12  C   UNL A   1      31.212  26.132  24.872  1.00  0.00    -0.039 A 
ATOM     13  C   UNL A   1      30.648  24.854  24.759  1.00  0.00     0.004 A 
ATOM     14  C   UNL A   1      31.249  23.746  25.360  1.00  0.00     0.005 A 
BRANCH  10  15
ATOM     15  C   UNL A   1      32.749  27.627  26.207  1.00  0.00    -0.018 A 
ATOM     16  C   UNL A   1      33.737  31.558  27.726  1.00  0.00     0.044 C 
ATOM     17  C   UNL A   1      33.413  30.186  27.218  1.00  0.00    -0.051 A 
ATOM     18  C   UNL A   1      32.090  29.742  27.241  1.00  0.00     0.004 A 
ATOM     19  C   UNL A   1      34.405  29.339  26.705  1.00  0.00     0.004 A 
ATOM     20  C   UNL A   1      31.770  28.476  26.757  1.00  0.00     0.009 A 
ATOM     21  C   UNL A   1      34.077  28.069  26.208  1.00  0.00     0.009 A 
ENDBRANCH  10  15
BRANCH  12  22
ATOM     22  C   UNL A   1      30.575  27.270  24.094  1.00  0.00     0.047 C 
BRANCH  22  23
ATOM     23  C   UNL A   1      31.272  27.692  22.792  1.00  0.00     0.060 C 
ATOM     24  C   UNL A   1      32.176  28.932  22.845  1.00  0.00     0.012 C 
ATOM     25  C   UNL A   1      32.207  26.637  22.252  1.00  0.00     0.136 C 
ATOM     26  C   UNL A   1      33.607  28.409  22.888  1.00  0.00     0.009 C 
ATOM     27  C   UNL A   1      33.587  27.173  22.004  1.00  0.00     0.076 C 
ATOM     28  O   UNL A   1      31.878  25.484  22.002  1.00  0.00    -0.299 OA
ENDBRANCH  22  23
ENDBRANCH  12  22
ENDBRANCH   7   9
ENDBRANCH   4   7
ENDBRANCH   2   3
ENDBRANCH   1   2
BRANCH   1  29
ATOM     29  C   UNL A   1      38.121  21.481  25.165  1.00  0.00     0.023 C 
BRANCH  29  30
ATOM     30  C   UNL A   1      38.639  22.538  26.124  1.00  0.00     0.116 C 
BRANCH  30  31
ATOM     31  N   UNL A   1      40.086  22.596  26.291  1.00  0.00    -0.352 N 
ATOM     32  C   UNL A   1      40.891  23.716  26.470  1.00  0.00     0.251 C 
ATOM     33  H   UNL A   1      40.555  21.730  26.275  1.00  0.00     0.163 HD
ATOM     34  O   UNL A   1      42.104  23.612  26.526  1.00  0.00    -0.269 OA
BRANCH  32  35
ATOM     35  C   UNL A   1      40.243  25.028  26.732  1.00  0.00     0.039 A 
ATOM     36  C   UNL A   1      40.764  26.162  26.098  1.00  0.00     0.014 A 
ATOM     37  C   UNL A   1      39.338  25.169  27.777  1.00  0.00     0.014 A 
ATOM     38  C   UNL A   1      40.595  27.411  26.696  1.00  0.00     0.010 A 
ATOM     39  C   UNL A   1      39.298  26.373  28.450  1.00  0.00     0.010 A 
ATOM     40  C   UNL A   1      39.979  27.483  27.945  1.00  0.00    -0.014 A 
BRANCH  40  41
ATOM     41  C   UNL A   1      40.111  28.626  28.844  1.00  0.00     0.031 A 
ATOM     42  C   UNL A   1      39.055  29.661  28.917  1.00  0.00     0.074 A 
ATOM     43  C   UNL A   1      41.167  28.702  29.689  1.00  0.00     0.049 A 
ATOM     44  N   UNL A   1      39.268  30.869  29.320  1.00  0.00    -0.248 NA
ATOM     45  C   UNL A   1      37.671  29.432  28.515  1.00  0.00     0.031 C 
ATOM     46  C   UNL A   1      41.315  29.600  30.834  1.00  0.00     0.029 A 
ATOM     47  N   UNL A   1      42.428  28.092  29.564  1.00  0.00    -0.354 N 
ATOM     48  C   UNL A   1      38.050  31.488  29.468  1.00  0.00     0.074 A 
ATOM     49  C   UNL A   1      37.087  30.564  28.921  1.00  0.00     0.031 C 
ATOM     50  C   UNL A   1      42.620  29.731  31.116  1.00  0.00     0.029 A 
ATOM     51  C   UNL A   1      43.355  29.022  30.088  1.00  0.00     0.049 A 
ATOM     52  H   UNL A   1      42.624  27.202  29.189  1.00  0.00     0.167 HD
ATOM     53  C   UNL A   1      37.977  32.672  30.140  1.00  0.00     0.037 A 
ATOM     54  C   UNL A   1      44.353  29.558  29.330  1.00  0.00     0.037 A 
ATOM     55  C   UNL A   1      39.290  33.116  30.591  1.00  0.00     0.049 A 
ATOM     56  C   UNL A   1      44.334  31.065  29.251  1.00  0.00     0.074 A 
ATOM     57  C   UNL A   1      39.951  33.013  31.804  1.00  0.00     0.029 A 
ATOM     58  N   UNL A   1      40.241  33.497  29.654  1.00  0.00    -0.354 N 
ATOM     59  N   UNL A   1      43.298  31.795  29.554  1.00  0.00    -0.248 NA
ATOM     60  C   UNL A   1      45.463  31.866  28.787  1.00  0.00     0.031 C 
ATOM     61  C   UNL A   1      41.312  33.337  31.593  1.00  0.00     0.029 A 
ATOM     62  C   UNL A   1      41.475  33.643  30.254  1.00  0.00     0.049 A 
ATOM     63  H   UNL A   1      40.061  33.642  28.697  1.00  0.00     0.167 HD
ATOM     64  C   UNL A   1      43.579  33.118  29.309  1.00  0.00     0.074 A 
ATOM     65  C   UNL A   1      44.957  33.109  28.860  1.00  0.00     0.031 C 
ATOM     66  C   UNL A   1      42.629  34.086  29.487  1.00  0.00     0.037 A 
BRANCH  53  67
ATOM     67  C   UNL A   1      36.683  33.294  30.602  1.00  0.00     0.064 A 
ATOM     68  C   UNL A   1      35.790  33.891  29.684  1.00  0.00     0.173 A 
ATOM     69  C   UNL A   1      36.279  33.357  31.948  1.00  0.00     0.173 A 
ATOM     70  F   UNL A   1      35.995  33.827  28.362  1.00  0.00    -0.203 F 
ATOM     71  C   UNL A   1      34.652  34.589  30.091  1.00  0.00     0.198 A 
ATOM     72  C   UNL A   1      35.173  34.105  32.360  1.00  0.00     0.198 A 
ATOM     73  F   UNL A   1      36.924  32.662  32.895  1.00  0.00    -0.203 F 
ATOM     74  F   UNL A   1      33.846  35.139  29.174  1.00  0.00    -0.200 F 
ATOM     75  C   UNL A   1      34.364  34.730  31.433  1.00  0.00     0.200 A 
ATOM     76  F   UNL A   1      34.897  34.217  33.668  1.00  0.00    -0.200 F 
ATOM     77  F   UNL A   1      33.303  35.445  31.827  1.00  0.00    -0.200 F 
ENDBRANCH  53  67
BRANCH  54  78
ATOM     78  C   UNL A   1      44.827  28.646  28.259  1.00  0.00     0.064 A 
ATOM     79  C   UNL A   1      45.610  27.538  28.632  1.00  0.00     0.173 A 
ATOM     80  C   UNL A   1      44.219  28.619  27.000  1.00  0.00     0.173 A 
ATOM     81  F   UNL A   1      46.207  27.514  29.834  1.00  0.00    -0.203 F 
ATOM     82  C   UNL A   1      45.679  26.399  27.832  1.00  0.00     0.198 A 
ATOM     83  C   UNL A   1      44.300  27.480  26.195  1.00  0.00     0.198 A 
ATOM     84  F   UNL A   1      43.441  29.636  26.601  1.00  0.00    -0.203 F 
ATOM     85  F   UNL A   1      46.334  25.315  28.271  1.00  0.00    -0.200 F 
ATOM     86  C   UNL A   1      45.000  26.361  26.627  1.00  0.00     0.200 A 
ATOM     87  F   UNL A   1      43.615  27.429  25.044  1.00  0.00    -0.200 F 
ATOM     88  F   UNL A   1      44.978  25.233  25.904  1.00  0.00    -0.200 F 
ENDBRANCH  54  78
BRANCH  66  89
ATOM     89  C   UNL A   1      42.682  35.542  29.057  1.00  0.00     0.064 A 
ATOM     90  C   UNL A   1      41.974  36.084  27.974  1.00  0.00     0.173 A 
ATOM     91  C   UNL A   1      43.377  36.496  29.851  1.00  0.00     0.173 A 
ATOM     92  F   UNL A   1      41.179  35.331  27.206  1.00  0.00    -0.203 F 
ATOM     93  C   UNL A   1      42.002  37.453  27.674  1.00  0.00     0.198 A 
ATOM     94  C   UNL A   1      43.352  37.866  29.587  1.00  0.00     0.198 A 
ATOM     95  F   UNL A   1      44.083  36.137  30.933  1.00  0.00    -0.203 F 
ATOM     96  F   UNL A   1      41.338  37.909  26.603  1.00  0.00    -0.200 F 
ATOM     97  C   UNL A   1      42.676  38.343  28.487  1.00  0.00     0.200 A 
ATOM     98  F   UNL A   1      43.969  38.715  30.420  1.00  0.00    -0.200 F 
ATOM     99  F   UNL A   1      42.655  39.657  28.225  1.00  0.00    -0.200 F 
ENDBRANCH  66  89
ENDBRANCH  40  41
ENDBRANCH  32  35
ENDBRANCH  30  31
ENDBRANCH  29  30
ENDBRANCH   1  29
TORSDOF 15
ENDMDL
MODEL 3
REMARK VINA RESULT:     -13.7      1.228      2.368
REMARK SMILES Cc1ccc(-c2cc([C@@H](C)C(=O)NCCCCNC(=O)c3ccc(-c4c5nc(c(-c6c(F)c(F)c(F)c(F)c6F)c6ccc([nH]6)c(-c6c(F)c(F)c(F)c(F)c6F)c6nc(c(-c7c(F)c(F)c(F)c(F)c7F)c7ccc4[nH]7)C=C6)C=C5)cc3)ccc2C[C@H]2CCCC2=O)cc1
REMARK SMILES IDX 15 1 14 2 13 3 11 4 12 5 9 7 10 8 8 9 6 10 7 11 86 12 85 13
REMARK SMILES IDX 84 14 5 15 1 16 2 17 3 18 95 19 4 20 94 21 87 22 88 23 89 24
REMARK SMILES IDX 92 25 90 26 91 27 93 28 16 29 17 30 18 31 19 32 20 34 21 35
REMARK SMILES IDX 22 36 83 37 23 38 82 39 24 40 25 41 26 42 76 43 27 44 81 45
REMARK SMILES IDX 75 46 77 47 28 48 80 49 74 50 73 51 29 53 61 54 41 55 60 56
REMARK SMILES IDX 42 57 45 58 59 59 78 60 43 61 44 62 58 64 79 65 46 66 30 67
REMARK SMILES IDX 31 68 39 69 32 70 33 71 37 72 40 73 34 74 35 75 38 76 36 77
REMARK SMILES IDX 62 78 63 79 71 80 64 81 65 82 69 83 72 84 66 85 67 86 70 87
REMARK SMILES IDX 68 88 47 89 48 90 56 91 49 92 50 93 54 94 57 95 51 96 52 97
REMARK SMILES IDX 55 98 53 99
REMARK H PARENT 13 6 18 33 77 52 45 63
REMARK Flexibility Score: inf
ROOT
ATOM      1  C   UNL A   1      31.851  30.374  25.889  1.00  0.00     0.023 C 
ENDROOT
BRANCH   1   2
ATOM      2  C   UNL A   1      32.106  29.418  24.715  1.00  0.00     0.116 C 
BRANCH   2   3
ATOM      3  N   UNL A   1      31.004  28.496  24.511  1.00  0.00    -0.356 N 
ATOM      4  C   UNL A   1      30.890  27.348  23.787  1.00  0.00     0.227 C 
ATOM      5  O   UNL A   1      29.757  26.852  23.737  1.00  0.00    -0.274 OA
ATOM      6  H   UNL A   1      30.181  28.749  24.987  1.00  0.00     0.163 HD
BRANCH   4   7
ATOM      7  C   UNL A   1      32.063  26.645  23.084  1.00  0.00     0.105 C 
ATOM      8  C   UNL A   1      31.679  26.041  21.734  1.00  0.00     0.023 C 
BRANCH   7   9
ATOM      9  C   UNL A   1      32.891  25.758  24.002  1.00  0.00    -0.035 A 
ATOM     10  C   UNL A   1      33.646  23.493  24.619  1.00  0.00    -0.015 A 
ATOM     11  C   UNL A   1      32.847  24.361  23.844  1.00  0.00     0.013 A 
ATOM     12  C   UNL A   1      34.629  24.056  25.462  1.00  0.00    -0.039 A 
ATOM     13  C   UNL A   1      34.606  25.439  25.689  1.00  0.00     0.004 A 
ATOM     14  C   UNL A   1      33.706  26.265  25.013  1.00  0.00     0.005 A 
BRANCH  10  15
ATOM     15  C   UNL A   1      33.330  22.053  24.638  1.00  0.00    -0.018 A 
ATOM     16  C   UNL A   1      32.324  17.845  24.494  1.00  0.00     0.044 C 
ATOM     17  C   UNL A   1      32.698  19.295  24.551  1.00  0.00    -0.051 A 
ATOM     18  C   UNL A   1      32.481  20.102  23.433  1.00  0.00     0.004 A 
ATOM     19  C   UNL A   1      33.248  19.867  25.705  1.00  0.00     0.004 A 
ATOM     20  C   UNL A   1      32.808  21.456  23.475  1.00  0.00     0.009 A 
ATOM     21  C   UNL A   1      33.566  21.233  25.748  1.00  0.00     0.009 A 
ENDBRANCH  10  15
BRANCH  12  22
ATOM     22  C   UNL A   1      35.712  23.235  26.139  1.00  0.00     0.047 C 
BRANCH  22  23
ATOM     23  C   UNL A   1      37.074  23.171  25.433  1.00  0.00     0.060 C 
ATOM     24  C   UNL A   1      38.219  24.001  26.030  1.00  0.00     0.012 C 
ATOM     25  C   UNL A   1      37.664  21.781  25.411  1.00  0.00     0.136 C 
ATOM     26  C   UNL A   1      39.099  23.019  26.794  1.00  0.00     0.009 C 
ATOM     27  C   UNL A   1      39.059  21.747  25.964  1.00  0.00     0.076 C 
ATOM     28  O   UNL A   1      37.095  20.796  24.957  1.00  0.00    -0.299 OA
ENDBRANCH  22  23
ENDBRANCH  12  22
ENDBRANCH   7   9
ENDBRANCH   4   7
ENDBRANCH   2   3
ENDBRANCH   1   2
BRANCH   1  29
ATOM     29  C   UNL A   1      32.531  29.960  27.191  1.00  0.00     0.023 C 
BRANCH  29  30
ATOM     30  C   UNL A   1      34.027  30.214  27.198  1.00  0.00     0.116 C 
BRANCH  30  31
ATOM     31  N   UNL A   1      34.510  31.163  28.194  1.00  0.00    -0.352 N 
ATOM     32  C   UNL A   1      35.629  31.061  29.014  1.00  0.00     0.251 C 
ATOM     33  H   UNL A   1      33.975  31.983  28.300  1.00  0.00     0.163 HD
ATOM     34  O   UNL A   1      35.868  31.911  29.855  1.00  0.00    -0.269 OA
BRANCH  32  35
ATOM     35  C   UNL A   1      36.606  29.970  28.758  1.00  0.00     0.039 A 
ATOM     36  C   UNL A   1      36.848  29.045  29.780  1.00  0.00     0.014 A 
ATOM     37  C   UNL A   1      37.452  30.028  27.657  1.00  0.00     0.014 A 
ATOM     38  C   UNL A   1      38.080  28.392  29.826  1.00  0.00     0.010 A 
ATOM     39  C   UNL A   1      38.723  29.505  27.779  1.00  0.00     0.010 A 
ATOM     40  C   UNL A   1      39.061  28.737  28.896  1.00  0.00    -0.014 A 
BRANCH  40  41
ATOM     41  C   UNL A   1      40.482  28.454  29.081  1.00  0.00     0.031 A 
ATOM     42  C   UNL A   1      41.106  27.262  28.463  1.00  0.00     0.074 A 
ATOM     43  C   UNL A   1      41.264  29.334  29.751  1.00  0.00     0.049 A 
ATOM     44  N   UNL A   1      42.185  26.711  28.910  1.00  0.00    -0.248 NA
ATOM     45  C   UNL A   1      40.552  26.571  27.303  1.00  0.00     0.031 C 
ATOM     46  C   UNL A   1      42.726  29.362  29.787  1.00  0.00     0.029 A 
ATOM     47  N   UNL A   1      40.877  30.291  30.707  1.00  0.00    -0.354 N 
ATOM     48  C   UNL A   1      42.599  25.780  27.987  1.00  0.00     0.074 A 
ATOM     49  C   UNL A   1      41.529  25.704  27.021  1.00  0.00     0.031 C 
ATOM     50  C   UNL A   1      43.120  30.024  30.885  1.00  0.00     0.029 A 
ATOM     51  C   UNL A   1      41.929  30.333  31.651  1.00  0.00     0.049 A 
ATOM     52  H   UNL A   1      40.046  30.820  30.716  1.00  0.00     0.167 HD
ATOM     53  C   UNL A   1      43.852  25.253  28.081  1.00  0.00     0.037 A 
ATOM     54  C   UNL A   1      41.739  30.019  32.963  1.00  0.00     0.037 A 
ATOM     55  C   UNL A   1      44.572  25.784  29.231  1.00  0.00     0.049 A 
ATOM     56  C   UNL A   1      42.610  28.894  33.466  1.00  0.00     0.074 A 
ATOM     57  C   UNL A   1      45.503  26.801  29.370  1.00  0.00     0.029 A 
ATOM     58  N   UNL A   1      44.144  25.465  30.512  1.00  0.00    -0.354 N 
ATOM     59  N   UNL A   1      43.227  28.049  32.688  1.00  0.00    -0.248 NA
ATOM     60  C   UNL A   1      42.824  28.605  34.881  1.00  0.00     0.031 C 
ATOM     61  C   UNL A   1      45.636  27.093  30.748  1.00  0.00     0.029 A 
ATOM     62  C   UNL A   1      44.790  26.249  31.446  1.00  0.00     0.049 A 
ATOM     63  H   UNL A   1      43.474  24.776  30.726  1.00  0.00     0.167 HD
ATOM     64  C   UNL A   1      43.875  27.108  33.451  1.00  0.00     0.074 A 
ATOM     65  C   UNL A   1      43.616  27.520  34.816  1.00  0.00     0.031 C 
ATOM     66  C   UNL A   1      44.548  26.069  32.869  1.00  0.00     0.037 A 
BRANCH  53  67
ATOM     67  C   UNL A   1      44.507  24.449  26.986  1.00  0.00     0.064 A 
ATOM     68  C   UNL A   1      44.147  23.104  26.752  1.00  0.00     0.173 A 
ATOM     69  C   UNL A   1      45.522  24.945  26.149  1.00  0.00     0.173 A 
ATOM     70  F   UNL A   1      43.134  22.523  27.408  1.00  0.00    -0.203 F 
ATOM     71  C   UNL A   1      44.824  22.294  25.838  1.00  0.00     0.198 A 
ATOM     72  C   UNL A   1      46.238  24.121  25.276  1.00  0.00     0.198 A 
ATOM     73  F   UNL A   1      45.820  26.252  26.125  1.00  0.00    -0.203 F 
ATOM     74  F   UNL A   1      44.440  21.023  25.663  1.00  0.00    -0.200 F 
ATOM     75  C   UNL A   1      45.896  22.793  25.127  1.00  0.00     0.200 A 
ATOM     76  F   UNL A   1      47.267  24.626  24.579  1.00  0.00    -0.200 F 
ATOM     77  F   UNL A   1      46.580  22.002  24.290  1.00  0.00    -0.200 F 
ENDBRANCH  53  67
BRANCH  54  78
ATOM     78  C   UNL A   1      40.371  30.329  33.447  1.00  0.00     0.064 A 
ATOM     79  C   UNL A   1      40.069  31.665  33.769  1.00  0.00     0.173 A 
ATOM     80  C   UNL A   1      39.300  29.457  33.221  1.00  0.00     0.173 A 
ATOM     81  F   UNL A   1      41.062  32.542  33.986  1.00  0.00    -0.203 F 
ATOM     82  C   UNL A   1      38.759  32.138  33.743  1.00  0.00     0.198 A 
ATOM     83  C   UNL A   1      37.987  29.931  33.208  1.00  0.00     0.198 A 
ATOM     84  F   UNL A   1      39.527  28.178  32.885  1.00  0.00    -0.203 F 
ATOM     85  F   UNL A   1      38.516  33.442  33.935  1.00  0.00    -0.200 F 
ATOM     86  C   UNL A   1      37.722  31.275  33.434  1.00  0.00     0.200 A 
ATOM     87  F   UNL A   1      36.984  29.106  32.874  1.00  0.00    -0.200 F 
ATOM     88  F   UNL A   1      36.472  31.746  33.306  1.00  0.00    -0.200 F 
ENDBRANCH  54  78
BRANCH  66  89
ATOM     89  C   UNL A   1      45.118  24.829  33.537  1.00  0.00     0.064 A 
ATOM     90  C   UNL A   1      44.468  23.589  33.614  1.00  0.00     0.173 A 
ATOM     91  C   UNL A   1      46.457  24.830  34.019  1.00  0.00     0.173 A 
ATOM     92  F   UNL A   1      43.249  23.401  33.096  1.00  0.00    -0.203 F 
ATOM     93  C   UNL A   1      45.079  22.459  34.175  1.00  0.00     0.198 A 
ATOM     94  C   UNL A   1      47.084  23.689  34.518  1.00  0.00     0.198 A 
ATOM     95  F   UNL A   1      47.217  25.934  33.994  1.00  0.00    -0.203 F 
ATOM     96  F   UNL A   1      44.394  21.310  34.259  1.00  0.00    -0.200 F 
ATOM     97  C   UNL A   1      46.388  22.505  34.612  1.00  0.00     0.200 A 
ATOM     98  F   UNL A   1      48.372  23.745  34.886  1.00  0.00    -0.200 F 
ATOM     99  F   UNL A   1      46.984  21.408  35.098  1.00  0.00    -0.200 F 
ENDBRANCH  66  89
ENDBRANCH  40  41
ENDBRANCH  32  35
ENDBRANCH  30  31
ENDBRANCH  29  30
ENDBRANCH   1  29
TORSDOF 15
ENDMDL
