MODEL 1
REMARK VINA RESULT:     -12.6      0.000      0.000
REMARK SMILES COc1ccc(NC(=O)[C@@H]2CC=CC[C@H]2C(=O)NCCCCNC(=O)c2ccc(-c3c4nc(c(-c5c(F)c(F)c(F)c(F)c5F)c5ccc([nH]5)c(-c5c(F)c(F)c(F)c(F)c5F)c5nc(c(-c6c(F)c(F)c(F)c(F)c6F)c6ccc3[nH]6)C=C5)C=C4)cc2)cc1Cl
REMARK SMILES IDX 20 1 19 2 18 3 16 4 17 5 15 7 10 8 11 9 12 10 14 11 13 12
REMARK SMILES IDX 8 13 7 14 9 16 6 17 3 18 4 19 90 20 5 21 89 22 91 23 2 24
REMARK SMILES IDX 1 25 21 26 22 27 23 28 24 29 25 31 26 32 27 33 88 34 28 35
REMARK SMILES IDX 87 36 29 37 30 38 31 39 81 40 32 41 86 42 80 43 82 44 33 45
REMARK SMILES IDX 85 46 79 47 78 48 34 50 66 51 46 52 65 53 47 54 50 55 64 56
REMARK SMILES IDX 83 57 48 58 49 59 63 61 84 62 51 63 35 64 36 65 44 66 37 67
REMARK SMILES IDX 38 68 42 69 45 70 39 71 40 72 43 73 41 74 67 75 68 76 76 77
REMARK SMILES IDX 69 78 70 79 74 80 77 81 71 82 72 83 75 84 73 85 52 86 53 87
REMARK SMILES IDX 61 88 54 89 55 90 59 91 62 92 56 93 57 94 60 95 58 96
REMARK H PARENT 18 6 7 15 23 30 82 49 50 60
REMARK Flexibility Score: inf
ROOT
ATOM      1  C   UNL A   1      36.598  20.260  25.028  1.00  0.00     0.023 C 
ENDROOT
BRANCH   1   2
ATOM      2  C   UNL A   1      36.367  21.751  25.239  1.00  0.00     0.116 C 
BRANCH   2   3
ATOM      3  N   UNL A   1      35.725  22.004  26.512  1.00  0.00    -0.356 N 
ATOM      4  C   UNL A   1      34.702  22.830  26.840  1.00  0.00     0.224 C 
ATOM      5  O   UNL A   1      34.349  22.842  28.020  1.00  0.00    -0.275 OA
ATOM      6  H   UNL A   1      36.095  21.491  27.266  1.00  0.00     0.163 HD
BRANCH   4   7
ATOM      7  C   UNL A   1      33.993  23.676  25.798  1.00  0.00     0.095 C 
ATOM      8  C   UNL A   1      32.534  24.015  26.146  1.00  0.00     0.095 C 
ATOM      9  C   UNL A   1      31.873  24.931  25.107  1.00  0.00     0.041 C 
ATOM     10  C   UNL A   1      32.774  26.026  24.622  1.00  0.00    -0.030 C 
ATOM     11  C   UNL A   1      34.864  24.887  25.399  1.00  0.00     0.041 C 
ATOM     12  C   UNL A   1      34.105  26.012  24.766  1.00  0.00    -0.030 C 
BRANCH   8  13
ATOM     13  C   UNL A   1      31.509  22.958  26.577  1.00  0.00     0.228 C 
ATOM     14  N   UNL A   1      31.368  21.676  26.165  1.00  0.00    -0.326 N 
ATOM     15  H   UNL A   1      30.593  21.231  26.576  1.00  0.00     0.169 HD
ATOM     16  O   UNL A   1      30.672  23.307  27.430  1.00  0.00    -0.274 OA
BRANCH  14  17
ATOM     17  C   UNL A   1      32.064  20.836  25.289  1.00  0.00     0.042 A 
ATOM     18  C   UNL A   1      32.851  18.930  23.414  1.00  0.00     0.137 A 
ATOM     19  C   UNL A   1      33.184  18.770  24.759  1.00  0.00     0.050 A 
ATOM     20  C   UNL A   1      32.272  20.124  22.984  1.00  0.00     0.085 A 
ATOM     21  C   UNL A   1      32.840  19.758  25.687  1.00  0.00     0.030 A 
ATOM     22  C   UNL A   1      31.899  21.089  23.921  1.00  0.00     0.050 A 
ATOM     23  Cl  UNL A   1      31.941  20.419  21.316  1.00  0.00    -0.080 Cl
BRANCH  18  24
ATOM     24  O   UNL A   1      32.917  17.846  22.582  1.00  0.00    -0.495 OA
ATOM     25  C   UNL A   1      33.845  16.869  23.031  1.00  0.00     0.278 C 
ENDBRANCH  18  24
ENDBRANCH  14  17
ENDBRANCH   8  13
ENDBRANCH   4   7
ENDBRANCH   2   3
ENDBRANCH   1   2
BRANCH   1  26
ATOM     26  C   UNL A   1      38.045  19.894  24.696  1.00  0.00     0.023 C 
BRANCH  26  27
ATOM     27  C   UNL A   1      39.049  20.180  25.806  1.00  0.00     0.116 C 
BRANCH  27  28
ATOM     28  N   UNL A   1      40.073  19.153  25.916  1.00  0.00    -0.352 N 
ATOM     29  C   UNL A   1      41.419  19.286  26.135  1.00  0.00     0.251 C 
ATOM     30  H   UNL A   1      39.753  18.227  25.819  1.00  0.00     0.163 HD
ATOM     31  O   UNL A   1      42.153  18.309  26.073  1.00  0.00    -0.269 OA
BRANCH  29  32
ATOM     32  C   UNL A   1      41.984  20.623  26.408  1.00  0.00     0.039 A 
ATOM     33  C   UNL A   1      42.235  21.465  25.325  1.00  0.00     0.014 A 
ATOM     34  C   UNL A   1      42.250  21.046  27.713  1.00  0.00     0.014 A 
ATOM     35  C   UNL A   1      42.709  22.754  25.557  1.00  0.00     0.010 A 
ATOM     36  C   UNL A   1      42.638  22.361  27.947  1.00  0.00     0.010 A 
ATOM     37  C   UNL A   1      42.882  23.225  26.870  1.00  0.00    -0.014 A 
BRANCH  37  38
ATOM     38  C   UNL A   1      43.310  24.626  27.106  1.00  0.00     0.031 A 
ATOM     39  C   UNL A   1      42.352  25.635  27.672  1.00  0.00     0.074 A 
ATOM     40  C   UNL A   1      44.571  24.983  26.797  1.00  0.00     0.049 A 
ATOM     41  N   UNL A   1      42.570  26.881  28.010  1.00  0.00    -0.248 NA
ATOM     42  C   UNL A   1      40.960  25.199  27.864  1.00  0.00     0.031 C 
ATOM     43  C   UNL A   1      45.568  24.110  26.176  1.00  0.00     0.029 A 
ATOM     44  N   UNL A   1      45.235  26.170  26.977  1.00  0.00    -0.354 N 
ATOM     45  C   UNL A   1      41.350  27.371  28.455  1.00  0.00     0.074 A 
ATOM     46  C   UNL A   1      40.379  26.315  28.278  1.00  0.00     0.031 C 
ATOM     47  C   UNL A   1      46.730  24.773  26.071  1.00  0.00     0.029 A 
ATOM     48  C   UNL A   1      46.550  26.126  26.586  1.00  0.00     0.049 A 
ATOM     49  H   UNL A   1      44.810  26.975  27.351  1.00  0.00     0.167 HD
ATOM     50  C   UNL A   1      41.074  28.583  28.994  1.00  0.00     0.037 A 
ATOM     51  C   UNL A   1      47.508  27.071  26.646  1.00  0.00     0.037 A 
ATOM     52  C   UNL A   1      42.048  29.629  29.172  1.00  0.00     0.049 A 
ATOM     53  C   UNL A   1      47.174  28.407  27.251  1.00  0.00     0.074 A 
ATOM     54  C   UNL A   1      41.883  30.875  29.750  1.00  0.00     0.029 A 
ATOM     55  N   UNL A   1      43.373  29.551  28.762  1.00  0.00    -0.354 N 
ATOM     56  N   UNL A   1      46.038  28.829  27.753  1.00  0.00    -0.248 NA
ATOM     57  C   UNL A   1      48.261  29.391  27.313  1.00  0.00     0.031 C 
ATOM     58  C   UNL A   1      43.091  31.573  29.639  1.00  0.00     0.029 A 
ATOM     59  C   UNL A   1      44.029  30.738  29.052  1.00  0.00     0.049 A 
ATOM     60  H   UNL A   1      43.785  28.769  28.330  1.00  0.00     0.167 HD
ATOM     61  C   UNL A   1      46.279  30.119  28.209  1.00  0.00     0.074 A 
ATOM     62  C   UNL A   1      47.678  30.393  27.953  1.00  0.00     0.031 C 
ATOM     63  C   UNL A   1      45.420  30.999  28.781  1.00  0.00     0.037 A 
BRANCH  50  64
ATOM     64  C   UNL A   1      39.659  28.839  29.434  1.00  0.00     0.064 A 
ATOM     65  C   UNL A   1      39.235  28.571  30.745  1.00  0.00     0.173 A 
ATOM     66  C   UNL A   1      38.724  29.392  28.547  1.00  0.00     0.173 A 
ATOM     67  F   UNL A   1      40.085  28.030  31.633  1.00  0.00    -0.203 F 
ATOM     68  C   UNL A   1      37.923  28.813  31.142  1.00  0.00     0.198 A 
ATOM     69  C   UNL A   1      37.421  29.667  28.956  1.00  0.00     0.198 A 
ATOM     70  F   UNL A   1      39.073  29.673  27.283  1.00  0.00    -0.203 F 
ATOM     71  F   UNL A   1      37.529  28.496  32.383  1.00  0.00    -0.200 F 
ATOM     72  C   UNL A   1      37.019  29.369  30.250  1.00  0.00     0.200 A 
ATOM     73  F   UNL A   1      36.553  30.218  28.097  1.00  0.00    -0.200 F 
ATOM     74  F   UNL A   1      35.758  29.613  30.633  1.00  0.00    -0.200 F 
ENDBRANCH  50  64
BRANCH  51  75
ATOM     75  C   UNL A   1      48.878  26.774  26.149  1.00  0.00     0.064 A 
ATOM     76  C   UNL A   1      49.257  27.091  24.838  1.00  0.00     0.173 A 
ATOM     77  C   UNL A   1      49.834  26.162  26.974  1.00  0.00     0.173 A 
ATOM     78  F   UNL A   1      48.374  27.662  24.004  1.00  0.00    -0.203 F 
ATOM     79  C   UNL A   1      50.529  26.781  24.360  1.00  0.00     0.198 A 
ATOM     80  C   UNL A   1      51.116  25.884  26.506  1.00  0.00     0.198 A 
ATOM     81  F   UNL A   1      49.525  25.846  28.240  1.00  0.00    -0.203 F 
ATOM     82  F   UNL A   1      50.847  27.045  23.085  1.00  0.00    -0.200 F 
ATOM     83  C   UNL A   1      51.460  26.183  25.197  1.00  0.00     0.200 A 
ATOM     84  F   UNL A   1      52.017  25.323  27.324  1.00  0.00    -0.200 F 
ATOM     85  F   UNL A   1      52.684  25.889  24.739  1.00  0.00    -0.200 F 
ENDBRANCH  51  75
BRANCH  63  86
ATOM     86  C   UNL A   1      45.984  32.332  29.188  1.00  0.00     0.064 A 
ATOM     87  C   UNL A   1      45.969  33.436  28.322  1.00  0.00     0.173 A 
ATOM     88  C   UNL A   1      46.549  32.506  30.461  1.00  0.00     0.173 A 
ATOM     89  F   UNL A   1      45.451  33.320  27.090  1.00  0.00    -0.203 F 
ATOM     90  C   UNL A   1      46.540  34.648  28.697  1.00  0.00     0.198 A 
ATOM     91  C   UNL A   1      47.084  33.731  30.847  1.00  0.00     0.198 A 
ATOM     92  F   UNL A   1      46.581  31.488  31.334  1.00  0.00    -0.203 F 
ATOM     93  F   UNL A   1      46.580  35.666  27.825  1.00  0.00    -0.200 F 
ATOM     94  C   UNL A   1      47.093  34.797  29.960  1.00  0.00     0.200 A 
ATOM     95  F   UNL A   1      47.602  33.878  32.075  1.00  0.00    -0.200 F 
ATOM     96  F   UNL A   1      47.647  35.964  30.317  1.00  0.00    -0.200 F 
ENDBRANCH  63  86
ENDBRANCH  37  38
ENDBRANCH  29  32
ENDBRANCH  27  28
ENDBRANCH  26  27
ENDBRANCH   1  26
TORSDOF 14
ENDMDL
MODEL 2
REMARK VINA RESULT:     -12.5      0.582      7.430
REMARK SMILES COc1ccc(NC(=O)[C@@H]2CC=CC[C@H]2C(=O)NCCCCNC(=O)c2ccc(-c3c4nc(c(-c5c(F)c(F)c(F)c(F)c5F)c5ccc([nH]5)c(-c5c(F)c(F)c(F)c(F)c5F)c5nc(c(-c6c(F)c(F)c(F)c(F)c6F)c6ccc3[nH]6)C=C5)C=C4)cc2)cc1Cl
REMARK SMILES IDX 20 1 19 2 18 3 16 4 17 5 15 7 10 8 11 9 12 10 14 11 13 12
REMARK SMILES IDX 8 13 7 14 9 16 6 17 3 18 4 19 90 20 5 21 89 22 91 23 2 24
REMARK SMILES IDX 1 25 21 26 22 27 23 28 24 29 25 31 26 32 27 33 88 34 28 35
REMARK SMILES IDX 87 36 29 37 30 38 31 39 81 40 32 41 86 42 80 43 82 44 33 45
REMARK SMILES IDX 85 46 79 47 78 48 34 50 66 51 46 52 65 53 47 54 50 55 64 56
REMARK SMILES IDX 83 57 48 58 49 59 63 61 84 62 51 63 35 64 36 65 44 66 37 67
REMARK SMILES IDX 38 68 42 69 45 70 39 71 40 72 43 73 41 74 67 75 68 76 76 77
REMARK SMILES IDX 69 78 70 79 74 80 77 81 71 82 72 83 75 84 73 85 52 86 53 87
REMARK SMILES IDX 61 88 54 89 55 90 59 91 62 92 56 93 57 94 60 95 58 96
REMARK H PARENT 18 6 7 15 23 30 82 49 50 60
REMARK Flexibility Score: inf
ROOT
ATOM      1  C   UNL A   1      37.402  21.395  24.716  1.00  0.00     0.023 C 
ENDROOT
BRANCH   1   2
ATOM      2  C   UNL A   1      35.900  21.286  24.940  1.00  0.00     0.116 C 
BRANCH   2   3
ATOM      3  N   UNL A   1      35.537  21.729  26.270  1.00  0.00    -0.356 N 
ATOM      4  C   UNL A   1      34.731  22.738  26.679  1.00  0.00     0.224 C 
ATOM      5  O   UNL A   1      34.593  22.888  27.894  1.00  0.00    -0.275 OA
ATOM      6  H   UNL A   1      35.946  21.210  27.000  1.00  0.00     0.163 HD
BRANCH   4   7
ATOM      7  C   UNL A   1      33.995  23.624  25.690  1.00  0.00     0.095 C 
ATOM      8  C   UNL A   1      32.563  23.991  26.114  1.00  0.00     0.095 C 
ATOM      9  C   UNL A   1      31.877  24.945  25.126  1.00  0.00     0.041 C 
ATOM     10  C   UNL A   1      32.783  26.028  24.621  1.00  0.00    -0.030 C 
ATOM     11  C   UNL A   1      34.877  24.821  25.274  1.00  0.00     0.041 C 
ATOM     12  C   UNL A   1      34.118  25.978  24.701  1.00  0.00    -0.030 C 
BRANCH   8  13
ATOM     13  C   UNL A   1      31.533  22.951  26.573  1.00  0.00     0.228 C 
ATOM     14  N   UNL A   1      31.368  21.668  26.172  1.00  0.00    -0.326 N 
ATOM     15  H   UNL A   1      30.595  21.236  26.602  1.00  0.00     0.169 HD
ATOM     16  O   UNL A   1      30.717  23.318  27.438  1.00  0.00    -0.274 OA
BRANCH  14  17
ATOM     17  C   UNL A   1      32.036  20.813  25.291  1.00  0.00     0.042 A 
ATOM     18  C   UNL A   1      32.760  18.904  23.392  1.00  0.00     0.137 A 
ATOM     19  C   UNL A   1      33.070  18.708  24.738  1.00  0.00     0.050 A 
ATOM     20  C   UNL A   1      32.240  20.129  22.976  1.00  0.00     0.085 A 
ATOM     21  C   UNL A   1      32.759  19.695  25.679  1.00  0.00     0.030 A 
ATOM     22  C   UNL A   1      31.898  21.094  23.925  1.00  0.00     0.050 A 
ATOM     23  Cl  UNL A   1      31.941  20.466  21.310  1.00  0.00    -0.080 Cl
BRANCH  18  24
ATOM     24  O   UNL A   1      32.788  17.832  22.543  1.00  0.00    -0.495 OA
ATOM     25  C   UNL A   1      33.801  16.895  22.880  1.00  0.00     0.278 C 
ENDBRANCH  18  24
ENDBRANCH  14  17
ENDBRANCH   8  13
ENDBRANCH   4   7
ENDBRANCH   2   3
ENDBRANCH   1   2
BRANCH   1  26
ATOM     26  C   UNL A   1      38.166  20.094  24.962  1.00  0.00     0.023 C 
BRANCH  26  27
ATOM     27  C   UNL A   1      39.190  20.155  26.088  1.00  0.00     0.116 C 
BRANCH  27  28
ATOM     28  N   UNL A   1      40.264  19.188  25.926  1.00  0.00    -0.352 N 
ATOM     29  C   UNL A   1      41.620  19.371  26.000  1.00  0.00     0.251 C 
ATOM     30  H   UNL A   1      39.974  18.266  25.735  1.00  0.00     0.163 HD
ATOM     31  O   UNL A   1      42.382  18.459  25.710  1.00  0.00    -0.269 OA
BRANCH  29  32
ATOM     32  C   UNL A   1      42.156  20.689  26.392  1.00  0.00     0.039 A 
ATOM     33  C   UNL A   1      42.387  21.631  25.391  1.00  0.00     0.014 A 
ATOM     34  C   UNL A   1      42.414  20.998  27.731  1.00  0.00     0.014 A 
ATOM     35  C   UNL A   1      42.834  22.904  25.739  1.00  0.00     0.010 A 
ATOM     36  C   UNL A   1      42.775  22.294  28.084  1.00  0.00     0.010 A 
ATOM     37  C   UNL A   1      42.999  23.258  27.090  1.00  0.00    -0.014 A 
BRANCH  37  38
ATOM     38  C   UNL A   1      43.397  24.640  27.452  1.00  0.00     0.031 A 
ATOM     39  C   UNL A   1      44.801  25.118  27.220  1.00  0.00     0.074 A 
ATOM     40  C   UNL A   1      42.480  25.461  27.999  1.00  0.00     0.049 A 
ATOM     41  N   UNL A   1      45.309  26.310  27.407  1.00  0.00    -0.248 NA
ATOM     42  C   UNL A   1      45.773  24.124  26.736  1.00  0.00     0.031 C 
ATOM     43  C   UNL A   1      41.106  25.086  28.336  1.00  0.00     0.029 A 
ATOM     44  N   UNL A   1      42.560  26.784  28.353  1.00  0.00    -0.354 N 
ATOM     45  C   UNL A   1      46.650  26.210  27.062  1.00  0.00     0.074 A 
ATOM     46  C   UNL A   1      46.897  24.826  26.723  1.00  0.00     0.031 C 
ATOM     47  C   UNL A   1      40.458  26.165  28.803  1.00  0.00     0.029 A 
ATOM     48  C   UNL A   1      41.379  27.296  28.828  1.00  0.00     0.049 A 
ATOM     49  H   UNL A   1      43.385  27.315  28.273  1.00  0.00     0.167 HD
ATOM     50  C   UNL A   1      47.582  27.191  27.001  1.00  0.00     0.037 A 
ATOM     51  C   UNL A   1      41.070  28.544  29.230  1.00  0.00     0.037 A 
ATOM     52  C   UNL A   1      47.326  28.568  27.335  1.00  0.00     0.049 A 
ATOM     53  C   UNL A   1      42.124  29.614  29.150  1.00  0.00     0.074 A 
ATOM     54  C   UNL A   1      48.187  29.650  27.263  1.00  0.00     0.029 A 
ATOM     55  N   UNL A   1      46.117  29.053  27.815  1.00  0.00    -0.354 N 
ATOM     56  N   UNL A   1      43.365  29.527  28.736  1.00  0.00    -0.248 NA
ATOM     57  C   UNL A   1      41.727  30.962  29.578  1.00  0.00     0.031 C 
ATOM     58  C   UNL A   1      47.517  30.776  27.752  1.00  0.00     0.029 A 
ATOM     59  C   UNL A   1      46.218  30.413  28.068  1.00  0.00     0.049 A 
ATOM     60  H   UNL A   1      45.307  28.511  27.955  1.00  0.00     0.167 HD
ATOM     61  C   UNL A   1      43.890  30.809  28.833  1.00  0.00     0.074 A 
ATOM     62  C   UNL A   1      42.821  31.659  29.314  1.00  0.00     0.031 C 
ATOM     63  C   UNL A   1      45.145  31.243  28.557  1.00  0.00     0.037 A 
BRANCH  50  64
ATOM     64  C   UNL A   1      48.964  26.807  26.552  1.00  0.00     0.064 A 
ATOM     65  C   UNL A   1      49.364  26.930  25.211  1.00  0.00     0.173 A 
ATOM     66  C   UNL A   1      49.912  26.342  27.475  1.00  0.00     0.173 A 
ATOM     67  F   UNL A   1      48.494  27.357  24.283  1.00  0.00    -0.203 F 
ATOM     68  C   UNL A   1      50.648  26.572  24.808  1.00  0.00     0.198 A 
ATOM     69  C   UNL A   1      51.207  26.019  27.074  1.00  0.00     0.198 A 
ATOM     70  F   UNL A   1      49.588  26.208  28.770  1.00  0.00    -0.203 F 
ATOM     71  F   UNL A   1      50.987  26.647  23.513  1.00  0.00    -0.200 F 
ATOM     72  C   UNL A   1      51.571  26.126  25.741  1.00  0.00     0.200 A 
ATOM     73  F   UNL A   1      52.102  25.601  27.980  1.00  0.00    -0.200 F 
ATOM     74  F   UNL A   1      52.809  25.791  25.354  1.00  0.00    -0.200 F 
ENDBRANCH  50  64
BRANCH  51  75
ATOM     75  C   UNL A   1      39.698  28.852  29.711  1.00  0.00     0.064 A 
ATOM     76  C   UNL A   1      39.331  28.629  31.046  1.00  0.00     0.173 A 
ATOM     77  C   UNL A   1      38.723  29.370  28.846  1.00  0.00     0.173 A 
ATOM     78  F   UNL A   1      40.222  28.120  31.910  1.00  0.00    -0.203 F 
ATOM     79  C   UNL A   1      38.035  28.884  31.490  1.00  0.00     0.198 A 
ATOM     80  C   UNL A   1      37.437  29.657  29.299  1.00  0.00     0.198 A 
ATOM     81  F   UNL A   1      39.024  29.610  27.562  1.00  0.00    -0.203 F 
ATOM     82  F   UNL A   1      37.696  28.610  32.757  1.00  0.00    -0.200 F 
ATOM     83  C   UNL A   1      37.090  29.404  30.617  1.00  0.00     0.200 A 
ATOM     84  F   UNL A   1      36.533  30.176  28.456  1.00  0.00    -0.200 F 
ATOM     85  F   UNL A   1      35.846  29.653  31.045  1.00  0.00    -0.200 F 
ENDBRANCH  51  75
BRANCH  63  86
ATOM     86  C   UNL A   1      45.415  32.709  28.748  1.00  0.00     0.064 A 
ATOM     87  C   UNL A   1      45.925  33.216  29.953  1.00  0.00     0.173 A 
ATOM     88  C   UNL A   1      45.158  33.620  27.711  1.00  0.00     0.173 A 
ATOM     89  F   UNL A   1      46.177  32.389  30.980  1.00  0.00    -0.203 F 
ATOM     90  C   UNL A   1      46.121  34.582  30.131  1.00  0.00     0.198 A 
ATOM     91  C   UNL A   1      45.393  34.982  27.879  1.00  0.00     0.198 A 
ATOM     92  F   UNL A   1      44.681  33.191  26.534  1.00  0.00    -0.203 F 
ATOM     93  F   UNL A   1      46.537  35.049  31.316  1.00  0.00    -0.200 F 
ATOM     94  C   UNL A   1      45.860  35.464  29.093  1.00  0.00     0.200 A 
ATOM     95  F   UNL A   1      45.156  35.831  26.869  1.00  0.00    -0.200 F 
ATOM     96  F   UNL A   1      46.045  36.780  29.267  1.00  0.00    -0.200 F 
ENDBRANCH  63  86
ENDBRANCH  37  38
ENDBRANCH  29  32
ENDBRANCH  27  28
ENDBRANCH  26  27
ENDBRANCH   1  26
TORSDOF 14
ENDMDL
MODEL 3
REMARK VINA RESULT:     -12.5      1.271      2.192
REMARK SMILES COc1ccc(NC(=O)[C@@H]2CC=CC[C@H]2C(=O)NCCCCNC(=O)c2ccc(-c3c4nc(c(-c5c(F)c(F)c(F)c(F)c5F)c5ccc([nH]5)c(-c5c(F)c(F)c(F)c(F)c5F)c5nc(c(-c6c(F)c(F)c(F)c(F)c6F)c6ccc3[nH]6)C=C5)C=C4)cc2)cc1Cl
REMARK SMILES IDX 20 1 19 2 18 3 16 4 17 5 15 7 10 8 11 9 12 10 14 11 13 12
REMARK SMILES IDX 8 13 7 14 9 16 6 17 3 18 4 19 90 20 5 21 89 22 91 23 2 24
REMARK SMILES IDX 1 25 21 26 22 27 23 28 24 29 25 31 26 32 27 33 88 34 28 35
REMARK SMILES IDX 87 36 29 37 30 38 31 39 81 40 32 41 86 42 80 43 82 44 33 45
REMARK SMILES IDX 85 46 79 47 78 48 34 50 66 51 46 52 65 53 47 54 50 55 64 56
REMARK SMILES IDX 83 57 48 58 49 59 63 61 84 62 51 63 35 64 36 65 44 66 37 67
REMARK SMILES IDX 38 68 42 69 45 70 39 71 40 72 43 73 41 74 67 75 68 76 76 77
REMARK SMILES IDX 69 78 70 79 74 80 77 81 71 82 72 83 75 84 73 85 52 86 53 87
REMARK SMILES IDX 61 88 54 89 55 90 59 91 62 92 56 93 57 94 60 95 58 96
REMARK H PARENT 18 6 7 15 23 30 82 49 50 60
REMARK Flexibility Score: inf
ROOT
ATOM      1  C   UNL A   1      37.493  21.147  24.719  1.00  0.00     0.023 C 
ENDROOT
BRANCH   1   2
ATOM      2  C   UNL A   1      36.583  21.425  25.909  1.00  0.00     0.116 C 
BRANCH   2   3
ATOM      3  N   UNL A   1      36.205  22.821  25.962  1.00  0.00    -0.356 N 
ATOM      4  C   UNL A   1      35.284  23.517  25.251  1.00  0.00     0.224 C 
ATOM      5  O   UNL A   1      35.164  24.715  25.513  1.00  0.00    -0.275 OA
ATOM      6  H   UNL A   1      36.699  23.355  26.624  1.00  0.00     0.163 HD
BRANCH   4   7
ATOM      7  C   UNL A   1      34.409  22.849  24.206  1.00  0.00     0.095 C 
ATOM      8  C   UNL A   1      32.988  22.517  24.690  1.00  0.00     0.095 C 
ATOM      9  C   UNL A   1      32.111  21.909  23.586  1.00  0.00     0.041 C 
ATOM     10  C   UNL A   1      32.285  22.578  22.256  1.00  0.00    -0.030 C 
ATOM     11  C   UNL A   1      34.478  23.619  22.870  1.00  0.00     0.041 C 
ATOM     12  C   UNL A   1      33.332  23.351  21.943  1.00  0.00    -0.030 C 
BRANCH   8  13
ATOM     13  C   UNL A   1      32.703  21.767  25.998  1.00  0.00     0.228 C 
ATOM     14  N   UNL A   1      32.776  20.441  26.265  1.00  0.00    -0.326 N 
ATOM     15  H   UNL A   1      32.495  20.226  27.183  1.00  0.00     0.169 HD
ATOM     16  O   UNL A   1      32.348  22.458  26.971  1.00  0.00    -0.274 OA
BRANCH  14  17
ATOM     17  C   UNL A   1      33.156  19.307  25.542  1.00  0.00     0.042 A 
ATOM     18  C   UNL A   1      34.153  16.850  24.681  1.00  0.00     0.137 A 
ATOM     19  C   UNL A   1      34.746  18.037  24.251  1.00  0.00     0.050 A 
ATOM     20  C   UNL A   1      32.962  16.896  25.404  1.00  0.00     0.085 A 
ATOM     21  C   UNL A   1      34.206  19.268  24.636  1.00  0.00     0.030 A 
ATOM     22  C   UNL A   1      32.450  18.128  25.816  1.00  0.00     0.050 A 
ATOM     23  Cl  UNL A   1      32.127  15.458  25.866  1.00  0.00    -0.080 Cl
BRANCH  18  24
ATOM     24  O   UNL A   1      34.849  15.678  24.556  1.00  0.00    -0.495 OA
ATOM     25  C   UNL A   1      35.922  15.580  25.480  1.00  0.00     0.278 C 
ENDBRANCH  18  24
ENDBRANCH  14  17
ENDBRANCH   8  13
ENDBRANCH   4   7
ENDBRANCH   2   3
ENDBRANCH   1   2
BRANCH   1  26
ATOM     26  C   UNL A   1      38.380  19.913  24.887  1.00  0.00     0.023 C 
BRANCH  26  27
ATOM     27  C   UNL A   1      39.308  19.950  26.095  1.00  0.00     0.116 C 
BRANCH  27  28
ATOM     28  N   UNL A   1      40.376  18.966  26.015  1.00  0.00    -0.352 N 
ATOM     29  C   UNL A   1      41.733  19.148  26.061  1.00  0.00     0.251 C 
ATOM     30  H   UNL A   1      40.080  18.033  25.913  1.00  0.00     0.163 HD
ATOM     31  O   UNL A   1      42.488  18.208  25.852  1.00  0.00    -0.269 OA
BRANCH  29  32
ATOM     32  C   UNL A   1      42.279  20.494  26.326  1.00  0.00     0.039 A 
ATOM     33  C   UNL A   1      42.594  21.303  25.235  1.00  0.00     0.014 A 
ATOM     34  C   UNL A   1      42.463  20.958  27.632  1.00  0.00     0.014 A 
ATOM     35  C   UNL A   1      43.052  22.600  25.456  1.00  0.00     0.010 A 
ATOM     36  C   UNL A   1      42.836  22.281  27.849  1.00  0.00     0.010 A 
ATOM     37  C   UNL A   1      43.144  23.112  26.763  1.00  0.00    -0.014 A 
BRANCH  37  38
ATOM     38  C   UNL A   1      43.555  24.520  26.980  1.00  0.00     0.031 A 
ATOM     39  C   UNL A   1      42.579  25.530  27.512  1.00  0.00     0.074 A 
ATOM     40  C   UNL A   1      44.819  24.884  26.688  1.00  0.00     0.049 A 
ATOM     41  N   UNL A   1      42.780  26.784  27.831  1.00  0.00    -0.248 NA
ATOM     42  C   UNL A   1      41.188  25.085  27.688  1.00  0.00     0.031 C 
ATOM     43  C   UNL A   1      45.834  24.008  26.099  1.00  0.00     0.029 A 
ATOM     44  N   UNL A   1      45.469  26.079  26.858  1.00  0.00    -0.354 N 
ATOM     45  C   UNL A   1      41.548  27.271  28.247  1.00  0.00     0.074 A 
ATOM     46  C   UNL A   1      40.590  26.203  28.072  1.00  0.00     0.031 C 
ATOM     47  C   UNL A   1      46.991  24.680  26.003  1.00  0.00     0.029 A 
ATOM     48  C   UNL A   1      46.791  26.041  26.490  1.00  0.00     0.049 A 
ATOM     49  H   UNL A   1      45.031  26.887  27.210  1.00  0.00     0.167 HD
ATOM     50  C   UNL A   1      41.252  28.490  28.760  1.00  0.00     0.037 A 
ATOM     51  C   UNL A   1      47.739  26.995  26.550  1.00  0.00     0.037 A 
ATOM     52  C   UNL A   1      42.214  29.547  28.935  1.00  0.00     0.049 A 
ATOM     53  C   UNL A   1      47.382  28.339  27.125  1.00  0.00     0.074 A 
ATOM     54  C   UNL A   1      42.028  30.802  29.488  1.00  0.00     0.029 A 
ATOM     55  N   UNL A   1      43.546  29.474  28.550  1.00  0.00    -0.354 N 
ATOM     56  N   UNL A   1      46.235  28.759  27.600  1.00  0.00    -0.248 NA
ATOM     57  C   UNL A   1      48.460  29.334  27.189  1.00  0.00     0.031 C 
ATOM     58  C   UNL A   1      43.231  31.508  29.386  1.00  0.00     0.029 A 
ATOM     59  C   UNL A   1      44.186  30.672  28.830  1.00  0.00     0.049 A 
ATOM     60  H   UNL A   1      43.972  28.688  28.139  1.00  0.00     0.167 HD
ATOM     61  C   UNL A   1      46.457  30.059  28.037  1.00  0.00     0.074 A 
ATOM     62  C   UNL A   1      47.857  30.342  27.800  1.00  0.00     0.031 C 
ATOM     63  C   UNL A   1      45.580  30.941  28.578  1.00  0.00     0.037 A 
BRANCH  50  64
ATOM     64  C   UNL A   1      39.828  28.740  29.170  1.00  0.00     0.064 A 
ATOM     65  C   UNL A   1      39.384  28.491  30.479  1.00  0.00     0.173 A 
ATOM     66  C   UNL A   1      38.903  29.268  28.257  1.00  0.00     0.173 A 
ATOM     67  F   UNL A   1      40.222  27.975  31.390  1.00  0.00    -0.203 F 
ATOM     68  C   UNL A   1      38.062  28.729  30.848  1.00  0.00     0.198 A 
ATOM     69  C   UNL A   1      37.591  29.539  28.639  1.00  0.00     0.198 A 
ATOM     70  F   UNL A   1      39.272  29.530  26.994  1.00  0.00    -0.203 F 
ATOM     71  F   UNL A   1      37.650  28.431  32.088  1.00  0.00    -0.200 F 
ATOM     72  C   UNL A   1      37.169  29.261  29.930  1.00  0.00     0.200 A 
ATOM     73  F   UNL A   1      36.732  30.066  27.755  1.00  0.00    -0.200 F 
ATOM     74  F   UNL A   1      35.900  29.499  30.288  1.00  0.00    -0.200 F 
ENDBRANCH  50  64
BRANCH  51  75
ATOM     75  C   UNL A   1      49.120  26.702  26.082  1.00  0.00     0.064 A 
ATOM     76  C   UNL A   1      50.065  26.117  26.937  1.00  0.00     0.173 A 
ATOM     77  C   UNL A   1      49.525  27.007  24.774  1.00  0.00     0.173 A 
ATOM     78  F   UNL A   1      49.732  25.822  28.203  1.00  0.00    -0.203 F 
ATOM     79  C   UNL A   1      51.369  25.875  26.511  1.00  0.00     0.198 A 
ATOM     80  C   UNL A   1      50.820  26.733  24.339  1.00  0.00     0.198 A 
ATOM     81  F   UNL A   1      48.658  27.560  23.914  1.00  0.00    -0.203 F 
ATOM     82  F   UNL A   1      52.268  25.365  27.365  1.00  0.00    -0.200 F 
ATOM     83  C   UNL A   1      51.744  26.177  25.210  1.00  0.00     0.200 A 
ATOM     84  F   UNL A   1      51.171  27.010  23.076  1.00  0.00    -0.200 F 
ATOM     85  F   UNL A   1      52.997  25.940  24.799  1.00  0.00    -0.200 F 
ENDBRANCH  51  75
BRANCH  63  86
ATOM     86  C   UNL A   1      46.124  32.286  28.971  1.00  0.00     0.064 A 
ATOM     87  C   UNL A   1      46.657  32.523  30.248  1.00  0.00     0.173 A 
ATOM     88  C   UNL A   1      46.110  33.353  28.059  1.00  0.00     0.173 A 
ATOM     89  F   UNL A   1      46.683  31.541  31.161  1.00  0.00    -0.203 F 
ATOM     90  C   UNL A   1      47.110  33.788  30.611  1.00  0.00     0.198 A 
ATOM     91  C   UNL A   1      46.601  34.606  28.414  1.00  0.00     0.198 A 
ATOM     92  F   UNL A   1      45.623  33.180  26.822  1.00  0.00    -0.203 F 
ATOM     93  F   UNL A   1      47.545  34.008  31.860  1.00  0.00    -0.200 F 
ATOM     94  C   UNL A   1      47.086  34.827  29.694  1.00  0.00     0.200 A 
ATOM     95  F   UNL A   1      46.593  35.605  27.519  1.00  0.00    -0.200 F 
ATOM     96  F   UNL A   1      47.519  36.045  30.047  1.00  0.00    -0.200 F 
ENDBRANCH  63  86
ENDBRANCH  37  38
ENDBRANCH  29  32
ENDBRANCH  27  28
ENDBRANCH  26  27
ENDBRANCH   1  26
TORSDOF 14
ENDMDL
