MODEL 1
REMARK VINA RESULT:     -12.8      0.000      0.000
REMARK SMILES CC(C)N1C(=O)C[C@@H]([N@@H+]2CC[C@H](C(=O)NCCCCNC(=O)c3ccc(-c4c5nc(c(-c6c(F)c(F)c(F)c(F)c6F)c6ccc([nH]6)c(-c6c(F)c(F)c(F)c(F)c6F)c6nc(c(-c7c(F)c(F)c(F)c(F)c7F)c7ccc4[nH]7)C=C6)C=C5)cc3)[C@@H]2C)C1=O
REMARK SMILES IDX 17 1 16 2 15 3 13 4 14 5 12 7 9 8 10 9 86 10 11 12 87 13
REMARK SMILES IDX 8 14 4 15 5 16 88 17 6 18 7 19 89 20 2 21 1 22 3 23 18 24
REMARK SMILES IDX 19 25 20 26 21 27 22 29 23 30 24 31 85 32 25 33 84 34 26 35
REMARK SMILES IDX 27 36 28 37 78 38 29 39 83 40 77 41 79 42 30 43 82 44 76 45
REMARK SMILES IDX 75 46 31 48 63 49 43 50 62 51 44 52 47 53 61 54 80 55 45 56
REMARK SMILES IDX 46 57 60 59 81 60 48 61 32 62 33 63 41 64 34 65 35 66 39 67
REMARK SMILES IDX 42 68 36 69 37 70 40 71 38 72 64 73 65 74 73 75 66 76 67 77
REMARK SMILES IDX 71 78 74 79 68 80 69 81 72 82 70 83 49 84 50 85 58 86 51 87
REMARK SMILES IDX 52 88 56 89 59 90 53 91 54 92 57 93 55 94
REMARK H PARENT 15 6 9 11 20 28 79 47 47 58
REMARK Flexibility Score: inf
ROOT
ATOM      1  C   UNL A   1      31.846  30.635  26.218  1.00  0.00     0.023 C 
ENDROOT
BRANCH   1   2
ATOM      2  C   UNL A   1      31.029  30.324  24.968  1.00  0.00     0.116 C 
BRANCH   2   3
ATOM      3  N   UNL A   1      31.722  29.425  24.064  1.00  0.00    -0.356 N 
ATOM      4  C   UNL A   1      31.811  28.065  24.066  1.00  0.00     0.229 C 
ATOM      5  O   UNL A   1      32.392  27.529  23.121  1.00  0.00    -0.275 OA
ATOM      6  H   UNL A   1      32.205  29.868  23.329  1.00  0.00     0.163 HD
BRANCH   4   7
ATOM      7  C   UNL A   1      31.236  27.263  25.225  1.00  0.00     0.142 C 
ATOM      8  N   UNL A   1      32.384  25.222  25.804  1.00  0.00    -0.321 N 
ATOM      9  C   UNL A   1      31.482  24.938  24.686  1.00  0.00     0.264 C 
ATOM     10  C   UNL A   1      32.311  26.654  26.144  1.00  0.00     0.194 C 
ATOM     11  H   UNL A   1      32.050  24.734  26.636  1.00  0.00     0.349 HD
ATOM     12  C   UNL A   1      30.460  26.056  24.712  1.00  0.00     0.081 C 
ATOM     13  C   UNL A   1      33.603  27.465  26.263  1.00  0.00     0.076 C 
BRANCH   8  14
ATOM     14  C   UNL A   1      33.703  24.575  25.741  1.00  0.00     0.284 C 
ATOM     15  N   UNL A   1      33.917  22.503  24.643  1.00  0.00    -0.275 N 
ATOM     16  C   UNL A   1      34.514  23.414  23.817  1.00  0.00     0.236 C 
ATOM     17  C   UNL A   1      33.573  23.057  25.846  1.00  0.00     0.288 C 
ATOM     18  O   UNL A   1      35.050  23.177  22.743  1.00  0.00    -0.274 OA
ATOM     19  C   UNL A   1      34.496  24.767  24.453  1.00  0.00     0.176 C 
ATOM     20  O   UNL A   1      33.219  22.457  26.854  1.00  0.00    -0.267 OA
BRANCH  15  21
ATOM     21  C   UNL A   1      33.875  21.080  24.311  1.00  0.00     0.087 C 
ATOM     22  C   UNL A   1      35.023  20.332  24.987  1.00  0.00     0.031 C 
ATOM     23  C   UNL A   1      32.532  20.415  24.616  1.00  0.00     0.031 C 
ENDBRANCH  15  21
ENDBRANCH   8  14
ENDBRANCH   4   7
ENDBRANCH   2   3
ENDBRANCH   1   2
BRANCH   1  24
ATOM     24  C   UNL A   1      31.527  31.974  26.886  1.00  0.00     0.023 C 
BRANCH  24  25
ATOM     25  C   UNL A   1      32.736  32.776  27.358  1.00  0.00     0.116 C 
BRANCH  25  26
ATOM     26  N   UNL A   1      32.417  34.164  27.655  1.00  0.00    -0.352 N 
ATOM     27  C   UNL A   1      32.987  35.017  28.570  1.00  0.00     0.251 C 
ATOM     28  H   UNL A   1      31.685  34.550  27.122  1.00  0.00     0.163 HD
ATOM     29  O   UNL A   1      32.492  36.121  28.772  1.00  0.00    -0.269 OA
BRANCH  27  30
ATOM     30  C   UNL A   1      34.175  34.590  29.340  1.00  0.00     0.039 A 
ATOM     31  C   UNL A   1      33.991  34.105  30.638  1.00  0.00     0.014 A 
ATOM     32  C   UNL A   1      35.456  34.646  28.786  1.00  0.00     0.014 A 
ATOM     33  C   UNL A   1      35.080  33.591  31.344  1.00  0.00     0.010 A 
ATOM     34  C   UNL A   1      36.527  34.064  29.461  1.00  0.00     0.010 A 
ATOM     35  C   UNL A   1      36.347  33.519  30.741  1.00  0.00    -0.014 A 
BRANCH  35  36
ATOM     36  C   UNL A   1      37.475  32.827  31.414  1.00  0.00     0.031 A 
ATOM     37  C   UNL A   1      38.138  31.639  30.777  1.00  0.00     0.074 A 
ATOM     38  C   UNL A   1      37.850  33.224  32.646  1.00  0.00     0.049 A 
ATOM     39  N   UNL A   1      39.092  30.874  31.244  1.00  0.00    -0.248 NA
ATOM     40  C   UNL A   1      37.644  31.241  29.451  1.00  0.00     0.031 C 
ATOM     41  C   UNL A   1      37.244  34.325  33.397  1.00  0.00     0.029 A 
ATOM     42  N   UNL A   1      38.817  32.739  33.492  1.00  0.00    -0.354 N 
ATOM     43  C   UNL A   1      39.304  29.900  30.278  1.00  0.00     0.074 A 
ATOM     44  C   UNL A   1      38.345  30.139  29.222  1.00  0.00     0.031 C 
ATOM     45  C   UNL A   1      37.862  34.443  34.581  1.00  0.00     0.029 A 
ATOM     46  C   UNL A   1      38.876  33.399  34.694  1.00  0.00     0.049 A 
ATOM     47  H   UNL A   1      39.410  31.989  33.259  1.00  0.00     0.167 HD
ATOM     48  C   UNL A   1      40.227  28.907  30.269  1.00  0.00     0.037 A 
ATOM     49  C   UNL A   1      39.647  33.180  35.777  1.00  0.00     0.037 A 
ATOM     50  C   UNL A   1      41.187  28.682  31.319  1.00  0.00     0.049 A 
ATOM     51  C   UNL A   1      40.656  32.066  35.745  1.00  0.00     0.074 A 
ATOM     52  C   UNL A   1      42.217  27.760  31.363  1.00  0.00     0.029 A 
ATOM     53  N   UNL A   1      41.224  29.377  32.521  1.00  0.00    -0.354 N 
ATOM     54  N   UNL A   1      40.913  31.210  34.787  1.00  0.00    -0.248 NA
ATOM     55  C   UNL A   1      41.486  31.890  36.945  1.00  0.00     0.031 C 
ATOM     56  C   UNL A   1      42.832  27.849  32.616  1.00  0.00     0.029 A 
ATOM     57  C   UNL A   1      42.231  28.873  33.330  1.00  0.00     0.049 A 
ATOM     58  H   UNL A   1      40.623  30.119  32.762  1.00  0.00     0.167 HD
ATOM     59  C   UNL A   1      41.940  30.404  35.259  1.00  0.00     0.074 A 
ATOM     60  C   UNL A   1      42.276  30.891  36.581  1.00  0.00     0.031 C 
ATOM     61  C   UNL A   1      42.546  29.353  34.652  1.00  0.00     0.037 A 
BRANCH  48  62
ATOM     62  C   UNL A   1      40.233  27.975  29.090  1.00  0.00     0.064 A 
ATOM     63  C   UNL A   1      39.510  26.772  29.090  1.00  0.00     0.173 A 
ATOM     64  C   UNL A   1      40.948  28.306  27.928  1.00  0.00     0.173 A 
ATOM     65  F   UNL A   1      38.815  26.402  30.177  1.00  0.00    -0.203 F 
ATOM     66  C   UNL A   1      39.534  25.919  27.990  1.00  0.00     0.198 A 
ATOM     67  C   UNL A   1      40.941  27.468  26.816  1.00  0.00     0.198 A 
ATOM     68  F   UNL A   1      41.650  29.448  27.868  1.00  0.00    -0.203 F 
ATOM     69  F   UNL A   1      38.883  24.748  28.037  1.00  0.00    -0.200 F 
ATOM     70  C   UNL A   1      40.243  26.271  26.851  1.00  0.00     0.200 A 
ATOM     71  F   UNL A   1      41.614  27.818  25.711  1.00  0.00    -0.200 F 
ATOM     72  F   UNL A   1      40.260  25.451  25.791  1.00  0.00    -0.200 F 
ENDBRANCH  48  62
BRANCH  49  73
ATOM     73  C   UNL A   1      39.491  34.044  36.977  1.00  0.00     0.064 A 
ATOM     74  C   UNL A   1      38.744  33.618  38.083  1.00  0.00     0.173 A 
ATOM     75  C   UNL A   1      40.105  35.304  37.049  1.00  0.00     0.173 A 
ATOM     76  F   UNL A   1      38.123  32.430  38.053  1.00  0.00    -0.203 F 
ATOM     77  C   UNL A   1      38.607  34.424  39.212  1.00  0.00     0.198 A 
ATOM     78  C   UNL A   1      39.993  36.095  38.191  1.00  0.00     0.198 A 
ATOM     79  F   UNL A   1      40.836  35.755  36.020  1.00  0.00    -0.203 F 
ATOM     80  F   UNL A   1      37.856  34.008  40.240  1.00  0.00    -0.200 F 
ATOM     81  C   UNL A   1      39.239  35.657  39.268  1.00  0.00     0.200 A 
ATOM     82  F   UNL A   1      40.620  37.278  38.248  1.00  0.00    -0.200 F 
ATOM     83  F   UNL A   1      39.118  36.425  40.360  1.00  0.00    -0.200 F 
ENDBRANCH  49  73
BRANCH  61  84
ATOM     84  C   UNL A   1      43.644  28.661  35.409  1.00  0.00     0.064 A 
ATOM     85  C   UNL A   1      44.991  29.020  35.246  1.00  0.00     0.173 A 
ATOM     86  C   UNL A   1      43.344  27.650  36.336  1.00  0.00     0.173 A 
ATOM     87  F   UNL A   1      45.333  29.970  34.362  1.00  0.00    -0.203 F 
ATOM     88  C   UNL A   1      45.996  28.377  35.962  1.00  0.00     0.198 A 
ATOM     89  C   UNL A   1      44.349  27.032  37.074  1.00  0.00     0.198 A 
ATOM     90  F   UNL A   1      42.072  27.272  36.535  1.00  0.00    -0.203 F 
ATOM     91  F   UNL A   1      47.280  28.702  35.751  1.00  0.00    -0.200 F 
ATOM     92  C   UNL A   1      45.675  27.390  36.882  1.00  0.00     0.200 A 
ATOM     93  F   UNL A   1      44.034  26.090  37.974  1.00  0.00    -0.200 F 
ATOM     94  F   UNL A   1      46.643  26.777  37.576  1.00  0.00    -0.200 F 
ENDBRANCH  61  84
ENDBRANCH  35  36
ENDBRANCH  27  30
ENDBRANCH  25  26
ENDBRANCH  24  25
ENDBRANCH   1  24
TORSDOF 13
ENDMDL
MODEL 2
REMARK VINA RESULT:     -12.8      0.116      1.596
REMARK SMILES CC(C)N1C(=O)C[C@@H]([N@@H+]2CC[C@H](C(=O)NCCCCNC(=O)c3ccc(-c4c5nc(c(-c6c(F)c(F)c(F)c(F)c6F)c6ccc([nH]6)c(-c6c(F)c(F)c(F)c(F)c6F)c6nc(c(-c7c(F)c(F)c(F)c(F)c7F)c7ccc4[nH]7)C=C6)C=C5)cc3)[C@@H]2C)C1=O
REMARK SMILES IDX 17 1 16 2 15 3 13 4 14 5 12 7 9 8 10 9 86 10 11 12 87 13
REMARK SMILES IDX 8 14 4 15 5 16 88 17 6 18 7 19 89 20 2 21 1 22 3 23 18 24
REMARK SMILES IDX 19 25 20 26 21 27 22 29 23 30 24 31 85 32 25 33 84 34 26 35
REMARK SMILES IDX 27 36 28 37 78 38 29 39 83 40 77 41 79 42 30 43 82 44 76 45
REMARK SMILES IDX 75 46 31 48 63 49 43 50 62 51 44 52 47 53 61 54 80 55 45 56
REMARK SMILES IDX 46 57 60 59 81 60 48 61 32 62 33 63 41 64 34 65 35 66 39 67
REMARK SMILES IDX 42 68 36 69 37 70 40 71 38 72 64 73 65 74 73 75 66 76 67 77
REMARK SMILES IDX 71 78 74 79 68 80 69 81 72 82 70 83 49 84 50 85 58 86 51 87
REMARK SMILES IDX 52 88 56 89 59 90 53 91 54 92 57 93 55 94
REMARK H PARENT 15 6 9 11 20 28 79 47 47 58
REMARK Flexibility Score: inf
ROOT
ATOM      1  C   UNL A   1      31.903  30.639  26.127  1.00  0.00     0.023 C 
ENDROOT
BRANCH   1   2
ATOM      2  C   UNL A   1      30.953  30.257  24.995  1.00  0.00     0.116 C 
BRANCH   2   3
ATOM      3  N   UNL A   1      31.558  29.338  24.051  1.00  0.00    -0.356 N 
ATOM      4  C   UNL A   1      31.644  27.978  24.072  1.00  0.00     0.229 C 
ATOM      5  O   UNL A   1      32.135  27.421  23.088  1.00  0.00    -0.275 OA
ATOM      6  H   UNL A   1      31.974  29.765  23.267  1.00  0.00     0.163 HD
BRANCH   4   7
ATOM      7  C   UNL A   1      31.173  27.201  25.293  1.00  0.00     0.142 C 
ATOM      8  N   UNL A   1      32.403  25.200  25.844  1.00  0.00    -0.321 N 
ATOM      9  C   UNL A   1      31.427  24.866  24.805  1.00  0.00     0.264 C 
ATOM     10  C   UNL A   1      32.326  26.640  26.146  1.00  0.00     0.194 C 
ATOM     11  H   UNL A   1      32.143  24.732  26.712  1.00  0.00     0.349 HD
ATOM     12  C   UNL A   1      30.387  25.965  24.875  1.00  0.00     0.081 C 
ATOM     13  C   UNL A   1      33.606  27.478  26.144  1.00  0.00     0.076 C 
BRANCH   8  14
ATOM     14  C   UNL A   1      33.728  24.576  25.700  1.00  0.00     0.284 C 
ATOM     15  N   UNL A   1      33.906  22.492  24.618  1.00  0.00    -0.275 N 
ATOM     16  C   UNL A   1      34.429  23.402  23.741  1.00  0.00     0.236 C 
ATOM     17  C   UNL A   1      33.633  23.058  25.834  1.00  0.00     0.288 C 
ATOM     18  O   UNL A   1      34.896  23.159  22.636  1.00  0.00    -0.274 OA
ATOM     19  C   UNL A   1      34.428  24.763  24.359  1.00  0.00     0.176 C 
ATOM     20  O   UNL A   1      33.359  22.466  26.871  1.00  0.00    -0.267 OA
BRANCH  15  21
ATOM     21  C   UNL A   1      33.869  21.064  24.309  1.00  0.00     0.087 C 
ATOM     22  C   UNL A   1      35.016  20.330  25.001  1.00  0.00     0.031 C 
ATOM     23  C   UNL A   1      32.526  20.401  24.618  1.00  0.00     0.031 C 
ENDBRANCH  15  21
ENDBRANCH   8  14
ENDBRANCH   4   7
ENDBRANCH   2   3
ENDBRANCH   1   2
BRANCH   1  24
ATOM     24  C   UNL A   1      31.576  31.955  26.834  1.00  0.00     0.023 C 
BRANCH  24  25
ATOM     25  C   UNL A   1      32.780  32.751  27.328  1.00  0.00     0.116 C 
BRANCH  25  26
ATOM     26  N   UNL A   1      32.461  34.138  27.628  1.00  0.00    -0.352 N 
ATOM     27  C   UNL A   1      33.028  34.988  28.548  1.00  0.00     0.251 C 
ATOM     28  H   UNL A   1      31.732  34.527  27.093  1.00  0.00     0.163 HD
ATOM     29  O   UNL A   1      32.533  36.091  28.752  1.00  0.00    -0.269 OA
BRANCH  27  30
ATOM     30  C   UNL A   1      34.212  34.557  29.323  1.00  0.00     0.039 A 
ATOM     31  C   UNL A   1      34.018  34.034  30.605  1.00  0.00     0.014 A 
ATOM     32  C   UNL A   1      35.499  34.644  28.788  1.00  0.00     0.014 A 
ATOM     33  C   UNL A   1      35.105  33.517  31.312  1.00  0.00     0.010 A 
ATOM     34  C   UNL A   1      36.569  34.060  29.462  1.00  0.00     0.010 A 
ATOM     35  C   UNL A   1      36.380  33.479  30.725  1.00  0.00    -0.014 A 
BRANCH  35  36
ATOM     36  C   UNL A   1      37.509  32.784  31.394  1.00  0.00     0.031 A 
ATOM     37  C   UNL A   1      38.185  31.612  30.742  1.00  0.00     0.074 A 
ATOM     38  C   UNL A   1      37.872  33.164  32.635  1.00  0.00     0.049 A 
ATOM     39  N   UNL A   1      39.142  30.847  31.204  1.00  0.00    -0.248 NA
ATOM     40  C   UNL A   1      37.703  31.232  29.407  1.00  0.00     0.031 C 
ATOM     41  C   UNL A   1      37.252  34.248  33.399  1.00  0.00     0.029 A 
ATOM     42  N   UNL A   1      38.837  32.673  33.480  1.00  0.00    -0.354 N 
ATOM     43  C   UNL A   1      39.368  29.890  30.224  1.00  0.00     0.074 A 
ATOM     44  C   UNL A   1      38.415  30.140  29.164  1.00  0.00     0.031 C 
ATOM     45  C   UNL A   1      37.861  34.352  34.590  1.00  0.00     0.029 A 
ATOM     46  C   UNL A   1      38.882  33.314  34.693  1.00  0.00     0.049 A 
ATOM     47  H   UNL A   1      39.437  31.931  33.238  1.00  0.00     0.167 HD
ATOM     48  C   UNL A   1      40.299  28.905  30.205  1.00  0.00     0.037 A 
ATOM     49  C   UNL A   1      39.648  33.083  35.777  1.00  0.00     0.037 A 
ATOM     50  C   UNL A   1      41.253  28.671  31.258  1.00  0.00     0.049 A 
ATOM     51  C   UNL A   1      40.666  31.977  35.734  1.00  0.00     0.074 A 
ATOM     52  C   UNL A   1      42.290  27.755  31.294  1.00  0.00     0.029 A 
ATOM     53  N   UNL A   1      41.277  29.346  32.471  1.00  0.00    -0.354 N 
ATOM     54  N   UNL A   1      40.936  31.139  34.764  1.00  0.00    -0.248 NA
ATOM     55  C   UNL A   1      41.489  31.789  36.937  1.00  0.00     0.031 C 
ATOM     56  C   UNL A   1      42.896  27.829  32.552  1.00  0.00     0.029 A 
ATOM     57  C   UNL A   1      42.282  28.836  33.278  1.00  0.00     0.049 A 
ATOM     58  H   UNL A   1      40.669  30.079  32.720  1.00  0.00     0.167 HD
ATOM     59  C   UNL A   1      41.966  30.334  35.230  1.00  0.00     0.074 A 
ATOM     60  C   UNL A   1      42.289  30.801  36.563  1.00  0.00     0.031 C 
ATOM     61  C   UNL A   1      42.585  29.298  34.610  1.00  0.00     0.037 A 
BRANCH  48  62
ATOM     62  C   UNL A   1      40.320  27.992  29.010  1.00  0.00     0.064 A 
ATOM     63  C   UNL A   1      41.056  28.299  27.856  1.00  0.00     0.173 A 
ATOM     64  C   UNL A   1      39.618  26.778  29.034  1.00  0.00     0.173 A 
ATOM     65  F   UNL A   1      41.740  29.451  27.776  1.00  0.00    -0.203 F 
ATOM     66  C   UNL A   1      41.058  27.443  26.757  1.00  0.00     0.198 A 
ATOM     67  C   UNL A   1      39.650  25.907  27.947  1.00  0.00     0.198 A 
ATOM     68  F   UNL A   1      38.904  26.429  30.115  1.00  0.00    -0.203 F 
ATOM     69  F   UNL A   1      41.721  27.786  25.643  1.00  0.00    -0.200 F 
ATOM     70  C   UNL A   1      40.361  26.245  26.806  1.00  0.00     0.200 A 
ATOM     71  F   UNL A   1      38.988  24.743  28.003  1.00  0.00    -0.200 F 
ATOM     72  F   UNL A   1      40.368  25.421  25.750  1.00  0.00    -0.200 F 
ENDBRANCH  48  62
BRANCH  49  73
ATOM     73  C   UNL A   1      39.477  33.926  36.990  1.00  0.00     0.064 A 
ATOM     74  C   UNL A   1      40.048  35.203  37.070  1.00  0.00     0.173 A 
ATOM     75  C   UNL A   1      38.721  33.479  38.084  1.00  0.00     0.173 A 
ATOM     76  F   UNL A   1      40.796  35.666  36.057  1.00  0.00    -0.203 F 
ATOM     77  C   UNL A   1      39.879  35.997  38.203  1.00  0.00     0.198 A 
ATOM     78  C   UNL A   1      38.527  34.286  39.203  1.00  0.00     0.198 A 
ATOM     79  F   UNL A   1      38.149  32.266  38.055  1.00  0.00    -0.203 F 
ATOM     80  F   UNL A   1      40.467  37.199  38.269  1.00  0.00    -0.200 F 
ATOM     81  C   UNL A   1      39.111  35.541  39.264  1.00  0.00     0.200 A 
ATOM     82  F   UNL A   1      37.770  33.849  40.218  1.00  0.00    -0.200 F 
ATOM     83  F   UNL A   1      38.938  36.311  40.347  1.00  0.00    -0.200 F 
ENDBRANCH  49  73
BRANCH  61  84
ATOM     84  C   UNL A   1      43.682  28.602  35.364  1.00  0.00     0.064 A 
ATOM     85  C   UNL A   1      45.022  29.006  35.254  1.00  0.00     0.173 A 
ATOM     86  C   UNL A   1      43.389  27.541  36.235  1.00  0.00     0.173 A 
ATOM     87  F   UNL A   1      45.359  30.004  34.424  1.00  0.00    -0.203 F 
ATOM     88  C   UNL A   1      46.027  28.357  35.966  1.00  0.00     0.198 A 
ATOM     89  C   UNL A   1      44.392  26.917  36.971  1.00  0.00     0.198 A 
ATOM     90  F   UNL A   1      42.124  27.118  36.383  1.00  0.00    -0.203 F 
ATOM     91  F   UNL A   1      47.306  28.728  35.804  1.00  0.00    -0.200 F 
ATOM     92  C   UNL A   1      45.711  27.320  36.830  1.00  0.00     0.200 A 
ATOM     93  F   UNL A   1      44.082  25.925  37.818  1.00  0.00    -0.200 F 
ATOM     94  F   UNL A   1      46.679  26.703  37.521  1.00  0.00    -0.200 F 
ENDBRANCH  61  84
ENDBRANCH  35  36
ENDBRANCH  27  30
ENDBRANCH  25  26
ENDBRANCH  24  25
ENDBRANCH   1  24
TORSDOF 13
ENDMDL
MODEL 3
REMARK VINA RESULT:     -12.8      0.172      1.599
REMARK SMILES CC(C)N1C(=O)C[C@@H]([N@@H+]2CC[C@H](C(=O)NCCCCNC(=O)c3ccc(-c4c5nc(c(-c6c(F)c(F)c(F)c(F)c6F)c6ccc([nH]6)c(-c6c(F)c(F)c(F)c(F)c6F)c6nc(c(-c7c(F)c(F)c(F)c(F)c7F)c7ccc4[nH]7)C=C6)C=C5)cc3)[C@@H]2C)C1=O
REMARK SMILES IDX 17 1 16 2 15 3 13 4 14 5 12 7 9 8 10 9 86 10 11 12 87 13
REMARK SMILES IDX 8 14 4 15 5 16 88 17 6 18 7 19 89 20 2 21 1 22 3 23 18 24
REMARK SMILES IDX 19 25 20 26 21 27 22 29 23 30 24 31 85 32 25 33 84 34 26 35
REMARK SMILES IDX 27 36 28 37 78 38 29 39 83 40 77 41 79 42 30 43 82 44 76 45
REMARK SMILES IDX 75 46 31 48 63 49 43 50 62 51 44 52 47 53 61 54 80 55 45 56
REMARK SMILES IDX 46 57 60 59 81 60 48 61 32 62 33 63 41 64 34 65 35 66 39 67
REMARK SMILES IDX 42 68 36 69 37 70 40 71 38 72 64 73 65 74 73 75 66 76 67 77
REMARK SMILES IDX 71 78 74 79 68 80 69 81 72 82 70 83 49 84 50 85 58 86 51 87
REMARK SMILES IDX 52 88 56 89 59 90 53 91 54 92 57 93 55 94
REMARK H PARENT 15 6 9 11 20 28 79 47 47 58
REMARK Flexibility Score: inf
ROOT
ATOM      1  C   UNL A   1      31.852  30.613  26.182  1.00  0.00     0.023 C 
ENDROOT
BRANCH   1   2
ATOM      2  C   UNL A   1      31.027  30.312  24.933  1.00  0.00     0.116 C 
BRANCH   2   3
ATOM      3  N   UNL A   1      31.705  29.402  24.029  1.00  0.00    -0.356 N 
ATOM      4  C   UNL A   1      31.787  28.042  24.041  1.00  0.00     0.229 C 
ATOM      5  O   UNL A   1      32.354  27.495  23.093  1.00  0.00    -0.275 OA
ATOM      6  H   UNL A   1      32.183  29.837  23.286  1.00  0.00     0.163 HD
BRANCH   4   7
ATOM      7  C   UNL A   1      31.220  27.252  25.212  1.00  0.00     0.142 C 
ATOM      8  N   UNL A   1      32.374  25.218  25.807  1.00  0.00    -0.321 N 
ATOM      9  C   UNL A   1      31.466  24.921  24.697  1.00  0.00     0.264 C 
ATOM     10  C   UNL A   1      32.301  26.654  26.130  1.00  0.00     0.194 C 
ATOM     11  H   UNL A   1      32.046  24.739  26.645  1.00  0.00     0.349 HD
ATOM     12  C   UNL A   1      30.443  26.038  24.717  1.00  0.00     0.081 C 
ATOM     13  C   UNL A   1      33.593  27.468  26.233  1.00  0.00     0.076 C 
BRANCH   8  14
ATOM     14  C   UNL A   1      33.694  24.572  25.742  1.00  0.00     0.284 C 
ATOM     15  N   UNL A   1      33.903  22.488  24.666  1.00  0.00    -0.275 N 
ATOM     16  C   UNL A   1      34.494  23.390  23.826  1.00  0.00     0.236 C 
ATOM     17  C   UNL A   1      33.566  23.056  25.865  1.00  0.00     0.288 C 
ATOM     18  O   UNL A   1      35.024  23.142  22.751  1.00  0.00    -0.274 OA
ATOM     19  C   UNL A   1      34.478  24.751  24.447  1.00  0.00     0.176 C 
ATOM     20  O   UNL A   1      33.220  22.466  26.882  1.00  0.00    -0.267 OA
BRANCH  15  21
ATOM     21  C   UNL A   1      33.862  21.061  24.351  1.00  0.00     0.087 C 
ATOM     22  C   UNL A   1      35.033  20.328  25.001  1.00  0.00     0.031 C 
ATOM     23  C   UNL A   1      32.532  20.391  24.701  1.00  0.00     0.031 C 
ENDBRANCH  15  21
ENDBRANCH   8  14
ENDBRANCH   4   7
ENDBRANCH   2   3
ENDBRANCH   1   2
BRANCH   1  24
ATOM     24  C   UNL A   1      31.538  31.947  26.861  1.00  0.00     0.023 C 
BRANCH  24  25
ATOM     25  C   UNL A   1      32.750  32.741  27.338  1.00  0.00     0.116 C 
BRANCH  25  26
ATOM     26  N   UNL A   1      32.439  34.130  27.638  1.00  0.00    -0.352 N 
ATOM     27  C   UNL A   1      33.019  34.980  28.549  1.00  0.00     0.251 C 
ATOM     28  H   UNL A   1      31.705  34.519  27.110  1.00  0.00     0.163 HD
ATOM     29  O   UNL A   1      32.529  36.086  28.754  1.00  0.00    -0.269 OA
BRANCH  27  30
ATOM     30  C   UNL A   1      34.210  34.548  29.311  1.00  0.00     0.039 A 
ATOM     31  C   UNL A   1      34.033  34.058  30.607  1.00  0.00     0.014 A 
ATOM     32  C   UNL A   1      35.488  34.604  28.750  1.00  0.00     0.014 A 
ATOM     33  C   UNL A   1      35.125  33.540  31.306  1.00  0.00     0.010 A 
ATOM     34  C   UNL A   1      36.561  34.018  29.416  1.00  0.00     0.010 A 
ATOM     35  C   UNL A   1      36.388  33.468  30.696  1.00  0.00    -0.014 A 
BRANCH  35  36
ATOM     36  C   UNL A   1      37.519  32.771  31.359  1.00  0.00     0.031 A 
ATOM     37  C   UNL A   1      38.199  31.607  30.698  1.00  0.00     0.074 A 
ATOM     38  C   UNL A   1      37.880  33.142  32.604  1.00  0.00     0.049 A 
ATOM     39  N   UNL A   1      39.158  30.841  31.153  1.00  0.00    -0.248 NA
ATOM     40  C   UNL A   1      37.719  31.237  29.359  1.00  0.00     0.031 C 
ATOM     41  C   UNL A   1      37.257  34.217  33.377  1.00  0.00     0.029 A 
ATOM     42  N   UNL A   1      38.846  32.646  33.445  1.00  0.00    -0.354 N 
ATOM     43  C   UNL A   1      39.387  29.894  30.165  1.00  0.00     0.074 A 
ATOM     44  C   UNL A   1      38.434  30.149  29.107  1.00  0.00     0.031 C 
ATOM     45  C   UNL A   1      37.864  34.312  34.569  1.00  0.00     0.029 A 
ATOM     46  C   UNL A   1      38.889  33.277  34.664  1.00  0.00     0.049 A 
ATOM     47  H   UNL A   1      39.449  31.909  33.197  1.00  0.00     0.167 HD
ATOM     48  C   UNL A   1      40.321  28.912  30.138  1.00  0.00     0.037 A 
ATOM     49  C   UNL A   1      39.655  33.039  35.746  1.00  0.00     0.037 A 
ATOM     50  C   UNL A   1      41.276  28.671  31.190  1.00  0.00     0.049 A 
ATOM     51  C   UNL A   1      40.676  31.936  35.694  1.00  0.00     0.074 A 
ATOM     52  C   UNL A   1      42.316  27.758  31.218  1.00  0.00     0.029 A 
ATOM     53  N   UNL A   1      41.297  29.336  32.408  1.00  0.00    -0.354 N 
ATOM     54  N   UNL A   1      40.949  31.108  34.717  1.00  0.00    -0.248 NA
ATOM     55  C   UNL A   1      41.499  31.740  36.896  1.00  0.00     0.031 C 
ATOM     56  C   UNL A   1      42.921  27.823  32.477  1.00  0.00     0.029 A 
ATOM     57  C   UNL A   1      42.303  28.822  33.212  1.00  0.00     0.049 A 
ATOM     58  H   UNL A   1      40.686  30.065  32.664  1.00  0.00     0.167 HD
ATOM     59  C   UNL A   1      41.981  30.301  35.176  1.00  0.00     0.074 A 
ATOM     60  C   UNL A   1      42.302  30.758  36.513  1.00  0.00     0.031 C 
ATOM     61  C   UNL A   1      42.603  29.273  34.548  1.00  0.00     0.037 A 
BRANCH  48  62
ATOM     62  C   UNL A   1      40.346  28.010  28.936  1.00  0.00     0.064 A 
ATOM     63  C   UNL A   1      39.621  26.809  28.893  1.00  0.00     0.173 A 
ATOM     64  C   UNL A   1      41.082  28.368  27.796  1.00  0.00     0.173 A 
ATOM     65  F   UNL A   1      38.905  26.414  29.958  1.00  0.00    -0.203 F 
ATOM     66  C   UNL A   1      39.662  25.984  27.772  1.00  0.00     0.198 A 
ATOM     67  C   UNL A   1      41.093  27.558  26.663  1.00  0.00     0.198 A 
ATOM     68  F   UNL A   1      41.788  29.509  27.777  1.00  0.00    -0.203 F 
ATOM     69  F   UNL A   1      39.007  24.814  27.778  1.00  0.00    -0.200 F 
ATOM     70  C   UNL A   1      40.392  26.362  26.656  1.00  0.00     0.200 A 
ATOM     71  F   UNL A   1      41.787  27.933  25.580  1.00  0.00    -0.200 F 
ATOM     72  F   UNL A   1      40.426  25.569  25.576  1.00  0.00    -0.200 F 
ENDBRANCH  48  62
BRANCH  49  73
ATOM     73  C   UNL A   1      39.481  33.870  36.966  1.00  0.00     0.064 A 
ATOM     74  C   UNL A   1      40.065  35.140  37.066  1.00  0.00     0.173 A 
ATOM     75  C   UNL A   1      38.709  33.420  38.048  1.00  0.00     0.173 A 
ATOM     76  F   UNL A   1      40.827  35.606  36.066  1.00  0.00    -0.203 F 
ATOM     77  C   UNL A   1      39.892  35.924  38.205  1.00  0.00     0.198 A 
ATOM     78  C   UNL A   1      38.512  34.217  39.173  1.00  0.00     0.198 A 
ATOM     79  F   UNL A   1      38.123  32.214  38.000  1.00  0.00    -0.203 F 
ATOM     80  F   UNL A   1      40.493  37.118  38.290  1.00  0.00    -0.200 F 
ATOM     81  C   UNL A   1      39.109  35.465  39.254  1.00  0.00     0.200 A 
ATOM     82  F   UNL A   1      37.739  33.778  40.176  1.00  0.00    -0.200 F 
ATOM     83  F   UNL A   1      38.933  36.225  40.344  1.00  0.00    -0.200 F 
ENDBRANCH  49  73
BRANCH  61  84
ATOM     84  C   UNL A   1      43.703  28.574  35.296  1.00  0.00     0.064 A 
ATOM     85  C   UNL A   1      43.447  27.454  36.104  1.00  0.00     0.173 A 
ATOM     86  C   UNL A   1      45.033  29.005  35.179  1.00  0.00     0.173 A 
ATOM     87  F   UNL A   1      42.191  27.010  36.263  1.00  0.00    -0.203 F 
ATOM     88  C   UNL A   1      44.477  26.811  36.784  1.00  0.00     0.198 A 
ATOM     89  C   UNL A   1      46.065  28.339  35.834  1.00  0.00     0.198 A 
ATOM     90  F   UNL A   1      45.335  30.067  34.416  1.00  0.00    -0.203 F 
ATOM     91  F   UNL A   1      44.201  25.775  37.590  1.00  0.00    -0.200 F 
ATOM     92  C   UNL A   1      45.786  27.247  36.642  1.00  0.00     0.200 A 
ATOM     93  F   UNL A   1      47.331  28.753  35.682  1.00  0.00    -0.200 F 
ATOM     94  F   UNL A   1      46.777  26.622  37.291  1.00  0.00    -0.200 F 
ENDBRANCH  61  84
ENDBRANCH  35  36
ENDBRANCH  27  30
ENDBRANCH  25  26
ENDBRANCH  24  25
ENDBRANCH   1  24
TORSDOF 13
ENDMDL
