MODEL 1
REMARK VINA RESULT:     -16.0      0.000      0.000
REMARK SMILES Cc1ccc([C@@]23C[C@@H]4C[C@@H](C[C@@](C(=O)N5CCC(C(=O)NCCCCNC(=O)c6ccc(-c7c8nc(c(-c9c(F)c(F)c(F)c(F)c9F)c9ccc([nH]9)c(-c9c(F)c(F)c(F)c(F)c9F)c9nc(c(-c%10c(F)c(F)c(F)c(F)c%10F)c%10ccc7[nH]%10)C=C9)C=C8)cc6)CC5)(C4)C2)C3)cc1
REMARK SMILES IDX 23 1 22 2 21 3 19 4 20 5 18 7 13 8 14 9 15 10 16 11 93 12
REMARK SMILES IDX 17 13 92 14 12 15 6 16 7 17 95 18 96 19 8 20 10 21 9 22
REMARK SMILES IDX 94 23 11 24 5 25 1 26 2 27 3 28 98 29 4 30 97 31 24 32 25 33
REMARK SMILES IDX 26 34 27 35 28 37 29 38 30 39 91 40 31 41 90 42 32 43 33 44
REMARK SMILES IDX 34 45 84 46 35 47 89 48 83 49 85 50 36 51 88 52 82 53 81 54
REMARK SMILES IDX 37 56 69 57 49 58 68 59 50 60 53 61 67 62 86 63 51 64 52 65
REMARK SMILES IDX 66 67 87 68 54 69 38 70 39 71 47 72 40 73 41 74 45 75 48 76
REMARK SMILES IDX 42 77 43 78 46 79 44 80 70 81 71 82 79 83 72 84 73 85 77 86
REMARK SMILES IDX 80 87 74 88 75 89 78 90 76 91 55 92 56 93 64 94 57 95 58 96
REMARK SMILES IDX 62 97 65 98 59 99 60 100 63 101 61 102
REMARK H PARENT 21 6 26 36 85 55 53 66
REMARK Flexibility Score: inf
ROOT
ATOM      1  C   UNL A   1      31.765  29.536  25.976  1.00  0.00     0.023 C 
ENDROOT
BRANCH   1   2
ATOM      2  C   UNL A   1      32.293  29.046  24.619  1.00  0.00     0.116 C 
BRANCH   2   3
ATOM      3  N   UNL A   1      31.556  29.582  23.481  1.00  0.00    -0.356 N 
ATOM      4  C   UNL A   1      30.801  28.982  22.519  1.00  0.00     0.223 C 
ATOM      5  O   UNL A   1      30.263  29.709  21.679  1.00  0.00    -0.275 OA
ATOM      6  H   UNL A   1      31.615  30.561  23.391  1.00  0.00     0.163 HD
BRANCH   4   7
ATOM      7  C   UNL A   1      30.613  27.473  22.458  1.00  0.00     0.082 C 
ATOM      8  C   UNL A   1      31.908  24.863  25.133  1.00  0.00     0.228 C 
ATOM      9  O   UNL A   1      31.354  25.174  26.192  1.00  0.00    -0.274 OA
ATOM     10  N   UNL A   1      31.282  25.118  23.913  1.00  0.00    -0.342 N 
ATOM     11  C   UNL A   1      29.877  25.499  23.912  1.00  0.00     0.120 C 
ATOM     12  C   UNL A   1      31.901  25.289  22.601  1.00  0.00     0.120 C 
ATOM     13  C   UNL A   1      29.725  26.983  23.617  1.00  0.00     0.035 C 
ATOM     14  C   UNL A   1      31.965  26.770  22.275  1.00  0.00     0.035 C 
BRANCH   8  15
ATOM     15  C   UNL A   1      33.278  24.147  25.166  1.00  0.00     0.051 C 
ATOM     16  C   UNL A   1      34.351  21.817  24.911  1.00  0.00    -0.003 C 
ATOM     17  C   UNL A   1      35.276  22.470  23.838  1.00  0.00     0.015 C 
ATOM     18  C   UNL A   1      33.045  22.641  24.947  1.00  0.00     0.028 C 
ATOM     19  C   UNL A   1      35.016  21.973  26.302  1.00  0.00     0.015 C 
ATOM     20  C   UNL A   1      35.588  23.942  24.175  1.00  0.00    -0.009 C 
ATOM     21  C   UNL A   1      35.269  23.463  26.616  1.00  0.00    -0.009 C 
ATOM     22  C   UNL A   1      36.232  24.030  25.564  1.00  0.00     0.007 C 
ATOM     23  C   UNL A   1      34.287  24.755  24.173  1.00  0.00     0.020 C 
ATOM     24  C   UNL A   1      33.942  24.256  26.574  1.00  0.00     0.020 C 
BRANCH  16  25
ATOM     25  C   UNL A   1      34.071  20.340  24.576  1.00  0.00    -0.042 A 
ATOM     26  C   UNL A   1      33.196  16.145  23.861  1.00  0.00     0.044 C 
ATOM     27  C   UNL A   1      33.489  17.599  24.078  1.00  0.00    -0.051 A 
ATOM     28  C   UNL A   1      34.758  17.987  24.502  1.00  0.00     0.004 A 
ATOM     29  C   UNL A   1      32.519  18.583  23.879  1.00  0.00     0.004 A 
ATOM     30  C   UNL A   1      35.042  19.333  24.737  1.00  0.00     0.004 A 
ATOM     31  C   UNL A   1      32.807  19.934  24.119  1.00  0.00     0.004 A 
ENDBRANCH  16  25
ENDBRANCH   8  15
ENDBRANCH   4   7
ENDBRANCH   2   3
ENDBRANCH   1   2
BRANCH   1  32
ATOM     32  C   UNL A   1      32.558  30.671  26.629  1.00  0.00     0.023 C 
BRANCH  32  33
ATOM     33  C   UNL A   1      33.765  30.211  27.436  1.00  0.00     0.116 C 
BRANCH  33  34
ATOM     34  N   UNL A   1      34.320  31.218  28.333  1.00  0.00    -0.352 N 
ATOM     35  C   UNL A   1      35.459  31.147  29.120  1.00  0.00     0.251 C 
ATOM     36  H   UNL A   1      33.816  32.062  28.387  1.00  0.00     0.163 HD
ATOM     37  O   UNL A   1      35.755  32.062  29.870  1.00  0.00    -0.269 OA
BRANCH  35  38
ATOM     38  C   UNL A   1      36.386  30.003  28.939  1.00  0.00     0.039 A 
ATOM     39  C   UNL A   1      36.727  29.252  30.069  1.00  0.00     0.014 A 
ATOM     40  C   UNL A   1      37.067  29.818  27.739  1.00  0.00     0.014 A 
ATOM     41  C   UNL A   1      37.909  28.516  30.064  1.00  0.00     0.010 A 
ATOM     42  C   UNL A   1      38.288  29.173  27.762  1.00  0.00     0.010 A 
ATOM     43  C   UNL A   1      38.742  28.589  28.948  1.00  0.00    -0.014 A 
BRANCH  43  44
ATOM     44  C   UNL A   1      40.140  28.178  28.971  1.00  0.00     0.031 A 
ATOM     45  C   UNL A   1      40.525  26.821  28.541  1.00  0.00     0.074 A 
ATOM     46  C   UNL A   1      41.087  29.069  29.343  1.00  0.00     0.049 A 
ATOM     47  N   UNL A   1      41.629  26.241  28.875  1.00  0.00    -0.248 NA
ATOM     48  C   UNL A   1      39.642  25.960  27.764  1.00  0.00     0.031 C 
ATOM     49  C   UNL A   1      42.533  28.938  29.191  1.00  0.00     0.029 A 
ATOM     50  N   UNL A   1      40.922  30.204  30.156  1.00  0.00    -0.354 N 
ATOM     51  C   UNL A   1      41.737  25.082  28.143  1.00  0.00     0.074 A 
ATOM     52  C   UNL A   1      40.421  24.888  27.589  1.00  0.00     0.031 C 
ATOM     53  C   UNL A   1      43.135  29.719  30.103  1.00  0.00     0.029 A 
ATOM     54  C   UNL A   1      42.091  30.264  30.952  1.00  0.00     0.049 A 
ATOM     55  H   UNL A   1      40.157  30.824  30.170  1.00  0.00     0.167 HD
ATOM     56  C   UNL A   1      42.972  24.521  27.992  1.00  0.00     0.037 A 
ATOM     57  C   UNL A   1      42.046  30.145  32.308  1.00  0.00     0.037 A 
ATOM     58  C   UNL A   1      43.930  25.132  28.919  1.00  0.00     0.049 A 
ATOM     59  C   UNL A   1      42.879  29.011  32.855  1.00  0.00     0.074 A 
ATOM     60  C   UNL A   1      44.960  26.045  28.758  1.00  0.00     0.029 A 
ATOM     61  N   UNL A   1      43.720  25.018  30.292  1.00  0.00    -0.354 N 
ATOM     62  N   UNL A   1      43.291  28.002  32.140  1.00  0.00    -0.248 NA
ATOM     63  C   UNL A   1      43.284  28.907  34.254  1.00  0.00     0.031 C 
ATOM     64  C   UNL A   1      45.324  26.528  30.042  1.00  0.00     0.029 A 
ATOM     65  C   UNL A   1      44.539  25.886  30.985  1.00  0.00     0.049 A 
ATOM     66  H   UNL A   1      43.075  24.403  30.710  1.00  0.00     0.167 HD
ATOM     67  C   UNL A   1      43.981  27.126  32.937  1.00  0.00     0.074 A 
ATOM     68  C   UNL A   1      43.965  27.747  34.248  1.00  0.00     0.031 C 
ATOM     69  C   UNL A   1      44.494  25.960  32.440  1.00  0.00     0.037 A 
BRANCH  56  70
ATOM     70  C   UNL A   1      43.404  23.603  26.850  1.00  0.00     0.064 A 
ATOM     71  C   UNL A   1      43.021  22.240  26.853  1.00  0.00     0.173 A 
ATOM     72  C   UNL A   1      44.278  23.943  25.796  1.00  0.00     0.173 A 
ATOM     73  F   UNL A   1      42.148  21.760  27.749  1.00  0.00    -0.203 F 
ATOM     74  C   UNL A   1      43.529  21.301  25.943  1.00  0.00     0.198 A 
ATOM     75  C   UNL A   1      44.776  23.009  24.879  1.00  0.00     0.198 A 
ATOM     76  F   UNL A   1      44.708  25.185  25.587  1.00  0.00    -0.203 F 
ATOM     77  F   UNL A   1      43.164  20.016  26.038  1.00  0.00    -0.200 F 
ATOM     78  C   UNL A   1      44.418  21.685  24.963  1.00  0.00     0.200 A 
ATOM     79  F   UNL A   1      45.624  23.414  23.921  1.00  0.00    -0.200 F 
ATOM     80  F   UNL A   1      44.921  20.790  24.102  1.00  0.00    -0.200 F 
ENDBRANCH  56  70
BRANCH  57  81
ATOM     81  C   UNL A   1      40.777  30.643  32.900  1.00  0.00     0.064 A 
ATOM     82  C   UNL A   1      40.538  32.031  32.886  1.00  0.00     0.173 A 
ATOM     83  C   UNL A   1      39.681  29.798  33.108  1.00  0.00     0.173 A 
ATOM     84  F   UNL A   1      41.557  32.881  32.694  1.00  0.00    -0.203 F 
ATOM     85  C   UNL A   1      39.244  32.544  32.950  1.00  0.00     0.198 A 
ATOM     86  C   UNL A   1      38.387  30.318  33.189  1.00  0.00     0.198 A 
ATOM     87  F   UNL A   1      39.841  28.467  33.112  1.00  0.00    -0.203 F 
ATOM     88  F   UNL A   1      39.038  33.862  32.814  1.00  0.00    -0.200 F 
ATOM     89  C   UNL A   1      38.167  31.684  33.073  1.00  0.00     0.200 A 
ATOM     90  F   UNL A   1      37.340  29.485  33.281  1.00  0.00    -0.200 F 
ATOM     91  F   UNL A   1      36.917  32.164  33.038  1.00  0.00    -0.200 F 
ENDBRANCH  57  81
BRANCH  69  92
ATOM     92  C   UNL A   1      45.080  24.820  33.245  1.00  0.00     0.064 A 
ATOM     93  C   UNL A   1      44.409  23.618  33.521  1.00  0.00     0.173 A 
ATOM     94  C   UNL A   1      46.437  24.861  33.655  1.00  0.00     0.173 A 
ATOM     95  F   UNL A   1      43.163  23.394  33.082  1.00  0.00    -0.203 F 
ATOM     96  C   UNL A   1      45.023  22.565  34.209  1.00  0.00     0.198 A 
ATOM     97  C   UNL A   1      47.065  23.787  34.286  1.00  0.00     0.198 A 
ATOM     98  F   UNL A   1      47.207  25.936  33.429  1.00  0.00    -0.203 F 
ATOM     99  F   UNL A   1      44.324  21.455  34.484  1.00  0.00    -0.200 F 
ATOM    100  C   UNL A   1      46.352  22.645  34.580  1.00  0.00     0.200 A 
ATOM    101  F   UNL A   1      48.368  23.862  34.590  1.00  0.00    -0.200 F 
ATOM    102  F   UNL A   1      46.950  21.616  35.195  1.00  0.00    -0.200 F 
ENDBRANCH  69  92
ENDBRANCH  43  44
ENDBRANCH  35  38
ENDBRANCH  33  34
ENDBRANCH  32  33
ENDBRANCH   1  32
TORSDOF 13
ENDMDL
MODEL 2
REMARK VINA RESULT:     -15.0      1.841      2.771
REMARK SMILES Cc1ccc([C@@]23C[C@@H]4C[C@@H](C[C@@](C(=O)N5CCC(C(=O)NCCCCNC(=O)c6ccc(-c7c8nc(c(-c9c(F)c(F)c(F)c(F)c9F)c9ccc([nH]9)c(-c9c(F)c(F)c(F)c(F)c9F)c9nc(c(-c%10c(F)c(F)c(F)c(F)c%10F)c%10ccc7[nH]%10)C=C9)C=C8)cc6)CC5)(C4)C2)C3)cc1
REMARK SMILES IDX 23 1 22 2 21 3 19 4 20 5 18 7 13 8 14 9 15 10 16 11 93 12
REMARK SMILES IDX 17 13 92 14 12 15 6 16 7 17 95 18 96 19 8 20 10 21 9 22
REMARK SMILES IDX 94 23 11 24 5 25 1 26 2 27 3 28 98 29 4 30 97 31 24 32 25 33
REMARK SMILES IDX 26 34 27 35 28 37 29 38 30 39 91 40 31 41 90 42 32 43 33 44
REMARK SMILES IDX 34 45 84 46 35 47 89 48 83 49 85 50 36 51 88 52 82 53 81 54
REMARK SMILES IDX 37 56 69 57 49 58 68 59 50 60 53 61 67 62 86 63 51 64 52 65
REMARK SMILES IDX 66 67 87 68 54 69 38 70 39 71 47 72 40 73 41 74 45 75 48 76
REMARK SMILES IDX 42 77 43 78 46 79 44 80 70 81 71 82 79 83 72 84 73 85 77 86
REMARK SMILES IDX 80 87 74 88 75 89 78 90 76 91 55 92 56 93 64 94 57 95 58 96
REMARK SMILES IDX 62 97 65 98 59 99 60 100 63 101 61 102
REMARK H PARENT 21 6 26 36 85 55 53 66
REMARK Flexibility Score: inf
ROOT
ATOM      1  C   UNL A   1      32.868  29.890  25.869  1.00  0.00     0.023 C 
ENDROOT
BRANCH   1   2
ATOM      2  C   UNL A   1      32.298  28.868  24.874  1.00  0.00     0.116 C 
BRANCH   2   3
ATOM      3  N   UNL A   1      31.595  29.480  23.752  1.00  0.00    -0.356 N 
ATOM      4  C   UNL A   1      30.869  28.947  22.730  1.00  0.00     0.223 C 
ATOM      5  O   UNL A   1      30.356  29.729  21.926  1.00  0.00    -0.275 OA
ATOM      6  H   UNL A   1      31.659  30.463  23.728  1.00  0.00     0.163 HD
BRANCH   4   7
ATOM      7  C   UNL A   1      30.680  27.446  22.565  1.00  0.00     0.082 C 
ATOM      8  C   UNL A   1      31.906  24.661  25.093  1.00  0.00     0.228 C 
ATOM      9  O   UNL A   1      31.327  24.903  26.156  1.00  0.00    -0.274 OA
ATOM     10  N   UNL A   1      31.311  24.998  23.877  1.00  0.00    -0.342 N 
ATOM     11  C   UNL A   1      29.907  25.382  23.867  1.00  0.00     0.120 C 
ATOM     12  C   UNL A   1      31.962  25.253  22.595  1.00  0.00     0.120 C 
ATOM     13  C   UNL A   1      29.763  26.883  23.667  1.00  0.00     0.035 C 
ATOM     14  C   UNL A   1      32.036  26.753  22.370  1.00  0.00     0.035 C 
BRANCH   8  15
ATOM     15  C   UNL A   1      33.274  23.941  25.112  1.00  0.00     0.051 C 
ATOM     16  C   UNL A   1      34.325  21.589  25.008  1.00  0.00    -0.003 C 
ATOM     17  C   UNL A   1      35.187  22.135  23.829  1.00  0.00     0.015 C 
ATOM     18  C   UNL A   1      33.025  22.423  25.045  1.00  0.00     0.028 C 
ATOM     19  C   UNL A   1      35.070  21.866  26.339  1.00  0.00     0.015 C 
ATOM     20  C   UNL A   1      35.522  23.629  24.012  1.00  0.00    -0.009 C 
ATOM     21  C   UNL A   1      35.344  23.376  26.501  1.00  0.00    -0.009 C 
ATOM     22  C   UNL A   1      36.246  23.838  25.348  1.00  0.00     0.007 C 
ATOM     23  C   UNL A   1      34.225  24.449  24.011  1.00  0.00     0.020 C 
ATOM     24  C   UNL A   1      34.018  24.172  26.464  1.00  0.00     0.020 C 
BRANCH  16  25
ATOM     25  C   UNL A   1      34.022  20.090  24.825  1.00  0.00    -0.042 A 
ATOM     26  C   UNL A   1      33.189  15.835  24.553  1.00  0.00     0.044 C 
ATOM     27  C   UNL A   1      33.456  17.308  24.624  1.00  0.00    -0.051 A 
ATOM     28  C   UNL A   1      34.760  17.776  24.482  1.00  0.00     0.004 A 
ATOM     29  C   UNL A   1      32.432  18.232  24.841  1.00  0.00     0.004 A 
ATOM     30  C   UNL A   1      35.033  19.142  24.572  1.00  0.00     0.004 A 
ATOM     31  C   UNL A   1      32.711  19.603  24.935  1.00  0.00     0.004 A 
ENDBRANCH  16  25
ENDBRANCH   8  15
ENDBRANCH   4   7
ENDBRANCH   2   3
ENDBRANCH   1   2
BRANCH   1  32
ATOM     32  C   UNL A   1      33.889  29.346  26.871  1.00  0.00     0.023 C 
BRANCH  32  33
ATOM     33  C   UNL A   1      34.686  30.417  27.603  1.00  0.00     0.116 C 
BRANCH  33  34
ATOM     34  N   UNL A   1      33.934  31.623  27.929  1.00  0.00    -0.352 N 
ATOM     35  C   UNL A   1      34.257  32.634  28.820  1.00  0.00     0.251 C 
ATOM     36  H   UNL A   1      33.079  31.733  27.452  1.00  0.00     0.163 HD
ATOM     37  O   UNL A   1      33.482  33.553  29.027  1.00  0.00    -0.269 OA
BRANCH  35  38
ATOM     38  C   UNL A   1      35.614  32.656  29.419  1.00  0.00     0.039 A 
ATOM     39  C   UNL A   1      36.632  33.304  28.713  1.00  0.00     0.014 A 
ATOM     40  C   UNL A   1      35.918  31.870  30.528  1.00  0.00     0.014 A 
ATOM     41  C   UNL A   1      37.958  32.957  28.957  1.00  0.00     0.010 A 
ATOM     42  C   UNL A   1      37.221  31.448  30.706  1.00  0.00     0.010 A 
ATOM     43  C   UNL A   1      38.228  31.934  29.867  1.00  0.00    -0.014 A 
BRANCH  43  44
ATOM     44  C   UNL A   1      39.509  31.243  29.929  1.00  0.00     0.031 A 
ATOM     45  C   UNL A   1      39.643  29.872  29.401  1.00  0.00     0.074 A 
ATOM     46  C   UNL A   1      40.587  31.888  30.429  1.00  0.00     0.049 A 
ATOM     47  N   UNL A   1      40.581  29.053  29.742  1.00  0.00    -0.248 NA
ATOM     48  C   UNL A   1      38.662  29.274  28.504  1.00  0.00     0.031 C 
ATOM     49  C   UNL A   1      41.985  31.472  30.345  1.00  0.00     0.029 A 
ATOM     50  N   UNL A   1      40.597  32.967  31.330  1.00  0.00    -0.354 N 
ATOM     51  C   UNL A   1      40.504  27.955  28.916  1.00  0.00     0.074 A 
ATOM     52  C   UNL A   1      39.220  28.081  28.277  1.00  0.00     0.031 C 
ATOM     53  C   UNL A   1      42.664  32.041  31.354  1.00  0.00     0.029 A 
ATOM     54  C   UNL A   1      41.695  32.724  32.190  1.00  0.00     0.049 A 
ATOM     55  H   UNL A   1      39.974  33.729  31.358  1.00  0.00     0.167 HD
ATOM     56  C   UNL A   1      41.609  27.164  28.782  1.00  0.00     0.037 A 
ATOM     57  C   UNL A   1      41.529  32.513  33.526  1.00  0.00     0.037 A 
ATOM     58  C   UNL A   1      42.602  27.492  29.811  1.00  0.00     0.049 A 
ATOM     59  C   UNL A   1      42.076  31.194  34.014  1.00  0.00     0.074 A 
ATOM     60  C   UNL A   1      43.803  28.183  29.788  1.00  0.00     0.029 A 
ATOM     61  N   UNL A   1      42.276  27.320  31.155  1.00  0.00    -0.354 N 
ATOM     62  N   UNL A   1      42.327  30.179  33.235  1.00  0.00    -0.248 NA
ATOM     63  C   UNL A   1      42.351  30.902  35.418  1.00  0.00     0.031 C 
ATOM     64  C   UNL A   1      44.165  28.480  31.127  1.00  0.00     0.029 A 
ATOM     65  C   UNL A   1      43.202  27.944  31.966  1.00  0.00     0.049 A 
ATOM     66  H   UNL A   1      41.492  26.821  31.481  1.00  0.00     0.167 HD
ATOM     67  C   UNL A   1      42.768  29.121  33.987  1.00  0.00     0.074 A 
ATOM     68  C   UNL A   1      42.784  29.631  35.345  1.00  0.00     0.031 C 
ATOM     69  C   UNL A   1      43.069  27.915  33.417  1.00  0.00     0.037 A 
BRANCH  56  70
ATOM     70  C   UNL A   1      41.927  26.267  27.588  1.00  0.00     0.064 A 
ATOM     71  C   UNL A   1      41.308  24.999  27.470  1.00  0.00     0.173 A 
ATOM     72  C   UNL A   1      42.899  26.517  26.597  1.00  0.00     0.173 A 
ATOM     73  F   UNL A   1      40.319  24.623  28.292  1.00  0.00    -0.203 F 
ATOM     74  C   UNL A   1      41.686  24.051  26.508  1.00  0.00     0.198 A 
ATOM     75  C   UNL A   1      43.269  25.576  25.628  1.00  0.00     0.198 A 
ATOM     76  F   UNL A   1      43.554  27.672  26.503  1.00  0.00    -0.203 F 
ATOM     77  F   UNL A   1      41.093  22.850  26.488  1.00  0.00    -0.200 F 
ATOM     78  C   UNL A   1      42.677  24.336  25.594  1.00  0.00     0.200 A 
ATOM     79  F   UNL A   1      44.222  25.887  24.737  1.00  0.00    -0.200 F 
ATOM     80  F   UNL A   1      43.055  23.428  24.685  1.00  0.00    -0.200 F 
ENDBRANCH  56  70
BRANCH  57  81
ATOM     81  C   UNL A   1      40.348  33.216  34.090  1.00  0.00     0.064 A 
ATOM     82  C   UNL A   1      39.146  32.494  34.222  1.00  0.00     0.173 A 
ATOM     83  C   UNL A   1      40.479  34.398  34.828  1.00  0.00     0.173 A 
ATOM     84  F   UNL A   1      38.972  31.357  33.532  1.00  0.00    -0.203 F 
ATOM     85  C   UNL A   1      38.172  32.870  35.144  1.00  0.00     0.198 A 
ATOM     86  C   UNL A   1      39.492  34.780  35.740  1.00  0.00     0.198 A 
ATOM     87  F   UNL A   1      41.607  35.119  34.761  1.00  0.00    -0.203 F 
ATOM     88  F   UNL A   1      37.092  32.097  35.333  1.00  0.00    -0.200 F 
ATOM     89  C   UNL A   1      38.360  33.998  35.923  1.00  0.00     0.200 A 
ATOM     90  F   UNL A   1      39.685  35.858  36.515  1.00  0.00    -0.200 F 
ATOM     91  F   UNL A   1      37.473  34.310  36.879  1.00  0.00    -0.200 F 
ENDBRANCH  57  81
BRANCH  69  92
ATOM     92  C   UNL A   1      43.355  26.621  34.148  1.00  0.00     0.064 A 
ATOM     93  C   UNL A   1      42.379  25.841  34.790  1.00  0.00     0.173 A 
ATOM     94  C   UNL A   1      44.649  26.045  34.097  1.00  0.00     0.173 A 
ATOM     95  F   UNL A   1      41.090  26.206  34.804  1.00  0.00    -0.203 F 
ATOM     96  C   UNL A   1      42.685  24.614  35.390  1.00  0.00     0.198 A 
ATOM     97  C   UNL A   1      44.937  24.794  34.642  1.00  0.00     0.198 A 
ATOM     98  F   UNL A   1      45.671  26.665  33.489  1.00  0.00    -0.203 F 
ATOM     99  F   UNL A   1      41.724  23.929  36.026  1.00  0.00    -0.200 F 
ATOM    100  C   UNL A   1      43.959  24.086  35.305  1.00  0.00     0.200 A 
ATOM    101  F   UNL A   1      46.165  24.274  34.504  1.00  0.00    -0.200 F 
ATOM    102  F   UNL A   1      44.235  22.888  35.838  1.00  0.00    -0.200 F 
ENDBRANCH  69  92
ENDBRANCH  43  44
ENDBRANCH  35  38
ENDBRANCH  33  34
ENDBRANCH  32  33
ENDBRANCH   1  32
TORSDOF 13
ENDMDL
MODEL 3
REMARK VINA RESULT:     -14.9      1.695      2.920
REMARK SMILES Cc1ccc([C@@]23C[C@@H]4C[C@@H](C[C@@](C(=O)N5CCC(C(=O)NCCCCNC(=O)c6ccc(-c7c8nc(c(-c9c(F)c(F)c(F)c(F)c9F)c9ccc([nH]9)c(-c9c(F)c(F)c(F)c(F)c9F)c9nc(c(-c%10c(F)c(F)c(F)c(F)c%10F)c%10ccc7[nH]%10)C=C9)C=C8)cc6)CC5)(C4)C2)C3)cc1
REMARK SMILES IDX 23 1 22 2 21 3 19 4 20 5 18 7 13 8 14 9 15 10 16 11 93 12
REMARK SMILES IDX 17 13 92 14 12 15 6 16 7 17 95 18 96 19 8 20 10 21 9 22
REMARK SMILES IDX 94 23 11 24 5 25 1 26 2 27 3 28 98 29 4 30 97 31 24 32 25 33
REMARK SMILES IDX 26 34 27 35 28 37 29 38 30 39 91 40 31 41 90 42 32 43 33 44
REMARK SMILES IDX 34 45 84 46 35 47 89 48 83 49 85 50 36 51 88 52 82 53 81 54
REMARK SMILES IDX 37 56 69 57 49 58 68 59 50 60 53 61 67 62 86 63 51 64 52 65
REMARK SMILES IDX 66 67 87 68 54 69 38 70 39 71 47 72 40 73 41 74 45 75 48 76
REMARK SMILES IDX 42 77 43 78 46 79 44 80 70 81 71 82 79 83 72 84 73 85 77 86
REMARK SMILES IDX 80 87 74 88 75 89 78 90 76 91 55 92 56 93 64 94 57 95 58 96
REMARK SMILES IDX 62 97 65 98 59 99 60 100 63 101 61 102
REMARK H PARENT 21 6 26 36 85 55 53 66
REMARK Flexibility Score: inf
ROOT
ATOM      1  C   UNL A   1      34.023  33.066  28.368  1.00  0.00     0.023 C 
ENDROOT
BRANCH   1   2
ATOM      2  C   UNL A   1      33.467  31.781  27.737  1.00  0.00     0.116 C 
BRANCH   2   3
ATOM      3  N   UNL A   1      34.376  30.645  27.837  1.00  0.00    -0.356 N 
ATOM      4  C   UNL A   1      34.393  29.432  27.216  1.00  0.00     0.223 C 
ATOM      5  O   UNL A   1      35.322  28.666  27.485  1.00  0.00    -0.275 OA
ATOM      6  H   UNL A   1      35.116  30.780  28.473  1.00  0.00     0.163 HD
BRANCH   4   7
ATOM      7  C   UNL A   1      33.318  29.014  26.224  1.00  0.00     0.082 C 
ATOM      8  C   UNL A   1      31.778  25.388  25.864  1.00  0.00     0.228 C 
ATOM      9  O   UNL A   1      31.264  25.138  26.959  1.00  0.00    -0.274 OA
ATOM     10  N   UNL A   1      31.860  26.705  25.412  1.00  0.00    -0.342 N 
ATOM     11  C   UNL A   1      31.104  27.734  26.111  1.00  0.00     0.120 C 
ATOM     12  C   UNL A   1      32.802  27.270  24.450  1.00  0.00     0.120 C 
ATOM     13  C   UNL A   1      32.027  28.599  26.955  1.00  0.00     0.035 C 
ATOM     14  C   UNL A   1      33.887  28.018  25.203  1.00  0.00     0.035 C 
BRANCH   8  15
ATOM     15  C   UNL A   1      32.287  24.231  24.974  1.00  0.00     0.051 C 
ATOM     16  C   UNL A   1      34.396  22.834  24.479  1.00  0.00    -0.003 C 
ATOM     17  C   UNL A   1      33.507  21.581  24.742  1.00  0.00     0.015 C 
ATOM     18  C   UNL A   1      33.779  24.005  25.276  1.00  0.00     0.028 C 
ATOM     19  C   UNL A   1      34.292  23.212  22.980  1.00  0.00     0.015 C 
ATOM     20  C   UNL A   1      32.049  21.813  24.298  1.00  0.00    -0.009 C 
ATOM     21  C   UNL A   1      32.823  23.479  22.590  1.00  0.00    -0.009 C 
ATOM     22  C   UNL A   1      32.014  22.192  22.813  1.00  0.00     0.007 C 
ATOM     23  C   UNL A   1      31.437  22.954  25.122  1.00  0.00     0.020 C 
ATOM     24  C   UNL A   1      32.230  24.612  23.461  1.00  0.00     0.020 C 
BRANCH  16  25
ATOM     25  C   UNL A   1      35.855  22.578  24.902  1.00  0.00    -0.042 A 
ATOM     26  C   UNL A   1      39.885  21.773  26.309  1.00  0.00     0.044 C 
ATOM     27  C   UNL A   1      38.503  22.042  25.795  1.00  0.00    -0.051 A 
ATOM     28  C   UNL A   1      37.941  23.305  25.967  1.00  0.00     0.004 A 
ATOM     29  C   UNL A   1      37.752  21.055  25.155  1.00  0.00     0.004 A 
ATOM     30  C   UNL A   1      36.645  23.567  25.520  1.00  0.00     0.004 A 
ATOM     31  C   UNL A   1      36.449  21.321  24.710  1.00  0.00     0.004 A 
ENDBRANCH  16  25
ENDBRANCH   8  15
ENDBRANCH   4   7
ENDBRANCH   2   3
ENDBRANCH   1   2
BRANCH   1  32
ATOM     32  C   UNL A   1      35.430  33.472  27.925  1.00  0.00     0.023 C 
BRANCH  32  33
ATOM     33  C   UNL A   1      36.544  32.979  28.838  1.00  0.00     0.116 C 
BRANCH  33  34
ATOM     34  N   UNL A   1      36.106  32.550  30.161  1.00  0.00    -0.352 N 
ATOM     35  C   UNL A   1      36.270  31.317  30.773  1.00  0.00     0.251 C 
ATOM     36  H   UNL A   1      35.629  33.229  30.690  1.00  0.00     0.163 HD
ATOM     37  O   UNL A   1      35.784  31.098  31.870  1.00  0.00    -0.269 OA
BRANCH  35  38
ATOM     38  C   UNL A   1      37.157  30.312  30.137  1.00  0.00     0.039 A 
ATOM     39  C   UNL A   1      37.323  29.083  30.782  1.00  0.00     0.014 A 
ATOM     40  C   UNL A   1      37.969  30.657  29.059  1.00  0.00     0.014 A 
ATOM     41  C   UNL A   1      38.460  28.324  30.518  1.00  0.00     0.010 A 
ATOM     42  C   UNL A   1      39.146  29.961  28.866  1.00  0.00     0.010 A 
ATOM     43  C   UNL A   1      39.425  28.839  29.652  1.00  0.00    -0.014 A 
BRANCH  43  44
ATOM     44  C   UNL A   1      40.788  28.330  29.589  1.00  0.00     0.031 A 
ATOM     45  C   UNL A   1      41.058  26.983  29.050  1.00  0.00     0.074 A 
ATOM     46  C   UNL A   1      41.811  29.122  29.982  1.00  0.00     0.049 A 
ATOM     47  N   UNL A   1      42.127  26.304  29.297  1.00  0.00    -0.248 NA
ATOM     48  C   UNL A   1      40.085  26.245  28.253  1.00  0.00     0.031 C 
ATOM     49  C   UNL A   1      43.238  28.900  29.761  1.00  0.00     0.029 A 
ATOM     50  N   UNL A   1      41.761  30.204  30.877  1.00  0.00    -0.354 N 
ATOM     51  C   UNL A   1      42.123  25.196  28.483  1.00  0.00     0.074 A 
ATOM     52  C   UNL A   1      40.777  25.136  27.971  1.00  0.00     0.031 C 
ATOM     53  C   UNL A   1      43.928  29.569  30.699  1.00  0.00     0.029 A 
ATOM     54  C   UNL A   1      42.959  30.124  31.626  1.00  0.00     0.049 A 
ATOM     55  H   UNL A   1      41.044  30.875  30.966  1.00  0.00     0.167 HD
ATOM     56  C   UNL A   1      43.307  24.561  28.241  1.00  0.00     0.037 A 
ATOM     57  C   UNL A   1      42.954  29.910  32.972  1.00  0.00     0.037 A 
ATOM     58  C   UNL A   1      44.341  25.035  29.168  1.00  0.00     0.049 A 
ATOM     59  C   UNL A   1      43.721  28.684  33.404  1.00  0.00     0.074 A 
ATOM     60  C   UNL A   1      45.428  25.882  29.028  1.00  0.00     0.029 A 
ATOM     61  N   UNL A   1      44.172  24.837  30.537  1.00  0.00    -0.354 N 
ATOM     62  N   UNL A   1      44.032  27.703  32.604  1.00  0.00    -0.248 NA
ATOM     63  C   UNL A   1      44.168  28.451  34.774  1.00  0.00     0.031 C 
ATOM     64  C   UNL A   1      45.873  26.244  30.326  1.00  0.00     0.029 A 
ATOM     65  C   UNL A   1      45.078  25.593  31.255  1.00  0.00     0.049 A 
ATOM     66  H   UNL A   1      43.500  24.240  30.938  1.00  0.00     0.167 HD
ATOM     67  C   UNL A   1      44.685  26.725  33.309  1.00  0.00     0.074 A 
ATOM     68  C   UNL A   1      44.762  27.250  34.659  1.00  0.00     0.031 C 
ATOM     69  C   UNL A   1      45.092  25.565  32.712  1.00  0.00     0.037 A 
BRANCH  56  70
ATOM     70  C   UNL A   1      43.628  23.700  27.022  1.00  0.00     0.064 A 
ATOM     71  C   UNL A   1      43.270  22.330  27.007  1.00  0.00     0.173 A 
ATOM     72  C   UNL A   1      44.378  24.101  25.896  1.00  0.00     0.173 A 
ATOM     73  F   UNL A   1      42.506  21.796  27.970  1.00  0.00    -0.203 F 
ATOM     74  C   UNL A   1      43.693  21.440  26.009  1.00  0.00     0.198 A 
ATOM     75  C   UNL A   1      44.790  23.216  24.892  1.00  0.00     0.198 A 
ATOM     76  F   UNL A   1      44.763  25.359  25.695  1.00  0.00    -0.203 F 
ATOM     77  F   UNL A   1      43.361  20.145  26.087  1.00  0.00    -0.200 F 
ATOM     78  C   UNL A   1      44.465  21.882  24.956  1.00  0.00     0.200 A 
ATOM     79  F   UNL A   1      45.523  23.677  23.867  1.00  0.00    -0.200 F 
ATOM     80  F   UNL A   1      44.887  21.034  24.010  1.00  0.00    -0.200 F 
ENDBRANCH  56  70
BRANCH  57  81
ATOM     81  C   UNL A   1      41.748  30.453  33.649  1.00  0.00     0.064 A 
ATOM     82  C   UNL A   1      41.704  31.834  33.922  1.00  0.00     0.173 A 
ATOM     83  C   UNL A   1      40.539  29.749  33.673  1.00  0.00     0.173 A 
ATOM     84  F   UNL A   1      42.838  32.551  33.914  1.00  0.00    -0.203 F 
ATOM     85  C   UNL A   1      40.493  32.503  34.086  1.00  0.00     0.198 A 
ATOM     86  C   UNL A   1      39.328  30.421  33.855  1.00  0.00     0.198 A 
ATOM     87  F   UNL A   1      40.512  28.437  33.402  1.00  0.00    -0.203 F 
ATOM     88  F   UNL A   1      40.477  33.837  34.225  1.00  0.00    -0.200 F 
ATOM     89  C   UNL A   1      39.304  31.798  34.024  1.00  0.00     0.200 A 
ATOM     90  F   UNL A   1      38.173  29.744  33.768  1.00  0.00    -0.200 F 
ATOM     91  F   UNL A   1      38.134  32.449  34.084  1.00  0.00    -0.200 F 
ENDBRANCH  57  81
BRANCH  69  92
ATOM     92  C   UNL A   1      45.622  24.331  33.411  1.00  0.00     0.064 A 
ATOM     93  C   UNL A   1      46.903  24.231  33.978  1.00  0.00     0.173 A 
ATOM     94  C   UNL A   1      44.765  23.228  33.656  1.00  0.00     0.173 A 
ATOM     95  F   UNL A   1      47.771  25.249  33.931  1.00  0.00    -0.203 F 
ATOM     96  C   UNL A   1      47.318  23.092  34.677  1.00  0.00     0.198 A 
ATOM     97  C   UNL A   1      45.162  22.121  34.405  1.00  0.00     0.198 A 
ATOM     98  F   UNL A   1      43.505  23.202  33.199  1.00  0.00    -0.203 F 
ATOM     99  F   UNL A   1      48.567  23.029  35.162  1.00  0.00    -0.200 F 
ATOM    100  C   UNL A   1      46.445  22.044  34.901  1.00  0.00     0.200 A 
ATOM    101  F   UNL A   1      44.285  21.139  34.658  1.00  0.00    -0.200 F 
ATOM    102  F   UNL A   1      46.832  20.977  35.613  1.00  0.00    -0.200 F 
ENDBRANCH  69  92
ENDBRANCH  43  44
ENDBRANCH  35  38
ENDBRANCH  33  34
ENDBRANCH  32  33
ENDBRANCH   1  32
TORSDOF 13
ENDMDL
