MODEL 1
REMARK VINA RESULT:     -13.4      0.000      0.000
REMARK SMILES CC[C@H](C(=O)NCCCCNC(=O)c1ccc(-c2c3nc(c(-c4c(F)c(F)c(F)c(F)c4F)c4ccc([nH]4)c(-c4c(F)c(F)c(F)c(F)c4F)c4nc(c(-c5c(F)c(F)c(F)c(F)c5F)c5ccc2[nH]5)C=C4)C=C3)cc1)N1C(=O)/C(=C/c2ccc(-c3ccc(C)cc3Br)o2)SC1=S
REMARK SMILES IDX 8 1 7 2 6 3 4 4 5 5 3 7 2 8 1 9 77 10 78 11 96 12 79 13
REMARK SMILES IDX 80 14 95 15 97 16 81 17 82 18 83 19 94 20 84 21 85 22 86 23
REMARK SMILES IDX 87 24 92 25 88 26 91 27 93 28 89 29 90 30 9 31 10 32 11 33
REMARK SMILES IDX 12 34 13 36 14 37 15 38 76 39 16 40 75 41 17 42 18 43 19 44
REMARK SMILES IDX 69 45 20 46 74 47 68 48 70 49 21 50 73 51 67 52 66 53 22 55
REMARK SMILES IDX 54 56 34 57 53 58 35 59 38 60 52 61 71 62 36 63 37 64 51 66
REMARK SMILES IDX 72 67 39 68 23 69 24 70 32 71 25 72 26 73 30 74 33 75 27 76
REMARK SMILES IDX 28 77 31 78 29 79 55 80 56 81 64 82 57 83 58 84 62 85 65 86
REMARK SMILES IDX 59 87 60 88 63 89 61 90 40 91 41 92 49 93 42 94 43 95 47 96
REMARK SMILES IDX 50 97 44 98 45 99 48 100 46 101
REMARK H PARENT 6 6 11 35 70 54 38 65
REMARK Flexibility Score: inf
ROOT
ATOM      1  C   UNL A   1      31.478  30.408  26.430  1.00  0.00     0.023 C 
ENDROOT
BRANCH   1   2
ATOM      2  C   UNL A   1      32.861  29.796  26.233  1.00  0.00     0.116 C 
BRANCH   2   3
ATOM      3  N   UNL A   1      33.297  29.918  24.858  1.00  0.00    -0.354 N 
ATOM      4  C   UNL A   1      32.993  29.151  23.772  1.00  0.00     0.243 C 
ATOM      5  O   UNL A   1      33.680  29.310  22.759  1.00  0.00    -0.273 OA
ATOM      6  H   UNL A   1      33.906  30.671  24.679  1.00  0.00     0.163 HD
BRANCH   4   7
ATOM      7  C   UNL A   1      31.922  28.030  23.842  1.00  0.00     0.181 C 
BRANCH   7   8
ATOM      8  C   UNL A   1      31.127  28.121  22.514  1.00  0.00     0.032 C 
ATOM      9  C   UNL A   1      30.174  29.313  22.480  1.00  0.00     0.006 C 
ENDBRANCH   7   8
BRANCH   7  10
ATOM     10  N   UNL A   1      32.568  26.728  24.207  1.00  0.00    -0.280 N 
ATOM     11  C   UNL A   1      33.415  26.034  23.353  1.00  0.00     0.267 C 
ATOM     12  C   UNL A   1      32.188  26.012  25.337  1.00  0.00     0.149 C 
ATOM     13  O   UNL A   1      33.734  26.331  22.211  1.00  0.00    -0.268 OA
ATOM     14  C   UNL A   1      33.897  24.773  23.979  1.00  0.00     0.084 C 
ATOM     15  S   UNL A   1      33.205  24.595  25.532  1.00  0.00    -0.054 SA
ATOM     16  S   UNL A   1      30.980  26.323  26.447  1.00  0.00    -0.052 S 
ATOM     17  C   UNL A   1      34.761  23.961  23.353  1.00  0.00     0.068 C 
BRANCH  17  18
ATOM     18  C   UNL A   1      35.257  22.758  23.925  1.00  0.00     0.128 A 
ATOM     19  C   UNL A   1      36.540  22.432  24.351  1.00  0.00     0.051 A 
ATOM     20  O   UNL A   1      34.454  21.662  24.153  1.00  0.00    -0.457 OA
ATOM     21  C   UNL A   1      36.526  21.086  24.777  1.00  0.00     0.051 A 
ATOM     22  C   UNL A   1      35.233  20.644  24.609  1.00  0.00     0.135 A 
BRANCH  22  23
ATOM     23  C   UNL A   1      34.591  19.358  24.846  1.00  0.00     0.031 A 
ATOM     24  C   UNL A   1      35.354  18.197  24.632  1.00  0.00     0.013 A 
ATOM     25  C   UNL A   1      33.236  19.208  25.185  1.00  0.00     0.029 A 
ATOM     26  C   UNL A   1      34.784  16.925  24.729  1.00  0.00     0.004 A 
ATOM     27  C   UNL A   1      32.666  17.929  25.285  1.00  0.00     0.019 A 
ATOM     28  Br  UNL A   1      32.060  20.684  25.444  1.00  0.00    -0.050 Br
ATOM     29  C   UNL A   1      33.431  16.782  25.044  1.00  0.00    -0.050 A 
ATOM     30  C   UNL A   1      32.816  15.414  25.089  1.00  0.00     0.044 C 
ENDBRANCH  22  23
ENDBRANCH  17  18
ENDBRANCH   7  10
ENDBRANCH   4   7
ENDBRANCH   2   3
ENDBRANCH   1   2
BRANCH   1  31
ATOM     31  C   UNL A   1      31.462  31.935  26.471  1.00  0.00     0.023 C 
BRANCH  31  32
ATOM     32  C   UNL A   1      32.591  32.566  27.275  1.00  0.00     0.116 C 
BRANCH  32  33
ATOM     33  N   UNL A   1      32.366  33.976  27.564  1.00  0.00    -0.352 N 
ATOM     34  C   UNL A   1      33.009  34.780  28.472  1.00  0.00     0.251 C 
ATOM     35  H   UNL A   1      31.656  34.411  27.037  1.00  0.00     0.163 HD
ATOM     36  O   UNL A   1      32.612  35.920  28.695  1.00  0.00    -0.269 OA
BRANCH  34  37
ATOM     37  C   UNL A   1      34.165  34.238  29.208  1.00  0.00     0.039 A 
ATOM     38  C   UNL A   1      33.936  33.437  30.328  1.00  0.00     0.014 A 
ATOM     39  C   UNL A   1      35.462  34.470  28.747  1.00  0.00     0.014 A 
ATOM     40  C   UNL A   1      35.014  32.805  30.946  1.00  0.00     0.010 A 
ATOM     41  C   UNL A   1      36.523  33.775  29.312  1.00  0.00     0.010 A 
ATOM     42  C   UNL A   1      36.308  32.937  30.417  1.00  0.00    -0.014 A 
BRANCH  42  43
ATOM     43  C   UNL A   1      37.458  32.213  31.012  1.00  0.00     0.031 A 
ATOM     44  C   UNL A   1      37.937  32.577  32.388  1.00  0.00     0.074 A 
ATOM     45  C   UNL A   1      38.108  31.284  30.287  1.00  0.00     0.049 A 
ATOM     46  N   UNL A   1      38.962  32.115  33.056  1.00  0.00    -0.248 NA
ATOM     47  C   UNL A   1      37.181  33.622  33.095  1.00  0.00     0.031 C 
ATOM     48  C   UNL A   1      37.772  30.890  28.917  1.00  0.00     0.029 A 
ATOM     49  N   UNL A   1      39.197  30.509  30.597  1.00  0.00    -0.354 N 
ATOM     50  C   UNL A   1      38.984  32.827  34.248  1.00  0.00     0.074 A 
ATOM     51  C   UNL A   1      37.908  33.790  34.189  1.00  0.00     0.031 C 
ATOM     52  C   UNL A   1      38.618  29.927  28.517  1.00  0.00     0.029 A 
ATOM     53  C   UNL A   1      39.576  29.662  29.586  1.00  0.00     0.049 A 
ATOM     54  H   UNL A   1      39.662  30.555  31.464  1.00  0.00     0.167 HD
ATOM     55  C   UNL A   1      39.810  32.670  35.309  1.00  0.00     0.037 A 
ATOM     56  C   UNL A   1      40.585  28.771  29.531  1.00  0.00     0.037 A 
ATOM     57  C   UNL A   1      40.857  31.686  35.376  1.00  0.00     0.049 A 
ATOM     58  C   UNL A   1      41.478  28.604  30.729  1.00  0.00     0.074 A 
ATOM     59  C   UNL A   1      41.709  31.400  36.429  1.00  0.00     0.029 A 
ATOM     60  N   UNL A   1      41.193  30.823  34.344  1.00  0.00    -0.354 N 
ATOM     61  N   UNL A   1      41.445  29.232  31.880  1.00  0.00    -0.248 NA
ATOM     62  C   UNL A   1      42.546  27.600  30.624  1.00  0.00     0.031 C 
ATOM     63  C   UNL A   1      42.585  30.389  36.019  1.00  0.00     0.029 A 
ATOM     64  C   UNL A   1      42.250  30.013  34.728  1.00  0.00     0.049 A 
ATOM     65  H   UNL A   1      40.745  30.789  33.467  1.00  0.00     0.167 HD
ATOM     66  C   UNL A   1      42.464  28.680  32.645  1.00  0.00     0.074 A 
ATOM     67  C   UNL A   1      43.090  27.658  31.832  1.00  0.00     0.031 C 
ATOM     68  C   UNL A   1      42.849  28.993  33.906  1.00  0.00     0.037 A 
BRANCH  55  69
ATOM     69  C   UNL A   1      39.604  33.578  36.486  1.00  0.00     0.064 A 
ATOM     70  C   UNL A   1      38.793  33.205  37.568  1.00  0.00     0.173 A 
ATOM     71  C   UNL A   1      40.239  34.827  36.542  1.00  0.00     0.173 A 
ATOM     72  F   UNL A   1      38.151  32.026  37.556  1.00  0.00    -0.203 F 
ATOM     73  C   UNL A   1      38.598  34.062  38.649  1.00  0.00     0.198 A 
ATOM     74  C   UNL A   1      40.067  35.669  37.639  1.00  0.00     0.198 A 
ATOM     75  F   UNL A   1      41.028  35.232  35.536  1.00  0.00    -0.203 F 
ATOM     76  F   UNL A   1      37.776  33.706  39.644  1.00  0.00    -0.200 F 
ATOM     77  C   UNL A   1      39.241  35.290  38.686  1.00  0.00     0.200 A 
ATOM     78  F   UNL A   1      40.698  36.852  37.679  1.00  0.00    -0.200 F 
ATOM     79  F   UNL A   1      39.057  36.112  39.727  1.00  0.00    -0.200 F 
ENDBRANCH  55  69
BRANCH  56  80
ATOM     80  C   UNL A   1      40.778  27.941  28.314  1.00  0.00     0.064 A 
ATOM     81  C   UNL A   1      40.175  26.679  28.204  1.00  0.00     0.173 A 
ATOM     82  C   UNL A   1      41.565  28.384  27.241  1.00  0.00     0.173 A 
ATOM     83  F   UNL A   1      39.429  26.204  29.212  1.00  0.00    -0.203 F 
ATOM     84  C   UNL A   1      40.369  25.885  27.075  1.00  0.00     0.198 A 
ATOM     85  C   UNL A   1      41.737  27.600  26.103  1.00  0.00     0.198 A 
ATOM     86  F   UNL A   1      42.158  29.586  27.296  1.00  0.00    -0.203 F 
ATOM     87  F   UNL A   1      39.817  24.666  27.015  1.00  0.00    -0.200 F 
ATOM     88  C   UNL A   1      41.145  26.347  26.024  1.00  0.00     0.200 A 
ATOM     89  F   UNL A   1      42.476  28.055  25.083  1.00  0.00    -0.200 F 
ATOM     90  F   UNL A   1      41.329  25.584  24.938  1.00  0.00    -0.200 F 
ENDBRANCH  56  80
BRANCH  68  91
ATOM     91  C   UNL A   1      43.974  28.197  34.498  1.00  0.00     0.064 A 
ATOM     92  C   UNL A   1      45.301  28.648  34.445  1.00  0.00     0.173 A 
ATOM     93  C   UNL A   1      43.715  26.988  35.161  1.00  0.00     0.173 A 
ATOM     94  F   UNL A   1      45.601  29.791  33.809  1.00  0.00    -0.203 F 
ATOM     95  C   UNL A   1      46.331  27.905  35.015  1.00  0.00     0.198 A 
ATOM     96  C   UNL A   1      44.743  26.263  35.755  1.00  0.00     0.198 A 
ATOM     97  F   UNL A   1      42.461  26.518  35.244  1.00  0.00    -0.203 F 
ATOM     98  F   UNL A   1      47.597  28.332  34.915  1.00  0.00    -0.200 F 
ATOM     99  C   UNL A   1      46.050  26.718  35.676  1.00  0.00     0.200 A 
ATOM    100  F   UNL A   1      44.468  25.122  36.403  1.00  0.00    -0.200 F 
ATOM    101  F   UNL A   1      47.042  26.008  36.230  1.00  0.00    -0.200 F 
ENDBRANCH  68  91
ENDBRANCH  42  43
ENDBRANCH  34  37
ENDBRANCH  32  33
ENDBRANCH  31  32
ENDBRANCH   1  31
TORSDOF 15
ENDMDL
MODEL 2
REMARK VINA RESULT:     -13.4      0.508      7.103
REMARK SMILES CC[C@H](C(=O)NCCCCNC(=O)c1ccc(-c2c3nc(c(-c4c(F)c(F)c(F)c(F)c4F)c4ccc([nH]4)c(-c4c(F)c(F)c(F)c(F)c4F)c4nc(c(-c5c(F)c(F)c(F)c(F)c5F)c5ccc2[nH]5)C=C4)C=C3)cc1)N1C(=O)/C(=C/c2ccc(-c3ccc(C)cc3Br)o2)SC1=S
REMARK SMILES IDX 8 1 7 2 6 3 4 4 5 5 3 7 2 8 1 9 77 10 78 11 96 12 79 13
REMARK SMILES IDX 80 14 95 15 97 16 81 17 82 18 83 19 94 20 84 21 85 22 86 23
REMARK SMILES IDX 87 24 92 25 88 26 91 27 93 28 89 29 90 30 9 31 10 32 11 33
REMARK SMILES IDX 12 34 13 36 14 37 15 38 76 39 16 40 75 41 17 42 18 43 19 44
REMARK SMILES IDX 69 45 20 46 74 47 68 48 70 49 21 50 73 51 67 52 66 53 22 55
REMARK SMILES IDX 54 56 34 57 53 58 35 59 38 60 52 61 71 62 36 63 37 64 51 66
REMARK SMILES IDX 72 67 39 68 23 69 24 70 32 71 25 72 26 73 30 74 33 75 27 76
REMARK SMILES IDX 28 77 31 78 29 79 55 80 56 81 64 82 57 83 58 84 62 85 65 86
REMARK SMILES IDX 59 87 60 88 63 89 61 90 40 91 41 92 49 93 42 94 43 95 47 96
REMARK SMILES IDX 50 97 44 98 45 99 48 100 46 101
REMARK H PARENT 6 6 11 35 70 54 38 65
REMARK Flexibility Score: inf
ROOT
ATOM      1  C   UNL A   1      31.650  30.145  26.671  1.00  0.00     0.023 C 
ENDROOT
BRANCH   1   2
ATOM      2  C   UNL A   1      32.951  29.449  26.286  1.00  0.00     0.116 C 
BRANCH   2   3
ATOM      3  N   UNL A   1      33.300  29.715  24.906  1.00  0.00    -0.354 N 
ATOM      4  C   UNL A   1      32.935  29.057  23.768  1.00  0.00     0.243 C 
ATOM      5  O   UNL A   1      33.557  29.328  22.737  1.00  0.00    -0.273 OA
ATOM      6  H   UNL A   1      33.890  30.491  24.768  1.00  0.00     0.163 HD
BRANCH   4   7
ATOM      7  C   UNL A   1      31.882  27.919  23.789  1.00  0.00     0.181 C 
BRANCH   7   8
ATOM      8  C   UNL A   1      31.131  28.013  22.436  1.00  0.00     0.032 C 
ATOM      9  C   UNL A   1      30.067  29.107  22.428  1.00  0.00     0.006 C 
ENDBRANCH   7   8
BRANCH   7  10
ATOM     10  N   UNL A   1      32.535  26.624  24.162  1.00  0.00    -0.280 N 
ATOM     11  C   UNL A   1      33.453  25.973  23.348  1.00  0.00     0.267 C 
ATOM     12  C   UNL A   1      32.101  25.868  25.246  1.00  0.00     0.149 C 
ATOM     13  O   UNL A   1      33.837  26.309  22.237  1.00  0.00    -0.268 OA
ATOM     14  C   UNL A   1      33.925  24.707  23.971  1.00  0.00     0.084 C 
ATOM     15  S   UNL A   1      33.139  24.470  25.471  1.00  0.00    -0.054 SA
ATOM     16  S   UNL A   1      30.816  26.120  26.282  1.00  0.00    -0.052 S 
ATOM     17  C   UNL A   1      34.848  23.933  23.382  1.00  0.00     0.068 C 
BRANCH  17  18
ATOM     18  C   UNL A   1      35.335  22.727  23.953  1.00  0.00     0.128 A 
ATOM     19  C   UNL A   1      36.610  22.401  24.404  1.00  0.00     0.051 A 
ATOM     20  O   UNL A   1      34.532  21.626  24.155  1.00  0.00    -0.457 OA
ATOM     21  C   UNL A   1      36.592  21.052  24.818  1.00  0.00     0.051 A 
ATOM     22  C   UNL A   1      35.305  20.607  24.619  1.00  0.00     0.135 A 
BRANCH  22  23
ATOM     23  C   UNL A   1      34.663  19.316  24.830  1.00  0.00     0.031 A 
ATOM     24  C   UNL A   1      35.436  18.160  24.627  1.00  0.00     0.013 A 
ATOM     25  C   UNL A   1      33.300  19.158  25.135  1.00  0.00     0.029 A 
ATOM     26  C   UNL A   1      34.869  16.886  24.701  1.00  0.00     0.004 A 
ATOM     27  C   UNL A   1      32.734  17.876  25.212  1.00  0.00     0.019 A 
ATOM     28  Br  UNL A   1      32.112  20.627  25.376  1.00  0.00    -0.050 Br
ATOM     29  C   UNL A   1      33.509  16.734  24.982  1.00  0.00    -0.050 A 
ATOM     30  C   UNL A   1      32.899  15.364  25.002  1.00  0.00     0.044 C 
ENDBRANCH  22  23
ENDBRANCH  17  18
ENDBRANCH   7  10
ENDBRANCH   4   7
ENDBRANCH   2   3
ENDBRANCH   1   2
BRANCH   1  31
ATOM     31  C   UNL A   1      31.664  31.660  26.481  1.00  0.00     0.023 C 
BRANCH  31  32
ATOM     32  C   UNL A   1      32.751  32.394  27.257  1.00  0.00     0.116 C 
BRANCH  32  33
ATOM     33  N   UNL A   1      32.439  33.799  27.484  1.00  0.00    -0.352 N 
ATOM     34  C   UNL A   1      32.995  34.665  28.393  1.00  0.00     0.251 C 
ATOM     35  H   UNL A   1      31.736  34.178  26.909  1.00  0.00     0.163 HD
ATOM     36  O   UNL A   1      32.529  35.789  28.556  1.00  0.00    -0.269 OA
BRANCH  34  37
ATOM     37  C   UNL A   1      34.139  34.210  29.202  1.00  0.00     0.039 A 
ATOM     38  C   UNL A   1      33.892  33.494  30.375  1.00  0.00     0.014 A 
ATOM     39  C   UNL A   1      35.444  34.435  28.761  1.00  0.00     0.014 A 
ATOM     40  C   UNL A   1      34.964  32.938  31.072  1.00  0.00     0.010 A 
ATOM     41  C   UNL A   1      36.501  33.811  29.410  1.00  0.00     0.010 A 
ATOM     42  C   UNL A   1      36.271  33.058  30.571  1.00  0.00    -0.014 A 
BRANCH  42  43
ATOM     43  C   UNL A   1      37.417  32.410  31.254  1.00  0.00     0.031 A 
ATOM     44  C   UNL A   1      38.129  31.265  30.593  1.00  0.00     0.074 A 
ATOM     45  C   UNL A   1      37.767  32.807  32.492  1.00  0.00     0.049 A 
ATOM     46  N   UNL A   1      39.103  30.521  31.050  1.00  0.00    -0.248 NA
ATOM     47  C   UNL A   1      37.660  30.882  29.252  1.00  0.00     0.031 C 
ATOM     48  C   UNL A   1      37.111  33.868  33.259  1.00  0.00     0.029 A 
ATOM     49  N   UNL A   1      38.756  32.356  33.330  1.00  0.00    -0.354 N 
ATOM     50  C   UNL A   1      39.348  29.576  30.063  1.00  0.00     0.074 A 
ATOM     51  C   UNL A   1      38.384  29.800  29.009  1.00  0.00     0.031 C 
ATOM     52  C   UNL A   1      37.734  34.005  34.441  1.00  0.00     0.029 A 
ATOM     53  C   UNL A   1      38.807  33.020  34.529  1.00  0.00     0.049 A 
ATOM     54  H   UNL A   1      39.371  31.625  33.092  1.00  0.00     0.167 HD
ATOM     55  C   UNL A   1      40.310  28.624  30.026  1.00  0.00     0.037 A 
ATOM     56  C   UNL A   1      39.631  32.851  35.582  1.00  0.00     0.037 A 
ATOM     57  C   UNL A   1      41.288  28.428  31.062  1.00  0.00     0.049 A 
ATOM     58  C   UNL A   1      40.702  31.798  35.509  1.00  0.00     0.074 A 
ATOM     59  C   UNL A   1      42.346  27.536  31.095  1.00  0.00     0.029 A 
ATOM     60  N   UNL A   1      41.329  29.141  32.251  1.00  0.00    -0.354 N 
ATOM     61  N   UNL A   1      40.971  30.957  34.540  1.00  0.00    -0.248 NA
ATOM     62  C   UNL A   1      41.588  31.675  36.675  1.00  0.00     0.031 C 
ATOM     63  C   UNL A   1      43.004  27.683  32.321  1.00  0.00     0.029 A 
ATOM     64  C   UNL A   1      42.384  28.699  33.033  1.00  0.00     0.049 A 
ATOM     65  H   UNL A   1      40.701  29.857  32.503  1.00  0.00     0.167 HD
ATOM     66  C   UNL A   1      42.073  30.227  34.964  1.00  0.00     0.074 A 
ATOM     67  C   UNL A   1      42.430  30.733  36.274  1.00  0.00     0.031 C 
ATOM     68  C   UNL A   1      42.729  29.226  34.328  1.00  0.00     0.037 A 
BRANCH  55  69
ATOM     69  C   UNL A   1      40.354  27.732  28.821  1.00  0.00     0.064 A 
ATOM     70  C   UNL A   1      41.109  28.067  27.687  1.00  0.00     0.173 A 
ATOM     71  C   UNL A   1      39.650  26.519  28.805  1.00  0.00     0.173 A 
ATOM     72  F   UNL A   1      41.789  29.224  27.646  1.00  0.00    -0.203 F 
ATOM     73  C   UNL A   1      41.132  27.238  26.568  1.00  0.00     0.198 A 
ATOM     74  C   UNL A   1      39.700  25.677  27.697  1.00  0.00     0.198 A 
ATOM     75  F   UNL A   1      38.916  26.148  29.865  1.00  0.00    -0.203 F 
ATOM     76  F   UNL A   1      41.816  27.606  25.477  1.00  0.00    -0.200 F 
ATOM     77  C   UNL A   1      40.433  26.040  26.577  1.00  0.00     0.200 A 
ATOM     78  F   UNL A   1      39.033  24.514  27.711  1.00  0.00    -0.200 F 
ATOM     79  F   UNL A   1      40.459  25.241  25.503  1.00  0.00    -0.200 F 
ENDBRANCH  55  69
BRANCH  56  80
ATOM     80  C   UNL A   1      39.500  33.725  36.776  1.00  0.00     0.064 A 
ATOM     81  C   UNL A   1      40.181  34.949  36.846  1.00  0.00     0.173 A 
ATOM     82  C   UNL A   1      38.698  33.362  37.867  1.00  0.00     0.173 A 
ATOM     83  F   UNL A   1      40.975  35.332  35.835  1.00  0.00    -0.203 F 
ATOM     84  C   UNL A   1      40.082  35.765  37.971  1.00  0.00     0.198 A 
ATOM     85  C   UNL A   1      38.579  34.191  38.981  1.00  0.00     0.198 A 
ATOM     86  F   UNL A   1      38.021  32.204  37.846  1.00  0.00    -0.203 F 
ATOM     87  F   UNL A   1      40.779  36.908  38.030  1.00  0.00    -0.200 F 
ATOM     88  C   UNL A   1      39.278  35.388  39.036  1.00  0.00     0.200 A 
ATOM     89  F   UNL A   1      37.790  33.830  40.001  1.00  0.00    -0.200 F 
ATOM     90  F   UNL A   1      39.180  36.175  40.116  1.00  0.00    -0.200 F 
ENDBRANCH  56  80
BRANCH  68  91
ATOM     91  C   UNL A   1      43.922  28.637  35.023  1.00  0.00     0.064 A 
ATOM     92  C   UNL A   1      45.204  29.182  34.869  1.00  0.00     0.173 A 
ATOM     93  C   UNL A   1      43.771  27.540  35.884  1.00  0.00     0.173 A 
ATOM     94  F   UNL A   1      45.402  30.223  34.044  1.00  0.00    -0.203 F 
ATOM     95  C   UNL A   1      46.297  28.635  35.534  1.00  0.00     0.198 A 
ATOM     96  C   UNL A   1      44.861  27.014  36.570  1.00  0.00     0.198 A 
ATOM     97  F   UNL A   1      42.563  26.987  36.069  1.00  0.00    -0.203 F 
ATOM     98  F   UNL A   1      47.522  29.143  35.339  1.00  0.00    -0.200 F 
ATOM     99  C   UNL A   1      46.124  27.556  36.390  1.00  0.00     0.200 A 
ATOM    100  F   UNL A   1      44.689  25.979  37.405  1.00  0.00    -0.200 F 
ATOM    101  F   UNL A   1      47.176  27.036  37.035  1.00  0.00    -0.200 F 
ENDBRANCH  68  91
ENDBRANCH  42  43
ENDBRANCH  34  37
ENDBRANCH  32  33
ENDBRANCH  31  32
ENDBRANCH   1  31
TORSDOF 15
ENDMDL
MODEL 3
REMARK VINA RESULT:     -13.3      1.195      2.205
REMARK SMILES CC[C@H](C(=O)NCCCCNC(=O)c1ccc(-c2c3nc(c(-c4c(F)c(F)c(F)c(F)c4F)c4ccc([nH]4)c(-c4c(F)c(F)c(F)c(F)c4F)c4nc(c(-c5c(F)c(F)c(F)c(F)c5F)c5ccc2[nH]5)C=C4)C=C3)cc1)N1C(=O)/C(=C/c2ccc(-c3ccc(C)cc3Br)o2)SC1=S
REMARK SMILES IDX 8 1 7 2 6 3 4 4 5 5 3 7 2 8 1 9 77 10 78 11 96 12 79 13
REMARK SMILES IDX 80 14 95 15 97 16 81 17 82 18 83 19 94 20 84 21 85 22 86 23
REMARK SMILES IDX 87 24 92 25 88 26 91 27 93 28 89 29 90 30 9 31 10 32 11 33
REMARK SMILES IDX 12 34 13 36 14 37 15 38 76 39 16 40 75 41 17 42 18 43 19 44
REMARK SMILES IDX 69 45 20 46 74 47 68 48 70 49 21 50 73 51 67 52 66 53 22 55
REMARK SMILES IDX 54 56 34 57 53 58 35 59 38 60 52 61 71 62 36 63 37 64 51 66
REMARK SMILES IDX 72 67 39 68 23 69 24 70 32 71 25 72 26 73 30 74 33 75 27 76
REMARK SMILES IDX 28 77 31 78 29 79 55 80 56 81 64 82 57 83 58 84 62 85 65 86
REMARK SMILES IDX 59 87 60 88 63 89 61 90 40 91 41 92 49 93 42 94 43 95 47 96
REMARK SMILES IDX 50 97 44 98 45 99 48 100 46 101
REMARK H PARENT 6 6 11 35 70 54 38 65
REMARK Flexibility Score: inf
ROOT
ATOM      1  C   UNL A   1      31.711  30.313  26.375  1.00  0.00     0.023 C 
ENDROOT
BRANCH   1   2
ATOM      2  C   UNL A   1      33.039  29.833  25.800  1.00  0.00     0.116 C 
BRANCH   2   3
ATOM      3  N   UNL A   1      33.000  29.796  24.353  1.00  0.00    -0.354 N 
ATOM      4  C   UNL A   1      32.330  28.954  23.516  1.00  0.00     0.243 C 
ATOM      5  O   UNL A   1      32.649  28.971  22.324  1.00  0.00    -0.273 OA
ATOM      6  H   UNL A   1      33.541  30.486  23.904  1.00  0.00     0.163 HD
BRANCH   4   7
ATOM      7  C   UNL A   1      31.306  27.919  24.053  1.00  0.00     0.181 C 
BRANCH   7   8
ATOM      8  C   UNL A   1      30.152  27.890  23.017  1.00  0.00     0.032 C 
ATOM      9  C   UNL A   1      28.909  27.176  23.542  1.00  0.00     0.006 C 
ENDBRANCH   7   8
BRANCH   7  10
ATOM     10  N   UNL A   1      32.003  26.637  24.391  1.00  0.00    -0.280 N 
ATOM     11  C   UNL A   1      32.398  25.711  23.434  1.00  0.00     0.267 C 
ATOM     12  C   UNL A   1      32.103  26.180  25.701  1.00  0.00     0.149 C 
ATOM     13  O   UNL A   1      32.224  25.764  22.225  1.00  0.00    -0.268 OA
ATOM     14  C   UNL A   1      33.056  24.534  24.062  1.00  0.00     0.084 C 
ATOM     15  S   UNL A   1      33.064  24.712  25.762  1.00  0.00    -0.054 SA
ATOM     16  S   UNL A   1      31.474  26.816  27.109  1.00  0.00    -0.052 S 
ATOM     17  C   UNL A   1      33.557  23.531  23.326  1.00  0.00     0.068 C 
BRANCH  17  18
ATOM     18  C   UNL A   1      34.206  22.399  23.888  1.00  0.00     0.128 A 
ATOM     19  C   UNL A   1      33.677  21.189  24.325  1.00  0.00     0.051 A 
ATOM     20  O   UNL A   1      35.568  22.350  24.087  1.00  0.00    -0.457 OA
ATOM     21  C   UNL A   1      34.733  20.424  24.866  1.00  0.00     0.051 A 
ATOM     22  C   UNL A   1      35.869  21.187  24.728  1.00  0.00     0.135 A 
BRANCH  22  23
ATOM     23  C   UNL A   1      37.259  20.967  25.104  1.00  0.00     0.031 A 
ATOM     24  C   UNL A   1      37.778  19.669  24.957  1.00  0.00     0.013 A 
ATOM     25  C   UNL A   1      38.080  21.947  25.687  1.00  0.00     0.029 A 
ATOM     26  C   UNL A   1      39.064  19.347  25.396  1.00  0.00     0.004 A 
ATOM     27  C   UNL A   1      39.373  21.622  26.125  1.00  0.00     0.019 A 
ATOM     28  Br  UNL A   1      37.498  23.731  26.010  1.00  0.00    -0.050 Br
ATOM     29  C   UNL A   1      39.868  20.319  25.996  1.00  0.00    -0.050 A 
ATOM     30  C   UNL A   1      41.226  19.948  26.515  1.00  0.00     0.044 C 
ENDBRANCH  22  23
ENDBRANCH  17  18
ENDBRANCH   7  10
ENDBRANCH   4   7
ENDBRANCH   2   3
ENDBRANCH   1   2
BRANCH   1  31
ATOM     31  C   UNL A   1      31.593  31.829  26.514  1.00  0.00     0.023 C 
BRANCH  31  32
ATOM     32  C   UNL A   1      32.745  32.497  27.253  1.00  0.00     0.116 C 
BRANCH  32  33
ATOM     33  N   UNL A   1      32.492  33.899  27.558  1.00  0.00    -0.352 N 
ATOM     34  C   UNL A   1      33.101  34.698  28.492  1.00  0.00     0.251 C 
ATOM     35  H   UNL A   1      31.788  34.331  27.021  1.00  0.00     0.163 HD
ATOM     36  O   UNL A   1      32.681  35.828  28.723  1.00  0.00    -0.269 OA
BRANCH  34  37
ATOM     37  C   UNL A   1      34.248  34.163  29.247  1.00  0.00     0.039 A 
ATOM     38  C   UNL A   1      34.009  33.272  30.294  1.00  0.00     0.014 A 
ATOM     39  C   UNL A   1      35.552  34.493  28.870  1.00  0.00     0.014 A 
ATOM     40  C   UNL A   1      35.088  32.651  30.921  1.00  0.00     0.010 A 
ATOM     41  C   UNL A   1      36.620  33.812  29.439  1.00  0.00     0.010 A 
ATOM     42  C   UNL A   1      36.397  32.886  30.470  1.00  0.00    -0.014 A 
BRANCH  42  43
ATOM     43  C   UNL A   1      37.555  32.179  31.071  1.00  0.00     0.031 A 
ATOM     44  C   UNL A   1      38.021  32.550  32.450  1.00  0.00     0.074 A 
ATOM     45  C   UNL A   1      38.222  31.259  30.351  1.00  0.00     0.049 A 
ATOM     46  N   UNL A   1      39.050  32.103  33.124  1.00  0.00    -0.248 NA
ATOM     47  C   UNL A   1      37.246  33.585  33.153  1.00  0.00     0.031 C 
ATOM     48  C   UNL A   1      37.899  30.859  28.979  1.00  0.00     0.029 A 
ATOM     49  N   UNL A   1      39.320  30.500  30.667  1.00  0.00    -0.354 N 
ATOM     50  C   UNL A   1      39.055  32.816  34.315  1.00  0.00     0.074 A 
ATOM     51  C   UNL A   1      37.965  33.763  34.250  1.00  0.00     0.031 C 
ATOM     52  C   UNL A   1      38.761  29.909  28.584  1.00  0.00     0.029 A 
ATOM     53  C   UNL A   1      39.717  29.658  29.657  1.00  0.00     0.049 A 
ATOM     54  H   UNL A   1      39.780  30.554  31.536  1.00  0.00     0.167 HD
ATOM     55  C   UNL A   1      39.878  32.671  35.381  1.00  0.00     0.037 A 
ATOM     56  C   UNL A   1      40.739  28.782  29.608  1.00  0.00     0.037 A 
ATOM     57  C   UNL A   1      40.939  31.703  35.454  1.00  0.00     0.049 A 
ATOM     58  C   UNL A   1      41.628  28.629  30.811  1.00  0.00     0.074 A 
ATOM     59  C   UNL A   1      41.789  31.430  36.510  1.00  0.00     0.029 A 
ATOM     60  N   UNL A   1      41.292  30.844  34.423  1.00  0.00    -0.354 N 
ATOM     61  N   UNL A   1      41.580  29.256  31.962  1.00  0.00    -0.248 NA
ATOM     62  C   UNL A   1      42.711  27.640  30.711  1.00  0.00     0.031 C 
ATOM     63  C   UNL A   1      42.682  30.432  36.106  1.00  0.00     0.029 A 
ATOM     64  C   UNL A   1      42.359  30.050  34.813  1.00  0.00     0.049 A 
ATOM     65  H   UNL A   1      40.850  30.804  33.544  1.00  0.00     0.167 HD
ATOM     66  C   UNL A   1      42.603  28.720  32.732  1.00  0.00     0.074 A 
ATOM     67  C   UNL A   1      43.248  27.706  31.922  1.00  0.00     0.031 C 
ATOM     68  C   UNL A   1      42.977  29.039  33.995  1.00  0.00     0.037 A 
BRANCH  55  69
ATOM     69  C   UNL A   1      39.653  33.577  36.556  1.00  0.00     0.064 A 
ATOM     70  C   UNL A   1      38.818  33.204  37.620  1.00  0.00     0.173 A 
ATOM     71  C   UNL A   1      40.292  34.823  36.629  1.00  0.00     0.173 A 
ATOM     72  F   UNL A   1      38.171  32.029  37.592  1.00  0.00    -0.203 F 
ATOM     73  C   UNL A   1      38.606  34.059  38.700  1.00  0.00     0.198 A 
ATOM     74  C   UNL A   1      40.102  35.662  37.725  1.00  0.00     0.198 A 
ATOM     75  F   UNL A   1      41.104  35.227  35.640  1.00  0.00    -0.203 F 
ATOM     76  F   UNL A   1      37.762  33.703  39.677  1.00  0.00    -0.200 F 
ATOM     77  C   UNL A   1      39.253  35.284  38.753  1.00  0.00     0.200 A 
ATOM     78  F   UNL A   1      40.738  36.841  37.781  1.00  0.00    -0.200 F 
ATOM     79  F   UNL A   1      39.053  36.103  39.794  1.00  0.00    -0.200 F 
ENDBRANCH  55  69
BRANCH  56  80
ATOM     80  C   UNL A   1      40.951  27.955  28.393  1.00  0.00     0.064 A 
ATOM     81  C   UNL A   1      40.459  26.643  28.324  1.00  0.00     0.173 A 
ATOM     82  C   UNL A   1      41.644  28.450  27.279  1.00  0.00     0.173 A 
ATOM     83  F   UNL A   1      39.806  26.118  29.371  1.00  0.00    -0.203 F 
ATOM     84  C   UNL A   1      40.673  25.852  27.197  1.00  0.00     0.198 A 
ATOM     85  C   UNL A   1      41.834  27.668  26.142  1.00  0.00     0.198 A 
ATOM     86  F   UNL A   1      42.128  29.701  27.293  1.00  0.00    -0.203 F 
ATOM     87  F   UNL A   1      40.230  24.587  27.176  1.00  0.00    -0.200 F 
ATOM     88  C   UNL A   1      41.355  26.366  26.105  1.00  0.00     0.200 A 
ATOM     89  F   UNL A   1      42.482  28.172  25.084  1.00  0.00    -0.200 F 
ATOM     90  F   UNL A   1      41.557  25.606  25.020  1.00  0.00    -0.200 F 
ENDBRANCH  56  80
BRANCH  68  91
ATOM     91  C   UNL A   1      44.111  28.259  34.593  1.00  0.00     0.064 A 
ATOM     92  C   UNL A   1      43.894  27.054  35.275  1.00  0.00     0.173 A 
ATOM     93  C   UNL A   1      45.433  28.704  34.444  1.00  0.00     0.173 A 
ATOM     94  F   UNL A   1      42.646  26.595  35.456  1.00  0.00    -0.203 F 
ATOM     95  C   UNL A   1      44.959  26.334  35.808  1.00  0.00     0.198 A 
ATOM     96  C   UNL A   1      46.497  27.967  34.953  1.00  0.00     0.198 A 
ATOM     97  F   UNL A   1      45.692  29.848  33.793  1.00  0.00    -0.203 F 
ATOM     98  F   UNL A   1      44.727  25.207  36.496  1.00  0.00    -0.200 F 
ATOM     99  C   UNL A   1      46.260  26.787  35.640  1.00  0.00     0.200 A 
ATOM    100  F   UNL A   1      47.754  28.400  34.779  1.00  0.00    -0.200 F 
ATOM    101  F   UNL A   1      47.284  26.088  36.148  1.00  0.00    -0.200 F 
ENDBRANCH  68  91
ENDBRANCH  42  43
ENDBRANCH  34  37
ENDBRANCH  32  33
ENDBRANCH  31  32
ENDBRANCH   1  31
TORSDOF 15
ENDMDL
