MODEL 1
REMARK VINA RESULT:     -13.1      0.000      0.000
REMARK SMILES C[C@@](CC(=O)N[C@@H]1CCS(=O)(=O)C1)(C(=O)NCCCCNC(=O)c1ccc(-c2c3nc(c(-c4c(F)c(F)c(F)c(F)c4F)c4ccc([nH]4)c(-c4c(F)c(F)c(F)c(F)c4F)c4nc(c(-c5c(F)c(F)c(F)c(F)c5F)c5ccc2[nH]5)C=C4)C=C3)cc1)c1ccccc1
REMARK SMILES IDX 18 1 17 2 16 3 14 4 15 5 2 7 1 8 3 9 4 10 5 11 6 12 7 14
REMARK SMILES IDX 8 15 13 16 9 17 10 18 11 19 12 20 87 21 88 22 92 23 89 24
REMARK SMILES IDX 91 25 90 26 19 27 20 28 21 29 22 30 23 32 24 33 25 34 86 35
REMARK SMILES IDX 26 36 85 37 27 38 28 39 29 40 79 41 30 42 84 43 78 44 80 45
REMARK SMILES IDX 31 46 83 47 77 48 76 49 32 51 64 52 44 53 63 54 45 55 48 56
REMARK SMILES IDX 62 57 81 58 46 59 47 60 61 62 82 63 49 64 33 65 34 66 42 67
REMARK SMILES IDX 35 68 36 69 40 70 43 71 37 72 38 73 41 74 39 75 65 76 66 77
REMARK SMILES IDX 74 78 67 79 68 80 72 81 75 82 69 83 70 84 73 85 71 86 50 87
REMARK SMILES IDX 51 88 59 89 52 90 53 91 57 92 60 93 54 94 55 95 58 96 56 97
REMARK H PARENT 16 6 6 13 21 31 80 50 48 61
REMARK Flexibility Score: inf
ROOT
ATOM      1  C   UNL A   1      37.140  21.130  24.499  1.00  0.00     0.023 C 
ENDROOT
BRANCH   1   2
ATOM      2  C   UNL A   1      36.737  22.178  25.548  1.00  0.00     0.116 C 
BRANCH   2   3
ATOM      3  N   UNL A   1      35.554  21.791  26.303  1.00  0.00    -0.355 N 
ATOM      4  C   UNL A   1      34.289  21.354  26.133  1.00  0.00     0.230 C 
ATOM      5  O   UNL A   1      33.776  21.077  27.236  1.00  0.00    -0.274 OA
ATOM      6  H   UNL A   1      35.741  21.876  27.266  1.00  0.00     0.163 HD
BRANCH   4   7
ATOM      7  C   UNL A   1      33.376  21.243  24.845  1.00  0.00     0.080 C 
ATOM      8  C   UNL A   1      31.969  21.483  25.361  1.00  0.00     0.027 C 
BRANCH   7   9
ATOM      9  C   UNL A   1      33.534  22.207  23.641  1.00  0.00     0.121 C 
BRANCH   9  10
ATOM     10  C   UNL A   1      34.159  23.610  23.680  1.00  0.00     0.221 C 
ATOM     11  O   UNL A   1      35.134  23.814  22.935  1.00  0.00    -0.275 OA
ATOM     12  N   UNL A   1      33.868  24.688  24.455  1.00  0.00    -0.352 N 
ATOM     13  H   UNL A   1      34.617  24.906  25.056  1.00  0.00     0.163 HD
BRANCH  12  14
ATOM     14  C   UNL A   1      32.737  25.629  24.646  1.00  0.00     0.098 C 
ATOM     15  C   UNL A   1      31.362  24.889  24.590  1.00  0.00     0.042 C 
ATOM     16  C   UNL A   1      32.571  26.830  23.741  1.00  0.00     0.161 C 
ATOM     17  C   UNL A   1      30.664  25.080  23.239  1.00  0.00     0.139 C 
ATOM     18  S   UNL A   1      31.581  26.286  22.341  1.00  0.00     0.152 S 
ATOM     19  O   UNL A   1      32.340  25.543  21.356  1.00  0.00    -0.229 OA
ATOM     20  O   UNL A   1      30.715  27.372  21.944  1.00  0.00    -0.229 OA
ENDBRANCH  12  14
ENDBRANCH   9  10
ENDBRANCH   7   9
BRANCH   7  21
ATOM     21  C   UNL A   1      33.389  19.728  24.366  1.00  0.00    -0.032 A 
ATOM     22  C   UNL A   1      32.440  19.270  23.438  1.00  0.00     0.005 A 
ATOM     23  C   UNL A   1      34.427  18.821  24.707  1.00  0.00     0.005 A 
ATOM     24  C   UNL A   1      32.566  18.005  22.839  1.00  0.00     0.000 A 
ATOM     25  C   UNL A   1      34.552  17.564  24.110  1.00  0.00     0.000 A 
ATOM     26  C   UNL A   1      33.626  17.160  23.163  1.00  0.00     0.000 A 
ENDBRANCH   7  21
ENDBRANCH   4   7
ENDBRANCH   2   3
ENDBRANCH   1   2
BRANCH   1  27
ATOM     27  C   UNL A   1      37.930  19.928  25.017  1.00  0.00     0.023 C 
BRANCH  27  28
ATOM     28  C   UNL A   1      39.218  20.282  25.754  1.00  0.00     0.116 C 
BRANCH  28  29
ATOM     29  N   UNL A   1      40.176  19.181  25.862  1.00  0.00    -0.352 N 
ATOM     30  C   UNL A   1      41.527  19.228  26.137  1.00  0.00     0.251 C 
ATOM     31  H   UNL A   1      39.804  18.280  25.718  1.00  0.00     0.163 HD
ATOM     32  O   UNL A   1      42.202  18.205  26.115  1.00  0.00    -0.269 OA
BRANCH  30  33
ATOM     33  C   UNL A   1      42.167  20.535  26.409  1.00  0.00     0.039 A 
ATOM     34  C   UNL A   1      42.613  21.319  25.340  1.00  0.00     0.014 A 
ATOM     35  C   UNL A   1      42.245  21.019  27.714  1.00  0.00     0.014 A 
ATOM     36  C   UNL A   1      43.032  22.631  25.577  1.00  0.00     0.010 A 
ATOM     37  C   UNL A   1      42.550  22.356  27.932  1.00  0.00     0.010 A 
ATOM     38  C   UNL A   1      42.947  23.179  26.867  1.00  0.00    -0.014 A 
BRANCH  38  39
ATOM     39  C   UNL A   1      43.269  24.604  27.139  1.00  0.00     0.031 A 
ATOM     40  C   UNL A   1      44.662  25.115  26.890  1.00  0.00     0.074 A 
ATOM     41  C   UNL A   1      42.342  25.409  27.697  1.00  0.00     0.049 A 
ATOM     42  N   UNL A   1      45.178  26.287  27.161  1.00  0.00    -0.248 NA
ATOM     43  C   UNL A   1      45.616  24.165  26.295  1.00  0.00     0.031 C 
ATOM     44  C   UNL A   1      40.979  25.015  28.055  1.00  0.00     0.029 A 
ATOM     45  N   UNL A   1      42.413  26.728  28.077  1.00  0.00    -0.354 N 
ATOM     46  C   UNL A   1      46.514  26.202  26.791  1.00  0.00     0.074 A 
ATOM     47  C   UNL A   1      46.749  24.846  26.350  1.00  0.00     0.031 C 
ATOM     48  C   UNL A   1      40.333  26.072  28.572  1.00  0.00     0.029 A 
ATOM     49  C   UNL A   1      41.247  27.210  28.623  1.00  0.00     0.049 A 
ATOM     50  H   UNL A   1      43.224  27.276  27.967  1.00  0.00     0.167 HD
ATOM     51  C   UNL A   1      47.453  27.178  26.783  1.00  0.00     0.037 A 
ATOM     52  C   UNL A   1      40.953  28.429  29.113  1.00  0.00     0.037 A 
ATOM     53  C   UNL A   1      47.205  28.535  27.190  1.00  0.00     0.049 A 
ATOM     54  C   UNL A   1      42.010  29.501  29.084  1.00  0.00     0.074 A 
ATOM     55  C   UNL A   1      48.066  29.617  27.163  1.00  0.00     0.029 A 
ATOM     56  N   UNL A   1      45.999  28.994  27.701  1.00  0.00    -0.354 N 
ATOM     57  N   UNL A   1      43.249  29.431  28.659  1.00  0.00    -0.248 NA
ATOM     58  C   UNL A   1      41.626  30.824  29.595  1.00  0.00     0.031 C 
ATOM     59  C   UNL A   1      47.396  30.721  27.701  1.00  0.00     0.029 A 
ATOM     60  C   UNL A   1      46.100  30.341  28.010  1.00  0.00     0.049 A 
ATOM     61  H   UNL A   1      45.191  28.445  27.825  1.00  0.00     0.167 HD
ATOM     62  C   UNL A   1      43.782  30.702  28.823  1.00  0.00     0.074 A 
ATOM     63  C   UNL A   1      42.726  31.528  29.371  1.00  0.00     0.031 C 
ATOM     64  C   UNL A   1      45.032  31.147  28.546  1.00  0.00     0.037 A 
BRANCH  51  65
ATOM     65  C   UNL A   1      48.829  26.811  26.302  1.00  0.00     0.064 A 
ATOM     66  C   UNL A   1      49.215  26.995  24.965  1.00  0.00     0.173 A 
ATOM     67  C   UNL A   1      49.779  26.282  27.189  1.00  0.00     0.173 A 
ATOM     68  F   UNL A   1      48.342  27.484  24.071  1.00  0.00    -0.203 F 
ATOM     69  C   UNL A   1      50.484  26.627  24.526  1.00  0.00     0.198 A 
ATOM     70  C   UNL A   1      51.059  25.950  26.755  1.00  0.00     0.198 A 
ATOM     71  F   UNL A   1      49.466  26.089  28.480  1.00  0.00    -0.203 F 
ATOM     72  F   UNL A   1      50.806  26.753  23.231  1.00  0.00    -0.200 F 
ATOM     73  C   UNL A   1      51.408  26.112  25.422  1.00  0.00     0.200 A 
ATOM     74  F   UNL A   1      51.955  25.465  27.625  1.00  0.00    -0.200 F 
ATOM     75  F   UNL A   1      52.630  25.763  25.001  1.00  0.00    -0.200 F 
ENDBRANCH  51  65
BRANCH  52  76
ATOM     76  C   UNL A   1      39.592  28.712  29.644  1.00  0.00     0.064 A 
ATOM     77  C   UNL A   1      38.596  29.256  28.820  1.00  0.00     0.173 A 
ATOM     78  C   UNL A   1      39.258  28.450  30.981  1.00  0.00     0.173 A 
ATOM     79  F   UNL A   1      38.870  29.542  27.538  1.00  0.00    -0.203 F 
ATOM     80  C   UNL A   1      37.328  29.549  29.318  1.00  0.00     0.198 A 
ATOM     81  C   UNL A   1      37.979  28.715  31.470  1.00  0.00     0.198 A 
ATOM     82  F   UNL A   1      40.170  27.924  31.811  1.00  0.00    -0.203 F 
ATOM     83  F   UNL A   1      36.411  30.114  28.520  1.00  0.00    -0.200 F 
ATOM     84  C   UNL A   1      37.018  29.273  30.641  1.00  0.00     0.200 A 
ATOM     85  F   UNL A   1      37.680  28.431  32.745  1.00  0.00    -0.200 F 
ATOM     86  F   UNL A   1      35.797  29.551  31.118  1.00  0.00    -0.200 F 
ENDBRANCH  52  76
BRANCH  64  87
ATOM     87  C   UNL A   1      45.318  32.600  28.794  1.00  0.00     0.064 A 
ATOM     88  C   UNL A   1      45.872  33.047  30.002  1.00  0.00     0.173 A 
ATOM     89  C   UNL A   1      45.077  33.550  27.789  1.00  0.00     0.173 A 
ATOM     90  F   UNL A   1      46.109  32.181  30.998  1.00  0.00    -0.203 F 
ATOM     91  C   UNL A   1      46.151  34.397  30.205  1.00  0.00     0.198 A 
ATOM     92  C   UNL A   1      45.388  34.892  27.982  1.00  0.00     0.198 A 
ATOM     93  F   UNL A   1      44.556  33.172  26.611  1.00  0.00    -0.203 F 
ATOM     94  F   UNL A   1      46.634  34.809  31.384  1.00  0.00    -0.200 F 
ATOM     95  C   UNL A   1      45.916  35.316  29.192  1.00  0.00     0.200 A 
ATOM     96  F   UNL A   1      45.177  35.776  26.997  1.00  0.00    -0.200 F 
ATOM     97  F   UNL A   1      46.195  36.612  29.385  1.00  0.00    -0.200 F 
ENDBRANCH  64  87
ENDBRANCH  38  39
ENDBRANCH  30  33
ENDBRANCH  28  29
ENDBRANCH  27  28
ENDBRANCH   1  27
TORSDOF 15
ENDMDL
MODEL 2
REMARK VINA RESULT:     -13.0      0.775      7.240
REMARK SMILES C[C@@](CC(=O)N[C@@H]1CCS(=O)(=O)C1)(C(=O)NCCCCNC(=O)c1ccc(-c2c3nc(c(-c4c(F)c(F)c(F)c(F)c4F)c4ccc([nH]4)c(-c4c(F)c(F)c(F)c(F)c4F)c4nc(c(-c5c(F)c(F)c(F)c(F)c5F)c5ccc2[nH]5)C=C4)C=C3)cc1)c1ccccc1
REMARK SMILES IDX 18 1 17 2 16 3 14 4 15 5 2 7 1 8 3 9 4 10 5 11 6 12 7 14
REMARK SMILES IDX 8 15 13 16 9 17 10 18 11 19 12 20 87 21 88 22 92 23 89 24
REMARK SMILES IDX 91 25 90 26 19 27 20 28 21 29 22 30 23 32 24 33 25 34 86 35
REMARK SMILES IDX 26 36 85 37 27 38 28 39 29 40 79 41 30 42 84 43 78 44 80 45
REMARK SMILES IDX 31 46 83 47 77 48 76 49 32 51 64 52 44 53 63 54 45 55 48 56
REMARK SMILES IDX 62 57 81 58 46 59 47 60 61 62 82 63 49 64 33 65 34 66 42 67
REMARK SMILES IDX 35 68 36 69 40 70 43 71 37 72 38 73 41 74 39 75 65 76 66 77
REMARK SMILES IDX 74 78 67 79 68 80 72 81 75 82 69 83 70 84 73 85 71 86 50 87
REMARK SMILES IDX 51 88 59 89 52 90 53 91 57 92 60 93 54 94 55 95 58 96 56 97
REMARK H PARENT 16 6 6 13 21 31 80 50 48 61
REMARK Flexibility Score: inf
ROOT
ATOM      1  C   UNL A   1      37.342  21.382  24.652  1.00  0.00     0.023 C 
ENDROOT
BRANCH   1   2
ATOM      2  C   UNL A   1      36.896  22.386  25.725  1.00  0.00     0.116 C 
BRANCH   2   3
ATOM      3  N   UNL A   1      35.695  21.960  26.428  1.00  0.00    -0.355 N 
ATOM      4  C   UNL A   1      34.448  21.495  26.204  1.00  0.00     0.230 C 
ATOM      5  O   UNL A   1      33.900  21.190  27.283  1.00  0.00    -0.274 OA
ATOM      6  H   UNL A   1      35.842  22.036  27.400  1.00  0.00     0.163 HD
BRANCH   4   7
ATOM      7  C   UNL A   1      33.587  21.381  24.881  1.00  0.00     0.080 C 
ATOM      8  C   UNL A   1      32.175  21.720  25.322  1.00  0.00     0.027 C 
BRANCH   7   9
ATOM      9  C   UNL A   1      33.853  22.284  23.648  1.00  0.00     0.121 C 
BRANCH   9  10
ATOM     10  C   UNL A   1      34.607  23.623  23.653  1.00  0.00     0.221 C 
ATOM     11  O   UNL A   1      35.537  23.748  22.836  1.00  0.00    -0.275 OA
ATOM     12  N   UNL A   1      34.477  24.710  24.457  1.00  0.00    -0.352 N 
ATOM     13  H   UNL A   1      35.287  24.848  25.000  1.00  0.00     0.163 HD
BRANCH  12  14
ATOM     14  C   UNL A   1      33.457  25.748  24.744  1.00  0.00     0.098 C 
ATOM     15  C   UNL A   1      32.049  25.329  24.209  1.00  0.00     0.042 C 
ATOM     16  C   UNL A   1      33.647  27.170  24.266  1.00  0.00     0.161 C 
ATOM     17  C   UNL A   1      31.703  26.036  22.895  1.00  0.00     0.139 C 
ATOM     18  S   UNL A   1      32.940  27.258  22.614  1.00  0.00     0.152 S 
ATOM     19  O   UNL A   1      33.804  26.709  21.591  1.00  0.00    -0.229 OA
ATOM     20  O   UNL A   1      32.325  28.555  22.448  1.00  0.00    -0.229 OA
ENDBRANCH  12  14
ENDBRANCH   9  10
ENDBRANCH   7   9
BRANCH   7  21
ATOM     21  C   UNL A   1      33.536  19.849  24.462  1.00  0.00    -0.032 A 
ATOM     22  C   UNL A   1      32.501  19.373  23.641  1.00  0.00     0.005 A 
ATOM     23  C   UNL A   1      34.587  18.937  24.745  1.00  0.00     0.005 A 
ATOM     24  C   UNL A   1      32.554  18.084  23.083  1.00  0.00     0.000 A 
ATOM     25  C   UNL A   1      34.639  17.656  24.189  1.00  0.00     0.000 A 
ATOM     26  C   UNL A   1      33.626  17.233  23.345  1.00  0.00     0.000 A 
ENDBRANCH   7  21
ENDBRANCH   4   7
ENDBRANCH   2   3
ENDBRANCH   1   2
BRANCH   1  27
ATOM     27  C   UNL A   1      38.072  20.136  25.156  1.00  0.00     0.023 C 
BRANCH  27  28
ATOM     28  C   UNL A   1      39.442  20.407  25.772  1.00  0.00     0.116 C 
BRANCH  28  29
ATOM     29  N   UNL A   1      40.302  19.227  25.876  1.00  0.00    -0.352 N 
ATOM     30  C   UNL A   1      41.649  19.158  26.162  1.00  0.00     0.251 C 
ATOM     31  H   UNL A   1      39.855  18.363  25.722  1.00  0.00     0.163 HD
ATOM     32  O   UNL A   1      42.235  18.080  26.135  1.00  0.00    -0.269 OA
BRANCH  30  33
ATOM     33  C   UNL A   1      42.396  20.403  26.450  1.00  0.00     0.039 A 
ATOM     34  C   UNL A   1      43.015  21.093  25.403  1.00  0.00     0.014 A 
ATOM     35  C   UNL A   1      42.408  20.929  27.741  1.00  0.00     0.014 A 
ATOM     36  C   UNL A   1      43.546  22.365  25.636  1.00  0.00     0.010 A 
ATOM     37  C   UNL A   1      42.830  22.236  27.944  1.00  0.00     0.010 A 
ATOM     38  C   UNL A   1      43.404  22.971  26.895  1.00  0.00    -0.014 A 
BRANCH  38  39
ATOM     39  C   UNL A   1      43.848  24.365  27.151  1.00  0.00     0.031 A 
ATOM     40  C   UNL A   1      42.856  25.386  27.639  1.00  0.00     0.074 A 
ATOM     41  C   UNL A   1      45.111  24.736  26.855  1.00  0.00     0.049 A 
ATOM     42  N   UNL A   1      43.010  26.674  27.820  1.00  0.00    -0.248 NA
ATOM     43  C   UNL A   1      41.495  24.902  27.921  1.00  0.00     0.031 C 
ATOM     44  C   UNL A   1      46.147  23.858  26.307  1.00  0.00     0.029 A 
ATOM     45  N   UNL A   1      45.735  25.956  26.960  1.00  0.00    -0.354 N 
ATOM     46  C   UNL A   1      41.764  27.148  28.212  1.00  0.00     0.074 A 
ATOM     47  C   UNL A   1      40.850  26.030  28.168  1.00  0.00     0.031 C 
ATOM     48  C   UNL A   1      47.283  24.558  26.153  1.00  0.00     0.029 A 
ATOM     49  C   UNL A   1      47.047  25.942  26.550  1.00  0.00     0.049 A 
ATOM     50  H   UNL A   1      45.283  26.763  27.298  1.00  0.00     0.167 HD
ATOM     51  C   UNL A   1      41.421  28.396  28.610  1.00  0.00     0.037 A 
ATOM     52  C   UNL A   1      47.953  26.938  26.496  1.00  0.00     0.037 A 
ATOM     53  C   UNL A   1      42.344  29.497  28.684  1.00  0.00     0.049 A 
ATOM     54  C   UNL A   1      47.551  28.315  26.954  1.00  0.00     0.074 A 
ATOM     55  C   UNL A   1      42.117  30.785  29.132  1.00  0.00     0.029 A 
ATOM     56  N   UNL A   1      43.675  29.434  28.297  1.00  0.00    -0.354 N 
ATOM     57  N   UNL A   1      46.390  28.734  27.397  1.00  0.00    -0.248 NA
ATOM     58  C   UNL A   1      48.588  29.355  26.911  1.00  0.00     0.031 C 
ATOM     59  C   UNL A   1      43.299  31.517  28.973  1.00  0.00     0.029 A 
ATOM     60  C   UNL A   1      44.278  30.669  28.479  1.00  0.00     0.049 A 
ATOM     61  H   UNL A   1      44.125  28.632  27.946  1.00  0.00     0.167 HD
ATOM     62  C   UNL A   1      46.564  30.075  27.714  1.00  0.00     0.074 A 
ATOM     63  C   UNL A   1      47.946  30.394  27.427  1.00  0.00     0.031 C 
ATOM     64  C   UNL A   1      45.660  30.963  28.196  1.00  0.00     0.037 A 
BRANCH  51  65
ATOM     65  C   UNL A   1      39.991  28.627  29.010  1.00  0.00     0.064 A 
ATOM     66  C   UNL A   1      39.545  28.385  30.319  1.00  0.00     0.173 A 
ATOM     67  C   UNL A   1      39.057  29.107  28.080  1.00  0.00     0.173 A 
ATOM     68  F   UNL A   1      40.392  27.911  31.245  1.00  0.00    -0.203 F 
ATOM     69  C   UNL A   1      38.212  28.578  30.671  1.00  0.00     0.198 A 
ATOM     70  C   UNL A   1      37.733  29.335  28.445  1.00  0.00     0.198 A 
ATOM     71  F   UNL A   1      39.430  29.360  26.816  1.00  0.00    -0.203 F 
ATOM     72  F   UNL A   1      37.797  28.278  31.910  1.00  0.00    -0.200 F 
ATOM     73  C   UNL A   1      37.308  29.059  29.736  1.00  0.00     0.200 A 
ATOM     74  F   UNL A   1      36.864  29.813  27.544  1.00  0.00    -0.200 F 
ATOM     75  F   UNL A   1      36.027  29.250  30.077  1.00  0.00    -0.200 F 
ENDBRANCH  51  65
BRANCH  52  76
ATOM     76  C   UNL A   1      49.336  26.663  26.021  1.00  0.00     0.064 A 
ATOM     77  C   UNL A   1      49.711  26.938  24.697  1.00  0.00     0.173 A 
ATOM     78  C   UNL A   1      50.308  26.117  26.871  1.00  0.00     0.173 A 
ATOM     79  F   UNL A   1      48.812  27.443  23.839  1.00  0.00    -0.203 F 
ATOM     80  C   UNL A   1      50.996  26.657  24.238  1.00  0.00     0.198 A 
ATOM     81  C   UNL A   1      51.603  25.865  26.418  1.00  0.00     0.198 A 
ATOM     82  F   UNL A   1      50.005  25.840  28.148  1.00  0.00    -0.203 F 
ATOM     83  F   UNL A   1      51.311  26.886  22.956  1.00  0.00    -0.200 F 
ATOM     84  C   UNL A   1      51.943  26.126  25.100  1.00  0.00     0.200 A 
ATOM     85  F   UNL A   1      52.519  25.367  27.260  1.00  0.00    -0.200 F 
ATOM     86  F   UNL A   1      53.180  25.860  24.659  1.00  0.00    -0.200 F 
ENDBRANCH  52  76
BRANCH  64  87
ATOM     87  C   UNL A   1      46.146  32.354  28.483  1.00  0.00     0.064 A 
ATOM     88  C   UNL A   1      46.703  32.700  29.722  1.00  0.00     0.173 A 
ATOM     89  C   UNL A   1      46.098  33.340  27.484  1.00  0.00     0.173 A 
ATOM     90  F   UNL A   1      46.760  31.798  30.712  1.00  0.00    -0.203 F 
ATOM     91  C   UNL A   1      47.169  33.991  29.961  1.00  0.00     0.198 A 
ATOM     92  C   UNL A   1      46.595  34.618  27.715  1.00  0.00     0.198 A 
ATOM     93  F   UNL A   1      45.583  33.057  26.278  1.00  0.00    -0.203 F 
ATOM     94  F   UNL A   1      47.651  34.313  31.168  1.00  0.00    -0.200 F 
ATOM     95  C   UNL A   1      47.122  34.945  28.955  1.00  0.00     0.200 A 
ATOM     96  F   UNL A   1      46.565  35.534  26.738  1.00  0.00    -0.200 F 
ATOM     97  F   UNL A   1      47.581  36.183  29.184  1.00  0.00    -0.200 F 
ENDBRANCH  64  87
ENDBRANCH  38  39
ENDBRANCH  30  33
ENDBRANCH  28  29
ENDBRANCH  27  28
ENDBRANCH   1  27
TORSDOF 15
ENDMDL
MODEL 3
REMARK VINA RESULT:     -13.0      0.552      7.221
REMARK SMILES C[C@@](CC(=O)N[C@@H]1CCS(=O)(=O)C1)(C(=O)NCCCCNC(=O)c1ccc(-c2c3nc(c(-c4c(F)c(F)c(F)c(F)c4F)c4ccc([nH]4)c(-c4c(F)c(F)c(F)c(F)c4F)c4nc(c(-c5c(F)c(F)c(F)c(F)c5F)c5ccc2[nH]5)C=C4)C=C3)cc1)c1ccccc1
REMARK SMILES IDX 18 1 17 2 16 3 14 4 15 5 2 7 1 8 3 9 4 10 5 11 6 12 7 14
REMARK SMILES IDX 8 15 13 16 9 17 10 18 11 19 12 20 87 21 88 22 92 23 89 24
REMARK SMILES IDX 91 25 90 26 19 27 20 28 21 29 22 30 23 32 24 33 25 34 86 35
REMARK SMILES IDX 26 36 85 37 27 38 28 39 29 40 79 41 30 42 84 43 78 44 80 45
REMARK SMILES IDX 31 46 83 47 77 48 76 49 32 51 64 52 44 53 63 54 45 55 48 56
REMARK SMILES IDX 62 57 81 58 46 59 47 60 61 62 82 63 49 64 33 65 34 66 42 67
REMARK SMILES IDX 35 68 36 69 40 70 43 71 37 72 38 73 41 74 39 75 65 76 66 77
REMARK SMILES IDX 74 78 67 79 68 80 72 81 75 82 69 83 70 84 73 85 71 86 50 87
REMARK SMILES IDX 51 88 59 89 52 90 53 91 57 92 60 93 54 94 55 95 58 96 56 97
REMARK H PARENT 16 6 6 13 21 31 80 50 48 61
REMARK Flexibility Score: inf
ROOT
ATOM      1  C   UNL A   1      37.250  21.564  24.491  1.00  0.00     0.023 C 
ENDROOT
BRANCH   1   2
ATOM      2  C   UNL A   1      36.734  22.571  25.530  1.00  0.00     0.116 C 
BRANCH   2   3
ATOM      3  N   UNL A   1      35.617  22.053  26.307  1.00  0.00    -0.355 N 
ATOM      4  C   UNL A   1      34.391  21.507  26.161  1.00  0.00     0.230 C 
ATOM      5  O   UNL A   1      33.943  21.149  27.268  1.00  0.00    -0.274 OA
ATOM      6  H   UNL A   1      35.827  22.125  27.267  1.00  0.00     0.163 HD
BRANCH   4   7
ATOM      7  C   UNL A   1      33.449  21.354  24.898  1.00  0.00     0.080 C 
ATOM      8  C   UNL A   1      32.051  21.579  25.444  1.00  0.00     0.027 C 
BRANCH   7   9
ATOM      9  C   UNL A   1      33.561  22.295  23.671  1.00  0.00     0.121 C 
BRANCH   9  10
ATOM     10  C   UNL A   1      34.144  23.717  23.671  1.00  0.00     0.221 C 
ATOM     11  O   UNL A   1      35.089  23.938  22.893  1.00  0.00    -0.275 OA
ATOM     12  N   UNL A   1      33.845  24.798  24.439  1.00  0.00    -0.352 N 
ATOM     13  H   UNL A   1      34.605  25.046  25.013  1.00  0.00     0.163 HD
BRANCH  12  14
ATOM     14  C   UNL A   1      32.693  25.708  24.651  1.00  0.00     0.098 C 
ATOM     15  C   UNL A   1      31.335  24.939  24.573  1.00  0.00     0.042 C 
ATOM     16  C   UNL A   1      32.502  26.928  23.777  1.00  0.00     0.161 C 
ATOM     17  C   UNL A   1      30.636  25.150  23.226  1.00  0.00     0.139 C 
ATOM     18  S   UNL A   1      31.527  26.398  22.361  1.00  0.00     0.152 S 
ATOM     19  O   UNL A   1      32.305  25.699  21.360  1.00  0.00    -0.229 OA
ATOM     20  O   UNL A   1      30.638  27.475  21.990  1.00  0.00    -0.229 OA
ENDBRANCH  12  14
ENDBRANCH   9  10
ENDBRANCH   7   9
BRANCH   7  21
ATOM     21  C   UNL A   1      33.479  19.829  24.449  1.00  0.00    -0.032 A 
ATOM     22  C   UNL A   1      32.504  19.331  23.570  1.00  0.00     0.005 A 
ATOM     23  C   UNL A   1      34.552  18.955  24.764  1.00  0.00     0.005 A 
ATOM     24  C   UNL A   1      32.635  18.057  22.992  1.00  0.00     0.000 A 
ATOM     25  C   UNL A   1      34.682  17.688  24.187  1.00  0.00     0.000 A 
ATOM     26  C   UNL A   1      33.728  17.243  23.288  1.00  0.00     0.000 A 
ENDBRANCH   7  21
ENDBRANCH   4   7
ENDBRANCH   2   3
ENDBRANCH   1   2
BRANCH   1  27
ATOM     27  C   UNL A   1      37.906  20.299  25.047  1.00  0.00     0.023 C 
BRANCH  27  28
ATOM     28  C   UNL A   1      39.241  20.530  25.749  1.00  0.00     0.116 C 
BRANCH  28  29
ATOM     29  N   UNL A   1      40.089  19.342  25.844  1.00  0.00    -0.352 N 
ATOM     30  C   UNL A   1      41.440  19.257  26.107  1.00  0.00     0.251 C 
ATOM     31  H   UNL A   1      39.630  18.482  25.700  1.00  0.00     0.163 HD
ATOM     32  O   UNL A   1      42.013  18.173  26.074  1.00  0.00    -0.269 OA
BRANCH  30  33
ATOM     33  C   UNL A   1      42.206  20.494  26.377  1.00  0.00     0.039 A 
ATOM     34  C   UNL A   1      42.665  21.268  25.307  1.00  0.00     0.014 A 
ATOM     35  C   UNL A   1      42.393  20.929  27.689  1.00  0.00     0.014 A 
ATOM     36  C   UNL A   1      43.209  22.532  25.555  1.00  0.00     0.010 A 
ATOM     37  C   UNL A   1      42.826  22.227  27.924  1.00  0.00     0.010 A 
ATOM     38  C   UNL A   1      43.239  23.045  26.861  1.00  0.00    -0.014 A 
BRANCH  38  39
ATOM     39  C   UNL A   1      43.699  24.428  27.153  1.00  0.00     0.031 A 
ATOM     40  C   UNL A   1      42.722  25.444  27.679  1.00  0.00     0.074 A 
ATOM     41  C   UNL A   1      44.963  24.794  26.856  1.00  0.00     0.049 A 
ATOM     42  N   UNL A   1      42.890  26.724  27.895  1.00  0.00    -0.248 NA
ATOM     43  C   UNL A   1      41.359  24.964  27.960  1.00  0.00     0.031 C 
ATOM     44  C   UNL A   1      45.984  23.923  26.273  1.00  0.00     0.029 A 
ATOM     45  N   UNL A   1      45.599  26.005  26.989  1.00  0.00    -0.354 N 
ATOM     46  C   UNL A   1      41.653  27.199  28.312  1.00  0.00     0.074 A 
ATOM     47  C   UNL A   1      40.727  26.091  28.246  1.00  0.00     0.031 C 
ATOM     48  C   UNL A   1      47.126  24.615  26.128  1.00  0.00     0.029 A 
ATOM     49  C   UNL A   1      46.907  25.990  26.567  1.00  0.00     0.049 A 
ATOM     50  H   UNL A   1      45.159  26.806  27.355  1.00  0.00     0.167 HD
ATOM     51  C   UNL A   1      41.326  28.438  28.749  1.00  0.00     0.037 A 
ATOM     52  C   UNL A   1      47.822  26.978  26.533  1.00  0.00     0.037 A 
ATOM     53  C   UNL A   1      42.260  29.528  28.846  1.00  0.00     0.049 A 
ATOM     54  C   UNL A   1      47.439  28.345  27.033  1.00  0.00     0.074 A 
ATOM     55  C   UNL A   1      42.050  30.805  29.333  1.00  0.00     0.029 A 
ATOM     56  N   UNL A   1      43.587  29.463  28.444  1.00  0.00    -0.354 N 
ATOM     57  N   UNL A   1      46.286  28.763  27.499  1.00  0.00    -0.248 NA
ATOM     58  C   UNL A   1      48.486  29.376  27.010  1.00  0.00     0.031 C 
ATOM     59  C   UNL A   1      43.238  31.529  29.183  1.00  0.00     0.029 A 
ATOM     60  C   UNL A   1      44.203  30.686  28.656  1.00  0.00     0.049 A 
ATOM     61  H   UNL A   1      44.025  28.668  28.066  1.00  0.00     0.167 HD
ATOM     62  C   UNL A   1      46.476  30.092  27.852  1.00  0.00     0.074 A 
ATOM     63  C   UNL A   1      47.859  30.407  27.562  1.00  0.00     0.031 C 
ATOM     64  C   UNL A   1      45.586  30.975  28.369  1.00  0.00     0.037 A 
BRANCH  51  65
ATOM     65  C   UNL A   1      39.902  28.671  29.169  1.00  0.00     0.064 A 
ATOM     66  C   UNL A   1      38.939  29.154  28.268  1.00  0.00     0.173 A 
ATOM     67  C   UNL A   1      39.489  28.397  30.482  1.00  0.00     0.173 A 
ATOM     68  F   UNL A   1      39.282  29.447  27.005  1.00  0.00    -0.203 F 
ATOM     69  C   UNL A   1      37.629  29.391  28.676  1.00  0.00     0.198 A 
ATOM     70  C   UNL A   1      38.169  28.599  30.875  1.00  0.00     0.198 A 
ATOM     71  F   UNL A   1      40.366  27.929  31.383  1.00  0.00    -0.203 F 
ATOM     72  F   UNL A   1      36.745  29.913  27.814  1.00  0.00    -0.200 F 
ATOM     73  C   UNL A   1      37.243  29.106  29.977  1.00  0.00     0.200 A 
ATOM     74  F   UNL A   1      37.794  28.311  32.129  1.00  0.00    -0.200 F 
ATOM     75  F   UNL A   1      35.981  29.329  30.366  1.00  0.00    -0.200 F 
ENDBRANCH  51  65
BRANCH  52  76
ATOM     76  C   UNL A   1      49.199  26.704  26.036  1.00  0.00     0.064 A 
ATOM     77  C   UNL A   1      50.168  26.138  26.877  1.00  0.00     0.173 A 
ATOM     78  C   UNL A   1      49.575  27.002  24.719  1.00  0.00     0.173 A 
ATOM     79  F   UNL A   1      49.864  25.852  28.152  1.00  0.00    -0.203 F 
ATOM     80  C   UNL A   1      51.466  25.905  26.427  1.00  0.00     0.198 A 
ATOM     81  C   UNL A   1      50.866  26.739  24.261  1.00  0.00     0.198 A 
ATOM     82  F   UNL A   1      48.685  27.538  23.871  1.00  0.00    -0.203 F 
ATOM     83  F   UNL A   1      52.385  25.409  27.267  1.00  0.00    -0.200 F 
ATOM     84  C   UNL A   1      51.813  26.200  25.118  1.00  0.00     0.200 A 
ATOM     85  F   UNL A   1      51.191  27.011  22.990  1.00  0.00    -0.200 F 
ATOM     86  F   UNL A   1      53.060  25.970  24.684  1.00  0.00    -0.200 F 
ENDBRANCH  52  76
BRANCH  64  87
ATOM     87  C   UNL A   1      46.088  32.353  28.690  1.00  0.00     0.064 A 
ATOM     88  C   UNL A   1      46.661  32.658  29.933  1.00  0.00     0.173 A 
ATOM     89  C   UNL A   1      46.039  33.368  27.721  1.00  0.00     0.173 A 
ATOM     90  F   UNL A   1      46.720  31.726  30.896  1.00  0.00    -0.203 F 
ATOM     91  C   UNL A   1      47.142  33.936  30.204  1.00  0.00     0.198 A 
ATOM     92  C   UNL A   1      46.551  34.634  27.984  1.00  0.00     0.198 A 
ATOM     93  F   UNL A   1      45.509  33.124  26.512  1.00  0.00    -0.203 F 
ATOM     94  F   UNL A   1      47.640  34.219  31.415  1.00  0.00    -0.200 F 
ATOM     95  C   UNL A   1      47.095  34.920  29.227  1.00  0.00     0.200 A 
ATOM     96  F   UNL A   1      46.520  35.578  27.033  1.00  0.00    -0.200 F 
ATOM     97  F   UNL A   1      47.568  36.146  29.486  1.00  0.00    -0.200 F 
ENDBRANCH  64  87
ENDBRANCH  38  39
ENDBRANCH  30  33
ENDBRANCH  28  29
ENDBRANCH  27  28
ENDBRANCH   1  27
TORSDOF 15
ENDMDL
