MODEL 1
REMARK VINA RESULT:     -10.1      0.000      0.000
REMARK SMILES C[C@H](C[N@@H+](C)[C@@H](C)[C@@H](C)O)C(=O)NCCCCNC(=O)c1ccc(-c2c3nc(c(-c4c(F)c(F)c(F)c(F)c4F)c4ccc([nH]4)c(-c4c(F)c(F)c(F)c(F)c4F)c4nc(c(-c5c(F)c(F)c(F)c(F)c5F)c5ccc2[nH]5)C=C4)C=C3)cc1
REMARK SMILES IDX 14 1 13 2 11 3 12 4 2 6 1 7 3 8 4 9 5 10 6 12 7 13 8 14 9 15
REMARK SMILES IDX 10 16 15 18 16 19 17 20 18 21 19 22 20 24 21 25 22 26 83 27
REMARK SMILES IDX 23 28 82 29 24 30 25 31 26 32 76 33 27 34 81 35 75 36 77 37
REMARK SMILES IDX 28 38 80 39 74 40 73 41 29 43 61 44 41 45 60 46 42 47 45 48
REMARK SMILES IDX 59 49 78 50 43 51 44 52 58 54 79 55 46 56 30 57 31 58 39 59
REMARK SMILES IDX 32 60 33 61 37 62 40 63 34 64 35 65 38 66 36 67 62 68 63 69
REMARK SMILES IDX 71 70 64 71 65 72 69 73 72 74 66 75 67 76 70 77 68 78 47 79
REMARK SMILES IDX 48 80 56 81 49 82 50 83 54 84 57 85 51 86 52 87 55 88 53 89
REMARK H PARENT 13 5 4 11 10 17 18 23 77 42 45 53
REMARK Flexibility Score: inf
ROOT
ATOM      1  C   UNL A   1      37.812  23.190  25.688  1.00  0.00     0.116 C 
ENDROOT
BRANCH   1   2
ATOM      2  N   UNL A   1      37.448  23.027  24.297  1.00  0.00    -0.356 N 
ATOM      3  C   UNL A   1      36.253  22.927  23.664  1.00  0.00     0.228 C 
ATOM      4  O   UNL A   1      36.279  23.062  22.433  1.00  0.00    -0.275 OA
ATOM      5  H   UNL A   1      38.221  22.980  23.689  1.00  0.00     0.163 HD
BRANCH   3   6
ATOM      6  C   UNL A   1      34.917  22.730  24.351  1.00  0.00     0.130 C 
ATOM      7  C   UNL A   1      34.509  24.024  25.066  1.00  0.00     0.024 C 
BRANCH   6   8
ATOM      8  C   UNL A   1      34.656  21.462  25.196  1.00  0.00     0.275 C 
BRANCH   8   9
ATOM      9  N   UNL A   1      33.432  20.663  24.991  1.00  0.00    -0.332 N 
ATOM     10  C   UNL A   1      32.596  21.369  23.993  1.00  0.00     0.333 C 
ATOM     11  H   UNL A   1      32.992  20.590  25.908  1.00  0.00     0.348 HD
BRANCH   9  12
ATOM     12  C   UNL A   1      33.618  19.233  24.577  1.00  0.00     0.209 C 
ATOM     13  C   UNL A   1      35.077  18.735  24.738  1.00  0.00     0.078 C 
BRANCH  12  14
ATOM     14  C   UNL A   1      32.635  18.142  25.139  1.00  0.00     0.169 C 
ATOM     15  C   UNL A   1      32.971  16.694  24.805  1.00  0.00     0.045 C 
BRANCH  14  16
ATOM     16  O   UNL A   1      32.645  18.182  26.581  1.00  0.00    -0.387 OA
ATOM     17  H   UNL A   1      33.171  18.940  26.880  1.00  0.00     0.211 HD
ENDBRANCH  14  16
ENDBRANCH  12  14
ENDBRANCH   9  12
ENDBRANCH   8   9
ENDBRANCH   6   8
ENDBRANCH   3   6
ENDBRANCH   1   2
BRANCH   1  18
ATOM     18  C   UNL A   1      38.983  22.351  26.216  1.00  0.00     0.023 C 
BRANCH  18  19
ATOM     19  C   UNL A   1      39.318  21.023  25.545  1.00  0.00     0.023 C 
BRANCH  19  20
ATOM     20  C   UNL A   1      39.632  19.869  26.482  1.00  0.00     0.116 C 
BRANCH  20  21
ATOM     21  N   UNL A   1      40.829  19.153  26.074  1.00  0.00    -0.352 N 
ATOM     22  C   UNL A   1      42.105  19.598  25.866  1.00  0.00     0.251 C 
ATOM     23  H   UNL A   1      40.700  18.189  25.923  1.00  0.00     0.163 HD
ATOM     24  O   UNL A   1      42.904  18.873  25.268  1.00  0.00    -0.269 OA
BRANCH  22  25
ATOM     25  C   UNL A   1      42.546  20.925  26.346  1.00  0.00     0.039 A 
ATOM     26  C   UNL A   1      42.541  21.175  27.723  1.00  0.00     0.014 A 
ATOM     27  C   UNL A   1      42.881  21.950  25.457  1.00  0.00     0.014 A 
ATOM     28  C   UNL A   1      42.900  22.435  28.206  1.00  0.00     0.010 A 
ATOM     29  C   UNL A   1      43.316  23.181  25.942  1.00  0.00     0.010 A 
ATOM     30  C   UNL A   1      43.307  23.444  27.320  1.00  0.00    -0.014 A 
BRANCH  30  31
ATOM     31  C   UNL A   1      43.688  24.792  27.809  1.00  0.00     0.031 A 
ATOM     32  C   UNL A   1      42.622  25.800  28.142  1.00  0.00     0.074 A 
ATOM     33  C   UNL A   1      44.990  25.128  27.898  1.00  0.00     0.049 A 
ATOM     34  N   UNL A   1      42.747  27.052  28.501  1.00  0.00    -0.248 NA
ATOM     35  C   UNL A   1      41.226  25.346  28.028  1.00  0.00     0.031 C 
ATOM     36  C   UNL A   1      46.112  24.253  27.565  1.00  0.00     0.029 A 
ATOM     37  N   UNL A   1      45.585  26.302  28.282  1.00  0.00    -0.354 N 
ATOM     38  C   UNL A   1      41.453  27.541  28.627  1.00  0.00     0.074 A 
ATOM     39  C   UNL A   1      40.556  26.464  28.265  1.00  0.00     0.031 C 
ATOM     40  C   UNL A   1      47.263  24.912  27.780  1.00  0.00     0.029 A 
ATOM     41  C   UNL A   1      46.956  26.267  28.229  1.00  0.00     0.049 A 
ATOM     42  H   UNL A   1      45.077  27.096  28.569  1.00  0.00     0.167 HD
ATOM     43  C   UNL A   1      41.048  28.769  29.028  1.00  0.00     0.037 A 
ATOM     44  C   UNL A   1      47.863  27.223  28.508  1.00  0.00     0.037 A 
ATOM     45  C   UNL A   1      41.943  29.822  29.432  1.00  0.00     0.049 A 
ATOM     46  C   UNL A   1      47.386  28.574  28.966  1.00  0.00     0.074 A 
ATOM     47  C   UNL A   1      41.633  31.077  29.924  1.00  0.00     0.029 A 
ATOM     48  N   UNL A   1      43.327  29.739  29.388  1.00  0.00    -0.354 N 
ATOM     49  N   UNL A   1      46.161  29.004  29.141  1.00  0.00    -0.248 NA
ATOM     50  C   UNL A   1      48.422  29.572  29.270  1.00  0.00     0.031 C 
ATOM     51  C   UNL A   1      42.829  31.767  30.145  1.00  0.00     0.029 A 
ATOM     52  C   UNL A   1      43.885  30.928  29.830  1.00  0.00     0.049 A 
ATOM     53  H   UNL A   1      43.837  28.952  29.089  1.00  0.00     0.167 HD
ATOM     54  C   UNL A   1      46.277  30.309  29.603  1.00  0.00     0.074 A 
ATOM     55  C   UNL A   1      47.693  30.596  29.691  1.00  0.00     0.031 C 
ATOM     56  C   UNL A   1      45.298  31.189  29.922  1.00  0.00     0.037 A 
BRANCH  43  57
ATOM     57  C   UNL A   1      39.572  29.042  29.057  1.00  0.00     0.064 A 
ATOM     58  C   UNL A   1      38.864  29.386  27.895  1.00  0.00     0.173 A 
ATOM     59  C   UNL A   1      38.850  28.923  30.254  1.00  0.00     0.173 A 
ATOM     60  F   UNL A   1      39.509  29.524  26.727  1.00  0.00    -0.203 F 
ATOM     61  C   UNL A   1      37.494  29.628  27.937  1.00  0.00     0.198 A 
ATOM     62  C   UNL A   1      37.475  29.137  30.286  1.00  0.00     0.198 A 
ATOM     63  F   UNL A   1      39.477  28.590  31.392  1.00  0.00    -0.203 F 
ATOM     64  F   UNL A   1      36.847  30.002  26.824  1.00  0.00    -0.200 F 
ATOM     65  C   UNL A   1      36.799  29.496  29.130  1.00  0.00     0.200 A 
ATOM     66  F   UNL A   1      36.803  28.997  31.437  1.00  0.00    -0.200 F 
ATOM     67  F   UNL A   1      35.478  29.724  29.166  1.00  0.00    -0.200 F 
ENDBRANCH  43  57
BRANCH  44  68
ATOM     68  C   UNL A   1      49.312  26.925  28.389  1.00  0.00     0.064 A 
ATOM     69  C   UNL A   1      49.980  27.094  27.169  1.00  0.00     0.173 A 
ATOM     70  C   UNL A   1      50.059  26.468  29.485  1.00  0.00     0.173 A 
ATOM     71  F   UNL A   1      49.304  27.509  26.088  1.00  0.00    -0.203 F 
ATOM     72  C   UNL A   1      51.336  26.799  27.043  1.00  0.00     0.198 A 
ATOM     73  C   UNL A   1      51.421  26.199  29.365  1.00  0.00     0.198 A 
ATOM     74  F   UNL A   1      49.467  26.296  30.676  1.00  0.00    -0.203 F 
ATOM     75  F   UNL A   1      51.940  26.929  25.855  1.00  0.00    -0.200 F 
ATOM     76  C   UNL A   1      52.056  26.357  28.143  1.00  0.00     0.200 A 
ATOM     77  F   UNL A   1      52.116  25.786  30.434  1.00  0.00    -0.200 F 
ATOM     78  F   UNL A   1      53.362  26.077  28.023  1.00  0.00    -0.200 F 
ENDBRANCH  44  68
BRANCH  56  79
ATOM     79  C   UNL A   1      45.725  32.533  30.433  1.00  0.00     0.064 A 
ATOM     80  C   UNL A   1      45.907  33.623  29.568  1.00  0.00     0.173 A 
ATOM     81  C   UNL A   1      45.914  32.743  31.807  1.00  0.00     0.173 A 
ATOM     82  F   UNL A   1      45.753  33.468  28.245  1.00  0.00    -0.203 F 
ATOM     83  C   UNL A   1      46.286  34.869  30.061  1.00  0.00     0.198 A 
ATOM     84  C   UNL A   1      46.266  33.996  32.298  1.00  0.00     0.198 A 
ATOM     85  F   UNL A   1      45.746  31.733  32.674  1.00  0.00    -0.203 F 
ATOM     86  F   UNL A   1      46.497  35.885  29.214  1.00  0.00    -0.200 F 
ATOM     87  C   UNL A   1      46.458  35.056  31.425  1.00  0.00     0.200 A 
ATOM     88  F   UNL A   1      46.421  34.179  33.616  1.00  0.00    -0.200 F 
ATOM     89  F   UNL A   1      46.816  36.258  31.897  1.00  0.00    -0.200 F 
ENDBRANCH  56  79
ENDBRANCH  30  31
ENDBRANCH  22  25
ENDBRANCH  20  21
ENDBRANCH  19  20
ENDBRANCH  18  19
ENDBRANCH   1  18
TORSDOF 16
ENDMDL
MODEL 2
REMARK VINA RESULT:     -10.1      4.605      9.804
REMARK SMILES C[C@H](C[N@@H+](C)[C@@H](C)[C@@H](C)O)C(=O)NCCCCNC(=O)c1ccc(-c2c3nc(c(-c4c(F)c(F)c(F)c(F)c4F)c4ccc([nH]4)c(-c4c(F)c(F)c(F)c(F)c4F)c4nc(c(-c5c(F)c(F)c(F)c(F)c5F)c5ccc2[nH]5)C=C4)C=C3)cc1
REMARK SMILES IDX 14 1 13 2 11 3 12 4 2 6 1 7 3 8 4 9 5 10 6 12 7 13 8 14 9 15
REMARK SMILES IDX 10 16 15 18 16 19 17 20 18 21 19 22 20 24 21 25 22 26 83 27
REMARK SMILES IDX 23 28 82 29 24 30 25 31 26 32 76 33 27 34 81 35 75 36 77 37
REMARK SMILES IDX 28 38 80 39 74 40 73 41 29 43 61 44 41 45 60 46 42 47 45 48
REMARK SMILES IDX 59 49 78 50 43 51 44 52 58 54 79 55 46 56 30 57 31 58 39 59
REMARK SMILES IDX 32 60 33 61 37 62 40 63 34 64 35 65 38 66 36 67 62 68 63 69
REMARK SMILES IDX 71 70 64 71 65 72 69 73 72 74 66 75 67 76 70 77 68 78 47 79
REMARK SMILES IDX 48 80 56 81 49 82 50 83 54 84 57 85 51 86 52 87 55 88 53 89
REMARK H PARENT 13 5 4 11 10 17 18 23 77 42 45 53
REMARK Flexibility Score: inf
ROOT
ATOM      1  C   UNL A   1      36.705  31.541  32.295  1.00  0.00     0.116 C 
ENDROOT
BRANCH   1   2
ATOM      2  N   UNL A   1      36.582  31.895  33.693  1.00  0.00    -0.356 N 
ATOM      3  C   UNL A   1      37.493  32.057  34.684  1.00  0.00     0.228 C 
ATOM      4  O   UNL A   1      37.085  32.622  35.708  1.00  0.00    -0.275 OA
ATOM      5  H   UNL A   1      35.655  32.049  33.981  1.00  0.00     0.163 HD
BRANCH   3   6
ATOM      6  C   UNL A   1      38.953  31.659  34.599  1.00  0.00     0.130 C 
ATOM      7  C   UNL A   1      39.732  32.721  33.813  1.00  0.00     0.024 C 
BRANCH   6   8
ATOM      8  C   UNL A   1      39.345  30.213  34.218  1.00  0.00     0.275 C 
BRANCH   8   9
ATOM      9  N   UNL A   1      40.741  29.755  34.352  1.00  0.00    -0.332 N 
ATOM     10  C   UNL A   1      41.045  29.653  35.798  1.00  0.00     0.333 C 
ATOM     11  H   UNL A   1      41.310  30.450  33.868  1.00  0.00     0.348 HD
BRANCH   9  12
ATOM     12  C   UNL A   1      41.101  28.471  33.665  1.00  0.00     0.209 C 
ATOM     13  C   UNL A   1      40.089  28.061  32.566  1.00  0.00     0.078 C 
BRANCH  12  14
ATOM     14  C   UNL A   1      42.563  28.282  33.118  1.00  0.00     0.169 C 
ATOM     15  C   UNL A   1      43.527  27.517  34.017  1.00  0.00     0.045 C 
BRANCH  14  16
ATOM     16  O   UNL A   1      42.526  27.506  31.903  1.00  0.00    -0.387 OA
ATOM     17  H   UNL A   1      43.423  27.210  31.680  1.00  0.00     0.211 HD
ENDBRANCH  14  16
ENDBRANCH  12  14
ENDBRANCH   9  12
ENDBRANCH   8   9
ENDBRANCH   6   8
ENDBRANCH   3   6
ENDBRANCH   1   2
BRANCH   1  18
ATOM     18  C   UNL A   1      36.239  32.574  31.260  1.00  0.00     0.023 C 
BRANCH  18  19
ATOM     19  C   UNL A   1      34.833  32.472  30.679  1.00  0.00     0.023 C 
BRANCH  19  20
ATOM     20  C   UNL A   1      34.724  32.650  29.174  1.00  0.00     0.116 C 
BRANCH  20  21
ATOM     21  N   UNL A   1      34.056  31.524  28.545  1.00  0.00    -0.352 N 
ATOM     22  C   UNL A   1      34.566  30.381  27.993  1.00  0.00     0.251 C 
ATOM     23  H   UNL A   1      33.075  31.595  28.510  1.00  0.00     0.163 HD
ATOM     24  O   UNL A   1      33.841  29.684  27.279  1.00  0.00    -0.269 OA
BRANCH  22  25
ATOM     25  C   UNL A   1      35.963  29.964  28.238  1.00  0.00     0.039 A 
ATOM     26  C   UNL A   1      36.270  29.330  29.448  1.00  0.00     0.014 A 
ATOM     27  C   UNL A   1      36.985  30.264  27.334  1.00  0.00     0.014 A 
ATOM     28  C   UNL A   1      37.589  28.972  29.734  1.00  0.00     0.010 A 
ATOM     29  C   UNL A   1      38.287  29.835  27.584  1.00  0.00     0.010 A 
ATOM     30  C   UNL A   1      38.606  29.206  28.796  1.00  0.00    -0.014 A 
BRANCH  30  31
ATOM     31  C   UNL A   1      40.016  28.839  29.080  1.00  0.00     0.031 A 
ATOM     32  C   UNL A   1      40.913  29.806  29.805  1.00  0.00     0.074 A 
ATOM     33  C   UNL A   1      40.504  27.665  28.635  1.00  0.00     0.049 A 
ATOM     34  N   UNL A   1      42.190  29.710  30.073  1.00  0.00    -0.248 NA
ATOM     35  C   UNL A   1      40.296  31.061  30.265  1.00  0.00     0.031 C 
ATOM     36  C   UNL A   1      39.744  26.664  27.887  1.00  0.00     0.029 A 
ATOM     37  N   UNL A   1      41.759  27.123  28.738  1.00  0.00    -0.354 N 
ATOM     38  C   UNL A   1      42.534  30.899  30.703  1.00  0.00     0.074 A 
ATOM     39  C   UNL A   1      41.342  31.720  30.742  1.00  0.00     0.031 C 
ATOM     40  C   UNL A   1      40.543  25.619  27.616  1.00  0.00     0.029 A 
ATOM     41  C   UNL A   1      41.877  25.894  28.139  1.00  0.00     0.049 A 
ATOM     42  H   UNL A   1      42.505  27.572  29.198  1.00  0.00     0.167 HD
ATOM     43  C   UNL A   1      43.729  31.266  31.223  1.00  0.00     0.037 A 
ATOM     44  C   UNL A   1      42.946  25.082  28.022  1.00  0.00     0.037 A 
ATOM     45  C   UNL A   1      44.900  30.428  31.224  1.00  0.00     0.049 A 
ATOM     46  C   UNL A   1      44.258  25.507  28.621  1.00  0.00     0.074 A 
ATOM     47  C   UNL A   1      46.139  30.676  31.789  1.00  0.00     0.029 A 
ATOM     48  N   UNL A   1      44.974  29.178  30.629  1.00  0.00    -0.354 N 
ATOM     49  N   UNL A   1      44.555  26.606  29.271  1.00  0.00    -0.248 NA
ATOM     50  C   UNL A   1      45.385  24.573  28.475  1.00  0.00     0.031 C 
ATOM     51  C   UNL A   1      46.973  29.590  31.505  1.00  0.00     0.029 A 
ATOM     52  C   UNL A   1      46.243  28.648  30.800  1.00  0.00     0.049 A 
ATOM     53  H   UNL A   1      44.234  28.732  30.157  1.00  0.00     0.167 HD
ATOM     54  C   UNL A   1      45.889  26.485  29.636  1.00  0.00     0.074 A 
ATOM     55  C   UNL A   1      46.342  25.200  29.145  1.00  0.00     0.031 C 
ATOM     56  C   UNL A   1      46.669  27.361  30.314  1.00  0.00     0.037 A 
BRANCH  43  57
ATOM     57  C   UNL A   1      43.833  32.631  31.840  1.00  0.00     0.064 A 
ATOM     58  C   UNL A   1      44.211  33.753  31.087  1.00  0.00     0.173 A 
ATOM     59  C   UNL A   1      43.514  32.825  33.192  1.00  0.00     0.173 A 
ATOM     60  F   UNL A   1      44.537  33.618  29.793  1.00  0.00    -0.203 F 
ATOM     61  C   UNL A   1      44.295  35.013  31.672  1.00  0.00     0.198 A 
ATOM     62  C   UNL A   1      43.570  34.093  33.767  1.00  0.00     0.198 A 
ATOM     63  F   UNL A   1      43.139  31.788  33.956  1.00  0.00    -0.203 F 
ATOM     64  F   UNL A   1      44.704  36.062  30.945  1.00  0.00    -0.200 F 
ATOM     65  C   UNL A   1      43.967  35.184  33.009  1.00  0.00     0.200 A 
ATOM     66  F   UNL A   1      43.241  34.258  35.055  1.00  0.00    -0.200 F 
ATOM     67  F   UNL A   1      44.041  36.400  33.568  1.00  0.00    -0.200 F 
ENDBRANCH  43  57
BRANCH  44  68
ATOM     68  C   UNL A   1      42.810  23.774  27.334  1.00  0.00     0.064 A 
ATOM     69  C   UNL A   1      43.199  23.625  25.995  1.00  0.00     0.173 A 
ATOM     70  C   UNL A   1      42.291  22.650  27.992  1.00  0.00     0.173 A 
ATOM     71  F   UNL A   1      43.682  24.677  25.319  1.00  0.00    -0.203 F 
ATOM     72  C   UNL A   1      43.058  22.406  25.336  1.00  0.00     0.198 A 
ATOM     73  C   UNL A   1      42.174  21.424  27.339  1.00  0.00     0.198 A 
ATOM     74  F   UNL A   1      41.909  22.738  29.274  1.00  0.00    -0.203 F 
ATOM     75  F   UNL A   1      43.399  22.303  24.045  1.00  0.00    -0.200 F 
ATOM     76  C   UNL A   1      42.551  21.306  26.009  1.00  0.00     0.200 A 
ATOM     77  F   UNL A   1      41.697  20.359  27.998  1.00  0.00    -0.200 F 
ATOM     78  F   UNL A   1      42.418  20.132  25.376  1.00  0.00    -0.200 F 
ENDBRANCH  44  68
BRANCH  56  79
ATOM     79  C   UNL A   1      48.081  26.943  30.599  1.00  0.00     0.064 A 
ATOM     80  C   UNL A   1      48.396  26.111  31.684  1.00  0.00     0.173 A 
ATOM     81  C   UNL A   1      49.125  27.347  29.753  1.00  0.00     0.173 A 
ATOM     82  F   UNL A   1      47.435  25.711  32.529  1.00  0.00    -0.203 F 
ATOM     83  C   UNL A   1      49.710  25.717  31.924  1.00  0.00     0.198 A 
ATOM     84  C   UNL A   1      50.432  26.930  29.981  1.00  0.00     0.198 A 
ATOM     85  F   UNL A   1      48.873  28.139  28.700  1.00  0.00    -0.203 F 
ATOM     86  F   UNL A   1      49.995  24.958  32.990  1.00  0.00    -0.200 F 
ATOM     87  C   UNL A   1      50.725  26.121  31.069  1.00  0.00     0.200 A 
ATOM     88  F   UNL A   1      51.411  27.310  29.147  1.00  0.00    -0.200 F 
ATOM     89  F   UNL A   1      51.988  25.735  31.298  1.00  0.00    -0.200 F 
ENDBRANCH  56  79
ENDBRANCH  30  31
ENDBRANCH  22  25
ENDBRANCH  20  21
ENDBRANCH  19  20
ENDBRANCH  18  19
ENDBRANCH   1  18
TORSDOF 16
ENDMDL
MODEL 3
REMARK VINA RESULT:      -9.9      4.691      9.560
REMARK SMILES C[C@H](C[N@@H+](C)[C@@H](C)[C@@H](C)O)C(=O)NCCCCNC(=O)c1ccc(-c2c3nc(c(-c4c(F)c(F)c(F)c(F)c4F)c4ccc([nH]4)c(-c4c(F)c(F)c(F)c(F)c4F)c4nc(c(-c5c(F)c(F)c(F)c(F)c5F)c5ccc2[nH]5)C=C4)C=C3)cc1
REMARK SMILES IDX 14 1 13 2 11 3 12 4 2 6 1 7 3 8 4 9 5 10 6 12 7 13 8 14 9 15
REMARK SMILES IDX 10 16 15 18 16 19 17 20 18 21 19 22 20 24 21 25 22 26 83 27
REMARK SMILES IDX 23 28 82 29 24 30 25 31 26 32 76 33 27 34 81 35 75 36 77 37
REMARK SMILES IDX 28 38 80 39 74 40 73 41 29 43 61 44 41 45 60 46 42 47 45 48
REMARK SMILES IDX 59 49 78 50 43 51 44 52 58 54 79 55 46 56 30 57 31 58 39 59
REMARK SMILES IDX 32 60 33 61 37 62 40 63 34 64 35 65 38 66 36 67 62 68 63 69
REMARK SMILES IDX 71 70 64 71 65 72 69 73 72 74 66 75 67 76 70 77 68 78 47 79
REMARK SMILES IDX 48 80 56 81 49 82 50 83 54 84 57 85 51 86 52 87 55 88 53 89
REMARK H PARENT 13 5 4 11 10 17 18 23 77 42 45 53
REMARK Flexibility Score: inf
ROOT
ATOM      1  C   UNL A   1      33.347  25.453  25.715  1.00  0.00     0.116 C 
ENDROOT
BRANCH   1   2
ATOM      2  N   UNL A   1      32.114  24.902  26.234  1.00  0.00    -0.356 N 
ATOM      3  C   UNL A   1      31.773  23.665  26.673  1.00  0.00     0.228 C 
ATOM      4  O   UNL A   1      30.709  23.589  27.303  1.00  0.00    -0.275 OA
ATOM      5  H   UNL A   1      31.378  25.553  26.279  1.00  0.00     0.163 HD
BRANCH   3   6
ATOM      6  C   UNL A   1      32.614  22.417  26.503  1.00  0.00     0.130 C 
ATOM      7  C   UNL A   1      33.506  22.224  27.736  1.00  0.00     0.024 C 
BRANCH   6   8
ATOM      8  C   UNL A   1      33.354  22.153  25.171  1.00  0.00     0.275 C 
BRANCH   8   9
ATOM      9  N   UNL A   1      34.683  21.512  25.166  1.00  0.00    -0.332 N 
ATOM     10  C   UNL A   1      34.485  20.068  24.899  1.00  0.00     0.333 C 
ATOM     11  H   UNL A   1      35.087  21.702  26.083  1.00  0.00     0.348 HD
BRANCH   9  12
ATOM     12  C   UNL A   1      35.700  22.070  24.214  1.00  0.00     0.209 C 
ATOM     13  C   UNL A   1      35.130  23.175  23.290  1.00  0.00     0.078 C 
BRANCH  12  14
ATOM     14  C   UNL A   1      37.095  22.531  24.773  1.00  0.00     0.169 C 
ATOM     15  C   UNL A   1      37.075  23.689  25.764  1.00  0.00     0.045 C 
BRANCH  14  16
ATOM     16  O   UNL A   1      37.701  21.449  25.509  1.00  0.00    -0.387 OA
ATOM     17  H   UNL A   1      37.105  20.684  25.509  1.00  0.00     0.211 HD
ENDBRANCH  14  16
ENDBRANCH  12  14
ENDBRANCH   9  12
ENDBRANCH   8   9
ENDBRANCH   6   8
ENDBRANCH   3   6
ENDBRANCH   1   2
BRANCH   1  18
ATOM     18  C   UNL A   1      33.703  26.891  26.115  1.00  0.00     0.023 C 
BRANCH  18  19
ATOM     19  C   UNL A   1      32.814  28.041  25.653  1.00  0.00     0.023 C 
BRANCH  19  20
ATOM     20  C   UNL A   1      33.540  29.269  25.128  1.00  0.00     0.116 C 
BRANCH  20  21
ATOM     21  N   UNL A   1      32.960  30.498  25.642  1.00  0.00    -0.352 N 
ATOM     22  C   UNL A   1      33.208  31.184  26.799  1.00  0.00     0.251 C 
ATOM     23  H   UNL A   1      32.277  30.904  25.061  1.00  0.00     0.163 HD
ATOM     24  O   UNL A   1      32.416  32.058  27.160  1.00  0.00    -0.269 OA
BRANCH  22  25
ATOM     25  C   UNL A   1      34.404  30.903  27.620  1.00  0.00     0.039 A 
ATOM     26  C   UNL A   1      35.417  31.867  27.680  1.00  0.00     0.014 A 
ATOM     27  C   UNL A   1      34.580  29.673  28.260  1.00  0.00     0.014 A 
ATOM     28  C   UNL A   1      36.585  31.611  28.402  1.00  0.00     0.010 A 
ATOM     29  C   UNL A   1      35.708  29.449  29.046  1.00  0.00     0.010 A 
ATOM     30  C   UNL A   1      36.731  30.406  29.106  1.00  0.00    -0.014 A 
BRANCH  30  31
ATOM     31  C   UNL A   1      37.964  30.109  29.877  1.00  0.00     0.031 A 
ATOM     32  C   UNL A   1      39.009  29.193  29.299  1.00  0.00     0.074 A 
ATOM     33  C   UNL A   1      38.117  30.614  31.116  1.00  0.00     0.049 A 
ATOM     34  N   UNL A   1      40.111  28.743  29.845  1.00  0.00    -0.248 NA
ATOM     35  C   UNL A   1      38.768  28.694  27.936  1.00  0.00     0.031 C 
ATOM     36  C   UNL A   1      37.156  31.480  31.799  1.00  0.00     0.029 A 
ATOM     37  N   UNL A   1      39.132  30.460  32.026  1.00  0.00    -0.354 N 
ATOM     38  C   UNL A   1      40.676  27.889  28.906  1.00  0.00     0.074 A 
ATOM     39  C   UNL A   1      39.777  27.849  27.773  1.00  0.00     0.031 C 
ATOM     40  C   UNL A   1      37.637  31.799  33.012  1.00  0.00     0.029 A 
ATOM     41  C   UNL A   1      38.920  31.130  33.204  1.00  0.00     0.049 A 
ATOM     42  H   UNL A   1      39.936  29.920  31.849  1.00  0.00     0.167 HD
ATOM     43  C   UNL A   1      41.849  27.216  28.973  1.00  0.00     0.037 A 
ATOM     44  C   UNL A   1      39.676  31.193  34.317  1.00  0.00     0.037 A 
ATOM     45  C   UNL A   1      42.762  27.294  30.083  1.00  0.00     0.049 A 
ATOM     46  C   UNL A   1      40.981  30.448  34.360  1.00  0.00     0.074 A 
ATOM     47  C   UNL A   1      44.009  26.710  30.218  1.00  0.00     0.029 A 
ATOM     48  N   UNL A   1      42.523  28.005  31.250  1.00  0.00    -0.354 N 
ATOM     49  N   UNL A   1      41.535  29.694  33.442  1.00  0.00    -0.248 NA
ATOM     50  C   UNL A   1      41.770  30.567  35.595  1.00  0.00     0.031 C 
ATOM     51  C   UNL A   1      44.510  27.039  31.482  1.00  0.00     0.029 A 
ATOM     52  C   UNL A   1      43.594  27.861  32.117  1.00  0.00     0.049 A 
ATOM     53  H   UNL A   1      41.715  28.535  31.434  1.00  0.00     0.167 HD
ATOM     54  C   UNL A   1      42.747  29.274  33.973  1.00  0.00     0.074 A 
ATOM     55  C   UNL A   1      42.853  29.865  35.291  1.00  0.00     0.031 C 
ATOM     56  C   UNL A   1      43.686  28.468  33.420  1.00  0.00     0.037 A 
BRANCH  43  57
ATOM     57  C   UNL A   1      42.216  26.337  27.813  1.00  0.00     0.064 A 
ATOM     58  C   UNL A   1      43.139  26.751  26.840  1.00  0.00     0.173 A 
ATOM     59  C   UNL A   1      41.667  25.052  27.691  1.00  0.00     0.173 A 
ATOM     60  F   UNL A   1      43.685  27.974  26.904  1.00  0.00    -0.203 F 
ATOM     61  C   UNL A   1      43.475  25.921  25.773  1.00  0.00     0.198 A 
ATOM     62  C   UNL A   1      42.028  24.214  26.639  1.00  0.00     0.198 A 
ATOM     63  F   UNL A   1      40.784  24.605  28.597  1.00  0.00    -0.203 F 
ATOM     64  F   UNL A   1      44.323  26.355  24.831  1.00  0.00    -0.200 F 
ATOM     65  C   UNL A   1      42.926  24.652  25.678  1.00  0.00     0.200 A 
ATOM     66  F   UNL A   1      41.505  22.984  26.555  1.00  0.00    -0.200 F 
ATOM     67  F   UNL A   1      43.257  23.852  24.654  1.00  0.00    -0.200 F 
ENDBRANCH  43  57
BRANCH  44  68
ATOM     68  C   UNL A   1      39.229  32.016  35.470  1.00  0.00     0.064 A 
ATOM     69  C   UNL A   1      38.431  31.461  36.479  1.00  0.00     0.173 A 
ATOM     70  C   UNL A   1      39.587  33.367  35.588  1.00  0.00     0.173 A 
ATOM     71  F   UNL A   1      38.046  30.179  36.398  1.00  0.00    -0.203 F 
ATOM     72  C   UNL A   1      37.991  32.230  37.554  1.00  0.00     0.198 A 
ATOM     73  C   UNL A   1      39.169  34.128  36.678  1.00  0.00     0.198 A 
ATOM     74  F   UNL A   1      40.355  33.943  34.652  1.00  0.00    -0.203 F 
ATOM     75  F   UNL A   1      37.195  31.685  38.483  1.00  0.00    -0.200 F 
ATOM     76  C   UNL A   1      38.365  33.561  37.655  1.00  0.00     0.200 A 
ATOM     77  F   UNL A   1      39.544  35.411  36.779  1.00  0.00    -0.200 F 
ATOM     78  F   UNL A   1      37.946  34.300  38.692  1.00  0.00    -0.200 F 
ENDBRANCH  44  68
BRANCH  56  79
ATOM     79  C   UNL A   1      44.926  28.210  34.222  1.00  0.00     0.064 A 
ATOM     80  C   UNL A   1      46.037  29.064  34.152  1.00  0.00     0.173 A 
ATOM     81  C   UNL A   1      44.988  27.119  35.102  1.00  0.00     0.173 A 
ATOM     82  F   UNL A   1      46.031  30.112  33.315  1.00  0.00    -0.203 F 
ATOM     83  C   UNL A   1      47.174  28.821  34.918  1.00  0.00     0.198 A 
ATOM     84  C   UNL A   1      46.116  26.894  35.885  1.00  0.00     0.198 A 
ATOM     85  F   UNL A   1      43.949  26.277  35.208  1.00  0.00    -0.203 F 
ATOM     86  F   UNL A   1      48.241  29.624  34.803  1.00  0.00    -0.200 F 
ATOM     87  C   UNL A   1      47.210  27.741  35.788  1.00  0.00     0.200 A 
ATOM     88  F   UNL A   1      46.145  25.858  36.734  1.00  0.00    -0.200 F 
ATOM     89  F   UNL A   1      48.303  27.512  36.528  1.00  0.00    -0.200 F 
ENDBRANCH  56  79
ENDBRANCH  30  31
ENDBRANCH  22  25
ENDBRANCH  20  21
ENDBRANCH  19  20
ENDBRANCH  18  19
ENDBRANCH   1  18
TORSDOF 16
ENDMDL
