MODEL 1
REMARK VINA RESULT:     -12.3      0.000      0.000
REMARK SMILES Cc1nc(C)c(C(=O)N[C@@H](CCS(C)(=O)=O)C(=O)NCCCCNC(=O)c2ccc(-c3c4nc(c(-c5c(F)c(F)c(F)c(F)c5F)c5ccc([nH]5)c(-c5c(F)c(F)c(F)c(F)c5F)c5nc(c(-c6c(F)c(F)c(F)c(F)c6F)c6ccc3[nH]6)C=C5)C=C4)cc2)s1
REMARK SMILES IDX 21 1 20 2 19 3 17 4 18 5 10 7 9 8 7 9 8 10 6 12 1 13 2 14
REMARK SMILES IDX 3 15 90 16 4 17 5 18 11 19 12 20 13 21 14 22 15 23 16 24
REMARK SMILES IDX 22 25 23 26 24 27 25 28 26 30 27 31 28 32 89 33 29 34 88 35
REMARK SMILES IDX 30 36 31 37 32 38 82 39 33 40 87 41 81 42 83 43 34 44 86 45
REMARK SMILES IDX 80 46 79 47 35 49 67 50 47 51 66 52 48 53 51 54 65 55 84 56
REMARK SMILES IDX 49 57 50 58 64 60 85 61 52 62 36 63 37 64 45 65 38 66 39 67
REMARK SMILES IDX 43 68 46 69 40 70 41 71 44 72 42 73 68 74 69 75 77 76 70 77
REMARK SMILES IDX 71 78 75 79 78 80 72 81 73 82 76 83 74 84 53 85 54 86 62 87
REMARK SMILES IDX 55 88 56 89 60 90 63 91 57 92 58 93 61 94 59 95
REMARK H PARENT 19 6 9 11 24 29 83 48 51 59
REMARK Flexibility Score: inf
ROOT
ATOM      1  C   UNL A   1      31.781  30.690  26.164  1.00  0.00     0.023 C 
ENDROOT
BRANCH   1   2
ATOM      2  C   UNL A   1      33.131  30.054  26.495  1.00  0.00     0.116 C 
BRANCH   2   3
ATOM      3  N   UNL A   1      33.859  29.588  25.332  1.00  0.00    -0.354 N 
ATOM      4  C   UNL A   1      33.657  28.535  24.495  1.00  0.00     0.242 C 
ATOM      5  O   UNL A   1      34.234  28.567  23.400  1.00  0.00    -0.273 OA
ATOM      6  H   UNL A   1      34.646  30.135  25.105  1.00  0.00     0.163 HD
BRANCH   4   7
ATOM      7  C   UNL A   1      32.673  27.382  24.778  1.00  0.00     0.172 C 
BRANCH   7   8
ATOM      8  N   UNL A   1      32.252  26.618  23.603  1.00  0.00    -0.339 N 
ATOM      9  C   UNL A   1      31.362  26.894  22.583  1.00  0.00     0.263 C 
ATOM     10  O   UNL A   1      31.535  26.182  21.588  1.00  0.00    -0.268 OA
ATOM     11  H   UNL A   1      32.688  25.738  23.524  1.00  0.00     0.164 HD
BRANCH   9  12
ATOM     12  C   UNL A   1      30.290  27.886  22.640  1.00  0.00     0.115 A 
ATOM     13  C   UNL A   1      28.278  31.233  22.469  1.00  0.00     0.079 C 
ATOM     14  C   UNL A   1      28.857  29.872  22.640  1.00  0.00     0.091 A 
ATOM     15  N   UNL A   1      28.208  28.862  23.165  1.00  0.00    -0.246 NA
ATOM     16  S   UNL A   1      30.473  29.540  22.208  1.00  0.00    -0.113 S 
ATOM     17  C   UNL A   1      29.022  27.735  23.209  1.00  0.00     0.061 A 
ATOM     18  C   UNL A   1      28.438  26.545  23.892  1.00  0.00     0.068 C 
ENDBRANCH   9  12
ENDBRANCH   7   8
BRANCH   7  19
ATOM     19  C   UNL A   1      32.983  26.464  25.981  1.00  0.00     0.051 C 
BRANCH  19  20
ATOM     20  C   UNL A   1      32.890  24.951  25.842  1.00  0.00     0.139 C 
BRANCH  20  21
ATOM     21  S   UNL A   1      31.390  24.175  26.447  1.00  0.00     0.147 S 
ATOM     22  C   UNL A   1      30.965  22.931  25.251  1.00  0.00     0.158 C 
ATOM     23  O   UNL A   1      31.737  23.492  27.676  1.00  0.00    -0.229 OA
ATOM     24  O   UNL A   1      30.319  25.152  26.454  1.00  0.00    -0.229 OA
ENDBRANCH  20  21
ENDBRANCH  19  20
ENDBRANCH   7  19
ENDBRANCH   4   7
ENDBRANCH   2   3
ENDBRANCH   1   2
BRANCH   1  25
ATOM     25  C   UNL A   1      31.467  32.011  26.871  1.00  0.00     0.023 C 
BRANCH  25  26
ATOM     26  C   UNL A   1      32.664  32.799  27.394  1.00  0.00     0.116 C 
BRANCH  26  27
ATOM     27  N   UNL A   1      32.367  34.194  27.686  1.00  0.00    -0.352 N 
ATOM     28  C   UNL A   1      32.990  35.067  28.546  1.00  0.00     0.251 C 
ATOM     29  H   UNL A   1      31.604  34.570  27.191  1.00  0.00     0.163 HD
ATOM     30  O   UNL A   1      32.547  36.200  28.711  1.00  0.00    -0.269 OA
BRANCH  28  31
ATOM     31  C   UNL A   1      34.162  34.619  29.326  1.00  0.00     0.039 A 
ATOM     32  C   UNL A   1      33.957  34.152  30.627  1.00  0.00     0.014 A 
ATOM     33  C   UNL A   1      35.442  34.609  28.766  1.00  0.00     0.014 A 
ATOM     34  C   UNL A   1      35.013  33.563  31.324  1.00  0.00     0.010 A 
ATOM     35  C   UNL A   1      36.479  33.961  29.435  1.00  0.00     0.010 A 
ATOM     36  C   UNL A   1      36.265  33.405  30.707  1.00  0.00    -0.014 A 
BRANCH  36  37
ATOM     37  C   UNL A   1      37.339  32.601  31.345  1.00  0.00     0.031 A 
ATOM     38  C   UNL A   1      37.851  32.955  32.708  1.00  0.00     0.074 A 
ATOM     39  C   UNL A   1      37.908  31.595  30.653  1.00  0.00     0.049 A 
ATOM     40  N   UNL A   1      38.842  32.426  33.384  1.00  0.00    -0.248 NA
ATOM     41  C   UNL A   1      37.175  34.063  33.399  1.00  0.00     0.031 C 
ATOM     42  C   UNL A   1      37.521  31.172  29.305  1.00  0.00     0.029 A 
ATOM     43  N   UNL A   1      38.942  30.752  30.980  1.00  0.00    -0.354 N 
ATOM     44  C   UNL A   1      38.909  33.139  34.573  1.00  0.00     0.074 A 
ATOM     45  C   UNL A   1      37.893  34.169  34.507  1.00  0.00     0.031 C 
ATOM     46  C   UNL A   1      38.293  30.139  28.929  1.00  0.00     0.029 A 
ATOM     47  C   UNL A   1      39.258  29.857  29.986  1.00  0.00     0.049 A 
ATOM     48  H   UNL A   1      39.412  30.786  31.843  1.00  0.00     0.167 HD
ATOM     49  C   UNL A   1      39.731  32.937  35.631  1.00  0.00     0.037 A 
ATOM     50  C   UNL A   1      40.228  28.924  29.927  1.00  0.00     0.037 A 
ATOM     51  C   UNL A   1      40.737  31.909  35.697  1.00  0.00     0.049 A 
ATOM     52  C   UNL A   1      41.167  28.763  31.091  1.00  0.00     0.074 A 
ATOM     53  C   UNL A   1      41.583  31.594  36.746  1.00  0.00     0.029 A 
ATOM     54  N   UNL A   1      41.042  31.036  34.663  1.00  0.00    -0.354 N 
ATOM     55  N   UNL A   1      41.181  29.399  32.236  1.00  0.00    -0.248 NA
ATOM     56  C   UNL A   1      42.229  27.756  30.950  1.00  0.00     0.031 C 
ATOM     57  C   UNL A   1      42.433  30.564  36.330  1.00  0.00     0.029 A 
ATOM     58  C   UNL A   1      42.085  30.203  35.038  1.00  0.00     0.049 A 
ATOM     59  H   UNL A   1      40.585  31.011  33.790  1.00  0.00     0.167 HD
ATOM     60  C   UNL A   1      42.233  28.857  32.961  1.00  0.00     0.074 A 
ATOM     61  C   UNL A   1      42.827  27.829  32.131  1.00  0.00     0.031 C 
ATOM     62  C   UNL A   1      42.666  29.182  34.203  1.00  0.00     0.037 A 
BRANCH  49  63
ATOM     63  C   UNL A   1      39.576  33.856  36.808  1.00  0.00     0.064 A 
ATOM     64  C   UNL A   1      38.794  33.500  37.918  1.00  0.00     0.173 A 
ATOM     65  C   UNL A   1      40.236  35.094  36.840  1.00  0.00     0.173 A 
ATOM     66  F   UNL A   1      38.135  32.332  37.933  1.00  0.00    -0.203 F 
ATOM     67  C   UNL A   1      38.653  34.363  39.001  1.00  0.00     0.198 A 
ATOM     68  C   UNL A   1      40.116  35.941  37.939  1.00  0.00     0.198 A 
ATOM     69  F   UNL A   1      41.002  35.479  35.809  1.00  0.00    -0.203 F 
ATOM     70  F   UNL A   1      37.860  34.023  40.027  1.00  0.00    -0.200 F 
ATOM     71  C   UNL A   1      39.318  35.580  39.013  1.00  0.00     0.200 A 
ATOM     72  F   UNL A   1      40.770  37.111  37.954  1.00  0.00    -0.200 F 
ATOM     73  F   UNL A   1      39.184  36.408  40.059  1.00  0.00    -0.200 F 
ENDBRANCH  49  63
BRANCH  50  74
ATOM     74  C   UNL A   1      40.353  28.060  28.725  1.00  0.00     0.064 A 
ATOM     75  C   UNL A   1      41.105  28.478  27.618  1.00  0.00     0.173 A 
ATOM     76  C   UNL A   1      39.728  26.807  28.653  1.00  0.00     0.173 A 
ATOM     77  F   UNL A   1      41.702  29.679  27.630  1.00  0.00    -0.203 F 
ATOM     78  C   UNL A   1      41.217  27.681  26.481  1.00  0.00     0.198 A 
ATOM     79  C   UNL A   1      39.863  25.999  27.526  1.00  0.00     0.198 A 
ATOM     80  F   UNL A   1      38.996  26.361  29.685  1.00  0.00    -0.203 F 
ATOM     81  F   UNL A   1      41.910  28.122  25.422  1.00  0.00    -0.200 F 
ATOM     82  C   UNL A   1      40.601  26.439  26.439  1.00  0.00     0.200 A 
ATOM     83  F   UNL A   1      39.276  24.794  27.493  1.00  0.00    -0.200 F 
ATOM     84  F   UNL A   1      40.714  25.670  25.347  1.00  0.00    -0.200 F 
ENDBRANCH  50  74
BRANCH  62  85
ATOM     85  C   UNL A   1      43.825  28.405  34.755  1.00  0.00     0.064 A 
ATOM     86  C   UNL A   1      43.638  27.194  35.438  1.00  0.00     0.173 A 
ATOM     87  C   UNL A   1      45.140  28.850  34.555  1.00  0.00     0.173 A 
ATOM     88  F   UNL A   1      42.399  26.735  35.671  1.00  0.00    -0.203 F 
ATOM     89  C   UNL A   1      44.725  26.466  35.913  1.00  0.00     0.198 A 
ATOM     90  C   UNL A   1      46.226  28.106  35.007  1.00  0.00     0.198 A 
ATOM     91  F   UNL A   1      45.372  30.001  33.905  1.00  0.00    -0.203 F 
ATOM     92  F   UNL A   1      44.522  25.331  36.596  1.00  0.00    -0.200 F 
ATOM     93  C   UNL A   1      46.018  26.917  35.689  1.00  0.00     0.200 A 
ATOM     94  F   UNL A   1      47.474  28.537  34.779  1.00  0.00    -0.200 F 
ATOM     95  F   UNL A   1      47.064  26.208  36.137  1.00  0.00    -0.200 F 
ENDBRANCH  62  85
ENDBRANCH  36  37
ENDBRANCH  28  31
ENDBRANCH  26  27
ENDBRANCH  25  26
ENDBRANCH   1  25
TORSDOF 16
ENDMDL
MODEL 2
REMARK VINA RESULT:     -12.2      0.158      1.591
REMARK SMILES Cc1nc(C)c(C(=O)N[C@@H](CCS(C)(=O)=O)C(=O)NCCCCNC(=O)c2ccc(-c3c4nc(c(-c5c(F)c(F)c(F)c(F)c5F)c5ccc([nH]5)c(-c5c(F)c(F)c(F)c(F)c5F)c5nc(c(-c6c(F)c(F)c(F)c(F)c6F)c6ccc3[nH]6)C=C5)C=C4)cc2)s1
REMARK SMILES IDX 21 1 20 2 19 3 17 4 18 5 10 7 9 8 7 9 8 10 6 12 1 13 2 14
REMARK SMILES IDX 3 15 90 16 4 17 5 18 11 19 12 20 13 21 14 22 15 23 16 24
REMARK SMILES IDX 22 25 23 26 24 27 25 28 26 30 27 31 28 32 89 33 29 34 88 35
REMARK SMILES IDX 30 36 31 37 32 38 82 39 33 40 87 41 81 42 83 43 34 44 86 45
REMARK SMILES IDX 80 46 79 47 35 49 67 50 47 51 66 52 48 53 51 54 65 55 84 56
REMARK SMILES IDX 49 57 50 58 64 60 85 61 52 62 36 63 37 64 45 65 38 66 39 67
REMARK SMILES IDX 43 68 46 69 40 70 41 71 44 72 42 73 68 74 69 75 77 76 70 77
REMARK SMILES IDX 71 78 75 79 78 80 72 81 73 82 76 83 74 84 53 85 54 86 62 87
REMARK SMILES IDX 55 88 56 89 60 90 63 91 57 92 58 93 61 94 59 95
REMARK H PARENT 19 6 9 11 24 29 83 48 51 59
REMARK Flexibility Score: inf
ROOT
ATOM      1  C   UNL A   1      31.925  30.348  26.628  1.00  0.00     0.023 C 
ENDROOT
BRANCH   1   2
ATOM      2  C   UNL A   1      33.395  29.934  26.712  1.00  0.00     0.116 C 
BRANCH   2   3
ATOM      3  N   UNL A   1      33.966  29.542  25.440  1.00  0.00    -0.354 N 
ATOM      4  C   UNL A   1      33.633  28.562  24.557  1.00  0.00     0.242 C 
ATOM      5  O   UNL A   1      34.079  28.664  23.407  1.00  0.00    -0.273 OA
ATOM      6  H   UNL A   1      34.740  30.085  25.162  1.00  0.00     0.163 HD
BRANCH   4   7
ATOM      7  C   UNL A   1      32.650  27.415  24.869  1.00  0.00     0.172 C 
BRANCH   7   8
ATOM      8  N   UNL A   1      32.241  26.613  23.716  1.00  0.00    -0.339 N 
ATOM      9  C   UNL A   1      31.351  26.849  22.686  1.00  0.00     0.263 C 
ATOM     10  O   UNL A   1      31.534  26.111  21.713  1.00  0.00    -0.268 OA
ATOM     11  H   UNL A   1      32.687  25.736  23.663  1.00  0.00     0.164 HD
BRANCH   9  12
ATOM     12  C   UNL A   1      30.268  27.830  22.712  1.00  0.00     0.115 A 
ATOM     13  C   UNL A   1      28.225  31.154  22.466  1.00  0.00     0.079 C 
ATOM     14  C   UNL A   1      28.814  29.800  22.663  1.00  0.00     0.091 A 
ATOM     15  N   UNL A   1      28.165  28.789  23.185  1.00  0.00    -0.246 NA
ATOM     16  S   UNL A   1      30.442  29.482  22.266  1.00  0.00    -0.113 S 
ATOM     17  C   UNL A   1      28.990  27.671  23.256  1.00  0.00     0.061 A 
ATOM     18  C   UNL A   1      28.405  26.482  23.940  1.00  0.00     0.068 C 
ENDBRANCH   9  12
ENDBRANCH   7   8
BRANCH   7  19
ATOM     19  C   UNL A   1      32.953  26.538  26.103  1.00  0.00     0.051 C 
BRANCH  19  20
ATOM     20  C   UNL A   1      32.891  25.019  26.005  1.00  0.00     0.139 C 
BRANCH  20  21
ATOM     21  S   UNL A   1      31.338  24.243  26.455  1.00  0.00     0.147 S 
ATOM     22  C   UNL A   1      30.947  23.126  25.129  1.00  0.00     0.158 C 
ATOM     23  O   UNL A   1      31.595  23.442  27.633  1.00  0.00    -0.229 OA
ATOM     24  O   UNL A   1      30.297  25.251  26.493  1.00  0.00    -0.229 OA
ENDBRANCH  20  21
ENDBRANCH  19  20
ENDBRANCH   7  19
ENDBRANCH   4   7
ENDBRANCH   2   3
ENDBRANCH   1   2
BRANCH   1  25
ATOM     25  C   UNL A   1      31.629  31.833  26.851  1.00  0.00     0.023 C 
BRANCH  25  26
ATOM     26  C   UNL A   1      32.808  32.700  27.280  1.00  0.00     0.116 C 
BRANCH  26  27
ATOM     27  N   UNL A   1      32.438  34.065  27.625  1.00  0.00    -0.352 N 
ATOM     28  C   UNL A   1      32.988  34.921  28.550  1.00  0.00     0.251 C 
ATOM     29  H   UNL A   1      31.678  34.432  27.119  1.00  0.00     0.163 HD
ATOM     30  O   UNL A   1      32.488  36.024  28.751  1.00  0.00    -0.269 OA
BRANCH  28  31
ATOM     31  C   UNL A   1      34.149  34.486  29.354  1.00  0.00     0.039 A 
ATOM     32  C   UNL A   1      33.913  33.876  30.589  1.00  0.00     0.014 A 
ATOM     33  C   UNL A   1      35.453  34.630  28.876  1.00  0.00     0.014 A 
ATOM     34  C   UNL A   1      34.974  33.301  31.289  1.00  0.00     0.010 A 
ATOM     35  C   UNL A   1      36.502  33.998  29.542  1.00  0.00     0.010 A 
ATOM     36  C   UNL A   1      36.266  33.302  30.739  1.00  0.00    -0.014 A 
BRANCH  36  37
ATOM     37  C   UNL A   1      37.365  32.520  31.361  1.00  0.00     0.031 A 
ATOM     38  C   UNL A   1      37.890  32.886  32.717  1.00  0.00     0.074 A 
ATOM     39  C   UNL A   1      37.945  31.526  30.661  1.00  0.00     0.049 A 
ATOM     40  N   UNL A   1      38.902  32.378  33.378  1.00  0.00    -0.248 NA
ATOM     41  C   UNL A   1      37.201  33.980  33.416  1.00  0.00     0.031 C 
ATOM     42  C   UNL A   1      37.548  31.094  29.319  1.00  0.00     0.029 A 
ATOM     43  N   UNL A   1      39.002  30.705  30.973  1.00  0.00    -0.354 N 
ATOM     44  C   UNL A   1      38.971  33.092  34.566  1.00  0.00     0.074 A 
ATOM     45  C   UNL A   1      37.933  34.101  34.515  1.00  0.00     0.031 C 
ATOM     46  C   UNL A   1      38.335  30.078  28.932  1.00  0.00     0.029 A 
ATOM     47  C   UNL A   1      39.322  29.816  29.975  1.00  0.00     0.049 A 
ATOM     48  H   UNL A   1      39.484  30.749  31.829  1.00  0.00     0.167 HD
ATOM     49  C   UNL A   1      39.813  32.909  35.612  1.00  0.00     0.037 A 
ATOM     50  C   UNL A   1      40.310  28.904  29.901  1.00  0.00     0.037 A 
ATOM     51  C   UNL A   1      40.841  31.902  35.662  1.00  0.00     0.049 A 
ATOM     52  C   UNL A   1      41.269  28.763  31.051  1.00  0.00     0.074 A 
ATOM     53  C   UNL A   1      41.709  31.605  36.699  1.00  0.00     0.029 A 
ATOM     54  N   UNL A   1      41.149  31.035  34.625  1.00  0.00    -0.354 N 
ATOM     55  N   UNL A   1      41.287  29.400  32.196  1.00  0.00    -0.248 NA
ATOM     56  C   UNL A   1      42.350  27.779  30.896  1.00  0.00     0.031 C 
ATOM     57  C   UNL A   1      42.574  30.593  36.271  1.00  0.00     0.029 A 
ATOM     58  C   UNL A   1      42.215  30.224  34.984  1.00  0.00     0.049 A 
ATOM     59  H   UNL A   1      40.680  31.000  33.759  1.00  0.00     0.167 HD
ATOM     60  C   UNL A   1      42.360  28.880  32.905  1.00  0.00     0.074 A 
ATOM     61  C   UNL A   1      42.963  27.864  32.068  1.00  0.00     0.031 C 
ATOM     62  C   UNL A   1      42.804  29.215  34.141  1.00  0.00     0.037 A 
BRANCH  49  63
ATOM     63  C   UNL A   1      39.656  33.825  36.790  1.00  0.00     0.064 A 
ATOM     64  C   UNL A   1      38.848  33.480  37.885  1.00  0.00     0.173 A 
ATOM     65  C   UNL A   1      40.340  35.048  36.840  1.00  0.00     0.173 A 
ATOM     66  F   UNL A   1      38.165  32.325  37.882  1.00  0.00    -0.203 F 
ATOM     67  C   UNL A   1      38.706  34.341  38.970  1.00  0.00     0.198 A 
ATOM     68  C   UNL A   1      40.219  35.893  37.941  1.00  0.00     0.198 A 
ATOM     69  F   UNL A   1      41.133  35.423  35.825  1.00  0.00    -0.203 F 
ATOM     70  F   UNL A   1      37.888  34.012  39.980  1.00  0.00    -0.200 F 
ATOM     71  C   UNL A   1      39.394  35.543  38.999  1.00  0.00     0.200 A 
ATOM     72  F   UNL A   1      40.896  37.049  37.974  1.00  0.00    -0.200 F 
ATOM     73  F   UNL A   1      39.259  36.369  40.047  1.00  0.00    -0.200 F 
ENDBRANCH  49  63
BRANCH  50  74
ATOM     74  C   UNL A   1      40.435  28.042  28.698  1.00  0.00     0.064 A 
ATOM     75  C   UNL A   1      39.790  26.799  28.637  1.00  0.00     0.173 A 
ATOM     76  C   UNL A   1      41.198  28.436  27.589  1.00  0.00     0.173 A 
ATOM     77  F   UNL A   1      39.069  26.368  29.682  1.00  0.00    -0.203 F 
ATOM     78  C   UNL A   1      39.912  25.978  27.517  1.00  0.00     0.198 A 
ATOM     79  C   UNL A   1      41.298  27.626  26.460  1.00  0.00     0.198 A 
ATOM     80  F   UNL A   1      41.836  29.616  27.596  1.00  0.00    -0.203 F 
ATOM     81  F   UNL A   1      39.316  24.778  27.502  1.00  0.00    -0.200 F 
ATOM     82  C   UNL A   1      40.660  26.395  26.428  1.00  0.00     0.200 A 
ATOM     83  F   UNL A   1      42.013  28.038  25.403  1.00  0.00    -0.200 F 
ATOM     84  F   UNL A   1      40.773  25.608  25.349  1.00  0.00    -0.200 F 
ENDBRANCH  50  74
BRANCH  62  85
ATOM     85  C   UNL A   1      43.987  28.462  34.676  1.00  0.00     0.064 A 
ATOM     86  C   UNL A   1      45.294  28.950  34.533  1.00  0.00     0.173 A 
ATOM     87  C   UNL A   1      43.807  27.264  35.385  1.00  0.00     0.173 A 
ATOM     88  F   UNL A   1      45.520  30.082  33.849  1.00  0.00    -0.203 F 
ATOM     89  C   UNL A   1      46.379  28.259  35.067  1.00  0.00     0.198 A 
ATOM     90  C   UNL A   1      44.890  26.590  35.941  1.00  0.00     0.198 A 
ATOM     91  F   UNL A   1      42.576  26.757  35.551  1.00  0.00    -0.203 F 
ATOM     92  F   UNL A   1      47.622  28.724  34.886  1.00  0.00    -0.200 F 
ATOM     93  C   UNL A   1      46.175  27.086  35.778  1.00  0.00     0.200 A 
ATOM     94  F   UNL A   1      44.691  25.463  36.637  1.00  0.00    -0.200 F 
ATOM     95  F   UNL A   1      47.219  26.427  36.301  1.00  0.00    -0.200 F 
ENDBRANCH  62  85
ENDBRANCH  36  37
ENDBRANCH  28  31
ENDBRANCH  26  27
ENDBRANCH  25  26
ENDBRANCH   1  25
TORSDOF 16
ENDMDL
MODEL 3
REMARK VINA RESULT:     -11.9      1.327      7.798
REMARK SMILES Cc1nc(C)c(C(=O)N[C@@H](CCS(C)(=O)=O)C(=O)NCCCCNC(=O)c2ccc(-c3c4nc(c(-c5c(F)c(F)c(F)c(F)c5F)c5ccc([nH]5)c(-c5c(F)c(F)c(F)c(F)c5F)c5nc(c(-c6c(F)c(F)c(F)c(F)c6F)c6ccc3[nH]6)C=C5)C=C4)cc2)s1
REMARK SMILES IDX 21 1 20 2 19 3 17 4 18 5 10 7 9 8 7 9 8 10 6 12 1 13 2 14
REMARK SMILES IDX 3 15 90 16 4 17 5 18 11 19 12 20 13 21 14 22 15 23 16 24
REMARK SMILES IDX 22 25 23 26 24 27 25 28 26 30 27 31 28 32 89 33 29 34 88 35
REMARK SMILES IDX 30 36 31 37 32 38 82 39 33 40 87 41 81 42 83 43 34 44 86 45
REMARK SMILES IDX 80 46 79 47 35 49 67 50 47 51 66 52 48 53 51 54 65 55 84 56
REMARK SMILES IDX 49 57 50 58 64 60 85 61 52 62 36 63 37 64 45 65 38 66 39 67
REMARK SMILES IDX 43 68 46 69 40 70 41 71 44 72 42 73 68 74 69 75 77 76 70 77
REMARK SMILES IDX 71 78 75 79 78 80 72 81 73 82 76 83 74 84 53 85 54 86 62 87
REMARK SMILES IDX 55 88 56 89 60 90 63 91 57 92 58 93 61 94 59 95
REMARK H PARENT 19 6 9 11 24 29 83 48 51 59
REMARK Flexibility Score: inf
ROOT
ATOM      1  C   UNL A   1      31.766  30.393  26.905  1.00  0.00     0.023 C 
ENDROOT
BRANCH   1   2
ATOM      2  C   UNL A   1      32.989  29.476  26.868  1.00  0.00     0.116 C 
BRANCH   2   3
ATOM      3  N   UNL A   1      33.537  29.285  25.540  1.00  0.00    -0.354 N 
ATOM      4  C   UNL A   1      32.970  28.876  24.373  1.00  0.00     0.242 C 
ATOM      5  O   UNL A   1      33.590  29.120  23.330  1.00  0.00    -0.273 OA
ATOM      6  H   UNL A   1      34.498  29.489  25.469  1.00  0.00     0.163 HD
BRANCH   4   7
ATOM      7  C   UNL A   1      31.567  28.244  24.268  1.00  0.00     0.172 C 
BRANCH   7   8
ATOM      8  N   UNL A   1      31.200  27.354  25.369  1.00  0.00    -0.339 N 
ATOM      9  C   UNL A   1      31.707  26.141  25.795  1.00  0.00     0.263 C 
ATOM     10  O   UNL A   1      31.389  25.868  26.958  1.00  0.00    -0.268 OA
ATOM     11  H   UNL A   1      30.446  27.682  25.911  1.00  0.00     0.164 HD
BRANCH   9  12
ATOM     12  C   UNL A   1      32.509  25.227  24.985  1.00  0.00     0.115 A 
ATOM     13  C   UNL A   1      35.509  23.331  23.346  1.00  0.00     0.079 C 
ATOM     14  C   UNL A   1      34.236  23.949  23.809  1.00  0.00     0.091 A 
ATOM     15  N   UNL A   1      33.063  23.686  23.287  1.00  0.00    -0.246 NA
ATOM     16  S   UNL A   1      34.224  25.122  25.047  1.00  0.00    -0.113 S 
ATOM     17  C   UNL A   1      32.075  24.435  23.918  1.00  0.00     0.061 A 
ATOM     18  C   UNL A   1      30.707  24.313  23.338  1.00  0.00     0.068 C 
ENDBRANCH   9  12
ENDBRANCH   7   8
BRANCH   7  19
ATOM     19  C   UNL A   1      30.401  29.172  23.863  1.00  0.00     0.051 C 
BRANCH  19  20
ATOM     20  C   UNL A   1      29.486  28.799  22.704  1.00  0.00     0.139 C 
BRANCH  20  21
ATOM     21  S   UNL A   1      28.051  29.843  22.439  1.00  0.00     0.147 S 
ATOM     22  C   UNL A   1      28.412  31.384  23.248  1.00  0.00     0.158 C 
ATOM     23  O   UNL A   1      27.982  30.108  21.017  1.00  0.00    -0.229 OA
ATOM     24  O   UNL A   1      26.907  29.258  23.110  1.00  0.00    -0.229 OA
ENDBRANCH  20  21
ENDBRANCH  19  20
ENDBRANCH   7  19
ENDBRANCH   4   7
ENDBRANCH   2   3
ENDBRANCH   1   2
BRANCH   1  25
ATOM     25  C   UNL A   1      32.015  31.862  26.555  1.00  0.00     0.023 C 
BRANCH  25  26
ATOM     26  C   UNL A   1      32.962  32.626  27.476  1.00  0.00     0.116 C 
BRANCH  26  27
ATOM     27  N   UNL A   1      32.529  33.985  27.765  1.00  0.00    -0.352 N 
ATOM     28  C   UNL A   1      33.063  34.916  28.624  1.00  0.00     0.251 C 
ATOM     29  H   UNL A   1      31.732  34.283  27.271  1.00  0.00     0.163 HD
ATOM     30  O   UNL A   1      32.511  36.000  28.789  1.00  0.00    -0.269 OA
BRANCH  28  31
ATOM     31  C   UNL A   1      34.274  34.587  29.405  1.00  0.00     0.039 A 
ATOM     32  C   UNL A   1      34.120  34.163  30.727  1.00  0.00     0.014 A 
ATOM     33  C   UNL A   1      35.544  34.644  28.826  1.00  0.00     0.014 A 
ATOM     34  C   UNL A   1      35.223  33.681  31.431  1.00  0.00     0.010 A 
ATOM     35  C   UNL A   1      36.633  34.101  29.504  1.00  0.00     0.010 A 
ATOM     36  C   UNL A   1      36.476  33.586  30.802  1.00  0.00    -0.014 A 
BRANCH  36  37
ATOM     37  C   UNL A   1      37.612  32.888  31.457  1.00  0.00     0.031 A 
ATOM     38  C   UNL A   1      38.254  31.699  30.808  1.00  0.00     0.074 A 
ATOM     39  C   UNL A   1      38.010  33.283  32.682  1.00  0.00     0.049 A 
ATOM     40  N   UNL A   1      39.193  30.911  31.269  1.00  0.00    -0.248 NA
ATOM     41  C   UNL A   1      37.765  31.335  29.470  1.00  0.00     0.031 C 
ATOM     42  C   UNL A   1      37.444  34.405  33.433  1.00  0.00     0.029 A 
ATOM     43  N   UNL A   1      38.975  32.778  33.519  1.00  0.00    -0.354 N 
ATOM     44  C   UNL A   1      39.403  29.957  30.283  1.00  0.00     0.074 A 
ATOM     45  C   UNL A   1      38.460  30.235  29.219  1.00  0.00     0.031 C 
ATOM     46  C   UNL A   1      38.083  34.516  34.609  1.00  0.00     0.029 A 
ATOM     47  C   UNL A   1      39.072  33.446  34.715  1.00  0.00     0.049 A 
ATOM     48  H   UNL A   1      39.544  32.011  33.284  1.00  0.00     0.167 HD
ATOM     49  C   UNL A   1      40.313  28.954  30.259  1.00  0.00     0.037 A 
ATOM     50  C   UNL A   1      39.855  33.214  35.786  1.00  0.00     0.037 A 
ATOM     51  C   UNL A   1      41.253  28.683  31.316  1.00  0.00     0.049 A 
ATOM     52  C   UNL A   1      40.814  32.056  35.758  1.00  0.00     0.074 A 
ATOM     53  C   UNL A   1      42.248  27.721  31.361  1.00  0.00     0.029 A 
ATOM     54  N   UNL A   1      41.306  29.367  32.522  1.00  0.00    -0.354 N 
ATOM     55  N   UNL A   1      41.049  31.198  34.795  1.00  0.00    -0.248 NA
ATOM     56  C   UNL A   1      41.614  31.828  36.971  1.00  0.00     0.031 C 
ATOM     57  C   UNL A   1      42.869  27.792  32.613  1.00  0.00     0.029 A 
ATOM     58  C   UNL A   1      42.294  28.829  33.330  1.00  0.00     0.049 A 
ATOM     59  H   UNL A   1      40.725  30.125  32.767  1.00  0.00     0.167 HD
ATOM     60  C   UNL A   1      42.036  30.348  35.273  1.00  0.00     0.074 A 
ATOM     61  C   UNL A   1      42.367  30.799  36.608  1.00  0.00     0.031 C 
ATOM     62  C   UNL A   1      42.615  29.289  34.658  1.00  0.00     0.037 A 
BRANCH  49  63
ATOM     63  C   UNL A   1      40.332  28.069  29.047  1.00  0.00     0.064 A 
ATOM     64  C   UNL A   1      39.585  26.882  28.995  1.00  0.00     0.173 A 
ATOM     65  C   UNL A   1      41.083  28.422  27.916  1.00  0.00     0.173 A 
ATOM     66  F   UNL A   1      38.858  26.494  30.053  1.00  0.00    -0.203 F 
ATOM     67  C   UNL A   1      39.615  26.066  27.867  1.00  0.00     0.198 A 
ATOM     68  C   UNL A   1      41.086  27.618  26.779  1.00  0.00     0.198 A 
ATOM     69  F   UNL A   1      41.808  29.551  27.910  1.00  0.00    -0.203 F 
ATOM     70  F   UNL A   1      38.934  24.911  27.860  1.00  0.00    -0.200 F 
ATOM     71  C   UNL A   1      40.361  26.437  26.759  1.00  0.00     0.200 A 
ATOM     72  F   UNL A   1      41.797  27.985  25.704  1.00  0.00    -0.200 F 
ATOM     73  F   UNL A   1      40.386  25.652  25.673  1.00  0.00    -0.200 F 
ENDBRANCH  49  63
BRANCH  50  74
ATOM     74  C   UNL A   1      39.774  34.105  36.971  1.00  0.00     0.064 A 
ATOM     75  C   UNL A   1      38.941  33.786  38.052  1.00  0.00     0.173 A 
ATOM     76  C   UNL A   1      40.521  35.290  37.051  1.00  0.00     0.173 A 
ATOM     77  F   UNL A   1      38.189  32.676  38.012  1.00  0.00    -0.203 F 
ATOM     78  C   UNL A   1      38.850  34.622  39.163  1.00  0.00     0.198 A 
ATOM     79  C   UNL A   1      40.449  36.112  38.174  1.00  0.00     0.198 A 
ATOM     80  F   UNL A   1      41.334  35.642  36.044  1.00  0.00    -0.203 F 
ATOM     81  F   UNL A   1      38.015  34.312  40.165  1.00  0.00    -0.200 F 
ATOM     82  C   UNL A   1      39.608  35.781  39.225  1.00  0.00     0.200 A 
ATOM     83  F   UNL A   1      41.192  37.225  38.236  1.00  0.00    -0.200 F 
ATOM     84  F   UNL A   1      39.523  36.582  40.296  1.00  0.00    -0.200 F 
ENDBRANCH  50  74
BRANCH  62  85
ATOM     85  C   UNL A   1      43.686  28.555  35.411  1.00  0.00     0.064 A 
ATOM     86  C   UNL A   1      43.381  27.483  36.262  1.00  0.00     0.173 A 
ATOM     87  C   UNL A   1      45.036  28.895  35.240  1.00  0.00     0.173 A 
ATOM     88  F   UNL A   1      42.104  27.131  36.473  1.00  0.00    -0.203 F 
ATOM     89  C   UNL A   1      44.388  26.788  36.926  1.00  0.00     0.198 A 
ATOM     90  C   UNL A   1      46.042  28.181  35.884  1.00  0.00     0.198 A 
ATOM     91  F   UNL A   1      45.380  29.911  34.435  1.00  0.00    -0.203 F 
ATOM     92  F   UNL A   1      44.072  25.791  37.764  1.00  0.00    -0.200 F 
ATOM     93  C   UNL A   1      45.718  27.131  36.730  1.00  0.00     0.200 A 
ATOM     94  F   UNL A   1      47.327  28.506  35.684  1.00  0.00    -0.200 F 
ATOM     95  F   UNL A   1      46.687  26.453  37.361  1.00  0.00    -0.200 F 
ENDBRANCH  62  85
ENDBRANCH  36  37
ENDBRANCH  28  31
ENDBRANCH  26  27
ENDBRANCH  25  26
ENDBRANCH   1  25
TORSDOF 16
ENDMDL
