MODEL 1
REMARK VINA RESULT:     -14.0      0.000      0.000
REMARK SMILES Cc1nccn1C1(C(=O)NCCCCNC(=O)c2ccc(-c3c4nc(c(-c5c(F)c(F)c(F)c(F)c5F)c5ccc([nH]5)c(-c5c(F)c(F)c(F)c(F)c5F)c5nc(c(-c6c(F)c(F)c(F)c(F)c6F)c6ccc3[nH]6)C=C5)C=C4)cc2)CCN(c2nccc3occc23)CC1
REMARK SMILES IDX 13 1 12 2 11 3 10 4 8 5 9 6 7 8 81 9 94 10 82 11 93 12 83 13
REMARK SMILES IDX 6 14 1 15 2 16 3 17 4 18 5 19 84 20 85 21 92 22 86 23 88 24
REMARK SMILES IDX 91 25 87 26 89 27 90 28 14 29 15 30 16 31 17 33 18 34 19 35
REMARK SMILES IDX 80 36 20 37 79 38 21 39 22 40 23 41 73 42 24 43 78 44 72 45
REMARK SMILES IDX 74 46 25 47 77 48 71 49 70 50 26 52 58 53 38 54 57 55 39 56
REMARK SMILES IDX 42 57 56 58 75 59 40 60 41 61 55 63 76 64 43 65 27 66 28 67
REMARK SMILES IDX 36 68 29 69 30 70 34 71 37 72 31 73 32 74 35 75 33 76 59 77
REMARK SMILES IDX 60 78 68 79 61 80 62 81 66 82 69 83 63 84 64 85 67 86 65 87
REMARK SMILES IDX 44 88 45 89 53 90 46 91 47 92 51 93 54 94 48 95 49 96 52 97
REMARK SMILES IDX 50 98
REMARK H PARENT 10 7 15 32 74 51 42 62
REMARK Flexibility Score: inf
ROOT
ATOM      1  C   UNL A   1      32.611  30.584  26.465  1.00  0.00     0.023 C 
ENDROOT
BRANCH   1   2
ATOM      2  C   UNL A   1      31.669  29.583  27.147  1.00  0.00     0.023 C 
BRANCH   2   3
ATOM      3  C   UNL A   1      32.282  28.216  27.470  1.00  0.00     0.116 C 
BRANCH   3   4
ATOM      4  N   UNL A   1      31.295  27.161  27.352  1.00  0.00    -0.354 N 
ATOM      5  C   UNL A   1      31.033  26.281  26.338  1.00  0.00     0.246 C 
ATOM      6  O   UNL A   1      29.863  25.884  26.339  1.00  0.00    -0.272 OA
ATOM      7  H   UNL A   1      30.712  27.061  28.138  1.00  0.00     0.163 HD
BRANCH   5   8
ATOM      8  C   UNL A   1      32.110  25.865  25.250  1.00  0.00     0.127 C 
ATOM      9  C   UNL A   1      33.315  25.358  26.083  1.00  0.00     0.060 C 
ATOM     10  C   UNL A   1      31.452  24.827  24.307  1.00  0.00     0.060 C 
ATOM     11  C   UNL A   1      33.879  23.963  25.810  1.00  0.00     0.121 C 
ATOM     12  C   UNL A   1      32.377  23.720  23.833  1.00  0.00     0.121 C 
ATOM     13  N   UNL A   1      33.059  23.080  24.959  1.00  0.00    -0.356 N 
BRANCH   8  14
ATOM     14  N   UNL A   1      32.490  27.060  24.409  1.00  0.00    -0.320 N 
ATOM     15  C   UNL A   1      30.216  28.063  23.679  1.00  0.00     0.087 C 
ATOM     16  C   UNL A   1      31.695  27.966  23.708  1.00  0.00     0.106 A 
ATOM     17  N   UNL A   1      32.437  28.814  23.020  1.00  0.00    -0.242 NA
ATOM     18  C   UNL A   1      33.727  28.559  23.356  1.00  0.00     0.131 A 
ATOM     19  C   UNL A   1      33.779  27.550  24.278  1.00  0.00     0.108 A 
ENDBRANCH   8  14
BRANCH  13  20
ATOM     20  C   UNL A   1      33.951  22.061  24.499  1.00  0.00     0.139 A 
ATOM     21  N   UNL A   1      35.279  22.385  24.508  1.00  0.00    -0.238 NA
ATOM     22  C   UNL A   1      33.635  20.685  24.365  1.00  0.00     0.063 A 
ATOM     23  C   UNL A   1      36.216  21.442  24.728  1.00  0.00     0.117 A 
ATOM     24  C   UNL A   1      34.640  19.777  24.686  1.00  0.00     0.139 A 
ATOM     25  C   UNL A   1      32.525  19.874  23.981  1.00  0.00     0.054 A 
ATOM     26  C   UNL A   1      35.942  20.121  24.993  1.00  0.00     0.068 A 
ATOM     27  O   UNL A   1      34.182  18.499  24.625  1.00  0.00    -0.464 OA
ATOM     28  C   UNL A   1      32.924  18.561  24.124  1.00  0.00     0.196 A 
ENDBRANCH  13  20
ENDBRANCH   5   8
ENDBRANCH   3   4
ENDBRANCH   2   3
ENDBRANCH   1   2
BRANCH   1  29
ATOM     29  C   UNL A   1      33.969  30.721  27.136  1.00  0.00     0.116 C 
BRANCH  29  30
ATOM     30  N   UNL A   1      33.938  31.639  28.268  1.00  0.00    -0.352 N 
ATOM     31  C   UNL A   1      34.842  31.757  29.306  1.00  0.00     0.251 C 
ATOM     32  H   UNL A   1      33.172  32.257  28.296  1.00  0.00     0.163 HD
ATOM     33  O   UNL A   1      34.554  32.340  30.332  1.00  0.00    -0.269 OA
BRANCH  31  34
ATOM     34  C   UNL A   1      36.170  31.138  29.145  1.00  0.00     0.039 A 
ATOM     35  C   UNL A   1      37.314  31.937  29.101  1.00  0.00     0.014 A 
ATOM     36  C   UNL A   1      36.260  29.749  29.095  1.00  0.00     0.014 A 
ATOM     37  C   UNL A   1      38.563  31.323  29.104  1.00  0.00     0.010 A 
ATOM     38  C   UNL A   1      37.492  29.145  29.207  1.00  0.00     0.010 A 
ATOM     39  C   UNL A   1      38.650  29.924  29.188  1.00  0.00    -0.014 A 
BRANCH  39  40
ATOM     40  C   UNL A   1      39.951  29.283  29.382  1.00  0.00     0.031 A 
ATOM     41  C   UNL A   1      40.342  29.002  30.797  1.00  0.00     0.074 A 
ATOM     42  C   UNL A   1      40.669  28.759  28.366  1.00  0.00     0.049 A 
ATOM     43  N   UNL A   1      41.412  29.385  31.416  1.00  0.00    -0.248 NA
ATOM     44  C   UNL A   1      39.405  28.249  31.646  1.00  0.00     0.031 C 
ATOM     45  C   UNL A   1      40.307  28.674  26.948  1.00  0.00     0.029 A 
ATOM     46  N   UNL A   1      41.841  28.068  28.421  1.00  0.00    -0.354 N 
ATOM     47  C   UNL A   1      41.365  28.808  32.685  1.00  0.00     0.074 A 
ATOM     48  C   UNL A   1      40.057  28.216  32.810  1.00  0.00     0.031 C 
ATOM     49  C   UNL A   1      41.108  27.779  26.332  1.00  0.00     0.029 A 
ATOM     50  C   UNL A   1      42.136  27.357  27.266  1.00  0.00     0.049 A 
ATOM     51  H   UNL A   1      42.429  28.072  29.211  1.00  0.00     0.167 HD
ATOM     52  C   UNL A   1      42.477  28.707  33.465  1.00  0.00     0.037 A 
ATOM     53  C   UNL A   1      43.133  26.458  27.093  1.00  0.00     0.037 A 
ATOM     54  C   UNL A   1      43.515  29.599  33.018  1.00  0.00     0.049 A 
ATOM     55  C   UNL A   1      44.149  26.708  28.142  1.00  0.00     0.074 A 
ATOM     56  C   UNL A   1      43.617  30.969  32.863  1.00  0.00     0.029 A 
ATOM     57  N   UNL A   1      44.570  29.076  32.313  1.00  0.00    -0.354 N 
ATOM     58  N   UNL A   1      44.908  27.766  28.178  1.00  0.00    -0.248 NA
ATOM     59  C   UNL A   1      44.031  25.981  29.397  1.00  0.00     0.031 C 
ATOM     60  C   UNL A   1      44.390  31.148  31.678  1.00  0.00     0.029 A 
ATOM     61  C   UNL A   1      44.757  29.882  31.221  1.00  0.00     0.049 A 
ATOM     62  H   UNL A   1      45.092  28.275  32.548  1.00  0.00     0.167 HD
ATOM     63  C   UNL A   1      44.988  28.091  29.522  1.00  0.00     0.074 A 
ATOM     64  C   UNL A   1      44.533  26.898  30.230  1.00  0.00     0.031 C 
ATOM     65  C   UNL A   1      45.143  29.387  29.923  1.00  0.00     0.037 A 
BRANCH  52  66
ATOM     66  C   UNL A   1      42.762  27.578  34.430  1.00  0.00     0.064 A 
ATOM     67  C   UNL A   1      43.248  26.349  33.933  1.00  0.00     0.173 A 
ATOM     68  C   UNL A   1      42.291  27.550  35.759  1.00  0.00     0.173 A 
ATOM     69  F   UNL A   1      43.713  26.255  32.678  1.00  0.00    -0.203 F 
ATOM     70  C   UNL A   1      43.175  25.169  34.677  1.00  0.00     0.198 A 
ATOM     71  C   UNL A   1      42.269  26.379  36.517  1.00  0.00     0.198 A 
ATOM     72  F   UNL A   1      41.727  28.617  36.335  1.00  0.00    -0.203 F 
ATOM     73  F   UNL A   1      43.522  24.003  34.113  1.00  0.00    -0.200 F 
ATOM     74  C   UNL A   1      42.677  25.183  35.966  1.00  0.00     0.200 A 
ATOM     75  F   UNL A   1      41.768  26.409  37.760  1.00  0.00    -0.200 F 
ATOM     76  F   UNL A   1      42.542  24.043  36.657  1.00  0.00    -0.200 F 
ENDBRANCH  52  66
BRANCH  53  77
ATOM     77  C   UNL A   1      43.160  25.264  26.220  1.00  0.00     0.064 A 
ATOM     78  C   UNL A   1      44.210  25.048  25.316  1.00  0.00     0.173 A 
ATOM     79  C   UNL A   1      42.290  24.178  26.446  1.00  0.00     0.173 A 
ATOM     80  F   UNL A   1      45.104  26.018  25.076  1.00  0.00    -0.203 F 
ATOM     81  C   UNL A   1      44.398  23.810  24.695  1.00  0.00     0.198 A 
ATOM     82  C   UNL A   1      42.473  22.947  25.818  1.00  0.00     0.198 A 
ATOM     83  F   UNL A   1      41.303  24.262  27.350  1.00  0.00    -0.203 F 
ATOM     84  F   UNL A   1      45.450  23.621  23.887  1.00  0.00    -0.200 F 
ATOM     85  C   UNL A   1      43.536  22.757  24.955  1.00  0.00     0.200 A 
ATOM     86  F   UNL A   1      41.651  21.927  26.104  1.00  0.00    -0.200 F 
ATOM     87  F   UNL A   1      43.752  21.552  24.409  1.00  0.00    -0.200 F 
ENDBRANCH  53  77
BRANCH  65  88
ATOM     88  C   UNL A   1      45.498  30.404  28.874  1.00  0.00     0.064 A 
ATOM     89  C   UNL A   1      44.555  31.070  28.071  1.00  0.00     0.173 A 
ATOM     90  C   UNL A   1      46.836  30.799  28.752  1.00  0.00     0.173 A 
ATOM     91  F   UNL A   1      43.245  30.838  28.206  1.00  0.00    -0.203 F 
ATOM     92  C   UNL A   1      44.944  32.032  27.141  1.00  0.00     0.198 A 
ATOM     93  C   UNL A   1      47.218  31.790  27.852  1.00  0.00     0.198 A 
ATOM     94  F   UNL A   1      47.775  30.246  29.536  1.00  0.00    -0.203 F 
ATOM     95  F   UNL A   1      44.026  32.629  26.368  1.00  0.00    -0.200 F 
ATOM     96  C   UNL A   1      46.276  32.394  27.036  1.00  0.00     0.200 A 
ATOM     97  F   UNL A   1      48.501  32.175  27.790  1.00  0.00    -0.200 F 
ATOM     98  F   UNL A   1      46.648  33.342  26.163  1.00  0.00    -0.200 F 
ENDBRANCH  65  88
ENDBRANCH  39  40
ENDBRANCH  31  34
ENDBRANCH  29  30
ENDBRANCH   1  29
TORSDOF 13
ENDMDL
MODEL 2
REMARK VINA RESULT:     -13.8      2.881      8.850
REMARK SMILES Cc1nccn1C1(C(=O)NCCCCNC(=O)c2ccc(-c3c4nc(c(-c5c(F)c(F)c(F)c(F)c5F)c5ccc([nH]5)c(-c5c(F)c(F)c(F)c(F)c5F)c5nc(c(-c6c(F)c(F)c(F)c(F)c6F)c6ccc3[nH]6)C=C5)C=C4)cc2)CCN(c2nccc3occc23)CC1
REMARK SMILES IDX 13 1 12 2 11 3 10 4 8 5 9 6 7 8 81 9 94 10 82 11 93 12 83 13
REMARK SMILES IDX 6 14 1 15 2 16 3 17 4 18 5 19 84 20 85 21 92 22 86 23 88 24
REMARK SMILES IDX 91 25 87 26 89 27 90 28 14 29 15 30 16 31 17 33 18 34 19 35
REMARK SMILES IDX 80 36 20 37 79 38 21 39 22 40 23 41 73 42 24 43 78 44 72 45
REMARK SMILES IDX 74 46 25 47 77 48 71 49 70 50 26 52 58 53 38 54 57 55 39 56
REMARK SMILES IDX 42 57 56 58 75 59 40 60 41 61 55 63 76 64 43 65 27 66 28 67
REMARK SMILES IDX 36 68 29 69 30 70 34 71 37 72 31 73 32 74 35 75 33 76 59 77
REMARK SMILES IDX 60 78 68 79 61 80 62 81 66 82 69 83 63 84 64 85 67 86 65 87
REMARK SMILES IDX 44 88 45 89 53 90 46 91 47 92 51 93 54 94 48 95 49 96 52 97
REMARK SMILES IDX 50 98
REMARK H PARENT 10 7 15 32 74 51 42 62
REMARK Flexibility Score: inf
ROOT
ATOM      1  C   UNL A   1      38.543  22.051  25.701  1.00  0.00     0.023 C 
ENDROOT
BRANCH   1   2
ATOM      2  C   UNL A   1      37.724  20.964  24.993  1.00  0.00     0.023 C 
BRANCH   2   3
ATOM      3  C   UNL A   1      36.252  21.307  24.742  1.00  0.00     0.116 C 
BRANCH   3   4
ATOM      4  N   UNL A   1      35.442  21.011  25.907  1.00  0.00    -0.354 N 
ATOM      5  C   UNL A   1      34.326  21.622  26.408  1.00  0.00     0.246 C 
ATOM      6  O   UNL A   1      34.195  21.457  27.626  1.00  0.00    -0.272 OA
ATOM      7  H   UNL A   1      35.749  20.234  26.428  1.00  0.00     0.163 HD
BRANCH   5   8
ATOM      8  C   UNL A   1      33.343  22.497  25.521  1.00  0.00     0.127 C 
ATOM      9  C   UNL A   1      32.195  22.877  26.490  1.00  0.00     0.060 C 
ATOM     10  C   UNL A   1      34.158  23.677  24.937  1.00  0.00     0.060 C 
ATOM     11  C   UNL A   1      31.829  24.349  26.674  1.00  0.00     0.121 C 
ATOM     12  C   UNL A   1      33.401  24.991  24.847  1.00  0.00     0.121 C 
ATOM     13  N   UNL A   1      32.780  25.334  26.128  1.00  0.00    -0.356 N 
BRANCH   8  14
ATOM     14  N   UNL A   1      32.830  21.684  24.356  1.00  0.00    -0.320 N 
ATOM     15  C   UNL A   1      32.528  19.305  25.332  1.00  0.00     0.087 C 
ATOM     16  C   UNL A   1      32.526  20.328  24.259  1.00  0.00     0.106 A 
ATOM     17  N   UNL A   1      32.194  20.003  23.023  1.00  0.00    -0.242 NA
ATOM     18  C   UNL A   1      32.153  21.162  22.318  1.00  0.00     0.131 A 
ATOM     19  C   UNL A   1      32.448  22.218  23.136  1.00  0.00     0.108 A 
ENDBRANCH   8  14
BRANCH  13  20
ATOM     20  C   UNL A   1      32.044  26.556  26.023  1.00  0.00     0.139 A 
ATOM     21  N   UNL A   1      32.571  27.627  26.691  1.00  0.00    -0.238 NA
ATOM     22  C   UNL A   1      31.050  26.842  25.052  1.00  0.00     0.063 A 
ATOM     23  C   UNL A   1      32.415  28.878  26.217  1.00  0.00     0.117 A 
ATOM     24  C   UNL A   1      31.008  28.144  24.562  1.00  0.00     0.139 A 
ATOM     25  C   UNL A   1      30.001  26.163  24.363  1.00  0.00     0.054 A 
ATOM     26  C   UNL A   1      31.769  29.191  25.044  1.00  0.00     0.068 A 
ATOM     27  O   UNL A   1      30.092  28.262  23.565  1.00  0.00    -0.464 OA
ATOM     28  C   UNL A   1      29.432  27.078  23.502  1.00  0.00     0.196 A 
ENDBRANCH  13  20
ENDBRANCH   5   8
ENDBRANCH   3   4
ENDBRANCH   2   3
ENDBRANCH   1   2
BRANCH   1  29
ATOM     29  C   UNL A   1      39.666  21.517  26.578  1.00  0.00     0.116 C 
BRANCH  29  30
ATOM     30  N   UNL A   1      40.963  21.580  25.916  1.00  0.00    -0.352 N 
ATOM     31  C   UNL A   1      41.798  22.670  25.761  1.00  0.00     0.251 C 
ATOM     32  H   UNL A   1      41.288  20.735  25.529  1.00  0.00     0.163 HD
ATOM     33  O   UNL A   1      42.694  22.669  24.942  1.00  0.00    -0.269 OA
BRANCH  31  34
ATOM     34  C   UNL A   1      41.561  23.853  26.608  1.00  0.00     0.039 A 
ATOM     35  C   UNL A   1      42.167  23.948  27.862  1.00  0.00     0.014 A 
ATOM     36  C   UNL A   1      40.773  24.887  26.110  1.00  0.00     0.014 A 
ATOM     37  C   UNL A   1      42.053  25.138  28.575  1.00  0.00     0.010 A 
ATOM     38  C   UNL A   1      40.751  26.098  26.764  1.00  0.00     0.010 A 
ATOM     39  C   UNL A   1      41.368  26.225  28.009  1.00  0.00    -0.014 A 
BRANCH  39  40
ATOM     40  C   UNL A   1      41.405  27.534  28.664  1.00  0.00     0.031 A 
ATOM     41  C   UNL A   1      42.528  28.437  28.268  1.00  0.00     0.074 A 
ATOM     42  C   UNL A   1      40.382  28.011  29.404  1.00  0.00     0.049 A 
ATOM     43  N   UNL A   1      43.406  28.996  29.037  1.00  0.00    -0.248 NA
ATOM     44  C   UNL A   1      42.735  28.710  26.837  1.00  0.00     0.031 C 
ATOM     45  C   UNL A   1      39.078  27.393  29.657  1.00  0.00     0.029 A 
ATOM     46  N   UNL A   1      40.257  29.234  29.991  1.00  0.00    -0.354 N 
ATOM     47  C   UNL A   1      44.192  29.807  28.218  1.00  0.00     0.074 A 
ATOM     48  C   UNL A   1      43.807  29.505  26.862  1.00  0.00     0.031 C 
ATOM     49  C   UNL A   1      38.223  28.324  30.130  1.00  0.00     0.029 A 
ATOM     50  C   UNL A   1      38.959  29.552  30.368  1.00  0.00     0.049 A 
ATOM     51  H   UNL A   1      41.019  29.841  30.136  1.00  0.00     0.167 HD
ATOM     52  C   UNL A   1      44.971  30.800  28.733  1.00  0.00     0.037 A 
ATOM     53  C   UNL A   1      38.508  30.748  30.813  1.00  0.00     0.037 A 
ATOM     54  C   UNL A   1      45.191  30.616  30.144  1.00  0.00     0.049 A 
ATOM     55  C   UNL A   1      39.678  31.513  31.304  1.00  0.00     0.074 A 
ATOM     56  C   UNL A   1      45.761  29.621  30.916  1.00  0.00     0.029 A 
ATOM     57  N   UNL A   1      44.484  31.396  31.024  1.00  0.00    -0.354 N 
ATOM     58  N   UNL A   1      40.352  31.201  32.374  1.00  0.00    -0.248 NA
ATOM     59  C   UNL A   1      40.366  32.389  30.367  1.00  0.00     0.031 C 
ATOM     60  C   UNL A   1      44.955  29.561  32.091  1.00  0.00     0.029 A 
ATOM     61  C   UNL A   1      43.985  30.558  31.986  1.00  0.00     0.049 A 
ATOM     62  H   UNL A   1      44.359  32.372  30.973  1.00  0.00     0.167 HD
ATOM     63  C   UNL A   1      41.673  31.452  32.039  1.00  0.00     0.074 A 
ATOM     64  C   UNL A   1      41.610  32.288  30.844  1.00  0.00     0.031 C 
ATOM     65  C   UNL A   1      42.687  30.724  32.592  1.00  0.00     0.037 A 
BRANCH  52  66
ATOM     66  C   UNL A   1      45.269  32.114  28.047  1.00  0.00     0.064 A 
ATOM     67  C   UNL A   1      44.207  32.995  27.749  1.00  0.00     0.173 A 
ATOM     68  C   UNL A   1      46.491  32.399  27.403  1.00  0.00     0.173 A 
ATOM     69  F   UNL A   1      42.995  32.817  28.297  1.00  0.00    -0.203 F 
ATOM     70  C   UNL A   1      44.337  34.019  26.806  1.00  0.00     0.198 A 
ATOM     71  C   UNL A   1      46.630  33.455  26.502  1.00  0.00     0.198 A 
ATOM     72  F   UNL A   1      47.560  31.604  27.526  1.00  0.00    -0.203 F 
ATOM     73  F   UNL A   1      43.263  34.742  26.456  1.00  0.00    -0.200 F 
ATOM     74  C   UNL A   1      45.546  34.242  26.177  1.00  0.00     0.200 A 
ATOM     75  F   UNL A   1      47.808  33.646  25.889  1.00  0.00    -0.200 F 
ATOM     76  F   UNL A   1      45.656  35.177  25.223  1.00  0.00    -0.200 F 
ENDBRANCH  52  66
BRANCH  53  77
ATOM     77  C   UNL A   1      37.170  31.353  30.642  1.00  0.00     0.064 A 
ATOM     78  C   UNL A   1      36.339  31.603  31.744  1.00  0.00     0.173 A 
ATOM     79  C   UNL A   1      36.788  31.943  29.420  1.00  0.00     0.173 A 
ATOM     80  F   UNL A   1      36.653  31.111  32.952  1.00  0.00    -0.203 F 
ATOM     81  C   UNL A   1      35.208  32.418  31.639  1.00  0.00     0.198 A 
ATOM     82  C   UNL A   1      35.654  32.747  29.314  1.00  0.00     0.198 A 
ATOM     83  F   UNL A   1      37.559  31.825  28.329  1.00  0.00    -0.203 F 
ATOM     84  F   UNL A   1      34.474  32.686  32.727  1.00  0.00    -0.200 F 
ATOM     85  C   UNL A   1      34.873  32.998  30.426  1.00  0.00     0.200 A 
ATOM     86  F   UNL A   1      35.361  33.328  28.142  1.00  0.00    -0.200 F 
ATOM     87  F   UNL A   1      33.825  33.829  30.337  1.00  0.00    -0.200 F 
ENDBRANCH  53  77
BRANCH  65  88
ATOM     88  C   UNL A   1      42.356  29.845  33.766  1.00  0.00     0.064 A 
ATOM     89  C   UNL A   1      41.885  28.525  33.654  1.00  0.00     0.173 A 
ATOM     90  C   UNL A   1      42.629  30.321  35.055  1.00  0.00     0.173 A 
ATOM     91  F   UNL A   1      41.709  27.953  32.458  1.00  0.00    -0.203 F 
ATOM     92  C   UNL A   1      41.632  27.747  34.781  1.00  0.00     0.198 A 
ATOM     93  C   UNL A   1      42.415  29.527  36.178  1.00  0.00     0.198 A 
ATOM     94  F   UNL A   1      43.141  31.550  35.225  1.00  0.00    -0.203 F 
ATOM     95  F   UNL A   1      41.154  26.501  34.645  1.00  0.00    -0.200 F 
ATOM     96  C   UNL A   1      41.901  28.248  36.043  1.00  0.00     0.200 A 
ATOM     97  F   UNL A   1      42.727  29.997  37.395  1.00  0.00    -0.200 F 
ATOM     98  F   UNL A   1      41.687  27.488  37.127  1.00  0.00    -0.200 F 
ENDBRANCH  65  88
ENDBRANCH  39  40
ENDBRANCH  31  34
ENDBRANCH  29  30
ENDBRANCH   1  29
TORSDOF 13
ENDMDL
MODEL 3
REMARK VINA RESULT:     -13.6      3.012      8.980
REMARK SMILES Cc1nccn1C1(C(=O)NCCCCNC(=O)c2ccc(-c3c4nc(c(-c5c(F)c(F)c(F)c(F)c5F)c5ccc([nH]5)c(-c5c(F)c(F)c(F)c(F)c5F)c5nc(c(-c6c(F)c(F)c(F)c(F)c6F)c6ccc3[nH]6)C=C5)C=C4)cc2)CCN(c2nccc3occc23)CC1
REMARK SMILES IDX 13 1 12 2 11 3 10 4 8 5 9 6 7 8 81 9 94 10 82 11 93 12 83 13
REMARK SMILES IDX 6 14 1 15 2 16 3 17 4 18 5 19 84 20 85 21 92 22 86 23 88 24
REMARK SMILES IDX 91 25 87 26 89 27 90 28 14 29 15 30 16 31 17 33 18 34 19 35
REMARK SMILES IDX 80 36 20 37 79 38 21 39 22 40 23 41 73 42 24 43 78 44 72 45
REMARK SMILES IDX 74 46 25 47 77 48 71 49 70 50 26 52 58 53 38 54 57 55 39 56
REMARK SMILES IDX 42 57 56 58 75 59 40 60 41 61 55 63 76 64 43 65 27 66 28 67
REMARK SMILES IDX 36 68 29 69 30 70 34 71 37 72 31 73 32 74 35 75 33 76 59 77
REMARK SMILES IDX 60 78 68 79 61 80 62 81 66 82 69 83 63 84 64 85 67 86 65 87
REMARK SMILES IDX 44 88 45 89 53 90 46 91 47 92 51 93 54 94 48 95 49 96 52 97
REMARK SMILES IDX 50 98
REMARK H PARENT 10 7 15 32 74 51 42 62
REMARK Flexibility Score: inf
ROOT
ATOM      1  C   UNL A   1      38.670  22.180  25.847  1.00  0.00     0.023 C 
ENDROOT
BRANCH   1   2
ATOM      2  C   UNL A   1      37.979  20.965  25.214  1.00  0.00     0.023 C 
BRANCH   2   3
ATOM      3  C   UNL A   1      36.526  21.186  24.779  1.00  0.00     0.116 C 
BRANCH   3   4
ATOM      4  N   UNL A   1      35.628  21.123  25.915  1.00  0.00    -0.354 N 
ATOM      5  C   UNL A   1      34.610  21.949  26.307  1.00  0.00     0.246 C 
ATOM      6  O   UNL A   1      34.400  21.906  27.524  1.00  0.00    -0.272 OA
ATOM      7  H   UNL A   1      35.776  20.351  26.507  1.00  0.00     0.163 HD
BRANCH   5   8
ATOM      8  C   UNL A   1      33.828  22.899  25.304  1.00  0.00     0.127 C 
ATOM      9  C   UNL A   1      32.817  23.650  26.206  1.00  0.00     0.060 C 
ATOM     10  C   UNL A   1      34.874  23.779  24.576  1.00  0.00     0.060 C 
ATOM     11  C   UNL A   1      32.794  25.179  26.191  1.00  0.00     0.121 C 
ATOM     12  C   UNL A   1      34.429  25.207  24.308  1.00  0.00     0.121 C 
ATOM     13  N   UNL A   1      33.929  25.844  25.527  1.00  0.00    -0.356 N 
BRANCH   8  14
ATOM     14  N   UNL A   1      33.121  22.078  24.252  1.00  0.00    -0.320 N 
ATOM     15  C   UNL A   1      32.589  19.844  25.450  1.00  0.00     0.087 C 
ATOM     16  C   UNL A   1      32.635  20.773  24.295  1.00  0.00     0.106 A 
ATOM     17  N   UNL A   1      32.164  20.403  23.118  1.00  0.00    -0.242 NA
ATOM     18  C   UNL A   1      32.219  21.499  22.319  1.00  0.00     0.131 A 
ATOM     19  C   UNL A   1      32.715  22.565  23.020  1.00  0.00     0.108 A 
ENDBRANCH   8  14
BRANCH  13  20
ATOM     20  C   UNL A   1      33.484  27.176  25.256  1.00  0.00     0.139 A 
ATOM     21  N   UNL A   1      32.509  27.295  24.304  1.00  0.00    -0.238 NA
ATOM     22  C   UNL A   1      33.699  28.305  26.087  1.00  0.00     0.063 A 
ATOM     23  C   UNL A   1      31.588  28.274  24.381  1.00  0.00     0.117 A 
ATOM     24  C   UNL A   1      32.663  29.232  26.166  1.00  0.00     0.139 A 
ATOM     25  C   UNL A   1      34.718  28.830  26.937  1.00  0.00     0.054 A 
ATOM     26  C   UNL A   1      31.514  29.194  25.401  1.00  0.00     0.068 A 
ATOM     27  O   UNL A   1      32.945  30.204  27.073  1.00  0.00    -0.464 OA
ATOM     28  C   UNL A   1      34.222  29.997  27.480  1.00  0.00     0.196 A 
ENDBRANCH  13  20
ENDBRANCH   5   8
ENDBRANCH   3   4
ENDBRANCH   2   3
ENDBRANCH   1   2
BRANCH   1  29
ATOM     29  C   UNL A   1      39.861  21.832  26.729  1.00  0.00     0.116 C 
BRANCH  29  30
ATOM     30  N   UNL A   1      41.129  21.951  26.018  1.00  0.00    -0.352 N 
ATOM     31  C   UNL A   1      41.886  23.084  25.792  1.00  0.00     0.251 C 
ATOM     32  H   UNL A   1      41.493  21.112  25.653  1.00  0.00     0.163 HD
ATOM     33  O   UNL A   1      42.752  23.106  24.942  1.00  0.00    -0.269 OA
BRANCH  31  34
ATOM     34  C   UNL A   1      41.602  24.282  26.601  1.00  0.00     0.039 A 
ATOM     35  C   UNL A   1      42.169  24.421  27.869  1.00  0.00     0.014 A 
ATOM     36  C   UNL A   1      40.809  25.288  26.054  1.00  0.00     0.014 A 
ATOM     37  C   UNL A   1      42.012  25.626  28.547  1.00  0.00     0.010 A 
ATOM     38  C   UNL A   1      40.744  26.514  26.677  1.00  0.00     0.010 A 
ATOM     39  C   UNL A   1      41.323  26.685  27.935  1.00  0.00    -0.014 A 
BRANCH  39  40
ATOM     40  C   UNL A   1      41.316  28.010  28.557  1.00  0.00     0.031 A 
ATOM     41  C   UNL A   1      42.378  28.957  28.101  1.00  0.00     0.074 A 
ATOM     42  C   UNL A   1      40.295  28.456  29.319  1.00  0.00     0.049 A 
ATOM     43  N   UNL A   1      43.252  29.578  28.826  1.00  0.00    -0.248 NA
ATOM     44  C   UNL A   1      42.525  29.203  26.658  1.00  0.00     0.031 C 
ATOM     45  C   UNL A   1      39.031  27.780  29.630  1.00  0.00     0.029 A 
ATOM     46  N   UNL A   1      40.127  29.686  29.880  1.00  0.00    -0.354 N 
ATOM     47  C   UNL A   1      43.969  30.406  27.962  1.00  0.00     0.074 A 
ATOM     48  C   UNL A   1      43.556  30.050  26.628  1.00  0.00     0.031 C 
ATOM     49  C   UNL A   1      38.147  28.680  30.110  1.00  0.00     0.029 A 
ATOM     50  C   UNL A   1      38.828  29.948  30.293  1.00  0.00     0.049 A 
ATOM     51  H   UNL A   1      40.863  30.332  29.985  1.00  0.00     0.167 HD
ATOM     52  C   UNL A   1      44.714  31.448  28.427  1.00  0.00     0.037 A 
ATOM     53  C   UNL A   1      38.333  31.132  30.724  1.00  0.00     0.037 A 
ATOM     54  C   UNL A   1      44.988  31.311  29.834  1.00  0.00     0.049 A 
ATOM     55  C   UNL A   1      39.478  31.966  31.157  1.00  0.00     0.074 A 
ATOM     56  C   UNL A   1      45.632  30.366  30.610  1.00  0.00     0.029 A 
ATOM     57  N   UNL A   1      44.272  32.078  30.718  1.00  0.00    -0.354 N 
ATOM     58  N   UNL A   1      40.201  31.715  32.211  1.00  0.00    -0.248 NA
ATOM     59  C   UNL A   1      40.091  32.850  30.176  1.00  0.00     0.031 C 
ATOM     60  C   UNL A   1      44.869  30.296  31.812  1.00  0.00     0.029 A 
ATOM     61  C   UNL A   1      43.847  31.241  31.717  1.00  0.00     0.049 A 
ATOM     62  H   UNL A   1      44.098  33.045  30.649  1.00  0.00     0.167 HD
ATOM     63  C   UNL A   1      41.497  32.022  31.826  1.00  0.00     0.074 A 
ATOM     64  C   UNL A   1      41.353  32.823  30.614  1.00  0.00     0.031 C 
ATOM     65  C   UNL A   1      42.563  31.359  32.362  1.00  0.00     0.037 A 
BRANCH  52  66
ATOM     66  C   UNL A   1      44.923  32.758  27.701  1.00  0.00     0.064 A 
ATOM     67  C   UNL A   1      46.166  33.015  27.083  1.00  0.00     0.173 A 
ATOM     68  C   UNL A   1      44.079  33.877  27.852  1.00  0.00     0.173 A 
ATOM     69  F   UNL A   1      47.055  32.028  26.894  1.00  0.00    -0.203 F 
ATOM     70  C   UNL A   1      46.566  34.309  26.734  1.00  0.00     0.198 A 
ATOM     71  C   UNL A   1      44.460  35.158  27.454  1.00  0.00     0.198 A 
ATOM     72  F   UNL A   1      42.907  33.801  28.492  1.00  0.00    -0.203 F 
ATOM     73  F   UNL A   1      47.807  34.521  26.276  1.00  0.00    -0.200 F 
ATOM     74  C   UNL A   1      45.716  35.380  26.928  1.00  0.00     0.200 A 
ATOM     75  F   UNL A   1      43.629  36.188  27.665  1.00  0.00    -0.200 F 
ATOM     76  F   UNL A   1      46.121  36.629  26.659  1.00  0.00    -0.200 F 
ENDBRANCH  52  66
BRANCH  53  77
ATOM     77  C   UNL A   1      36.961  31.666  30.585  1.00  0.00     0.064 A 
ATOM     78  C   UNL A   1      36.126  31.827  31.700  1.00  0.00     0.173 A 
ATOM     79  C   UNL A   1      36.537  32.277  29.388  1.00  0.00     0.173 A 
ATOM     80  F   UNL A   1      36.477  31.310  32.887  1.00  0.00    -0.203 F 
ATOM     81  C   UNL A   1      34.950  32.580  31.632  1.00  0.00     0.198 A 
ATOM     82  C   UNL A   1      35.359  33.019  29.318  1.00  0.00     0.198 A 
ATOM     83  F   UNL A   1      37.304  32.245  28.288  1.00  0.00    -0.203 F 
ATOM     84  F   UNL A   1      34.211  32.766  32.734  1.00  0.00    -0.200 F 
ATOM     85  C   UNL A   1      34.573  33.185  30.444  1.00  0.00     0.200 A 
ATOM     86  F   UNL A   1      35.023  33.626  28.170  1.00  0.00    -0.200 F 
ATOM     87  F   UNL A   1      33.479  33.958  30.392  1.00  0.00    -0.200 F 
ENDBRANCH  53  77
BRANCH  65  88
ATOM     88  C   UNL A   1      42.315  30.495  33.567  1.00  0.00     0.064 A 
ATOM     89  C   UNL A   1      42.337  30.965  34.892  1.00  0.00     0.173 A 
ATOM     90  C   UNL A   1      41.931  29.164  33.366  1.00  0.00     0.173 A 
ATOM     91  F   UNL A   1      42.579  32.252  35.165  1.00  0.00    -0.203 F 
ATOM     92  C   UNL A   1      42.061  30.123  35.966  1.00  0.00     0.198 A 
ATOM     93  C   UNL A   1      41.614  28.334  34.438  1.00  0.00     0.198 A 
ATOM     94  F   UNL A   1      41.827  28.673  32.122  1.00  0.00    -0.203 F 
ATOM     95  F   UNL A   1      42.120  30.591  37.221  1.00  0.00    -0.200 F 
ATOM     96  C   UNL A   1      41.695  28.807  35.737  1.00  0.00     0.200 A 
ATOM     97  F   UNL A   1      41.209  27.076  34.210  1.00  0.00    -0.200 F 
ATOM     98  F   UNL A   1      41.398  28.003  36.769  1.00  0.00    -0.200 F 
ENDBRANCH  65  88
ENDBRANCH  39  40
ENDBRANCH  31  34
ENDBRANCH  29  30
ENDBRANCH   1  29
TORSDOF 13
ENDMDL
