MODEL 1
REMARK VINA RESULT:     -11.5      0.000      0.000
REMARK SMILES COC(=O)[C@H]1CCN(C(=O)CC(=O)NCCCCNC(=O)c2ccc(-c3c4nc(c(-c5c(F)c(F)c(F)c(F)c5F)c5ccc([nH]5)c(-c5c(F)c(F)c(F)c(F)c5F)c5nc(c(-c6c(F)c(F)c(F)c(F)c6F)c6ccc3[nH]6)C=C5)C=C4)cc2)C1
REMARK SMILES IDX 15 1 14 2 12 3 13 4 11 6 9 7 10 8 8 9 5 10 6 11 85 12 7 13
REMARK SMILES IDX 3 14 4 15 2 16 1 17 16 18 17 19 18 20 19 21 20 22 21 24
REMARK SMILES IDX 22 25 23 26 84 27 24 28 83 29 25 30 26 31 27 32 77 33 28 34
REMARK SMILES IDX 82 35 76 36 78 37 29 38 81 39 75 40 74 41 30 43 62 44 42 45
REMARK SMILES IDX 61 46 43 47 46 48 60 49 79 50 44 51 45 52 59 54 80 55 47 56
REMARK SMILES IDX 31 57 32 58 40 59 33 60 34 61 38 62 41 63 35 64 36 65 39 66
REMARK SMILES IDX 37 67 63 68 64 69 72 70 65 71 66 72 70 73 73 74 67 75 68 76
REMARK SMILES IDX 71 77 69 78 48 79 49 80 57 81 50 82 51 83 55 84 58 85 52 86
REMARK SMILES IDX 53 87 56 88 54 89
REMARK H PARENT 14 5 19 23 78 42 46 53
REMARK Flexibility Score: inf
ROOT
ATOM      1  C   UNL A   1      36.123  22.085  24.531  1.00  0.00     0.116 C 
ENDROOT
BRANCH   1   2
ATOM      2  N   UNL A   1      35.076  22.777  25.263  1.00  0.00    -0.356 N 
ATOM      3  C   UNL A   1      33.736  22.791  25.018  1.00  0.00     0.229 C 
ATOM      4  O   UNL A   1      33.017  23.515  25.709  1.00  0.00    -0.275 OA
ATOM      5  H   UNL A   1      35.375  23.305  26.039  1.00  0.00     0.163 HD
BRANCH   3   6
ATOM      6  C   UNL A   1      33.155  21.905  23.950  1.00  0.00     0.200 C 
BRANCH   6   7
ATOM      7  C   UNL A   1      32.612  20.600  24.467  1.00  0.00     0.232 C 
ATOM      8  O   UNL A   1      31.785  20.588  25.381  1.00  0.00    -0.274 OA
BRANCH   7   9
ATOM      9  N   UNL A   1      33.066  19.435  23.901  1.00  0.00    -0.341 N 
ATOM     10  C   UNL A   1      34.182  17.351  23.754  1.00  0.00     0.120 C 
ATOM     11  C   UNL A   1      32.900  17.330  22.916  1.00  0.00     0.038 C 
ATOM     12  C   UNL A   1      34.068  18.627  24.575  1.00  0.00     0.134 C 
ATOM     13  C   UNL A   1      32.626  18.804  22.670  1.00  0.00     0.120 C 
BRANCH  10  14
ATOM     14  C   UNL A   1      34.310  16.180  24.690  1.00  0.00     0.310 C 
ATOM     15  O   UNL A   1      35.288  15.940  25.388  1.00  0.00    -0.252 OA
BRANCH  14  16
ATOM     16  O   UNL A   1      33.203  15.391  24.597  1.00  0.00    -0.469 OA
ATOM     17  C   UNL A   1      32.551  15.151  25.846  1.00  0.00     0.282 C 
ENDBRANCH  14  16
ENDBRANCH  10  14
ENDBRANCH   7   9
ENDBRANCH   6   7
ENDBRANCH   3   6
ENDBRANCH   1   2
BRANCH   1  18
ATOM     18  C   UNL A   1      36.617  20.851  25.288  1.00  0.00     0.023 C 
BRANCH  18  19
ATOM     19  C   UNL A   1      37.969  20.316  24.809  1.00  0.00     0.023 C 
BRANCH  19  20
ATOM     20  C   UNL A   1      39.111  20.442  25.812  1.00  0.00     0.116 C 
BRANCH  20  21
ATOM     21  N   UNL A   1      39.981  19.275  25.834  1.00  0.00    -0.352 N 
ATOM     22  C   UNL A   1      41.340  19.209  26.039  1.00  0.00     0.251 C 
ATOM     23  H   UNL A   1      39.535  18.412  25.679  1.00  0.00     0.163 HD
ATOM     24  O   UNL A   1      41.940  18.149  25.894  1.00  0.00    -0.269 OA
BRANCH  22  25
ATOM     25  C   UNL A   1      42.084  20.436  26.393  1.00  0.00     0.039 A 
ATOM     26  C   UNL A   1      42.640  21.202  25.366  1.00  0.00     0.014 A 
ATOM     27  C   UNL A   1      42.189  20.853  27.721  1.00  0.00     0.014 A 
ATOM     28  C   UNL A   1      43.214  22.440  25.663  1.00  0.00     0.010 A 
ATOM     29  C   UNL A   1      42.700  22.116  28.008  1.00  0.00     0.010 A 
ATOM     30  C   UNL A   1      43.193  22.933  26.978  1.00  0.00    -0.014 A 
BRANCH  30  31
ATOM     31  C   UNL A   1      43.618  24.322  27.290  1.00  0.00     0.031 A 
ATOM     32  C   UNL A   1      42.619  25.334  27.775  1.00  0.00     0.074 A 
ATOM     33  C   UNL A   1      44.892  24.691  27.051  1.00  0.00     0.049 A 
ATOM     34  N   UNL A   1      42.774  26.618  27.973  1.00  0.00    -0.248 NA
ATOM     35  C   UNL A   1      41.263  24.839  28.058  1.00  0.00     0.031 C 
ATOM     36  C   UNL A   1      45.949  23.810  26.549  1.00  0.00     0.029 A 
ATOM     37  N   UNL A   1      45.514  25.911  27.175  1.00  0.00    -0.354 N 
ATOM     38  C   UNL A   1      41.540  27.084  28.406  1.00  0.00     0.074 A 
ATOM     39  C   UNL A   1      40.633  25.957  28.390  1.00  0.00     0.031 C 
ATOM     40  C   UNL A   1      47.084  24.514  26.413  1.00  0.00     0.029 A 
ATOM     41  C   UNL A   1      46.826  25.905  26.765  1.00  0.00     0.049 A 
ATOM     42  H   UNL A   1      45.062  26.712  27.525  1.00  0.00     0.167 HD
ATOM     43  C   UNL A   1      41.203  28.336  28.801  1.00  0.00     0.037 A 
ATOM     44  C   UNL A   1      47.712  26.914  26.655  1.00  0.00     0.037 A 
ATOM     45  C   UNL A   1      42.110  29.455  28.818  1.00  0.00     0.049 A 
ATOM     46  C   UNL A   1      47.289  28.307  27.040  1.00  0.00     0.074 A 
ATOM     47  C   UNL A   1      41.869  30.753  29.232  1.00  0.00     0.029 A 
ATOM     48  N   UNL A   1      43.430  29.409  28.397  1.00  0.00    -0.354 N 
ATOM     49  N   UNL A   1      46.136  28.723  27.504  1.00  0.00    -0.248 NA
ATOM     50  C   UNL A   1      48.289  29.373  26.883  1.00  0.00     0.031 C 
ATOM     51  C   UNL A   1      43.026  31.506  29.013  1.00  0.00     0.029 A 
ATOM     52  C   UNL A   1      44.007  30.665  28.514  1.00  0.00     0.049 A 
ATOM     53  H   UNL A   1      43.891  28.605  28.063  1.00  0.00     0.167 HD
ATOM     54  C   UNL A   1      46.280  30.088  27.716  1.00  0.00     0.074 A 
ATOM     55  C   UNL A   1      47.640  30.426  27.358  1.00  0.00     0.031 C 
ATOM     56  C   UNL A   1      45.365  30.984  28.161  1.00  0.00     0.037 A 
BRANCH  43  57
ATOM     57  C   UNL A   1      39.795  28.569  29.264  1.00  0.00     0.064 A 
ATOM     58  C   UNL A   1      39.417  28.341  30.596  1.00  0.00     0.173 A 
ATOM     59  C   UNL A   1      38.833  29.101  28.391  1.00  0.00     0.173 A 
ATOM     60  F   UNL A   1      40.297  27.826  31.468  1.00  0.00    -0.203 F 
ATOM     61  C   UNL A   1      38.126  28.623  31.033  1.00  0.00     0.198 A 
ATOM     62  C   UNL A   1      37.552  29.409  28.839  1.00  0.00     0.198 A 
ATOM     63  F   UNL A   1      39.145  29.344  27.109  1.00  0.00    -0.203 F 
ATOM     64  F   UNL A   1      37.779  28.367  32.302  1.00  0.00    -0.200 F 
ATOM     65  C   UNL A   1      37.197  29.166  30.158  1.00  0.00     0.200 A 
ATOM     66  F   UNL A   1      36.660  29.949  27.996  1.00  0.00    -0.200 F 
ATOM     67  F   UNL A   1      35.961  29.457  30.585  1.00  0.00    -0.200 F 
ENDBRANCH  43  57
BRANCH  44  68
ATOM     68  C   UNL A   1      49.083  26.659  26.132  1.00  0.00     0.064 A 
ATOM     69  C   UNL A   1      50.115  26.237  26.982  1.00  0.00     0.173 A 
ATOM     70  C   UNL A   1      49.403  26.884  24.784  1.00  0.00     0.173 A 
ATOM     71  F   UNL A   1      49.868  26.029  28.284  1.00  0.00    -0.203 F 
ATOM     72  C   UNL A   1      51.419  26.086  26.513  1.00  0.00     0.198 A 
ATOM     73  C   UNL A   1      50.698  26.696  24.309  1.00  0.00     0.198 A 
ATOM     74  F   UNL A   1      48.453  27.285  23.926  1.00  0.00    -0.203 F 
ATOM     75  F   UNL A   1      52.398  25.751  27.364  1.00  0.00    -0.200 F 
ATOM     76  C   UNL A   1      51.709  26.312  25.177  1.00  0.00     0.200 A 
ATOM     77  F   UNL A   1      50.969  26.901  23.012  1.00  0.00    -0.200 F 
ATOM     78  F   UNL A   1      52.963  26.176  24.727  1.00  0.00    -0.200 F 
ENDBRANCH  44  68
BRANCH  56  79
ATOM     79  C   UNL A   1      45.811  32.411  28.307  1.00  0.00     0.064 A 
ATOM     80  C   UNL A   1      46.386  32.881  29.498  1.00  0.00     0.173 A 
ATOM     81  C   UNL A   1      45.701  33.305  27.232  1.00  0.00     0.173 A 
ATOM     82  F   UNL A   1      46.498  32.070  30.560  1.00  0.00    -0.203 F 
ATOM     83  C   UNL A   1      46.814  34.202  29.613  1.00  0.00     0.198 A 
ATOM     84  C   UNL A   1      46.160  34.615  27.340  1.00  0.00     0.198 A 
ATOM     85  F   UNL A   1      45.164  32.904  26.071  1.00  0.00    -0.203 F 
ATOM     86  F   UNL A   1      47.316  34.642  30.774  1.00  0.00    -0.200 F 
ATOM     87  C   UNL A   1      46.709  35.064  28.531  1.00  0.00     0.200 A 
ATOM     88  F   UNL A   1      46.073  35.443  26.290  1.00  0.00    -0.200 F 
ATOM     89  F   UNL A   1      47.132  36.331  28.640  1.00  0.00    -0.200 F 
ENDBRANCH  56  79
ENDBRANCH  30  31
ENDBRANCH  22  25
ENDBRANCH  20  21
ENDBRANCH  19  20
ENDBRANCH  18  19
ENDBRANCH   1  18
TORSDOF 15
ENDMDL
MODEL 2
REMARK VINA RESULT:     -11.4      6.598     10.858
REMARK SMILES COC(=O)[C@H]1CCN(C(=O)CC(=O)NCCCCNC(=O)c2ccc(-c3c4nc(c(-c5c(F)c(F)c(F)c(F)c5F)c5ccc([nH]5)c(-c5c(F)c(F)c(F)c(F)c5F)c5nc(c(-c6c(F)c(F)c(F)c(F)c6F)c6ccc3[nH]6)C=C5)C=C4)cc2)C1
REMARK SMILES IDX 15 1 14 2 12 3 13 4 11 6 9 7 10 8 8 9 5 10 6 11 85 12 7 13
REMARK SMILES IDX 3 14 4 15 2 16 1 17 16 18 17 19 18 20 19 21 20 22 21 24
REMARK SMILES IDX 22 25 23 26 84 27 24 28 83 29 25 30 26 31 27 32 77 33 28 34
REMARK SMILES IDX 82 35 76 36 78 37 29 38 81 39 75 40 74 41 30 43 62 44 42 45
REMARK SMILES IDX 61 46 43 47 46 48 60 49 79 50 44 51 45 52 59 54 80 55 47 56
REMARK SMILES IDX 31 57 32 58 40 59 33 60 34 61 38 62 41 63 35 64 36 65 39 66
REMARK SMILES IDX 37 67 63 68 64 69 72 70 65 71 66 72 70 73 73 74 67 75 68 76
REMARK SMILES IDX 71 77 69 78 48 79 49 80 57 81 50 82 51 83 55 84 58 85 52 86
REMARK SMILES IDX 53 87 56 88 54 89
REMARK H PARENT 14 5 19 23 78 42 46 53
REMARK Flexibility Score: inf
ROOT
ATOM      1  C   UNL A   1      33.257  30.020  26.607  1.00  0.00     0.116 C 
ENDROOT
BRANCH   1   2
ATOM      2  N   UNL A   1      33.570  29.668  25.233  1.00  0.00    -0.356 N 
ATOM      3  C   UNL A   1      33.867  28.441  24.717  1.00  0.00     0.229 C 
ATOM      4  O   UNL A   1      34.191  28.364  23.530  1.00  0.00    -0.275 OA
ATOM      5  H   UNL A   1      33.567  30.413  24.590  1.00  0.00     0.163 HD
BRANCH   3   6
ATOM      6  C   UNL A   1      33.758  27.214  25.579  1.00  0.00     0.200 C 
BRANCH   6   7
ATOM      7  C   UNL A   1      32.390  26.585  25.576  1.00  0.00     0.232 C 
ATOM      8  O   UNL A   1      32.024  25.885  26.523  1.00  0.00    -0.274 OA
BRANCH   7   9
ATOM      9  N   UNL A   1      31.573  26.806  24.495  1.00  0.00    -0.341 N 
ATOM     10  C   UNL A   1      29.933  27.873  23.160  1.00  0.00     0.120 C 
ATOM     11  C   UNL A   1      31.041  27.289  22.279  1.00  0.00     0.038 C 
ATOM     12  C   UNL A   1      30.490  27.771  24.573  1.00  0.00     0.134 C 
ATOM     13  C   UNL A   1      31.663  26.225  23.168  1.00  0.00     0.120 C 
BRANCH  10  14
ATOM     14  C   UNL A   1      29.624  29.315  22.862  1.00  0.00     0.310 C 
ATOM     15  O   UNL A   1      29.767  30.243  23.650  1.00  0.00    -0.252 OA
BRANCH  14  16
ATOM     16  O   UNL A   1      29.101  29.427  21.609  1.00  0.00    -0.469 OA
ATOM     17  C   UNL A   1      28.623  30.735  21.289  1.00  0.00     0.282 C 
ENDBRANCH  14  16
ENDBRANCH  10  14
ENDBRANCH   7   9
ENDBRANCH   6   7
ENDBRANCH   3   6
ENDBRANCH   1   2
BRANCH   1  18
ATOM     18  C   UNL A   1      31.808  30.488  26.751  1.00  0.00     0.023 C 
BRANCH  18  19
ATOM     19  C   UNL A   1      31.638  32.008  26.806  1.00  0.00     0.023 C 
BRANCH  19  20
ATOM     20  C   UNL A   1      32.825  32.775  27.379  1.00  0.00     0.116 C 
BRANCH  20  21
ATOM     21  N   UNL A   1      32.511  34.163  27.687  1.00  0.00    -0.352 N 
ATOM     22  C   UNL A   1      33.059  34.985  28.644  1.00  0.00     0.251 C 
ATOM     23  H   UNL A   1      31.806  34.570  27.134  1.00  0.00     0.163 HD
ATOM     24  O   UNL A   1      32.584  36.095  28.856  1.00  0.00    -0.269 OA
BRANCH  22  25
ATOM     25  C   UNL A   1      34.202  34.505  29.449  1.00  0.00     0.039 A 
ATOM     26  C   UNL A   1      33.948  33.927  30.696  1.00  0.00     0.014 A 
ATOM     27  C   UNL A   1      35.507  34.578  28.957  1.00  0.00     0.014 A 
ATOM     28  C   UNL A   1      34.993  33.331  31.404  1.00  0.00     0.010 A 
ATOM     29  C   UNL A   1      36.534  33.925  29.632  1.00  0.00     0.010 A 
ATOM     30  C   UNL A   1      36.282  33.272  30.849  1.00  0.00    -0.014 A 
BRANCH  30  31
ATOM     31  C   UNL A   1      37.363  32.478  31.489  1.00  0.00     0.031 A 
ATOM     32  C   UNL A   1      37.902  32.870  32.835  1.00  0.00     0.074 A 
ATOM     33  C   UNL A   1      37.917  31.453  30.811  1.00  0.00     0.049 A 
ATOM     34  N   UNL A   1      38.924  32.381  33.490  1.00  0.00    -0.248 NA
ATOM     35  C   UNL A   1      37.211  33.967  33.529  1.00  0.00     0.031 C 
ATOM     36  C   UNL A   1      37.504  30.995  29.483  1.00  0.00     0.029 A 
ATOM     37  N   UNL A   1      38.963  30.622  31.135  1.00  0.00    -0.354 N 
ATOM     38  C   UNL A   1      38.998  33.107  34.671  1.00  0.00     0.074 A 
ATOM     39  C   UNL A   1      37.951  34.105  34.620  1.00  0.00     0.031 C 
ATOM     40  C   UNL A   1      38.282  29.968  29.108  1.00  0.00     0.029 A 
ATOM     41  C   UNL A   1      39.283  29.727  30.142  1.00  0.00     0.049 A 
ATOM     42  H   UNL A   1      39.438  30.665  31.995  1.00  0.00     0.167 HD
ATOM     43  C   UNL A   1      39.849  32.939  35.711  1.00  0.00     0.037 A 
ATOM     44  C   UNL A   1      40.288  28.834  30.059  1.00  0.00     0.037 A 
ATOM     45  C   UNL A   1      40.888  31.943  35.759  1.00  0.00     0.049 A 
ATOM     46  C   UNL A   1      41.259  28.716  31.205  1.00  0.00     0.074 A 
ATOM     47  C   UNL A   1      41.779  31.676  36.784  1.00  0.00     0.029 A 
ATOM     48  N   UNL A   1      41.180  31.054  34.736  1.00  0.00    -0.354 N 
ATOM     49  N   UNL A   1      41.281  29.367  32.342  1.00  0.00    -0.248 NA
ATOM     50  C   UNL A   1      42.347  27.739  31.056  1.00  0.00     0.031 C 
ATOM     51  C   UNL A   1      42.643  30.661  36.362  1.00  0.00     0.029 A 
ATOM     52  C   UNL A   1      42.257  30.258  35.095  1.00  0.00     0.049 A 
ATOM     53  H   UNL A   1      40.695  30.997  33.881  1.00  0.00     0.167 HD
ATOM     54  C   UNL A   1      42.365  28.865  33.049  1.00  0.00     0.074 A 
ATOM     55  C   UNL A   1      42.959  27.834  32.227  1.00  0.00     0.031 C 
ATOM     56  C   UNL A   1      42.832  29.229  34.268  1.00  0.00     0.037 A 
BRANCH  43  57
ATOM     57  C   UNL A   1      39.690  33.843  36.899  1.00  0.00     0.064 A 
ATOM     58  C   UNL A   1      40.270  35.120  36.929  1.00  0.00     0.173 A 
ATOM     59  C   UNL A   1      38.886  33.462  37.985  1.00  0.00     0.173 A 
ATOM     60  F   UNL A   1      41.055  35.527  35.919  1.00  0.00    -0.203 F 
ATOM     61  C   UNL A   1      40.063  35.977  38.005  1.00  0.00     0.198 A 
ATOM     62  C   UNL A   1      38.657  34.334  39.047  1.00  0.00     0.198 A 
ATOM     63  F   UNL A   1      38.303  32.254  38.004  1.00  0.00    -0.203 F 
ATOM     64  F   UNL A   1      40.654  37.180  38.025  1.00  0.00    -0.200 F 
ATOM     65  C   UNL A   1      39.249  35.588  39.058  1.00  0.00     0.200 A 
ATOM     66  F   UNL A   1      37.857  33.963  40.056  1.00  0.00    -0.200 F 
ATOM     67  F   UNL A   1      39.033  36.422  40.085  1.00  0.00    -0.200 F 
ENDBRANCH  43  57
BRANCH  44  68
ATOM     68  C   UNL A   1      40.455  27.996  28.840  1.00  0.00     0.064 A 
ATOM     69  C   UNL A   1      41.233  28.438  27.760  1.00  0.00     0.173 A 
ATOM     70  C   UNL A   1      39.800  26.763  28.706  1.00  0.00     0.173 A 
ATOM     71  F   UNL A   1      41.864  29.620  27.826  1.00  0.00    -0.203 F 
ATOM     72  C   UNL A   1      41.318  27.697  26.581  1.00  0.00     0.198 A 
ATOM     73  C   UNL A   1      39.915  26.006  27.543  1.00  0.00     0.198 A 
ATOM     74  F   UNL A   1      39.045  26.291  29.710  1.00  0.00    -0.203 F 
ATOM     75  F   UNL A   1      42.010  28.178  25.540  1.00  0.00    -0.200 F 
ATOM     76  C   UNL A   1      40.661  26.481  26.475  1.00  0.00     0.200 A 
ATOM     77  F   UNL A   1      39.291  24.824  27.452  1.00  0.00    -0.200 F 
ATOM     78  F   UNL A   1      40.735  25.773  25.340  1.00  0.00    -0.200 F 
ENDBRANCH  44  68
BRANCH  56  79
ATOM     79  C   UNL A   1      44.030  28.493  34.797  1.00  0.00     0.064 A 
ATOM     80  C   UNL A   1      45.333  28.969  34.591  1.00  0.00     0.173 A 
ATOM     81  C   UNL A   1      43.870  27.323  35.555  1.00  0.00     0.173 A 
ATOM     82  F   UNL A   1      45.541  30.074  33.859  1.00  0.00    -0.203 F 
ATOM     83  C   UNL A   1      46.434  28.288  35.104  1.00  0.00     0.198 A 
ATOM     84  C   UNL A   1      44.970  26.663  36.095  1.00  0.00     0.198 A 
ATOM     85  F   UNL A   1      42.644  26.828  35.785  1.00  0.00    -0.203 F 
ATOM     86  F   UNL A   1      47.672  28.734  34.855  1.00  0.00    -0.200 F 
ATOM     87  C   UNL A   1      46.250  27.141  35.863  1.00  0.00     0.200 A 
ATOM     88  F   UNL A   1      44.790  25.564  36.840  1.00  0.00    -0.200 F 
ATOM     89  F   UNL A   1      47.310  26.494  36.367  1.00  0.00    -0.200 F 
ENDBRANCH  56  79
ENDBRANCH  30  31
ENDBRANCH  22  25
ENDBRANCH  20  21
ENDBRANCH  19  20
ENDBRANCH  18  19
ENDBRANCH   1  18
TORSDOF 15
ENDMDL
MODEL 3
REMARK VINA RESULT:     -11.3      6.854     12.215
REMARK SMILES COC(=O)[C@H]1CCN(C(=O)CC(=O)NCCCCNC(=O)c2ccc(-c3c4nc(c(-c5c(F)c(F)c(F)c(F)c5F)c5ccc([nH]5)c(-c5c(F)c(F)c(F)c(F)c5F)c5nc(c(-c6c(F)c(F)c(F)c(F)c6F)c6ccc3[nH]6)C=C5)C=C4)cc2)C1
REMARK SMILES IDX 15 1 14 2 12 3 13 4 11 6 9 7 10 8 8 9 5 10 6 11 85 12 7 13
REMARK SMILES IDX 3 14 4 15 2 16 1 17 16 18 17 19 18 20 19 21 20 22 21 24
REMARK SMILES IDX 22 25 23 26 84 27 24 28 83 29 25 30 26 31 27 32 77 33 28 34
REMARK SMILES IDX 82 35 76 36 78 37 29 38 81 39 75 40 74 41 30 43 62 44 42 45
REMARK SMILES IDX 61 46 43 47 46 48 60 49 79 50 44 51 45 52 59 54 80 55 47 56
REMARK SMILES IDX 31 57 32 58 40 59 33 60 34 61 38 62 41 63 35 64 36 65 39 66
REMARK SMILES IDX 37 67 63 68 64 69 72 70 65 71 66 72 70 73 73 74 67 75 68 76
REMARK SMILES IDX 71 77 69 78 48 79 49 80 57 81 50 82 51 83 55 84 58 85 52 86
REMARK SMILES IDX 53 87 56 88 54 89
REMARK H PARENT 14 5 19 23 78 42 46 53
REMARK Flexibility Score: inf
ROOT
ATOM      1  C   UNL A   1      32.465  29.689  24.971  1.00  0.00     0.116 C 
ENDROOT
BRANCH   1   2
ATOM      2  N   UNL A   1      33.023  28.382  24.670  1.00  0.00    -0.356 N 
ATOM      3  C   UNL A   1      32.366  27.207  24.458  1.00  0.00     0.229 C 
ATOM      4  O   UNL A   1      33.031  26.181  24.300  1.00  0.00    -0.275 OA
ATOM      5  H   UNL A   1      34.005  28.340  24.612  1.00  0.00     0.163 HD
BRANCH   3   6
ATOM      6  C   UNL A   1      30.865  27.185  24.378  1.00  0.00     0.200 C 
BRANCH   6   7
ATOM      7  C   UNL A   1      30.311  27.795  23.119  1.00  0.00     0.232 C 
ATOM      8  O   UNL A   1      30.795  27.507  22.022  1.00  0.00    -0.274 OA
BRANCH   7   9
ATOM      9  N   UNL A   1      29.265  28.678  23.226  1.00  0.00    -0.341 N 
ATOM     10  C   UNL A   1      28.145  30.764  23.286  1.00  0.00     0.120 C 
ATOM     11  C   UNL A   1      27.261  29.703  22.625  1.00  0.00     0.038 C 
ATOM     12  C   UNL A   1      29.512  30.101  23.383  1.00  0.00     0.134 C 
ATOM     13  C   UNL A   1      27.842  28.399  23.144  1.00  0.00     0.120 C 
BRANCH  10  14
ATOM     14  C   UNL A   1      28.275  32.028  22.480  1.00  0.00     0.310 C 
ATOM     15  O   UNL A   1      28.228  33.164  22.939  1.00  0.00    -0.252 OA
BRANCH  14  16
ATOM     16  O   UNL A   1      28.387  31.724  21.157  1.00  0.00    -0.469 OA
ATOM     17  C   UNL A   1      27.821  32.701  20.282  1.00  0.00     0.282 C 
ENDBRANCH  14  16
ENDBRANCH  10  14
ENDBRANCH   7   9
ENDBRANCH   6   7
ENDBRANCH   3   6
ENDBRANCH   1   2
BRANCH   1  18
ATOM     18  C   UNL A   1      32.324  29.906  26.479  1.00  0.00     0.023 C 
BRANCH  18  19
ATOM     19  C   UNL A   1      31.883  31.318  26.875  1.00  0.00     0.023 C 
BRANCH  19  20
ATOM     20  C   UNL A   1      33.001  32.238  27.354  1.00  0.00     0.116 C 
BRANCH  20  21
ATOM     21  N   UNL A   1      32.562  33.611  27.553  1.00  0.00    -0.352 N 
ATOM     22  C   UNL A   1      33.049  34.561  28.421  1.00  0.00     0.251 C 
ATOM     23  H   UNL A   1      31.810  33.901  26.989  1.00  0.00     0.163 HD
ATOM     24  O   UNL A   1      32.474  35.636  28.553  1.00  0.00    -0.269 OA
BRANCH  22  25
ATOM     25  C   UNL A   1      34.250  34.262  29.229  1.00  0.00     0.039 A 
ATOM     26  C   UNL A   1      34.080  33.723  30.507  1.00  0.00     0.014 A 
ATOM     27  C   UNL A   1      35.531  34.464  28.713  1.00  0.00     0.014 A 
ATOM     28  C   UNL A   1      35.196  33.292  31.227  1.00  0.00     0.010 A 
ATOM     29  C   UNL A   1      36.636  33.973  29.402  1.00  0.00     0.010 A 
ATOM     30  C   UNL A   1      36.477  33.358  30.654  1.00  0.00    -0.014 A 
BRANCH  30  31
ATOM     31  C   UNL A   1      37.652  32.732  31.313  1.00  0.00     0.031 A 
ATOM     32  C   UNL A   1      38.328  31.541  30.695  1.00  0.00     0.074 A 
ATOM     33  C   UNL A   1      38.054  33.188  32.517  1.00  0.00     0.049 A 
ATOM     34  N   UNL A   1      39.278  30.785  31.183  1.00  0.00    -0.248 NA
ATOM     35  C   UNL A   1      37.862  31.137  29.359  1.00  0.00     0.031 C 
ATOM     36  C   UNL A   1      37.459  34.316  33.236  1.00  0.00     0.029 A 
ATOM     37  N   UNL A   1      39.044  32.745  33.361  1.00  0.00    -0.354 N 
ATOM     38  C   UNL A   1      39.526  29.820  30.216  1.00  0.00     0.074 A 
ATOM     39  C   UNL A   1      38.591  30.052  29.137  1.00  0.00     0.031 C 
ATOM     40  C   UNL A   1      38.095  34.479  34.407  1.00  0.00     0.029 A 
ATOM     41  C   UNL A   1      39.106  33.437  34.547  1.00  0.00     0.049 A 
ATOM     42  H   UNL A   1      39.650  32.003  33.138  1.00  0.00     0.167 HD
ATOM     43  C   UNL A   1      40.465  28.843  30.222  1.00  0.00     0.037 A 
ATOM     44  C   UNL A   1      39.870  33.236  35.638  1.00  0.00     0.037 A 
ATOM     45  C   UNL A   1      41.396  28.616  31.297  1.00  0.00     0.049 A 
ATOM     46  C   UNL A   1      40.860  32.101  35.641  1.00  0.00     0.074 A 
ATOM     47  C   UNL A   1      42.404  27.672  31.379  1.00  0.00     0.029 A 
ATOM     48  N   UNL A   1      41.429  29.339  32.480  1.00  0.00    -0.354 N 
ATOM     49  N   UNL A   1      41.126  31.232  34.696  1.00  0.00    -0.248 NA
ATOM     50  C   UNL A   1      41.655  31.915  36.863  1.00  0.00     0.031 C 
ATOM     51  C   UNL A   1      43.013  27.787  32.632  1.00  0.00     0.029 A 
ATOM     52  C   UNL A   1      42.422  28.840  33.310  1.00  0.00     0.049 A 
ATOM     53  H   UNL A   1      40.836  30.094  32.700  1.00  0.00     0.167 HD
ATOM     54  C   UNL A   1      42.130  30.416  35.199  1.00  0.00     0.074 A 
ATOM     55  C   UNL A   1      42.447  30.910  36.521  1.00  0.00     0.031 C 
ATOM     56  C   UNL A   1      42.732  29.348  34.621  1.00  0.00     0.037 A 
BRANCH  43  57
ATOM     57  C   UNL A   1      40.549  27.945  29.022  1.00  0.00     0.064 A 
ATOM     58  C   UNL A   1      39.784  26.772  28.932  1.00  0.00     0.173 A 
ATOM     59  C   UNL A   1      41.340  28.299  27.918  1.00  0.00     0.173 A 
ATOM     60  F   UNL A   1      39.019  26.386  29.964  1.00  0.00    -0.203 F 
ATOM     61  C   UNL A   1      39.818  25.980  27.788  1.00  0.00     0.198 A 
ATOM     62  C   UNL A   1      41.348  27.520  26.764  1.00  0.00     0.198 A 
ATOM     63  F   UNL A   1      42.085  29.414  27.949  1.00  0.00    -0.203 F 
ATOM     64  F   UNL A   1      39.103  24.848  27.738  1.00  0.00    -0.200 F 
ATOM     65  C   UNL A   1      40.591  26.360  26.701  1.00  0.00     0.200 A 
ATOM     66  F   UNL A   1      42.084  27.896  25.709  1.00  0.00    -0.200 F 
ATOM     67  F   UNL A   1      40.608  25.607  25.592  1.00  0.00    -0.200 F 
ENDBRANCH  43  57
BRANCH  44  68
ATOM     68  C   UNL A   1      39.718  34.106  36.837  1.00  0.00     0.064 A 
ATOM     69  C   UNL A   1      40.420  35.315  36.947  1.00  0.00     0.173 A 
ATOM     70  C   UNL A   1      38.910  33.724  37.918  1.00  0.00     0.173 A 
ATOM     71  F   UNL A   1      41.223  35.718  35.951  1.00  0.00    -0.203 F 
ATOM     72  C   UNL A   1      40.349  36.087  38.106  1.00  0.00     0.198 A 
ATOM     73  C   UNL A   1      38.811  34.514  39.061  1.00  0.00     0.198 A 
ATOM     74  F   UNL A   1      38.214  32.578  37.865  1.00  0.00    -0.203 F 
ATOM     75  F   UNL A   1      41.087  37.200  38.212  1.00  0.00    -0.200 F 
ATOM     76  C   UNL A   1      39.543  35.687  39.161  1.00  0.00     0.200 A 
ATOM     77  F   UNL A   1      38.017  34.131  40.070  1.00  0.00    -0.200 F 
ATOM     78  F   UNL A   1      39.481  36.424  40.278  1.00  0.00    -0.200 F 
ENDBRANCH  44  68
BRANCH  56  79
ATOM     79  C   UNL A   1      43.810  28.655  35.404  1.00  0.00     0.064 A 
ATOM     80  C   UNL A   1      43.511  27.638  36.323  1.00  0.00     0.173 A 
ATOM     81  C   UNL A   1      45.159  28.982  35.202  1.00  0.00     0.173 A 
ATOM     82  F   UNL A   1      42.235  27.299  36.565  1.00  0.00    -0.203 F 
ATOM     83  C   UNL A   1      44.522  26.989  37.028  1.00  0.00     0.198 A 
ATOM     84  C   UNL A   1      46.170  28.309  35.883  1.00  0.00     0.198 A 
ATOM     85  F   UNL A   1      45.499  29.944  34.331  1.00  0.00    -0.203 F 
ATOM     86  F   UNL A   1      44.210  26.055  37.935  1.00  0.00    -0.200 F 
ATOM     87  C   UNL A   1      45.850  27.319  36.800  1.00  0.00     0.200 A 
ATOM     88  F   UNL A   1      47.453  28.618  35.652  1.00  0.00    -0.200 F 
ATOM     89  F   UNL A   1      46.822  26.686  37.470  1.00  0.00    -0.200 F 
ENDBRANCH  56  79
ENDBRANCH  30  31
ENDBRANCH  22  25
ENDBRANCH  20  21
ENDBRANCH  19  20
ENDBRANCH  18  19
ENDBRANCH   1  18
TORSDOF 15
ENDMDL
