MODEL 1
REMARK VINA RESULT:     -13.9      0.000      0.000
REMARK SMILES O=C(COc1c(Cl)cc(/C=C2/C(=O)NC(=O)N=C2O)cc1Cl)NCCCCNC(=O)c1ccc(-c2c3nc(c(-c4c(F)c(F)c(F)c(F)c4F)c4ccc([nH]4)c(-c4c(F)c(F)c(F)c(F)c4F)c4nc(c(-c5c(F)c(F)c(F)c(F)c5F)c5ccc2[nH]5)C=C4)C=C3)cc1
REMARK SMILES IDX 24 1 23 2 1 3 2 4 3 6 4 7 5 8 6 9 21 10 7 11 8 12 20 13
REMARK SMILES IDX 22 14 9 15 10 16 11 17 12 18 18 19 13 20 14 21 17 22 15 23
REMARK SMILES IDX 16 25 19 26 25 28 26 29 27 30 28 31 29 32 30 34 31 35 32 36
REMARK SMILES IDX 93 37 33 38 92 39 34 40 35 41 36 42 86 43 37 44 91 45 85 46
REMARK SMILES IDX 87 47 38 48 90 49 84 50 83 51 39 53 71 54 51 55 70 56 52 57
REMARK SMILES IDX 55 58 69 59 88 60 53 61 54 62 68 64 89 65 56 66 40 67 41 68
REMARK SMILES IDX 49 69 42 70 43 71 47 72 50 73 44 74 45 75 48 76 46 77 72 78
REMARK SMILES IDX 73 79 81 80 74 81 75 82 79 83 82 84 76 85 77 86 80 87 78 88
REMARK SMILES IDX 57 89 58 90 66 91 59 92 60 93 64 94 67 95 61 96 62 97 65 98
REMARK SMILES IDX 63 99
REMARK H PARENT 23 5 14 24 19 27 28 33 87 52 55 63
REMARK Flexibility Score: inf
ROOT
ATOM      1  C   UNL A   1      31.779  29.423  27.072  1.00  0.00     0.116 C 
ENDROOT
BRANCH   1   2
ATOM      2  N   UNL A   1      32.468  28.218  26.657  1.00  0.00    -0.353 N 
ATOM      3  O   UNL A   1      30.678  26.782  26.876  1.00  0.00    -0.271 OA
ATOM      4  C   UNL A   1      31.809  27.019  26.463  1.00  0.00     0.257 C 
ATOM      5  H   UNL A   1      33.441  28.254  26.509  1.00  0.00     0.163 HD
BRANCH   4   6
ATOM      6  C   UNL A   1      32.624  25.991  25.677  1.00  0.00     0.329 C 
BRANCH   6   7
ATOM      7  O   UNL A   1      32.858  24.811  26.460  1.00  0.00    -0.481 OA
BRANCH   7   8
ATOM      8  C   UNL A   1      32.718  23.656  25.729  1.00  0.00     0.157 A 
ATOM      9  C   UNL A   1      33.779  23.183  24.951  1.00  0.00     0.085 A 
ATOM     10  C   UNL A   1      31.576  22.855  25.856  1.00  0.00     0.085 A 
ATOM     11  Cl  UNL A   1      35.274  24.016  24.791  1.00  0.00    -0.080 Cl
ATOM     12  C   UNL A   1      33.691  21.950  24.304  1.00  0.00     0.032 A 
ATOM     13  C   UNL A   1      31.489  21.618  25.198  1.00  0.00     0.032 A 
ATOM     14  Cl  UNL A   1      30.260  23.324  26.876  1.00  0.00    -0.080 Cl
ATOM     15  C   UNL A   1      32.569  21.131  24.458  1.00  0.00    -0.021 A 
BRANCH  15  16
ATOM     16  C   UNL A   1      32.634  19.821  23.793  1.00  0.00     0.027 C 
ATOM     17  C   UNL A   1      32.808  18.574  24.276  1.00  0.00     0.102 C 
ATOM     18  C   UNL A   1      32.930  17.498  23.255  1.00  0.00     0.264 C 
ATOM     19  C   UNL A   1      32.916  18.087  25.652  1.00  0.00     0.228 C 
ATOM     20  O   UNL A   1      33.050  17.703  22.053  1.00  0.00    -0.269 OA
ATOM     21  N   UNL A   1      32.905  16.236  23.768  1.00  0.00    -0.272 N 
ATOM     22  N   UNL A   1      32.903  16.866  26.038  1.00  0.00    -0.157 NA
ATOM     23  C   UNL A   1      32.796  15.890  25.087  1.00  0.00     0.351 C 
ATOM     24  H   UNL A   1      32.972  15.496  23.122  1.00  0.00     0.175 HD
ATOM     25  O   UNL A   1      32.618  14.710  25.376  1.00  0.00    -0.246 OA
BRANCH  19  26
ATOM     26  O   UNL A   1      33.074  19.008  26.604  1.00  0.00    -0.493 OA
ATOM     27  H   UNL A   1      32.584  18.949  27.400  1.00  0.00     0.295 HD
ENDBRANCH  19  26
ENDBRANCH  15  16
ENDBRANCH   7   8
ENDBRANCH   6   7
ENDBRANCH   4   6
ENDBRANCH   1   2
BRANCH   1  28
ATOM     28  C   UNL A   1      31.742  30.508  26.006  1.00  0.00     0.023 C 
BRANCH  28  29
ATOM     29  C   UNL A   1      31.482  31.923  26.527  1.00  0.00     0.023 C 
BRANCH  29  30
ATOM     30  C   UNL A   1      32.645  32.589  27.258  1.00  0.00     0.116 C 
BRANCH  30  31
ATOM     31  N   UNL A   1      32.394  33.985  27.582  1.00  0.00    -0.352 N 
ATOM     32  C   UNL A   1      32.986  34.793  28.524  1.00  0.00     0.251 C 
ATOM     33  H   UNL A   1      31.692  34.417  27.044  1.00  0.00     0.163 HD
ATOM     34  O   UNL A   1      32.528  35.910  28.751  1.00  0.00    -0.269 OA
BRANCH  32  35
ATOM     35  C   UNL A   1      34.155  34.314  29.294  1.00  0.00     0.039 A 
ATOM     36  C   UNL A   1      33.945  33.723  30.543  1.00  0.00     0.014 A 
ATOM     37  C   UNL A   1      35.454  34.452  28.799  1.00  0.00     0.014 A 
ATOM     38  C   UNL A   1      35.027  33.199  31.256  1.00  0.00     0.010 A 
ATOM     39  C   UNL A   1      36.521  33.858  29.471  1.00  0.00     0.010 A 
ATOM     40  C   UNL A   1      36.319  33.221  30.706  1.00  0.00    -0.014 A 
BRANCH  40  41
ATOM     41  C   UNL A   1      37.463  32.571  31.400  1.00  0.00     0.031 A 
ATOM     42  C   UNL A   1      38.182  31.410  30.769  1.00  0.00     0.074 A 
ATOM     43  C   UNL A   1      37.818  32.987  32.632  1.00  0.00     0.049 A 
ATOM     44  N   UNL A   1      39.160  30.680  31.246  1.00  0.00    -0.248 NA
ATOM     45  C   UNL A   1      37.723  30.997  29.433  1.00  0.00     0.031 C 
ATOM     46  C   UNL A   1      37.177  34.075  33.374  1.00  0.00     0.029 A 
ATOM     47  N   UNL A   1      38.800  32.542  33.484  1.00  0.00    -0.354 N 
ATOM     48  C   UNL A   1      39.422  29.719  30.279  1.00  0.00     0.074 A 
ATOM     49  C   UNL A   1      38.467  29.922  29.212  1.00  0.00     0.031 C 
ATOM     50  C   UNL A   1      37.799  34.230  34.553  1.00  0.00     0.029 A 
ATOM     51  C   UNL A   1      38.851  33.226  34.674  1.00  0.00     0.049 A 
ATOM     52  H   UNL A   1      39.410  31.802  33.261  1.00  0.00     0.167 HD
ATOM     53  C   UNL A   1      40.388  28.768  30.270  1.00  0.00     0.037 A 
ATOM     54  C   UNL A   1      39.647  33.055  35.748  1.00  0.00     0.037 A 
ATOM     55  C   UNL A   1      41.349  28.579  31.327  1.00  0.00     0.049 A 
ATOM     56  C   UNL A   1      40.692  31.972  35.725  1.00  0.00     0.074 A 
ATOM     57  C   UNL A   1      42.403  27.684  31.383  1.00  0.00     0.029 A 
ATOM     58  N   UNL A   1      41.366  29.290  32.518  1.00  0.00    -0.354 N 
ATOM     59  N   UNL A   1      40.979  31.118  34.773  1.00  0.00    -0.248 NA
ATOM     60  C   UNL A   1      41.525  31.831  36.926  1.00  0.00     0.031 C 
ATOM     61  C   UNL A   1      43.016  27.807  32.634  1.00  0.00     0.029 A 
ATOM     62  C   UNL A   1      42.391  28.829  33.330  1.00  0.00     0.049 A 
ATOM     63  H   UNL A   1      40.743  30.015  32.753  1.00  0.00     0.167 HD
ATOM     64  C   UNL A   1      42.047  30.365  35.244  1.00  0.00     0.074 A 
ATOM     65  C   UNL A   1      42.365  30.874  36.562  1.00  0.00     0.031 C 
ATOM     66  C   UNL A   1      42.705  29.346  34.638  1.00  0.00     0.037 A 
BRANCH  53  67
ATOM     67  C   UNL A   1      40.449  27.847  29.084  1.00  0.00     0.064 A 
ATOM     68  C   UNL A   1      39.684  26.673  29.018  1.00  0.00     0.173 A 
ATOM     69  C   UNL A   1      41.253  28.165  27.978  1.00  0.00     0.173 A 
ATOM     70  F   UNL A   1      38.903  26.315  30.050  1.00  0.00    -0.203 F 
ATOM     71  C   UNL A   1      39.748  25.834  27.907  1.00  0.00     0.198 A 
ATOM     72  C   UNL A   1      41.287  27.344  26.854  1.00  0.00     0.198 A 
ATOM     73  F   UNL A   1      42.000  29.280  27.982  1.00  0.00    -0.203 F 
ATOM     74  F   UNL A   1      39.051  24.690  27.892  1.00  0.00    -0.200 F 
ATOM     75  C   UNL A   1      40.543  26.175  26.823  1.00  0.00     0.200 A 
ATOM     76  F   UNL A   1      42.043  27.684  25.801  1.00  0.00    -0.200 F 
ATOM     77  F   UNL A   1      40.596  25.373  25.751  1.00  0.00    -0.200 F 
ENDBRANCH  53  67
BRANCH  54  78
ATOM     78  C   UNL A   1      39.503  33.945  36.932  1.00  0.00     0.064 A 
ATOM     79  C   UNL A   1      40.130  35.197  36.973  1.00  0.00     0.173 A 
ATOM     80  C   UNL A   1      38.750  33.557  38.052  1.00  0.00     0.173 A 
ATOM     81  F   UNL A   1      40.879  35.604  35.937  1.00  0.00    -0.203 F 
ATOM     82  C   UNL A   1      40.034  36.017  38.096  1.00  0.00     0.198 A 
ATOM     83  C   UNL A   1      38.626  34.392  39.160  1.00  0.00     0.198 A 
ATOM     84  F   UNL A   1      38.125  32.371  38.064  1.00  0.00    -0.203 F 
ATOM     85  F   UNL A   1      40.692  37.184  38.129  1.00  0.00    -0.200 F 
ATOM     86  C   UNL A   1      39.277  35.616  39.187  1.00  0.00     0.200 A 
ATOM     87  F   UNL A   1      37.880  34.008  40.205  1.00  0.00    -0.200 F 
ATOM     88  F   UNL A   1      39.182  36.405  40.266  1.00  0.00    -0.200 F 
ENDBRANCH  54  78
BRANCH  66  89
ATOM     89  C   UNL A   1      43.868  28.738  35.373  1.00  0.00     0.064 A 
ATOM     90  C   UNL A   1      45.182  29.192  35.188  1.00  0.00     0.173 A 
ATOM     91  C   UNL A   1      43.656  27.709  36.304  1.00  0.00     0.173 A 
ATOM     92  F   UNL A   1      45.443  30.163  34.299  1.00  0.00    -0.203 F 
ATOM     93  C   UNL A   1      46.242  28.619  35.885  1.00  0.00     0.198 A 
ATOM     94  C   UNL A   1      44.714  27.164  37.026  1.00  0.00     0.198 A 
ATOM     95  F   UNL A   1      42.418  27.241  36.527  1.00  0.00    -0.203 F 
ATOM     96  F   UNL A   1      47.496  29.032  35.650  1.00  0.00    -0.200 F 
ATOM     97  C   UNL A   1      46.007  27.613  36.809  1.00  0.00     0.200 A 
ATOM     98  F   UNL A   1      44.481  26.204  37.933  1.00  0.00    -0.200 F 
ATOM     99  F   UNL A   1      47.029  27.070  37.486  1.00  0.00    -0.200 F 
ENDBRANCH  66  89
ENDBRANCH  40  41
ENDBRANCH  32  35
ENDBRANCH  30  31
ENDBRANCH  29  30
ENDBRANCH  28  29
ENDBRANCH   1  28
TORSDOF 15
ENDMDL
MODEL 2
REMARK VINA RESULT:     -13.3      0.691      1.926
REMARK SMILES O=C(COc1c(Cl)cc(/C=C2/C(=O)NC(=O)N=C2O)cc1Cl)NCCCCNC(=O)c1ccc(-c2c3nc(c(-c4c(F)c(F)c(F)c(F)c4F)c4ccc([nH]4)c(-c4c(F)c(F)c(F)c(F)c4F)c4nc(c(-c5c(F)c(F)c(F)c(F)c5F)c5ccc2[nH]5)C=C4)C=C3)cc1
REMARK SMILES IDX 24 1 23 2 1 3 2 4 3 6 4 7 5 8 6 9 21 10 7 11 8 12 20 13
REMARK SMILES IDX 22 14 9 15 10 16 11 17 12 18 18 19 13 20 14 21 17 22 15 23
REMARK SMILES IDX 16 25 19 26 25 28 26 29 27 30 28 31 29 32 30 34 31 35 32 36
REMARK SMILES IDX 93 37 33 38 92 39 34 40 35 41 36 42 86 43 37 44 91 45 85 46
REMARK SMILES IDX 87 47 38 48 90 49 84 50 83 51 39 53 71 54 51 55 70 56 52 57
REMARK SMILES IDX 55 58 69 59 88 60 53 61 54 62 68 64 89 65 56 66 40 67 41 68
REMARK SMILES IDX 49 69 42 70 43 71 47 72 50 73 44 74 45 75 48 76 46 77 72 78
REMARK SMILES IDX 73 79 81 80 74 81 75 82 79 83 82 84 76 85 77 86 80 87 78 88
REMARK SMILES IDX 57 89 58 90 66 91 59 92 60 93 64 94 67 95 61 96 62 97 65 98
REMARK SMILES IDX 63 99
REMARK H PARENT 23 5 14 24 19 27 28 33 87 52 55 63
REMARK Flexibility Score: inf
ROOT
ATOM      1  C   UNL A   1      32.411  29.901  27.245  1.00  0.00     0.116 C 
ENDROOT
BRANCH   1   2
ATOM      2  N   UNL A   1      32.979  28.678  26.717  1.00  0.00    -0.353 N 
ATOM      3  O   UNL A   1      31.276  27.271  27.375  1.00  0.00    -0.271 OA
ATOM      4  C   UNL A   1      32.285  27.483  26.709  1.00  0.00     0.257 C 
ATOM      5  H   UNL A   1      33.892  28.698  26.349  1.00  0.00     0.163 HD
BRANCH   4   6
ATOM      6  C   UNL A   1      32.892  26.426  25.786  1.00  0.00     0.329 C 
BRANCH   6   7
ATOM      7  O   UNL A   1      31.920  25.944  24.845  1.00  0.00    -0.481 OA
BRANCH   7   8
ATOM      8  C   UNL A   1      32.124  24.629  24.503  1.00  0.00     0.157 A 
ATOM      9  C   UNL A   1      31.401  23.616  25.139  1.00  0.00     0.085 A 
ATOM     10  C   UNL A   1      32.944  24.284  23.421  1.00  0.00     0.085 A 
ATOM     11  Cl  UNL A   1      30.285  23.913  26.412  1.00  0.00    -0.080 Cl
ATOM     12  C   UNL A   1      31.509  22.292  24.714  1.00  0.00     0.032 A 
ATOM     13  C   UNL A   1      33.056  22.949  23.001  1.00  0.00     0.032 A 
ATOM     14  Cl  UNL A   1      33.797  25.490  22.521  1.00  0.00    -0.080 Cl
ATOM     15  C   UNL A   1      32.297  21.948  23.612  1.00  0.00    -0.021 A 
BRANCH  15  16
ATOM     16  C   UNL A   1      32.262  20.533  23.214  1.00  0.00     0.027 C 
ATOM     17  C   UNL A   1      32.466  19.397  23.910  1.00  0.00     0.102 C 
ATOM     18  C   UNL A   1      32.452  18.140  23.114  1.00  0.00     0.264 C 
ATOM     19  C   UNL A   1      32.721  19.181  25.336  1.00  0.00     0.228 C 
ATOM     20  O   UNL A   1      32.437  18.103  21.889  1.00  0.00    -0.269 OA
ATOM     21  N   UNL A   1      32.462  17.002  23.865  1.00  0.00    -0.272 N 
ATOM     22  N   UNL A   1      32.730  18.059  25.953  1.00  0.00    -0.157 NA
ATOM     23  C   UNL A   1      32.498  16.923  25.230  1.00  0.00     0.351 C 
ATOM     24  H   UNL A   1      32.441  16.150  23.374  1.00  0.00     0.175 HD
ATOM     25  O   UNL A   1      32.332  15.829  25.763  1.00  0.00    -0.246 OA
BRANCH  19  26
ATOM     26  O   UNL A   1      33.004  20.261  26.065  1.00  0.00    -0.493 OA
ATOM     27  H   UNL A   1      32.360  20.933  26.176  1.00  0.00     0.295 HD
ENDBRANCH  19  26
ENDBRANCH  15  16
ENDBRANCH   7   8
ENDBRANCH   6   7
ENDBRANCH   4   6
ENDBRANCH   1   2
BRANCH   1  28
ATOM     28  C   UNL A   1      31.565  30.670  26.242  1.00  0.00     0.023 C 
BRANCH  28  29
ATOM     29  C   UNL A   1      31.449  32.173  26.506  1.00  0.00     0.023 C 
BRANCH  29  30
ATOM     30  C   UNL A   1      32.597  32.803  27.291  1.00  0.00     0.116 C 
BRANCH  30  31
ATOM     31  N   UNL A   1      32.351  34.191  27.652  1.00  0.00    -0.352 N 
ATOM     32  C   UNL A   1      32.956  34.976  28.605  1.00  0.00     0.251 C 
ATOM     33  H   UNL A   1      31.642  34.635  27.135  1.00  0.00     0.163 HD
ATOM     34  O   UNL A   1      32.501  36.087  28.865  1.00  0.00    -0.269 OA
BRANCH  32  35
ATOM     35  C   UNL A   1      34.137  34.480  29.346  1.00  0.00     0.039 A 
ATOM     36  C   UNL A   1      33.949  33.896  30.602  1.00  0.00     0.014 A 
ATOM     37  C   UNL A   1      35.425  34.594  28.816  1.00  0.00     0.014 A 
ATOM     38  C   UNL A   1      35.040  33.355  31.288  1.00  0.00     0.010 A 
ATOM     39  C   UNL A   1      36.498  33.983  29.463  1.00  0.00     0.010 A 
ATOM     40  C   UNL A   1      36.318  33.353  30.705  1.00  0.00    -0.014 A 
BRANCH  40  41
ATOM     41  C   UNL A   1      37.468  32.686  31.371  1.00  0.00     0.031 A 
ATOM     42  C   UNL A   1      38.166  31.527  30.714  1.00  0.00     0.074 A 
ATOM     43  C   UNL A   1      37.848  33.084  32.602  1.00  0.00     0.049 A 
ATOM     44  N   UNL A   1      39.146  30.783  31.165  1.00  0.00    -0.248 NA
ATOM     45  C   UNL A   1      37.682  31.134  29.382  1.00  0.00     0.031 C 
ATOM     46  C   UNL A   1      37.228  34.167  33.368  1.00  0.00     0.029 A 
ATOM     47  N   UNL A   1      38.840  32.620  33.432  1.00  0.00    -0.354 N 
ATOM     48  C   UNL A   1      39.384  29.832  30.182  1.00  0.00     0.074 A 
ATOM     49  C   UNL A   1      38.412  30.056  29.134  1.00  0.00     0.031 C 
ATOM     50  C   UNL A   1      37.871  34.303  34.538  1.00  0.00     0.029 A 
ATOM     51  C   UNL A   1      38.916  33.289  34.629  1.00  0.00     0.049 A 
ATOM     52  H   UNL A   1      39.439  31.878  33.189  1.00  0.00     0.167 HD
ATOM     53  C   UNL A   1      40.342  28.873  30.146  1.00  0.00     0.037 A 
ATOM     54  C   UNL A   1      39.729  33.098  35.687  1.00  0.00     0.037 A 
ATOM     55  C   UNL A   1      41.319  28.664  31.183  1.00  0.00     0.049 A 
ATOM     56  C   UNL A   1      40.764  32.007  35.633  1.00  0.00     0.074 A 
ATOM     57  C   UNL A   1      42.367  27.760  31.211  1.00  0.00     0.029 A 
ATOM     58  N   UNL A   1      41.363  29.360  32.382  1.00  0.00    -0.354 N 
ATOM     59  N   UNL A   1      41.029  31.163  34.666  1.00  0.00    -0.248 NA
ATOM     60  C   UNL A   1      41.617  31.845  36.818  1.00  0.00     0.031 C 
ATOM     61  C   UNL A   1      43.002  27.862  32.452  1.00  0.00     0.029 A 
ATOM     62  C   UNL A   1      42.397  28.881  33.171  1.00  0.00     0.049 A 
ATOM     63  H   UNL A   1      40.749  30.087  32.637  1.00  0.00     0.167 HD
ATOM     64  C   UNL A   1      42.098  30.396  35.109  1.00  0.00     0.074 A 
ATOM     65  C   UNL A   1      42.443  30.886  36.428  1.00  0.00     0.031 C 
ATOM     66  C   UNL A   1      42.738  29.379  34.480  1.00  0.00     0.037 A 
BRANCH  53  67
ATOM     67  C   UNL A   1      40.376  27.967  28.947  1.00  0.00     0.064 A 
ATOM     68  C   UNL A   1      41.133  28.275  27.807  1.00  0.00     0.173 A 
ATOM     69  C   UNL A   1      39.674  26.751  28.956  1.00  0.00     0.173 A 
ATOM     70  F   UNL A   1      41.817  29.428  27.740  1.00  0.00    -0.203 F 
ATOM     71  C   UNL A   1      41.158  27.419  26.708  1.00  0.00     0.198 A 
ATOM     72  C   UNL A   1      39.731  25.881  27.870  1.00  0.00     0.198 A 
ATOM     73  F   UNL A   1      38.941  26.400  30.023  1.00  0.00    -0.203 F 
ATOM     74  F   UNL A   1      41.843  27.763  25.609  1.00  0.00    -0.200 F 
ATOM     75  C   UNL A   1      40.463  26.219  26.744  1.00  0.00     0.200 A 
ATOM     76  F   UNL A   1      39.073  24.713  27.915  1.00  0.00    -0.200 F 
ATOM     77  F   UNL A   1      40.497  25.392  25.690  1.00  0.00    -0.200 F 
ENDBRANCH  53  67
BRANCH  54  78
ATOM     78  C   UNL A   1      39.612  33.975  36.885  1.00  0.00     0.064 A 
ATOM     79  C   UNL A   1      40.286  35.202  36.948  1.00  0.00     0.173 A 
ATOM     80  C   UNL A   1      38.841  33.598  37.995  1.00  0.00     0.173 A 
ATOM     81  F   UNL A   1      41.054  35.597  35.921  1.00  0.00    -0.203 F 
ATOM     82  C   UNL A   1      40.214  36.008  38.083  1.00  0.00     0.198 A 
ATOM     83  C   UNL A   1      38.743  34.420  39.116  1.00  0.00     0.198 A 
ATOM     84  F   UNL A   1      38.172  32.435  37.986  1.00  0.00    -0.203 F 
ATOM     85  F   UNL A   1      40.915  37.149  38.136  1.00  0.00    -0.200 F 
ATOM     86  C   UNL A   1      39.438  35.618  39.164  1.00  0.00     0.200 A 
ATOM     87  F   UNL A   1      37.978  34.047  40.151  1.00  0.00    -0.200 F 
ATOM     88  F   UNL A   1      39.367  36.393  40.254  1.00  0.00    -0.200 F 
ENDBRANCH  54  78
BRANCH  66  89
ATOM     89  C   UNL A   1      43.908  28.753  35.187  1.00  0.00     0.064 A 
ATOM     90  C   UNL A   1      43.750  27.677  36.074  1.00  0.00     0.173 A 
ATOM     91  C   UNL A   1      45.211  29.214  34.942  1.00  0.00     0.173 A 
ATOM     92  F   UNL A   1      42.524  27.208  36.354  1.00  0.00    -0.203 F 
ATOM     93  C   UNL A   1      44.848  27.108  36.711  1.00  0.00     0.198 A 
ATOM     94  C   UNL A   1      46.310  28.617  35.553  1.00  0.00     0.198 A 
ATOM     95  F   UNL A   1      45.422  30.234  34.097  1.00  0.00    -0.203 F 
ATOM     96  F   UNL A   1      44.667  26.118  37.597  1.00  0.00    -0.200 F 
ATOM     97  C   UNL A   1      46.128  27.572  36.444  1.00  0.00     0.200 A 
ATOM     98  F   UNL A   1      47.548  29.055  35.279  1.00  0.00    -0.200 F 
ATOM     99  F   UNL A   1      47.184  27.014  37.052  1.00  0.00    -0.200 F 
ENDBRANCH  66  89
ENDBRANCH  40  41
ENDBRANCH  32  35
ENDBRANCH  30  31
ENDBRANCH  29  30
ENDBRANCH  28  29
ENDBRANCH   1  28
TORSDOF 15
ENDMDL
MODEL 3
REMARK VINA RESULT:     -13.1      0.764      7.168
REMARK SMILES O=C(COc1c(Cl)cc(/C=C2/C(=O)NC(=O)N=C2O)cc1Cl)NCCCCNC(=O)c1ccc(-c2c3nc(c(-c4c(F)c(F)c(F)c(F)c4F)c4ccc([nH]4)c(-c4c(F)c(F)c(F)c(F)c4F)c4nc(c(-c5c(F)c(F)c(F)c(F)c5F)c5ccc2[nH]5)C=C4)C=C3)cc1
REMARK SMILES IDX 24 1 23 2 1 3 2 4 3 6 4 7 5 8 6 9 21 10 7 11 8 12 20 13
REMARK SMILES IDX 22 14 9 15 10 16 11 17 12 18 18 19 13 20 14 21 17 22 15 23
REMARK SMILES IDX 16 25 19 26 25 28 26 29 27 30 28 31 29 32 30 34 31 35 32 36
REMARK SMILES IDX 93 37 33 38 92 39 34 40 35 41 36 42 86 43 37 44 91 45 85 46
REMARK SMILES IDX 87 47 38 48 90 49 84 50 83 51 39 53 71 54 51 55 70 56 52 57
REMARK SMILES IDX 55 58 69 59 88 60 53 61 54 62 68 64 89 65 56 66 40 67 41 68
REMARK SMILES IDX 49 69 42 70 43 71 47 72 50 73 44 74 45 75 48 76 46 77 72 78
REMARK SMILES IDX 73 79 81 80 74 81 75 82 79 83 82 84 76 85 77 86 80 87 78 88
REMARK SMILES IDX 57 89 58 90 66 91 59 92 60 93 64 94 67 95 61 96 62 97 65 98
REMARK SMILES IDX 63 99
REMARK H PARENT 23 5 14 24 19 27 28 33 87 52 55 63
REMARK Flexibility Score: inf
ROOT
ATOM      1  C   UNL A   1      32.709  30.090  26.173  1.00  0.00     0.116 C 
ENDROOT
BRANCH   1   2
ATOM      2  N   UNL A   1      32.712  28.823  25.471  1.00  0.00    -0.353 N 
ATOM      3  O   UNL A   1      34.528  27.907  26.556  1.00  0.00    -0.271 OA
ATOM      4  C   UNL A   1      33.547  27.781  25.829  1.00  0.00     0.257 C 
ATOM      5  H   UNL A   1      32.097  28.699  24.712  1.00  0.00     0.163 HD
BRANCH   4   6
ATOM      6  C   UNL A   1      33.140  26.434  25.230  1.00  0.00     0.329 C 
BRANCH   6   7
ATOM      7  O   UNL A   1      32.892  25.467  26.261  1.00  0.00    -0.481 OA
BRANCH   7   8
ATOM      8  C   UNL A   1      32.901  24.177  25.787  1.00  0.00     0.157 A 
ATOM      9  C   UNL A   1      31.704  23.468  25.651  1.00  0.00     0.085 A 
ATOM     10  C   UNL A   1      34.078  23.597  25.296  1.00  0.00     0.085 A 
ATOM     11  Cl  UNL A   1      30.176  24.103  26.118  1.00  0.00    -0.080 Cl
ATOM     12  C   UNL A   1      31.688  22.207  25.056  1.00  0.00     0.032 A 
ATOM     13  C   UNL A   1      34.059  22.324  24.705  1.00  0.00     0.032 A 
ATOM     14  Cl  UNL A   1      35.584  24.447  25.340  1.00  0.00    -0.080 Cl
ATOM     15  C   UNL A   1      32.853  21.640  24.531  1.00  0.00    -0.021 A 
BRANCH  15  16
ATOM     16  C   UNL A   1      32.689  20.344  23.856  1.00  0.00     0.027 C 
ATOM     17  C   UNL A   1      32.741  19.078  24.315  1.00  0.00     0.102 C 
ATOM     18  C   UNL A   1      32.632  18.012  23.282  1.00  0.00     0.264 C 
ATOM     19  C   UNL A   1      32.905  18.558  25.673  1.00  0.00     0.228 C 
ATOM     20  O   UNL A   1      32.671  18.220  22.075  1.00  0.00    -0.269 OA
ATOM     21  N   UNL A   1      32.489  16.755  23.788  1.00  0.00    -0.272 N 
ATOM     22  N   UNL A   1      32.768  17.342  26.053  1.00  0.00    -0.157 NA
ATOM     23  C   UNL A   1      32.452  16.404  25.110  1.00  0.00     0.351 C 
ATOM     24  H   UNL A   1      32.402  16.023  23.136  1.00  0.00     0.175 HD
ATOM     25  O   UNL A   1      32.149  15.252  25.408  1.00  0.00    -0.246 OA
BRANCH  19  26
ATOM     26  O   UNL A   1      33.265  19.435  26.612  1.00  0.00    -0.493 OA
ATOM     27  H   UNL A   1      33.392  19.150  27.496  1.00  0.00     0.295 HD
ENDBRANCH  19  26
ENDBRANCH  15  16
ENDBRANCH   7   8
ENDBRANCH   6   7
ENDBRANCH   4   6
ENDBRANCH   1   2
BRANCH   1  28
ATOM     28  C   UNL A   1      31.330  30.723  26.294  1.00  0.00     0.023 C 
BRANCH  28  29
ATOM     29  C   UNL A   1      31.327  32.241  26.489  1.00  0.00     0.023 C 
BRANCH  29  30
ATOM     30  C   UNL A   1      32.549  32.826  27.192  1.00  0.00     0.116 C 
BRANCH  30  31
ATOM     31  N   UNL A   1      32.365  34.209  27.606  1.00  0.00    -0.352 N 
ATOM     32  C   UNL A   1      33.007  34.931  28.584  1.00  0.00     0.251 C 
ATOM     33  H   UNL A   1      31.673  34.702  27.111  1.00  0.00     0.163 HD
ATOM     34  O   UNL A   1      32.602  36.050  28.888  1.00  0.00    -0.269 OA
BRANCH  32  35
ATOM     35  C   UNL A   1      34.169  34.357  29.299  1.00  0.00     0.039 A 
ATOM     36  C   UNL A   1      33.945  33.595  30.449  1.00  0.00     0.014 A 
ATOM     37  C   UNL A   1      35.474  34.571  28.849  1.00  0.00     0.014 A 
ATOM     38  C   UNL A   1      35.020  32.984  31.099  1.00  0.00     0.010 A 
ATOM     39  C   UNL A   1      36.535  33.896  29.450  1.00  0.00     0.010 A 
ATOM     40  C   UNL A   1      36.320  33.091  30.579  1.00  0.00    -0.014 A 
BRANCH  40  41
ATOM     41  C   UNL A   1      37.459  32.358  31.195  1.00  0.00     0.031 A 
ATOM     42  C   UNL A   1      37.961  32.733  32.562  1.00  0.00     0.074 A 
ATOM     43  C   UNL A   1      38.085  31.390  30.495  1.00  0.00     0.049 A 
ATOM     44  N   UNL A   1      38.976  32.251  33.236  1.00  0.00    -0.248 NA
ATOM     45  C   UNL A   1      37.243  33.815  33.255  1.00  0.00     0.031 C 
ATOM     46  C   UNL A   1      37.725  30.957  29.144  1.00  0.00     0.029 A 
ATOM     47  N   UNL A   1      39.161  30.599  30.819  1.00  0.00    -0.354 N 
ATOM     48  C   UNL A   1      39.024  32.975  34.420  1.00  0.00     0.074 A 
ATOM     49  C   UNL A   1      37.973  33.967  34.351  1.00  0.00     0.031 C 
ATOM     50  C   UNL A   1      38.543  29.963  28.767  1.00  0.00     0.029 A 
ATOM     51  C   UNL A   1      39.517  29.718  29.826  1.00  0.00     0.049 A 
ATOM     52  H   UNL A   1      39.632  30.660  31.681  1.00  0.00     0.167 HD
ATOM     53  C   UNL A   1      39.855  32.813  35.478  1.00  0.00     0.037 A 
ATOM     54  C   UNL A   1      40.522  28.822  29.771  1.00  0.00     0.037 A 
ATOM     55  C   UNL A   1      40.891  31.813  35.550  1.00  0.00     0.049 A 
ATOM     56  C   UNL A   1      41.449  28.682  30.949  1.00  0.00     0.074 A 
ATOM     57  C   UNL A   1      41.743  31.530  36.603  1.00  0.00     0.029 A 
ATOM     58  N   UNL A   1      41.221  30.940  34.524  1.00  0.00    -0.354 N 
ATOM     59  N   UNL A   1      41.437  29.322  32.093  1.00  0.00    -0.248 NA
ATOM     60  C   UNL A   1      42.528  27.693  30.828  1.00  0.00     0.031 C 
ATOM     61  C   UNL A   1      42.632  30.533  36.191  1.00  0.00     0.029 A 
ATOM     62  C   UNL A   1      42.289  30.143  34.907  1.00  0.00     0.049 A 
ATOM     63  H   UNL A   1      40.766  30.894  33.652  1.00  0.00     0.167 HD
ATOM     64  C   UNL A   1      42.480  28.789  32.840  1.00  0.00     0.074 A 
ATOM     65  C   UNL A   1      43.094  27.762  32.024  1.00  0.00     0.031 C 
ATOM     66  C   UNL A   1      42.889  29.118  34.090  1.00  0.00     0.037 A 
BRANCH  53  67
ATOM     67  C   UNL A   1      39.688  33.745  36.645  1.00  0.00     0.064 A 
ATOM     68  C   UNL A   1      38.855  33.431  37.730  1.00  0.00     0.173 A 
ATOM     69  C   UNL A   1      40.404  34.951  36.699  1.00  0.00     0.173 A 
ATOM     70  F   UNL A   1      38.141  32.295  37.728  1.00  0.00    -0.203 F 
ATOM     71  C   UNL A   1      38.718  34.304  38.807  1.00  0.00     0.198 A 
ATOM     72  C   UNL A   1      40.292  35.805  37.794  1.00  0.00     0.198 A 
ATOM     73  F   UNL A   1      41.222  35.299  35.694  1.00  0.00    -0.203 F 
ATOM     74  F   UNL A   1      37.873  34.008  39.803  1.00  0.00    -0.200 F 
ATOM     75  C   UNL A   1      39.443  35.486  38.841  1.00  0.00     0.200 A 
ATOM     76  F   UNL A   1      41.007  36.938  37.834  1.00  0.00    -0.200 F 
ATOM     77  F   UNL A   1      39.317  36.320  39.883  1.00  0.00    -0.200 F 
ENDBRANCH  53  67
BRANCH  54  78
ATOM     78  C   UNL A   1      40.694  27.968  28.565  1.00  0.00     0.064 A 
ATOM     79  C   UNL A   1      41.468  28.402  27.480  1.00  0.00     0.173 A 
ATOM     80  C   UNL A   1      40.078  26.712  28.463  1.00  0.00     0.173 A 
ATOM     81  F   UNL A   1      42.060  29.606  27.519  1.00  0.00    -0.203 F 
ATOM     82  C   UNL A   1      41.599  27.626  26.330  1.00  0.00     0.198 A 
ATOM     83  C   UNL A   1      40.238  25.922  27.326  1.00  0.00     0.198 A 
ATOM     84  F   UNL A   1      39.330  26.245  29.473  1.00  0.00    -0.203 F 
ATOM     85  F   UNL A   1      42.299  28.093  25.286  1.00  0.00    -0.200 F 
ATOM     86  C   UNL A   1      40.989  26.383  26.256  1.00  0.00     0.200 A 
ATOM     87  F   UNL A   1      39.659  24.714  27.267  1.00  0.00    -0.200 F 
ATOM     88  F   UNL A   1      41.117  25.636  25.152  1.00  0.00    -0.200 F 
ENDBRANCH  54  78
BRANCH  66  89
ATOM     89  C   UNL A   1      44.030  28.333  34.675  1.00  0.00     0.064 A 
ATOM     90  C   UNL A   1      45.359  28.772  34.579  1.00  0.00     0.173 A 
ATOM     91  C   UNL A   1      43.783  27.142  35.375  1.00  0.00     0.173 A 
ATOM     92  F   UNL A   1      45.653  29.896  33.908  1.00  0.00    -0.203 F 
ATOM     93  C   UNL A   1      46.399  28.032  35.136  1.00  0.00     0.198 A 
ATOM     94  C   UNL A   1      44.821  26.425  35.962  1.00  0.00     0.198 A 
ATOM     95  F   UNL A   1      42.530  26.679  35.505  1.00  0.00    -0.203 F 
ATOM     96  F   UNL A   1      47.666  28.442  34.983  1.00  0.00    -0.200 F 
ATOM     97  C   UNL A   1      46.129  26.864  35.834  1.00  0.00     0.200 A 
ATOM     98  F   UNL A   1      44.556  25.306  36.653  1.00  0.00    -0.200 F 
ATOM     99  F   UNL A   1      47.132  26.160  36.377  1.00  0.00    -0.200 F 
ENDBRANCH  66  89
ENDBRANCH  40  41
ENDBRANCH  32  35
ENDBRANCH  30  31
ENDBRANCH  29  30
ENDBRANCH  28  29
ENDBRANCH   1  28
TORSDOF 15
ENDMDL
