MODEL 1
REMARK VINA RESULT:     -10.9      0.000      0.000
REMARK SMILES [NH3+][C@H](C(=O)NCCCCNC(=O)c1ccc(-c2c3nc(c(-c4c(F)c(F)c(F)c(F)c4F)c4ccc([nH]4)c(-c4c(F)c(F)c(F)c(F)c4F)c4nc(c(-c5c(F)c(F)c(F)c(F)c5F)c5ccc2[nH]5)C=C4)C=C3)cc1)c1ccc(OCC(=O)N2CCCC2)cc1
REMARK SMILES IDX 6 1 5 2 3 3 4 4 2 6 1 7 76 11 77 12 90 13 78 14 89 15 79 16
REMARK SMILES IDX 80 17 81 18 82 19 83 20 84 21 85 22 88 23 86 24 87 25 7 26
REMARK SMILES IDX 8 27 9 28 10 29 11 30 12 32 13 33 14 34 75 35 15 36 74 37
REMARK SMILES IDX 16 38 17 39 18 40 68 41 19 42 73 43 67 44 69 45 20 46 72 47
REMARK SMILES IDX 66 48 65 49 21 51 53 52 33 53 52 54 34 55 37 56 51 57 70 58
REMARK SMILES IDX 35 59 36 60 50 62 71 63 38 64 22 65 23 66 31 67 24 68 25 69
REMARK SMILES IDX 29 70 32 71 26 72 27 73 30 74 28 75 54 76 55 77 63 78 56 79
REMARK SMILES IDX 57 80 61 81 64 82 58 83 59 84 62 85 60 86 39 87 40 88 48 89
REMARK SMILES IDX 41 90 42 91 46 92 49 93 43 94 44 95 47 96 45 97
REMARK H PARENT 5 5 1 8 1 9 1 10 10 31 69 50 37 61
REMARK Flexibility Score: inf
ROOT
ATOM      1  C   UNL A   1      33.243  34.994  29.486  1.00  0.00     0.116 C 
ENDROOT
BRANCH   1   2
ATOM      2  N   UNL A   1      32.909  36.295  30.036  1.00  0.00    -0.351 N 
ATOM      3  C   UNL A   1      33.011  36.782  31.310  1.00  0.00     0.283 C 
ATOM      4  O   UNL A   1      32.891  38.009  31.426  1.00  0.00    -0.268 OA
ATOM      5  H   UNL A   1      32.549  36.936  29.381  1.00  0.00     0.163 HD
BRANCH   3   6
ATOM      6  C   UNL A   1      33.073  35.886  32.580  1.00  0.00     0.302 C 
BRANCH   6   7
ATOM      7  N   UNL A   1      31.783  35.156  32.654  1.00  0.00    -0.343 N 
ATOM      8  H   UNL A   1      31.954  34.155  32.552  1.00  0.00     0.345 HD
ATOM      9  H   UNL A   1      31.169  35.475  31.905  1.00  0.00     0.345 HD
ATOM     10  H   UNL A   1      31.342  35.337  33.556  1.00  0.00     0.345 HD
ENDBRANCH   6   7
BRANCH   6  11
ATOM     11  C   UNL A   1      34.260  34.954  32.761  1.00  0.00     0.019 A 
ATOM     12  C   UNL A   1      35.585  35.384  32.629  1.00  0.00     0.014 A 
ATOM     13  C   UNL A   1      34.043  33.605  33.106  1.00  0.00     0.014 A 
ATOM     14  C   UNL A   1      36.628  34.458  32.631  1.00  0.00     0.047 A 
ATOM     15  C   UNL A   1      35.093  32.687  33.173  1.00  0.00     0.047 A 
ATOM     16  C   UNL A   1      36.384  33.108  32.890  1.00  0.00     0.120 A 
BRANCH  16  17
ATOM     17  O   UNL A   1      37.483  32.307  32.802  1.00  0.00    -0.484 OA
BRANCH  17  18
ATOM     18  C   UNL A   1      37.648  31.318  33.800  1.00  0.00     0.329 C 
BRANCH  18  19
ATOM     19  C   UNL A   1      38.003  29.884  33.372  1.00  0.00     0.260 C 
ATOM     20  O   UNL A   1      37.134  29.152  32.891  1.00  0.00    -0.271 OA
ATOM     21  N   UNL A   1      39.325  29.496  33.426  1.00  0.00    -0.340 N 
ATOM     22  C   UNL A   1      40.431  30.177  34.072  1.00  0.00     0.119 C 
ATOM     23  C   UNL A   1      39.763  28.254  32.817  1.00  0.00     0.119 C 
ATOM     24  C   UNL A   1      41.656  29.645  33.357  1.00  0.00     0.023 C 
ATOM     25  C   UNL A   1      41.274  28.209  33.026  1.00  0.00     0.023 C 
ENDBRANCH  18  19
ENDBRANCH  17  18
ENDBRANCH  16  17
ENDBRANCH   6  11
ENDBRANCH   3   6
ENDBRANCH   1   2
BRANCH   1  26
ATOM     26  C   UNL A   1      34.458  34.983  28.563  1.00  0.00     0.023 C 
BRANCH  26  27
ATOM     27  C   UNL A   1      35.397  33.781  28.659  1.00  0.00     0.023 C 
BRANCH  27  28
ATOM     28  C   UNL A   1      34.918  32.598  29.495  1.00  0.00     0.116 C 
BRANCH  28  29
ATOM     29  N   UNL A   1      34.255  31.566  28.715  1.00  0.00    -0.352 N 
ATOM     30  C   UNL A   1      34.739  30.406  28.160  1.00  0.00     0.251 C 
ATOM     31  H   UNL A   1      33.296  31.724  28.559  1.00  0.00     0.163 HD
ATOM     32  O   UNL A   1      33.992  29.736  27.442  1.00  0.00    -0.269 OA
BRANCH  30  33
ATOM     33  C   UNL A   1      36.137  29.954  28.364  1.00  0.00     0.039 A 
ATOM     34  C   UNL A   1      37.044  30.112  27.311  1.00  0.00     0.014 A 
ATOM     35  C   UNL A   1      36.565  29.343  29.546  1.00  0.00     0.014 A 
ATOM     36  C   UNL A   1      38.380  29.729  27.466  1.00  0.00     0.010 A 
ATOM     37  C   UNL A   1      37.918  29.039  29.732  1.00  0.00     0.010 A 
ATOM     38  C   UNL A   1      38.842  29.228  28.695  1.00  0.00    -0.014 A 
BRANCH  38  39
ATOM     39  C   UNL A   1      40.288  28.928  28.892  1.00  0.00     0.031 A 
ATOM     40  C   UNL A   1      41.207  29.925  29.547  1.00  0.00     0.074 A 
ATOM     41  C   UNL A   1      40.786  27.755  28.454  1.00  0.00     0.049 A 
ATOM     42  N   UNL A   1      42.486  29.818  29.817  1.00  0.00    -0.248 NA
ATOM     43  C   UNL A   1      40.624  31.219  29.929  1.00  0.00     0.031 C 
ATOM     44  C   UNL A   1      40.023  26.729  27.738  1.00  0.00     0.029 A 
ATOM     45  N   UNL A   1      42.050  27.224  28.541  1.00  0.00    -0.354 N 
ATOM     46  C   UNL A   1      42.855  31.023  30.401  1.00  0.00     0.074 A 
ATOM     47  C   UNL A   1      41.682  31.872  30.386  1.00  0.00     0.031 C 
ATOM     48  C   UNL A   1      40.823  25.683  27.483  1.00  0.00     0.029 A 
ATOM     49  C   UNL A   1      42.161  25.971  27.986  1.00  0.00     0.049 A 
ATOM     50  H   UNL A   1      42.804  27.695  28.963  1.00  0.00     0.167 HD
ATOM     51  C   UNL A   1      44.050  31.381  30.932  1.00  0.00     0.037 A 
ATOM     52  C   UNL A   1      43.222  25.145  27.896  1.00  0.00     0.037 A 
ATOM     53  C   UNL A   1      45.217  30.538  30.954  1.00  0.00     0.049 A 
ATOM     54  C   UNL A   1      44.534  25.562  28.502  1.00  0.00     0.074 A 
ATOM     55  C   UNL A   1      46.462  30.799  31.501  1.00  0.00     0.029 A 
ATOM     56  N   UNL A   1      45.285  29.267  30.403  1.00  0.00    -0.354 N 
ATOM     57  N   UNL A   1      44.845  26.676  29.119  1.00  0.00    -0.248 NA
ATOM     58  C   UNL A   1      45.639  24.596  28.415  1.00  0.00     0.031 C 
ATOM     59  C   UNL A   1      47.295  29.703  31.245  1.00  0.00     0.029 A 
ATOM     60  C   UNL A   1      46.554  28.737  30.584  1.00  0.00     0.049 A 
ATOM     61  H   UNL A   1      44.541  28.807  29.950  1.00  0.00     0.167 HD
ATOM     62  C   UNL A   1      46.170  26.538  29.510  1.00  0.00     0.074 A 
ATOM     63  C   UNL A   1      46.594  25.220  29.089  1.00  0.00     0.031 C 
ATOM     64  C   UNL A   1      46.967  27.425  30.156  1.00  0.00     0.037 A 
BRANCH  51  65
ATOM     65  C   UNL A   1      44.152  32.747  31.551  1.00  0.00     0.064 A 
ATOM     66  C   UNL A   1      44.372  33.891  30.766  1.00  0.00     0.173 A 
ATOM     67  C   UNL A   1      43.982  32.926  32.932  1.00  0.00     0.173 A 
ATOM     68  F   UNL A   1      44.550  33.776  29.441  1.00  0.00    -0.203 F 
ATOM     69  C   UNL A   1      44.444  35.155  31.343  1.00  0.00     0.198 A 
ATOM     70  C   UNL A   1      44.024  34.196  33.502  1.00  0.00     0.198 A 
ATOM     71  F   UNL A   1      43.762  31.870  33.729  1.00  0.00    -0.203 F 
ATOM     72  F   UNL A   1      44.702  36.226  30.578  1.00  0.00    -0.200 F 
ATOM     73  C   UNL A   1      44.263  35.308  32.709  1.00  0.00     0.200 A 
ATOM     74  F   UNL A   1      43.834  34.344  34.820  1.00  0.00    -0.200 F 
ATOM     75  F   UNL A   1      44.323  36.528  33.263  1.00  0.00    -0.200 F 
ENDBRANCH  51  65
BRANCH  52  76
ATOM     76  C   UNL A   1      43.080  23.826  27.223  1.00  0.00     0.064 A 
ATOM     77  C   UNL A   1      42.541  22.723  27.899  1.00  0.00     0.173 A 
ATOM     78  C   UNL A   1      43.496  23.638  25.897  1.00  0.00     0.173 A 
ATOM     79  F   UNL A   1      42.147  22.846  29.175  1.00  0.00    -0.203 F 
ATOM     80  C   UNL A   1      42.448  21.475  27.284  1.00  0.00     0.198 A 
ATOM     81  C   UNL A   1      43.373  22.400  25.272  1.00  0.00     0.198 A 
ATOM     82  F   UNL A   1      44.014  24.664  25.204  1.00  0.00    -0.203 F 
ATOM     83  F   UNL A   1      41.979  20.426  27.971  1.00  0.00    -0.200 F 
ATOM     84  C   UNL A   1      42.858  21.316  25.969  1.00  0.00     0.200 A 
ATOM     85  F   UNL A   1      43.756  22.253  23.996  1.00  0.00    -0.200 F 
ATOM     86  F   UNL A   1      42.768  20.118  25.377  1.00  0.00    -0.200 F 
ENDBRANCH  52  76
BRANCH  64  87
ATOM     87  C   UNL A   1      48.371  26.986  30.461  1.00  0.00     0.064 A 
ATOM     88  C   UNL A   1      49.441  27.290  29.603  1.00  0.00     0.173 A 
ATOM     89  C   UNL A   1      48.652  26.256  31.626  1.00  0.00     0.173 A 
ATOM     90  F   UNL A   1      49.224  27.974  28.470  1.00  0.00    -0.203 F 
ATOM     91  C   UNL A   1      50.730  26.843  29.881  1.00  0.00     0.198 A 
ATOM     92  C   UNL A   1      49.948  25.840  31.916  1.00  0.00     0.198 A 
ATOM     93  F   UNL A   1      47.669  25.947  32.483  1.00  0.00    -0.203 F 
ATOM     94  F   UNL A   1      51.722  27.089  29.014  1.00  0.00    -0.200 F 
ATOM     95  C   UNL A   1      50.984  26.123  31.038  1.00  0.00     0.200 A 
ATOM     96  F   UNL A   1      50.194  25.157  33.042  1.00  0.00    -0.200 F 
ATOM     97  F   UNL A   1      52.225  25.690  31.301  1.00  0.00    -0.200 F 
ENDBRANCH  64  87
ENDBRANCH  38  39
ENDBRANCH  30  33
ENDBRANCH  28  29
ENDBRANCH  27  28
ENDBRANCH  26  27
ENDBRANCH   1  26
TORSDOF 16
ENDMDL
MODEL 2
REMARK VINA RESULT:     -10.8      4.836      8.071
REMARK SMILES [NH3+][C@H](C(=O)NCCCCNC(=O)c1ccc(-c2c3nc(c(-c4c(F)c(F)c(F)c(F)c4F)c4ccc([nH]4)c(-c4c(F)c(F)c(F)c(F)c4F)c4nc(c(-c5c(F)c(F)c(F)c(F)c5F)c5ccc2[nH]5)C=C4)C=C3)cc1)c1ccc(OCC(=O)N2CCCC2)cc1
REMARK SMILES IDX 6 1 5 2 3 3 4 4 2 6 1 7 76 11 77 12 90 13 78 14 89 15 79 16
REMARK SMILES IDX 80 17 81 18 82 19 83 20 84 21 85 22 88 23 86 24 87 25 7 26
REMARK SMILES IDX 8 27 9 28 10 29 11 30 12 32 13 33 14 34 75 35 15 36 74 37
REMARK SMILES IDX 16 38 17 39 18 40 68 41 19 42 73 43 67 44 69 45 20 46 72 47
REMARK SMILES IDX 66 48 65 49 21 51 53 52 33 53 52 54 34 55 37 56 51 57 70 58
REMARK SMILES IDX 35 59 36 60 50 62 71 63 38 64 22 65 23 66 31 67 24 68 25 69
REMARK SMILES IDX 29 70 32 71 26 72 27 73 30 74 28 75 54 76 55 77 63 78 56 79
REMARK SMILES IDX 57 80 61 81 64 82 58 83 59 84 62 85 60 86 39 87 40 88 48 89
REMARK SMILES IDX 41 90 42 91 46 92 49 93 43 94 44 95 47 96 45 97
REMARK H PARENT 5 5 1 8 1 9 1 10 10 31 69 50 37 61
REMARK Flexibility Score: inf
ROOT
ATOM      1  C   UNL A   1      31.435  30.093  25.071  1.00  0.00     0.116 C 
ENDROOT
BRANCH   1   2
ATOM      2  N   UNL A   1      30.282  30.718  24.449  1.00  0.00    -0.351 N 
ATOM      3  C   UNL A   1      29.493  30.309  23.410  1.00  0.00     0.283 C 
ATOM      4  O   UNL A   1      28.428  30.926  23.270  1.00  0.00    -0.268 OA
ATOM      5  H   UNL A   1      30.024  31.583  24.842  1.00  0.00     0.163 HD
BRANCH   3   6
ATOM      6  C   UNL A   1      29.940  29.281  22.331  1.00  0.00     0.302 C 
BRANCH   6   7
ATOM      7  N   UNL A   1      31.100  29.879  21.624  1.00  0.00    -0.343 N 
ATOM      8  H   UNL A   1      30.765  30.464  20.858  1.00  0.00     0.345 HD
ATOM      9  H   UNL A   1      31.691  29.136  21.252  1.00  0.00     0.345 HD
ATOM     10  H   UNL A   1      31.639  30.448  22.277  1.00  0.00     0.345 HD
ENDBRANCH   6   7
BRANCH   6  11
ATOM     11  C   UNL A   1      30.216  27.848  22.757  1.00  0.00     0.019 A 
ATOM     12  C   UNL A   1      31.329  27.128  22.308  1.00  0.00     0.014 A 
ATOM     13  C   UNL A   1      29.349  27.208  23.664  1.00  0.00     0.014 A 
ATOM     14  C   UNL A   1      31.445  25.766  22.586  1.00  0.00     0.047 A 
ATOM     15  C   UNL A   1      29.499  25.860  23.997  1.00  0.00     0.047 A 
ATOM     16  C   UNL A   1      30.525  25.127  23.420  1.00  0.00     0.120 A 
BRANCH  16  17
ATOM     17  O   UNL A   1      30.722  23.786  23.557  1.00  0.00    -0.484 OA
BRANCH  17  18
ATOM     18  C   UNL A   1      31.048  23.306  24.848  1.00  0.00     0.329 C 
BRANCH  18  19
ATOM     19  C   UNL A   1      32.500  23.432  25.340  1.00  0.00     0.260 C 
ATOM     20  O   UNL A   1      32.838  24.405  26.020  1.00  0.00    -0.271 OA
ATOM     21  N   UNL A   1      33.360  22.381  25.107  1.00  0.00    -0.340 N 
ATOM     22  C   UNL A   1      33.163  21.240  24.232  1.00  0.00     0.119 C 
ATOM     23  C   UNL A   1      34.662  22.326  25.747  1.00  0.00     0.119 C 
ATOM     24  C   UNL A   1      34.103  20.188  24.784  1.00  0.00     0.023 C 
ATOM     25  C   UNL A   1      35.280  21.005  25.300  1.00  0.00     0.023 C 
ENDBRANCH  18  19
ENDBRANCH  17  18
ENDBRANCH  16  17
ENDBRANCH   6  11
ENDBRANCH   3   6
ENDBRANCH   1   2
BRANCH   1  26
ATOM     26  C   UNL A   1      31.702  30.532  26.508  1.00  0.00     0.023 C 
BRANCH  26  27
ATOM     27  C   UNL A   1      31.449  32.000  26.848  1.00  0.00     0.023 C 
BRANCH  27  28
ATOM     28  C   UNL A   1      32.675  32.899  26.973  1.00  0.00     0.116 C 
BRANCH  28  29
ATOM     29  N   UNL A   1      32.396  34.178  27.606  1.00  0.00    -0.352 N 
ATOM     30  C   UNL A   1      33.014  34.819  28.651  1.00  0.00     0.251 C 
ATOM     31  H   UNL A   1      31.636  34.668  27.219  1.00  0.00     0.163 HD
ATOM     32  O   UNL A   1      32.520  35.864  29.083  1.00  0.00    -0.269 OA
BRANCH  30  33
ATOM     33  C   UNL A   1      34.232  34.278  29.304  1.00  0.00     0.039 A 
ATOM     34  C   UNL A   1      34.071  33.435  30.409  1.00  0.00     0.014 A 
ATOM     35  C   UNL A   1      35.522  34.610  28.883  1.00  0.00     0.014 A 
ATOM     36  C   UNL A   1      35.188  32.876  31.039  1.00  0.00     0.010 A 
ATOM     37  C   UNL A   1      36.634  33.985  29.457  1.00  0.00     0.010 A 
ATOM     38  C   UNL A   1      36.481  33.110  30.542  1.00  0.00    -0.014 A 
BRANCH  38  39
ATOM     39  C   UNL A   1      37.658  32.423  31.144  1.00  0.00     0.031 A 
ATOM     40  C   UNL A   1      38.165  32.802  32.509  1.00  0.00     0.074 A 
ATOM     41  C   UNL A   1      38.294  31.464  30.442  1.00  0.00     0.049 A 
ATOM     42  N   UNL A   1      39.162  32.292  33.192  1.00  0.00    -0.248 NA
ATOM     43  C   UNL A   1      37.482  33.911  33.191  1.00  0.00     0.031 C 
ATOM     44  C   UNL A   1      37.952  31.049  29.080  1.00  0.00     0.029 A 
ATOM     45  N   UNL A   1      39.360  30.664  30.772  1.00  0.00    -0.354 N 
ATOM     46  C   UNL A   1      39.221  33.013  34.378  1.00  0.00     0.074 A 
ATOM     47  C   UNL A   1      38.203  34.039  34.295  1.00  0.00     0.031 C 
ATOM     48  C   UNL A   1      38.768  30.052  28.704  1.00  0.00     0.029 A 
ATOM     49  C   UNL A   1      39.711  29.775  29.783  1.00  0.00     0.049 A 
ATOM     50  H   UNL A   1      39.829  30.720  31.636  1.00  0.00     0.167 HD
ATOM     51  C   UNL A   1      40.025  32.821  35.453  1.00  0.00     0.037 A 
ATOM     52  C   UNL A   1      40.680  28.840  29.750  1.00  0.00     0.037 A 
ATOM     53  C   UNL A   1      41.035  31.797  35.542  1.00  0.00     0.049 A 
ATOM     54  C   UNL A   1      41.552  28.639  30.959  1.00  0.00     0.074 A 
ATOM     55  C   UNL A   1      41.874  31.501  36.603  1.00  0.00     0.029 A 
ATOM     56  N   UNL A   1      41.344  30.902  34.529  1.00  0.00    -0.354 N 
ATOM     57  N   UNL A   1      41.543  29.280  32.103  1.00  0.00    -0.248 NA
ATOM     58  C   UNL A   1      42.557  27.570  30.879  1.00  0.00     0.031 C 
ATOM     59  C   UNL A   1      42.719  30.454  36.217  1.00  0.00     0.029 A 
ATOM     60  C   UNL A   1      42.371  30.062  34.934  1.00  0.00     0.049 A 
ATOM     61  H   UNL A   1      40.900  30.866  33.651  1.00  0.00     0.167 HD
ATOM     62  C   UNL A   1      42.523  28.682  32.883  1.00  0.00     0.074 A 
ATOM     63  C   UNL A   1      43.085  27.605  32.095  1.00  0.00     0.031 C 
ATOM     64  C   UNL A   1      42.926  28.998  34.139  1.00  0.00     0.037 A 
BRANCH  51  65
ATOM     65  C   UNL A   1      39.833  33.730  36.634  1.00  0.00     0.064 A 
ATOM     66  C   UNL A   1      40.479  34.975  36.710  1.00  0.00     0.173 A 
ATOM     67  C   UNL A   1      38.962  33.382  37.677  1.00  0.00     0.173 A 
ATOM     68  F   UNL A   1      41.330  35.354  35.745  1.00  0.00    -0.203 F 
ATOM     69  C   UNL A   1      40.281  35.822  37.797  1.00  0.00     0.198 A 
ATOM     70  C   UNL A   1      38.741  34.246  38.747  1.00  0.00     0.198 A 
ATOM     71  F   UNL A   1      38.312  32.209  37.652  1.00  0.00    -0.203 F 
ATOM     72  F   UNL A   1      40.946  36.984  37.869  1.00  0.00    -0.200 F 
ATOM     73  C   UNL A   1      39.407  35.460  38.810  1.00  0.00     0.200 A 
ATOM     74  F   UNL A   1      37.886  33.902  39.719  1.00  0.00    -0.200 F 
ATOM     75  F   UNL A   1      39.209  36.282  39.852  1.00  0.00    -0.200 F 
ENDBRANCH  51  65
BRANCH  52  76
ATOM     76  C   UNL A   1      40.863  28.003  28.534  1.00  0.00     0.064 A 
ATOM     77  C   UNL A   1      41.715  28.409  27.497  1.00  0.00     0.173 A 
ATOM     78  C   UNL A   1      40.179  26.790  28.377  1.00  0.00     0.173 A 
ATOM     79  F   UNL A   1      42.378  29.572  27.591  1.00  0.00    -0.203 F 
ATOM     80  C   UNL A   1      41.854  27.646  26.339  1.00  0.00     0.198 A 
ATOM     81  C   UNL A   1      40.342  26.012  27.234  1.00  0.00     0.198 A 
ATOM     82  F   UNL A   1      39.355  26.353  29.343  1.00  0.00    -0.203 F 
ATOM     83  F   UNL A   1      42.632  28.084  25.341  1.00  0.00    -0.200 F 
ATOM     84  C   UNL A   1      41.172  26.446  26.211  1.00  0.00     0.200 A 
ATOM     85  F   UNL A   1      39.694  24.845  27.120  1.00  0.00    -0.200 F 
ATOM     86  F   UNL A   1      41.307  25.712  25.098  1.00  0.00    -0.200 F 
ENDBRANCH  52  76
BRANCH  64  87
ATOM     87  C   UNL A   1      44.014  28.153  34.740  1.00  0.00     0.064 A 
ATOM     88  C   UNL A   1      43.725  26.982  35.460  1.00  0.00     0.173 A 
ATOM     89  C   UNL A   1      45.361  28.516  34.591  1.00  0.00     0.173 A 
ATOM     90  F   UNL A   1      42.453  26.599  35.643  1.00  0.00    -0.203 F 
ATOM     91  C   UNL A   1      44.743  26.232  36.043  1.00  0.00     0.198 A 
ATOM     92  C   UNL A   1      46.377  27.744  35.147  1.00  0.00     0.198 A 
ATOM     93  F   UNL A   1      45.693  29.619  33.905  1.00  0.00    -0.203 F 
ATOM     94  F   UNL A   1      44.438  25.155  36.781  1.00  0.00    -0.200 F 
ATOM     95  C   UNL A   1      46.067  26.610  35.883  1.00  0.00     0.200 A 
ATOM     96  F   UNL A   1      47.657  28.103  34.979  1.00  0.00    -0.200 F 
ATOM     97  F   UNL A   1      47.045  25.887  36.448  1.00  0.00    -0.200 F 
ENDBRANCH  64  87
ENDBRANCH  38  39
ENDBRANCH  30  33
ENDBRANCH  28  29
ENDBRANCH  27  28
ENDBRANCH  26  27
ENDBRANCH   1  26
TORSDOF 16
ENDMDL
MODEL 3
REMARK VINA RESULT:     -10.7      4.829     10.488
REMARK SMILES [NH3+][C@H](C(=O)NCCCCNC(=O)c1ccc(-c2c3nc(c(-c4c(F)c(F)c(F)c(F)c4F)c4ccc([nH]4)c(-c4c(F)c(F)c(F)c(F)c4F)c4nc(c(-c5c(F)c(F)c(F)c(F)c5F)c5ccc2[nH]5)C=C4)C=C3)cc1)c1ccc(OCC(=O)N2CCCC2)cc1
REMARK SMILES IDX 6 1 5 2 3 3 4 4 2 6 1 7 76 11 77 12 90 13 78 14 89 15 79 16
REMARK SMILES IDX 80 17 81 18 82 19 83 20 84 21 85 22 88 23 86 24 87 25 7 26
REMARK SMILES IDX 8 27 9 28 10 29 11 30 12 32 13 33 14 34 75 35 15 36 74 37
REMARK SMILES IDX 16 38 17 39 18 40 68 41 19 42 73 43 67 44 69 45 20 46 72 47
REMARK SMILES IDX 66 48 65 49 21 51 53 52 33 53 52 54 34 55 37 56 51 57 70 58
REMARK SMILES IDX 35 59 36 60 50 62 71 63 38 64 22 65 23 66 31 67 24 68 25 69
REMARK SMILES IDX 29 70 32 71 26 72 27 73 30 74 28 75 54 76 55 77 63 78 56 79
REMARK SMILES IDX 57 80 61 81 64 82 58 83 59 84 62 85 60 86 39 87 40 88 48 89
REMARK SMILES IDX 41 90 42 91 46 92 49 93 43 94 44 95 47 96 45 97
REMARK H PARENT 5 5 1 8 1 9 1 10 10 31 69 50 37 61
REMARK Flexibility Score: inf
ROOT
ATOM      1  C   UNL A   1      31.376  30.101  25.096  1.00  0.00     0.116 C 
ENDROOT
BRANCH   1   2
ATOM      2  N   UNL A   1      30.256  30.762  24.450  1.00  0.00    -0.351 N 
ATOM      3  C   UNL A   1      29.470  30.374  23.401  1.00  0.00     0.283 C 
ATOM      4  O   UNL A   1      28.432  31.028  23.238  1.00  0.00    -0.268 OA
ATOM      5  H   UNL A   1      30.023  31.639  24.832  1.00  0.00     0.163 HD
BRANCH   3   6
ATOM      6  C   UNL A   1      29.898  29.322  22.337  1.00  0.00     0.302 C 
BRANCH   6   7
ATOM      7  N   UNL A   1      31.043  29.905  21.594  1.00  0.00    -0.343 N 
ATOM      8  H   UNL A   1      30.769  30.069  20.624  1.00  0.00     0.345 HD
ATOM      9  H   UNL A   1      31.831  29.257  21.619  1.00  0.00     0.345 HD
ATOM     10  H   UNL A   1      31.314  30.788  22.026  1.00  0.00     0.345 HD
ENDBRANCH   6   7
BRANCH   6  11
ATOM     11  C   UNL A   1      30.186  27.899  22.789  1.00  0.00     0.019 A 
ATOM     12  C   UNL A   1      31.333  27.200  22.400  1.00  0.00     0.014 A 
ATOM     13  C   UNL A   1      29.291  27.249  23.663  1.00  0.00     0.014 A 
ATOM     14  C   UNL A   1      31.466  25.844  22.697  1.00  0.00     0.047 A 
ATOM     15  C   UNL A   1      29.455  25.908  24.016  1.00  0.00     0.047 A 
ATOM     16  C   UNL A   1      30.523  25.192  23.494  1.00  0.00     0.120 A 
BRANCH  16  17
ATOM     17  O   UNL A   1      30.742  23.857  23.655  1.00  0.00    -0.484 OA
BRANCH  17  18
ATOM     18  C   UNL A   1      30.850  23.371  24.980  1.00  0.00     0.329 C 
BRANCH  18  19
ATOM     19  C   UNL A   1      32.045  22.475  25.345  1.00  0.00     0.260 C 
ATOM     20  O   UNL A   1      31.921  21.247  25.329  1.00  0.00    -0.271 OA
ATOM     21  N   UNL A   1      33.266  23.075  25.564  1.00  0.00    -0.340 N 
ATOM     22  C   UNL A   1      33.551  24.486  25.743  1.00  0.00     0.119 C 
ATOM     23  C   UNL A   1      34.478  22.283  25.674  1.00  0.00     0.119 C 
ATOM     24  C   UNL A   1      35.016  24.614  25.380  1.00  0.00     0.023 C 
ATOM     25  C   UNL A   1      35.609  23.291  25.846  1.00  0.00     0.023 C 
ENDBRANCH  18  19
ENDBRANCH  17  18
ENDBRANCH  16  17
ENDBRANCH   6  11
ENDBRANCH   3   6
ENDBRANCH   1   2
BRANCH   1  26
ATOM     26  C   UNL A   1      31.675  30.587  26.511  1.00  0.00     0.023 C 
BRANCH  26  27
ATOM     27  C   UNL A   1      31.438  32.068  26.805  1.00  0.00     0.023 C 
BRANCH  27  28
ATOM     28  C   UNL A   1      32.675  32.945  26.965  1.00  0.00     0.116 C 
BRANCH  28  29
ATOM     29  N   UNL A   1      32.394  34.245  27.552  1.00  0.00    -0.352 N 
ATOM     30  C   UNL A   1      32.982  34.904  28.604  1.00  0.00     0.251 C 
ATOM     31  H   UNL A   1      31.659  34.737  27.122  1.00  0.00     0.163 HD
ATOM     32  O   UNL A   1      32.489  35.969  28.987  1.00  0.00    -0.269 OA
BRANCH  30  33
ATOM     33  C   UNL A   1      34.163  34.360  29.320  1.00  0.00     0.039 A 
ATOM     34  C   UNL A   1      33.947  33.635  30.497  1.00  0.00     0.014 A 
ATOM     35  C   UNL A   1      35.472  34.580  28.885  1.00  0.00     0.014 A 
ATOM     36  C   UNL A   1      35.026  33.077  31.189  1.00  0.00     0.010 A 
ATOM     37  C   UNL A   1      36.543  33.951  29.529  1.00  0.00     0.010 A 
ATOM     38  C   UNL A   1      36.334  33.192  30.689  1.00  0.00    -0.014 A 
BRANCH  38  39
ATOM     39  C   UNL A   1      37.466  32.500  31.367  1.00  0.00     0.031 A 
ATOM     40  C   UNL A   1      38.182  31.351  30.709  1.00  0.00     0.074 A 
ATOM     41  C   UNL A   1      37.837  32.894  32.601  1.00  0.00     0.049 A 
ATOM     42  N   UNL A   1      39.200  30.651  31.147  1.00  0.00    -0.248 NA
ATOM     43  C   UNL A   1      37.678  30.914  29.399  1.00  0.00     0.031 C 
ATOM     44  C   UNL A   1      37.183  33.945  33.384  1.00  0.00     0.029 A 
ATOM     45  N   UNL A   1      38.852  32.459  33.418  1.00  0.00    -0.354 N 
ATOM     46  C   UNL A   1      39.459  29.699  30.168  1.00  0.00     0.074 A 
ATOM     47  C   UNL A   1      38.450  29.867  29.144  1.00  0.00     0.031 C 
ATOM     48  C   UNL A   1      37.831  34.096  34.549  1.00  0.00     0.029 A 
ATOM     49  C   UNL A   1      38.927  33.134  34.613  1.00  0.00     0.049 A 
ATOM     50  H   UNL A   1      39.469  31.733  33.171  1.00  0.00     0.167 HD
ATOM     51  C   UNL A   1      40.463  28.789  30.110  1.00  0.00     0.037 A 
ATOM     52  C   UNL A   1      39.784  32.998  35.643  1.00  0.00     0.037 A 
ATOM     53  C   UNL A   1      41.472  28.623  31.124  1.00  0.00     0.049 A 
ATOM     54  C   UNL A   1      40.895  31.988  35.549  1.00  0.00     0.074 A 
ATOM     55  C   UNL A   1      42.550  27.754  31.137  1.00  0.00     0.029 A 
ATOM     56  N   UNL A   1      41.529  29.342  32.309  1.00  0.00    -0.354 N 
ATOM     57  N   UNL A   1      41.171  31.148  34.582  1.00  0.00    -0.248 NA
ATOM     58  C   UNL A   1      41.827  31.923  36.684  1.00  0.00     0.031 C 
ATOM     59  C   UNL A   1      43.234  27.917  32.347  1.00  0.00     0.029 A 
ATOM     60  C   UNL A   1      42.613  28.926  33.066  1.00  0.00     0.049 A 
ATOM     61  H   UNL A   1      40.892  30.045  32.574  1.00  0.00     0.167 HD
ATOM     62  C   UNL A   1      42.315  30.469  34.981  1.00  0.00     0.074 A 
ATOM     63  C   UNL A   1      42.700  31.019  36.263  1.00  0.00     0.031 C 
ATOM     64  C   UNL A   1      42.984  29.476  34.344  1.00  0.00     0.037 A 
BRANCH  51  65
ATOM     65  C   UNL A   1      40.530  27.909  28.894  1.00  0.00     0.064 A 
ATOM     66  C   UNL A   1      39.790  26.718  28.812  1.00  0.00     0.173 A 
ATOM     67  C   UNL A   1      41.300  28.276  27.780  1.00  0.00     0.173 A 
ATOM     68  F   UNL A   1      39.044  26.314  29.852  1.00  0.00    -0.203 F 
ATOM     69  C   UNL A   1      39.840  25.917  27.675  1.00  0.00     0.198 A 
ATOM     70  C   UNL A   1      41.322  27.489  26.631  1.00  0.00     0.198 A 
ATOM     71  F   UNL A   1      42.020  29.407  27.799  1.00  0.00    -0.203 F 
ATOM     72  F   UNL A   1      39.161  24.761  27.640  1.00  0.00    -0.200 F 
ATOM     73  C   UNL A   1      40.600  26.307  26.583  1.00  0.00     0.200 A 
ATOM     74  F   UNL A   1      42.046  27.873  25.571  1.00  0.00    -0.200 F 
ATOM     75  F   UNL A   1      40.639  25.540  25.484  1.00  0.00    -0.200 F 
ENDBRANCH  51  65
BRANCH  52  76
ATOM     76  C   UNL A   1      39.639  33.858  36.848  1.00  0.00     0.064 A 
ATOM     77  C   UNL A   1      38.852  33.455  37.936  1.00  0.00     0.173 A 
ATOM     78  C   UNL A   1      40.272  35.107  36.930  1.00  0.00     0.173 A 
ATOM     79  F   UNL A   1      38.210  32.277  37.898  1.00  0.00    -0.203 F 
ATOM     80  C   UNL A   1      38.682  34.279  39.047  1.00  0.00     0.198 A 
ATOM     81  C   UNL A   1      40.127  35.916  38.054  1.00  0.00     0.198 A 
ATOM     82  F   UNL A   1      41.042  35.537  35.918  1.00  0.00    -0.203 F 
ATOM     83  F   UNL A   1      37.880  33.892  40.048  1.00  0.00    -0.200 F 
ATOM     84  C   UNL A   1      39.324  35.506  39.108  1.00  0.00     0.200 A 
ATOM     85  F   UNL A   1      40.762  37.095  38.116  1.00  0.00    -0.200 F 
ATOM     86  F   UNL A   1      39.161  36.298  40.176  1.00  0.00    -0.200 F 
ENDBRANCH  52  76
BRANCH  64  87
ATOM     87  C   UNL A   1      44.212  28.937  35.022  1.00  0.00     0.064 A 
ATOM     88  C   UNL A   1      44.147  27.850  35.908  1.00  0.00     0.173 A 
ATOM     89  C   UNL A   1      45.469  29.512  34.780  1.00  0.00     0.173 A 
ATOM     90  F   UNL A   1      42.968  27.274  36.185  1.00  0.00    -0.203 F 
ATOM     91  C   UNL A   1      45.289  27.388  36.559  1.00  0.00     0.198 A 
ATOM     92  C   UNL A   1      46.613  29.024  35.406  1.00  0.00     0.198 A 
ATOM     93  F   UNL A   1      45.588  30.547  33.935  1.00  0.00    -0.203 F 
ATOM     94  F   UNL A   1      45.192  26.392  37.450  1.00  0.00    -0.200 F 
ATOM     95  C   UNL A   1      46.521  27.971  36.304  1.00  0.00     0.200 A 
ATOM     96  F   UNL A   1      47.804  29.581  35.147  1.00  0.00    -0.200 F 
ATOM     97  F   UNL A   1      47.618  27.526  36.932  1.00  0.00    -0.200 F 
ENDBRANCH  64  87
ENDBRANCH  38  39
ENDBRANCH  30  33
ENDBRANCH  28  29
ENDBRANCH  27  28
ENDBRANCH  26  27
ENDBRANCH   1  26
TORSDOF 16
ENDMDL
