MODEL 1
REMARK VINA RESULT:     -12.7      0.000      0.000
REMARK SMILES CC(C)CCc1cc2c(cc1Cl)C=C(C(=O)NCCCCNC(=O)c1ccc(-c3c4nc(c(-c5c(F)c(F)c(F)c(F)c5F)c5ccc([nH]5)c(-c5c(F)c(F)c(F)c(F)c5F)c5nc(c(-c6c(F)c(F)c(F)c(F)c6F)c6ccc3[nH]6)C=C5)C=C4)cc1)[C@@H](C(F)(F)F)O2
REMARK SMILES IDX 19 1 18 2 17 3 15 4 16 5 14 7 6 8 7 9 11 10 8 11 10 12 12 13
REMARK SMILES IDX 9 14 93 15 13 16 88 17 5 18 4 19 2 20 1 21 3 22 89 23 90 24
REMARK SMILES IDX 91 25 92 26 20 27 21 28 22 29 23 30 24 32 25 33 26 34 87 35
REMARK SMILES IDX 27 36 86 37 28 38 29 39 30 40 80 41 31 42 85 43 79 44 81 45
REMARK SMILES IDX 32 46 84 47 78 48 77 49 33 51 65 52 45 53 64 54 46 55 49 56
REMARK SMILES IDX 63 57 82 58 47 59 48 60 62 62 83 63 50 64 34 65 35 66 43 67
REMARK SMILES IDX 36 68 37 69 41 70 44 71 38 72 39 73 42 74 40 75 66 76 67 77
REMARK SMILES IDX 75 78 68 79 69 80 73 81 76 82 70 83 71 84 74 85 72 86 51 87
REMARK SMILES IDX 52 88 60 89 53 90 54 91 58 92 61 93 55 94 56 95 59 96 57 97
REMARK H PARENT 17 6 22 31 81 50 49 61
REMARK Flexibility Score: inf
ROOT
ATOM      1  C   UNL A   1      37.177  22.278  24.347  1.00  0.00     0.023 C 
ENDROOT
BRANCH   1   2
ATOM      2  C   UNL A   1      36.585  23.503  25.041  1.00  0.00     0.116 C 
BRANCH   2   3
ATOM      3  N   UNL A   1      35.641  23.144  26.085  1.00  0.00    -0.352 N 
ATOM      4  C   UNL A   1      34.368  23.467  26.415  1.00  0.00     0.251 C 
ATOM      5  O   UNL A   1      33.929  22.901  27.422  1.00  0.00    -0.270 OA
ATOM      6  H   UNL A   1      36.029  22.497  26.717  1.00  0.00     0.163 HD
BRANCH   4   7
ATOM      7  C   UNL A   1      33.500  24.427  25.671  1.00  0.00     0.067 C 
ATOM      8  C   UNL A   1      31.094  28.588  24.080  1.00  0.00    -0.026 A 
ATOM      9  C   UNL A   1      31.319  27.305  23.549  1.00  0.00     0.052 A 
ATOM     10  C   UNL A   1      31.701  28.907  25.307  1.00  0.00     0.045 A 
ATOM     11  C   UNL A   1      32.081  26.366  24.240  1.00  0.00     0.128 A 
ATOM     12  C   UNL A   1      32.483  27.963  25.989  1.00  0.00     0.032 A 
ATOM     13  Cl  UNL A   1      31.543  30.464  26.040  1.00  0.00    -0.084 Cl
ATOM     14  C   UNL A   1      32.671  26.685  25.458  1.00  0.00     0.019 A 
ATOM     15  O   UNL A   1      32.245  25.152  23.639  1.00  0.00    -0.475 OA
ATOM     16  C   UNL A   1      33.509  25.696  26.124  1.00  0.00     0.025 C 
ATOM     17  C   UNL A   1      32.615  24.051  24.515  1.00  0.00     0.314 C 
BRANCH   8  18
ATOM     18  C   UNL A   1      30.227  29.547  23.293  1.00  0.00     0.037 C 
BRANCH  18  19
ATOM     19  C   UNL A   1      28.834  28.995  22.941  1.00  0.00     0.008 C 
BRANCH  19  20
ATOM     20  C   UNL A   1      27.786  30.059  22.557  1.00  0.00    -0.017 C 
ATOM     21  C   UNL A   1      27.732  31.203  23.571  1.00  0.00     0.007 C 
ATOM     22  C   UNL A   1      28.102  30.620  21.168  1.00  0.00     0.007 C 
ENDBRANCH  19  20
ENDBRANCH  18  19
ENDBRANCH   8  18
BRANCH  17  23
ATOM     23  C   UNL A   1      31.343  23.305  24.962  1.00  0.00     0.429 C 
ATOM     24  F   UNL A   1      31.600  21.981  25.113  1.00  0.00    -0.167 F 
ATOM     25  F   UNL A   1      30.880  23.742  26.157  1.00  0.00    -0.167 F 
ATOM     26  F   UNL A   1      30.328  23.424  24.078  1.00  0.00    -0.167 F 
ENDBRANCH  17  23
ENDBRANCH   4   7
ENDBRANCH   2   3
ENDBRANCH   1   2
BRANCH   1  27
ATOM     27  C   UNL A   1      37.575  21.141  25.293  1.00  0.00     0.023 C 
BRANCH  27  28
ATOM     28  C   UNL A   1      39.015  21.187  25.802  1.00  0.00     0.116 C 
BRANCH  28  29
ATOM     29  N   UNL A   1      39.735  19.924  25.706  1.00  0.00    -0.352 N 
ATOM     30  C   UNL A   1      41.067  19.694  25.979  1.00  0.00     0.251 C 
ATOM     31  H   UNL A   1      39.210  19.145  25.411  1.00  0.00     0.163 HD
ATOM     32  O   UNL A   1      41.573  18.596  25.776  1.00  0.00    -0.269 OA
BRANCH  30  33
ATOM     33  C   UNL A   1      41.893  20.822  26.456  1.00  0.00     0.039 A 
ATOM     34  C   UNL A   1      42.062  21.033  27.824  1.00  0.00     0.014 A 
ATOM     35  C   UNL A   1      42.396  21.738  25.528  1.00  0.00     0.014 A 
ATOM     36  C   UNL A   1      42.547  22.256  28.266  1.00  0.00     0.010 A 
ATOM     37  C   UNL A   1      42.965  22.932  25.978  1.00  0.00     0.010 A 
ATOM     38  C   UNL A   1      42.973  23.233  27.349  1.00  0.00    -0.014 A 
BRANCH  38  39
ATOM     39  C   UNL A   1      43.355  24.575  27.862  1.00  0.00     0.031 A 
ATOM     40  C   UNL A   1      44.798  25.011  27.865  1.00  0.00     0.074 A 
ATOM     41  C   UNL A   1      42.389  25.444  28.212  1.00  0.00     0.049 A 
ATOM     42  N   UNL A   1      45.304  26.182  28.163  1.00  0.00    -0.248 NA
ATOM     43  C   UNL A   1      45.806  24.007  27.489  1.00  0.00     0.031 C 
ATOM     44  C   UNL A   1      40.958  25.141  28.236  1.00  0.00     0.029 A 
ATOM     45  N   UNL A   1      42.456  26.768  28.563  1.00  0.00    -0.354 N 
ATOM     46  C   UNL A   1      46.680  26.051  28.025  1.00  0.00     0.074 A 
ATOM     47  C   UNL A   1      46.938  24.680  27.646  1.00  0.00     0.031 C 
ATOM     48  C   UNL A   1      40.276  26.264  28.504  1.00  0.00     0.029 A 
ATOM     49  C   UNL A   1      41.224  27.354  28.723  1.00  0.00     0.049 A 
ATOM     50  H   UNL A   1      43.305  27.251  28.689  1.00  0.00     0.167 HD
ATOM     51  C   UNL A   1      47.639  26.994  28.181  1.00  0.00     0.037 A 
ATOM     52  C   UNL A   1      40.893  28.628  29.006  1.00  0.00     0.037 A 
ATOM     53  C   UNL A   1      47.382  28.369  28.514  1.00  0.00     0.049 A 
ATOM     54  C   UNL A   1      41.980  29.643  29.208  1.00  0.00     0.074 A 
ATOM     55  C   UNL A   1      48.288  29.407  28.644  1.00  0.00     0.029 A 
ATOM     56  N   UNL A   1      46.126  28.897  28.764  1.00  0.00    -0.354 N 
ATOM     57  N   UNL A   1      43.274  29.507  29.060  1.00  0.00    -0.248 NA
ATOM     58  C   UNL A   1      41.562  30.985  29.639  1.00  0.00     0.031 C 
ATOM     59  C   UNL A   1      47.583  30.558  29.009  1.00  0.00     0.029 A 
ATOM     60  C   UNL A   1      46.236  30.242  29.076  1.00  0.00     0.049 A 
ATOM     61  H   UNL A   1      45.281  28.393  28.725  1.00  0.00     0.167 HD
ATOM     62  C   UNL A   1      43.825  30.738  29.381  1.00  0.00     0.074 A 
ATOM     63  C   UNL A   1      42.723  31.620  29.708  1.00  0.00     0.031 C 
ATOM     64  C   UNL A   1      45.130  31.101  29.412  1.00  0.00     0.037 A 
BRANCH  51  65
ATOM     65  C   UNL A   1      49.068  26.579  27.989  1.00  0.00     0.064 A 
ATOM     66  C   UNL A   1      49.632  26.469  26.711  1.00  0.00     0.173 A 
ATOM     67  C   UNL A   1      49.900  26.367  29.098  1.00  0.00     0.173 A 
ATOM     68  F   UNL A   1      48.874  26.652  25.620  1.00  0.00    -0.203 F 
ATOM     69  C   UNL A   1      50.979  26.150  26.550  1.00  0.00     0.198 A 
ATOM     70  C   UNL A   1      51.251  26.069  28.934  1.00  0.00     0.198 A 
ATOM     71  F   UNL A   1      49.408  26.468  30.342  1.00  0.00    -0.203 F 
ATOM     72  F   UNL A   1      51.493  26.026  25.318  1.00  0.00    -0.200 F 
ATOM     73  C   UNL A   1      51.787  25.959  27.660  1.00  0.00     0.200 A 
ATOM     74  F   UNL A   1      52.033  25.894  30.008  1.00  0.00    -0.200 F 
ATOM     75  F   UNL A   1      53.086  25.666  27.503  1.00  0.00    -0.200 F 
ENDBRANCH  51  65
BRANCH  52  76
ATOM     76  C   UNL A   1      39.461  29.008  29.098  1.00  0.00     0.064 A 
ATOM     77  C   UNL A   1      38.747  29.391  27.956  1.00  0.00     0.173 A 
ATOM     78  C   UNL A   1      38.772  28.960  30.319  1.00  0.00     0.173 A 
ATOM     79  F   UNL A   1      39.370  29.468  26.771  1.00  0.00    -0.203 F 
ATOM     80  C   UNL A   1      37.393  29.711  28.030  1.00  0.00     0.198 A 
ATOM     81  C   UNL A   1      37.413  29.259  30.387  1.00  0.00     0.198 A 
ATOM     82  F   UNL A   1      39.414  28.598  31.438  1.00  0.00    -0.203 F 
ATOM     83  F   UNL A   1      36.736  30.095  26.928  1.00  0.00    -0.200 F 
ATOM     84  C   UNL A   1      36.726  29.637  29.244  1.00  0.00     0.200 A 
ATOM     85  F   UNL A   1      36.769  29.172  31.559  1.00  0.00    -0.200 F 
ATOM     86  F   UNL A   1      35.420  29.931  29.312  1.00  0.00    -0.200 F 
ENDBRANCH  52  76
BRANCH  64  87
ATOM     87  C   UNL A   1      45.449  32.501  29.834  1.00  0.00     0.064 A 
ATOM     88  C   UNL A   1      45.463  33.548  28.902  1.00  0.00     0.173 A 
ATOM     89  C   UNL A   1      45.657  32.814  31.185  1.00  0.00     0.173 A 
ATOM     90  F   UNL A   1      45.281  33.293  27.598  1.00  0.00    -0.203 F 
ATOM     91  C   UNL A   1      45.676  34.862  29.309  1.00  0.00     0.198 A 
ATOM     92  C   UNL A   1      45.851  34.131  31.590  1.00  0.00     0.198 A 
ATOM     93  F   UNL A   1      45.646  31.845  32.113  1.00  0.00    -0.203 F 
ATOM     94  F   UNL A   1      45.703  35.846  28.400  1.00  0.00    -0.200 F 
ATOM     95  C   UNL A   1      45.860  35.153  30.653  1.00  0.00     0.200 A 
ATOM     96  F   UNL A   1      46.018  34.413  32.889  1.00  0.00    -0.200 F 
ATOM     97  F   UNL A   1      46.049  36.421  31.044  1.00  0.00    -0.200 F 
ENDBRANCH  64  87
ENDBRANCH  38  39
ENDBRANCH  30  33
ENDBRANCH  28  29
ENDBRANCH  27  28
ENDBRANCH   1  27
TORSDOF 15
ENDMDL
MODEL 2
REMARK VINA RESULT:     -12.7      0.321      1.935
REMARK SMILES CC(C)CCc1cc2c(cc1Cl)C=C(C(=O)NCCCCNC(=O)c1ccc(-c3c4nc(c(-c5c(F)c(F)c(F)c(F)c5F)c5ccc([nH]5)c(-c5c(F)c(F)c(F)c(F)c5F)c5nc(c(-c6c(F)c(F)c(F)c(F)c6F)c6ccc3[nH]6)C=C5)C=C4)cc1)[C@@H](C(F)(F)F)O2
REMARK SMILES IDX 19 1 18 2 17 3 15 4 16 5 14 7 6 8 7 9 11 10 8 11 10 12 12 13
REMARK SMILES IDX 9 14 93 15 13 16 88 17 5 18 4 19 2 20 1 21 3 22 89 23 90 24
REMARK SMILES IDX 91 25 92 26 20 27 21 28 22 29 23 30 24 32 25 33 26 34 87 35
REMARK SMILES IDX 27 36 86 37 28 38 29 39 30 40 80 41 31 42 85 43 79 44 81 45
REMARK SMILES IDX 32 46 84 47 78 48 77 49 33 51 65 52 45 53 64 54 46 55 49 56
REMARK SMILES IDX 63 57 82 58 47 59 48 60 62 62 83 63 50 64 34 65 35 66 43 67
REMARK SMILES IDX 36 68 37 69 41 70 44 71 38 72 39 73 42 74 40 75 66 76 67 77
REMARK SMILES IDX 75 78 68 79 69 80 73 81 76 82 70 83 71 84 74 85 72 86 51 87
REMARK SMILES IDX 52 88 60 89 53 90 54 91 58 92 61 93 55 94 56 95 59 96 57 97
REMARK H PARENT 17 6 22 31 81 50 49 61
REMARK Flexibility Score: inf
ROOT
ATOM      1  C   UNL A   1      37.215  22.316  24.585  1.00  0.00     0.023 C 
ENDROOT
BRANCH   1   2
ATOM      2  C   UNL A   1      36.859  23.467  25.524  1.00  0.00     0.116 C 
BRANCH   2   3
ATOM      3  N   UNL A   1      35.846  23.093  26.496  1.00  0.00    -0.352 N 
ATOM      4  C   UNL A   1      34.523  23.318  26.677  1.00  0.00     0.251 C 
ATOM      5  O   UNL A   1      34.031  22.783  27.676  1.00  0.00    -0.270 OA
ATOM      6  H   UNL A   1      36.220  22.527  27.210  1.00  0.00     0.163 HD
BRANCH   4   7
ATOM      7  C   UNL A   1      33.658  24.144  25.782  1.00  0.00     0.067 C 
ATOM      8  C   UNL A   1      31.179  27.975  23.589  1.00  0.00    -0.026 A 
ATOM      9  C   UNL A   1      31.480  26.650  23.228  1.00  0.00     0.052 A 
ATOM     10  C   UNL A   1      31.708  28.464  24.796  1.00  0.00     0.045 A 
ATOM     11  C   UNL A   1      32.242  25.834  24.063  1.00  0.00     0.128 A 
ATOM     12  C   UNL A   1      32.490  27.644  25.622  1.00  0.00     0.032 A 
ATOM     13  Cl  UNL A   1      31.452  30.088  25.327  1.00  0.00    -0.084 Cl
ATOM     14  C   UNL A   1      32.755  26.322  25.260  1.00  0.00     0.019 A 
ATOM     15  O   UNL A   1      32.484  24.566  23.621  1.00  0.00    -0.475 OA
ATOM     16  C   UNL A   1      33.594  25.456  26.079  1.00  0.00     0.025 C 
ATOM     17  C   UNL A   1      32.850  23.595  24.639  1.00  0.00     0.314 C 
BRANCH   8  18
ATOM     18  C   UNL A   1      30.318  28.795  22.652  1.00  0.00     0.037 C 
BRANCH  18  19
ATOM     19  C   UNL A   1      28.817  28.774  22.995  1.00  0.00     0.008 C 
BRANCH  19  20
ATOM     20  C   UNL A   1      28.003  29.960  22.438  1.00  0.00    -0.017 C 
ATOM     21  C   UNL A   1      27.643  30.971  23.527  1.00  0.00     0.007 C 
ATOM     22  C   UNL A   1      28.797  30.659  21.332  1.00  0.00     0.007 C 
ENDBRANCH  19  20
ENDBRANCH  18  19
ENDBRANCH   8  18
BRANCH  17  23
ATOM     23  C   UNL A   1      31.586  22.851  25.113  1.00  0.00     0.429 C 
ATOM     24  F   UNL A   1      31.862  21.539  25.326  1.00  0.00    -0.167 F 
ATOM     25  F   UNL A   1      31.109  23.335  26.284  1.00  0.00    -0.167 F 
ATOM     26  F   UNL A   1      30.575  22.914  24.219  1.00  0.00    -0.167 F 
ENDBRANCH  17  23
ENDBRANCH   4   7
ENDBRANCH   2   3
ENDBRANCH   1   2
BRANCH   1  27
ATOM     27  C   UNL A   1      37.727  21.055  25.289  1.00  0.00     0.023 C 
BRANCH  27  28
ATOM     28  C   UNL A   1      39.161  21.131  25.808  1.00  0.00     0.116 C 
BRANCH  28  29
ATOM     29  N   UNL A   1      39.898  19.876  25.747  1.00  0.00    -0.352 N 
ATOM     30  C   UNL A   1      41.229  19.668  26.040  1.00  0.00     0.251 C 
ATOM     31  H   UNL A   1      39.386  19.084  25.461  1.00  0.00     0.163 HD
ATOM     32  O   UNL A   1      41.751  18.573  25.866  1.00  0.00    -0.269 OA
BRANCH  30  33
ATOM     33  C   UNL A   1      42.035  20.816  26.504  1.00  0.00     0.039 A 
ATOM     34  C   UNL A   1      42.195  21.050  27.869  1.00  0.00     0.014 A 
ATOM     35  C   UNL A   1      42.528  21.726  25.564  1.00  0.00     0.014 A 
ATOM     36  C   UNL A   1      42.659  22.287  28.295  1.00  0.00     0.010 A 
ATOM     37  C   UNL A   1      43.076  22.936  25.999  1.00  0.00     0.010 A 
ATOM     38  C   UNL A   1      43.074  23.257  27.365  1.00  0.00    -0.014 A 
BRANCH  38  39
ATOM     39  C   UNL A   1      43.432  24.612  27.859  1.00  0.00     0.031 A 
ATOM     40  C   UNL A   1      44.864  25.081  27.837  1.00  0.00     0.074 A 
ATOM     41  C   UNL A   1      42.451  25.462  28.216  1.00  0.00     0.049 A 
ATOM     42  N   UNL A   1      45.347  26.266  28.116  1.00  0.00    -0.248 NA
ATOM     43  C   UNL A   1      45.889  24.097  27.454  1.00  0.00     0.031 C 
ATOM     44  C   UNL A   1      41.028  25.126  28.266  1.00  0.00     0.029 A 
ATOM     45  N   UNL A   1      42.494  26.791  28.555  1.00  0.00    -0.354 N 
ATOM     46  C   UNL A   1      46.724  26.166  27.957  1.00  0.00     0.074 A 
ATOM     47  C   UNL A   1      47.007  24.797  27.588  1.00  0.00     0.031 C 
ATOM     48  C   UNL A   1      40.325  26.236  28.534  1.00  0.00     0.029 A 
ATOM     49  C   UNL A   1      41.251  27.349  28.728  1.00  0.00     0.049 A 
ATOM     50  H   UNL A   1      43.332  27.295  28.663  1.00  0.00     0.167 HD
ATOM     51  C   UNL A   1      47.663  27.132  28.090  1.00  0.00     0.037 A 
ATOM     52  C   UNL A   1      40.894  28.618  29.004  1.00  0.00     0.037 A 
ATOM     53  C   UNL A   1      47.380  28.504  28.414  1.00  0.00     0.049 A 
ATOM     54  C   UNL A   1      41.960  29.660  29.180  1.00  0.00     0.074 A 
ATOM     55  C   UNL A   1      48.263  29.564  28.521  1.00  0.00     0.029 A 
ATOM     56  N   UNL A   1      46.115  29.006  28.679  1.00  0.00    -0.354 N 
ATOM     57  N   UNL A   1      43.255  29.552  29.013  1.00  0.00    -0.248 NA
ATOM     58  C   UNL A   1      41.518  30.996  29.605  1.00  0.00     0.031 C 
ATOM     59  C   UNL A   1      47.537  30.702  28.886  1.00  0.00     0.029 A 
ATOM     60  C   UNL A   1      46.199  30.355  28.976  1.00  0.00     0.049 A 
ATOM     61  H   UNL A   1      45.282  28.482  28.658  1.00  0.00     0.167 HD
ATOM     62  C   UNL A   1      43.783  30.799  29.314  1.00  0.00     0.074 A 
ATOM     63  C   UNL A   1      42.666  31.658  29.650  1.00  0.00     0.031 C 
ATOM     64  C   UNL A   1      45.079  31.192  29.322  1.00  0.00     0.037 A 
BRANCH  51  65
ATOM     65  C   UNL A   1      49.098  26.749  27.880  1.00  0.00     0.064 A 
ATOM     66  C   UNL A   1      49.945  26.465  28.960  1.00  0.00     0.173 A 
ATOM     67  C   UNL A   1      49.608  26.588  26.582  1.00  0.00     0.173 A 
ATOM     68  F   UNL A   1      49.507  26.614  30.219  1.00  0.00    -0.203 F 
ATOM     69  C   UNL A   1      51.256  26.044  28.749  1.00  0.00     0.198 A 
ATOM     70  C   UNL A   1      50.912  26.146  26.375  1.00  0.00     0.198 A 
ATOM     71  F   UNL A   1      48.834  26.841  25.516  1.00  0.00    -0.203 F 
ATOM     72  F   UNL A   1      52.057  25.801  29.796  1.00  0.00    -0.200 F 
ATOM     73  C   UNL A   1      51.734  25.877  27.458  1.00  0.00     0.200 A 
ATOM     74  F   UNL A   1      51.370  25.976  25.127  1.00  0.00    -0.200 F 
ATOM     75  F   UNL A   1      52.992  25.458  27.257  1.00  0.00    -0.200 F 
ENDBRANCH  51  65
BRANCH  52  76
ATOM     76  C   UNL A   1      39.455  28.966  29.115  1.00  0.00     0.064 A 
ATOM     77  C   UNL A   1      38.801  28.915  30.352  1.00  0.00     0.173 A 
ATOM     78  C   UNL A   1      38.720  29.388  27.999  1.00  0.00     0.173 A 
ATOM     79  F   UNL A   1      39.461  28.499  31.444  1.00  0.00    -0.203 F 
ATOM     80  C   UNL A   1      37.461  29.278  30.470  1.00  0.00     0.198 A 
ATOM     81  C   UNL A   1      37.386  29.772  28.122  1.00  0.00     0.198 A 
ATOM     82  F   UNL A   1      39.305  29.453  26.795  1.00  0.00    -0.203 F 
ATOM     83  F   UNL A   1      36.850  29.202  31.660  1.00  0.00    -0.200 F 
ATOM     84  C   UNL A   1      36.757  29.714  29.357  1.00  0.00     0.200 A 
ATOM     85  F   UNL A   1      36.715  30.206  27.047  1.00  0.00    -0.200 F 
ATOM     86  F   UNL A   1      35.473  30.076  29.473  1.00  0.00    -0.200 F 
ENDBRANCH  52  76
BRANCH  64  87
ATOM     87  C   UNL A   1      45.372  32.603  29.726  1.00  0.00     0.064 A 
ATOM     88  C   UNL A   1      45.696  32.919  31.052  1.00  0.00     0.173 A 
ATOM     89  C   UNL A   1      45.413  33.630  28.771  1.00  0.00     0.173 A 
ATOM     90  F   UNL A   1      45.657  31.971  32.001  1.00  0.00    -0.203 F 
ATOM     91  C   UNL A   1      46.051  34.217  31.410  1.00  0.00     0.198 A 
ATOM     92  C   UNL A   1      45.786  34.921  29.129  1.00  0.00     0.198 A 
ATOM     93  F   UNL A   1      45.116  33.371  27.489  1.00  0.00    -0.203 F 
ATOM     94  F   UNL A   1      46.340  34.502  32.687  1.00  0.00    -0.200 F 
ATOM     95  C   UNL A   1      46.105  35.213  30.447  1.00  0.00     0.200 A 
ATOM     96  F   UNL A   1      45.850  35.881  28.196  1.00  0.00    -0.200 F 
ATOM     97  F   UNL A   1      46.463  36.458  30.790  1.00  0.00    -0.200 F 
ENDBRANCH  64  87
ENDBRANCH  38  39
ENDBRANCH  30  33
ENDBRANCH  28  29
ENDBRANCH  27  28
ENDBRANCH   1  27
TORSDOF 15
ENDMDL
MODEL 3
REMARK VINA RESULT:     -12.7      5.322     10.424
REMARK SMILES CC(C)CCc1cc2c(cc1Cl)C=C(C(=O)NCCCCNC(=O)c1ccc(-c3c4nc(c(-c5c(F)c(F)c(F)c(F)c5F)c5ccc([nH]5)c(-c5c(F)c(F)c(F)c(F)c5F)c5nc(c(-c6c(F)c(F)c(F)c(F)c6F)c6ccc3[nH]6)C=C5)C=C4)cc1)[C@@H](C(F)(F)F)O2
REMARK SMILES IDX 19 1 18 2 17 3 15 4 16 5 14 7 6 8 7 9 11 10 8 11 10 12 12 13
REMARK SMILES IDX 9 14 93 15 13 16 88 17 5 18 4 19 2 20 1 21 3 22 89 23 90 24
REMARK SMILES IDX 91 25 92 26 20 27 21 28 22 29 23 30 24 32 25 33 26 34 87 35
REMARK SMILES IDX 27 36 86 37 28 38 29 39 30 40 80 41 31 42 85 43 79 44 81 45
REMARK SMILES IDX 32 46 84 47 78 48 77 49 33 51 65 52 45 53 64 54 46 55 49 56
REMARK SMILES IDX 63 57 82 58 47 59 48 60 62 62 83 63 50 64 34 65 35 66 43 67
REMARK SMILES IDX 36 68 37 69 41 70 44 71 38 72 39 73 42 74 40 75 66 76 67 77
REMARK SMILES IDX 75 78 68 79 69 80 73 81 76 82 70 83 71 84 74 85 72 86 51 87
REMARK SMILES IDX 52 88 60 89 53 90 54 91 58 92 61 93 55 94 56 95 59 96 57 97
REMARK H PARENT 17 6 22 31 81 50 49 61
REMARK Flexibility Score: inf
ROOT
ATOM      1  C   UNL A   1      32.469  29.812  27.100  1.00  0.00     0.023 C 
ENDROOT
BRANCH   1   2
ATOM      2  C   UNL A   1      33.673  29.348  26.283  1.00  0.00     0.116 C 
BRANCH   2   3
ATOM      3  N   UNL A   1      33.389  29.300  24.859  1.00  0.00    -0.352 N 
ATOM      4  C   UNL A   1      33.076  28.348  23.949  1.00  0.00     0.251 C 
ATOM      5  O   UNL A   1      32.904  28.761  22.797  1.00  0.00    -0.270 OA
ATOM      6  H   UNL A   1      33.437  30.195  24.450  1.00  0.00     0.163 HD
BRANCH   4   7
ATOM      7  C   UNL A   1      32.935  26.890  24.238  1.00  0.00     0.067 C 
ATOM      8  C   UNL A   1      33.856  21.981  25.068  1.00  0.00    -0.026 A 
ATOM      9  C   UNL A   1      32.758  22.836  25.275  1.00  0.00     0.052 A 
ATOM     10  C   UNL A   1      35.048  22.548  24.584  1.00  0.00     0.045 A 
ATOM     11  C   UNL A   1      32.837  24.193  24.968  1.00  0.00     0.128 A 
ATOM     12  C   UNL A   1      35.126  23.918  24.295  1.00  0.00     0.032 A 
ATOM     13  Cl  UNL A   1      36.480  21.615  24.333  1.00  0.00    -0.084 Cl
ATOM     14  C   UNL A   1      34.017  24.745  24.481  1.00  0.00     0.019 A 
ATOM     15  O   UNL A   1      31.721  24.939  25.210  1.00  0.00    -0.475 OA
ATOM     16  C   UNL A   1      34.079  26.179  24.226  1.00  0.00     0.025 C 
ATOM     17  C   UNL A   1      31.625  26.197  24.486  1.00  0.00     0.314 C 
BRANCH   8  18
ATOM     18  C   UNL A   1      33.690  20.511  25.390  1.00  0.00     0.037 C 
BRANCH  18  19
ATOM     19  C   UNL A   1      32.494  19.842  24.688  1.00  0.00     0.008 C 
BRANCH  19  20
ATOM     20  C   UNL A   1      32.769  18.431  24.131  1.00  0.00    -0.017 C 
ATOM     21  C   UNL A   1      32.388  18.311  22.656  1.00  0.00     0.007 C 
ATOM     22  C   UNL A   1      34.249  18.083  24.308  1.00  0.00     0.007 C 
ENDBRANCH  19  20
ENDBRANCH  18  19
ENDBRANCH   8  18
BRANCH  17  23
ATOM     23  C   UNL A   1      30.816  25.980  23.192  1.00  0.00     0.429 C 
ATOM     24  F   UNL A   1      30.019  27.051  22.949  1.00  0.00    -0.167 F 
ATOM     25  F   UNL A   1      31.609  25.839  22.104  1.00  0.00    -0.167 F 
ATOM     26  F   UNL A   1      30.023  24.887  23.247  1.00  0.00    -0.167 F 
ENDBRANCH  17  23
ENDBRANCH   4   7
ENDBRANCH   2   3
ENDBRANCH   1   2
BRANCH   1  27
ATOM     27  C   UNL A   1      32.096  31.285  26.905  1.00  0.00     0.023 C 
BRANCH  27  28
ATOM     28  C   UNL A   1      33.059  32.292  27.528  1.00  0.00     0.116 C 
BRANCH  28  29
ATOM     29  N   UNL A   1      32.527  33.641  27.663  1.00  0.00    -0.352 N 
ATOM     30  C   UNL A   1      33.001  34.655  28.468  1.00  0.00     0.251 C 
ATOM     31  H   UNL A   1      31.736  33.854  27.116  1.00  0.00     0.163 HD
ATOM     32  O   UNL A   1      32.407  35.725  28.553  1.00  0.00    -0.269 OA
BRANCH  30  33
ATOM     33  C   UNL A   1      34.205  34.401  29.286  1.00  0.00     0.039 A 
ATOM     34  C   UNL A   1      35.469  34.687  28.773  1.00  0.00     0.014 A 
ATOM     35  C   UNL A   1      34.066  33.760  30.520  1.00  0.00     0.014 A 
ATOM     36  C   UNL A   1      36.590  34.150  29.392  1.00  0.00     0.010 A 
ATOM     37  C   UNL A   1      35.204  33.296  31.186  1.00  0.00     0.010 A 
ATOM     38  C   UNL A   1      36.467  33.419  30.587  1.00  0.00    -0.014 A 
BRANCH  38  39
ATOM     39  C   UNL A   1      37.673  32.748  31.139  1.00  0.00     0.031 A 
ATOM     40  C   UNL A   1      38.148  33.056  32.536  1.00  0.00     0.074 A 
ATOM     41  C   UNL A   1      38.267  31.773  30.426  1.00  0.00     0.049 A 
ATOM     42  N   UNL A   1      39.105  32.485  33.225  1.00  0.00    -0.248 NA
ATOM     43  C   UNL A   1      37.468  34.145  33.254  1.00  0.00     0.031 C 
ATOM     44  C   UNL A   1      37.887  31.377  29.070  1.00  0.00     0.029 A 
ATOM     45  N   UNL A   1      39.277  30.906  30.757  1.00  0.00    -0.354 N 
ATOM     46  C   UNL A   1      39.149  33.151  34.443  1.00  0.00     0.074 A 
ATOM     47  C   UNL A   1      38.146  34.191  34.393  1.00  0.00     0.031 C 
ATOM     48  C   UNL A   1      38.596  30.296  28.714  1.00  0.00     0.029 A 
ATOM     49  C   UNL A   1      39.517  29.956  29.795  1.00  0.00     0.049 A 
ATOM     50  H   UNL A   1      39.780  30.960  31.602  1.00  0.00     0.167 HD
ATOM     51  C   UNL A   1      39.942  32.905  35.513  1.00  0.00     0.037 A 
ATOM     52  C   UNL A   1      40.377  28.920  29.787  1.00  0.00     0.037 A 
ATOM     53  C   UNL A   1      40.911  31.845  35.582  1.00  0.00     0.049 A 
ATOM     54  C   UNL A   1      41.269  28.694  30.973  1.00  0.00     0.074 A 
ATOM     55  C   UNL A   1      41.724  31.489  36.643  1.00  0.00     0.029 A 
ATOM     56  N   UNL A   1      41.191  30.966  34.548  1.00  0.00    -0.354 N 
ATOM     57  N   UNL A   1      41.288  29.323  32.122  1.00  0.00    -0.248 NA
ATOM     58  C   UNL A   1      42.273  27.627  30.855  1.00  0.00     0.031 C 
ATOM     59  C   UNL A   1      42.524  30.415  36.239  1.00  0.00     0.029 A 
ATOM     60  C   UNL A   1      42.187  30.085  34.937  1.00  0.00     0.049 A 
ATOM     61  H   UNL A   1      40.749  30.966  33.668  1.00  0.00     0.167 HD
ATOM     62  C   UNL A   1      42.304  28.735  32.861  1.00  0.00     0.074 A 
ATOM     63  C   UNL A   1      42.863  27.680  32.041  1.00  0.00     0.031 C 
ATOM     64  C   UNL A   1      42.741  29.050  34.103  1.00  0.00     0.037 A 
BRANCH  51  65
ATOM     65  C   UNL A   1      39.800  33.796  36.711  1.00  0.00     0.064 A 
ATOM     66  C   UNL A   1      40.433  35.045  36.774  1.00  0.00     0.173 A 
ATOM     67  C   UNL A   1      38.958  33.430  37.772  1.00  0.00     0.173 A 
ATOM     68  F   UNL A   1      41.255  35.435  35.789  1.00  0.00    -0.203 F 
ATOM     69  C   UNL A   1      40.237  35.892  37.863  1.00  0.00     0.198 A 
ATOM     70  C   UNL A   1      38.747  34.287  38.849  1.00  0.00     0.198 A 
ATOM     71  F   UNL A   1      38.324  32.247  37.755  1.00  0.00    -0.203 F 
ATOM     72  F   UNL A   1      40.871  37.072  37.914  1.00  0.00    -0.200 F 
ATOM     73  C   UNL A   1      39.388  35.516  38.893  1.00  0.00     0.200 A 
ATOM     74  F   UNL A   1      37.920  33.927  39.840  1.00  0.00    -0.200 F 
ATOM     75  F   UNL A   1      39.191  36.338  39.934  1.00  0.00    -0.200 F 
ENDBRANCH  51  65
BRANCH  52  76
ATOM     76  C   UNL A   1      40.419  28.014  28.612  1.00  0.00     0.064 A 
ATOM     77  C   UNL A   1      41.163  28.350  27.475  1.00  0.00     0.173 A 
ATOM     78  C   UNL A   1      39.749  26.782  28.618  1.00  0.00     0.173 A 
ATOM     79  F   UNL A   1      41.805  29.527  27.418  1.00  0.00    -0.203 F 
ATOM     80  C   UNL A   1      41.237  27.486  26.384  1.00  0.00     0.198 A 
ATOM     81  C   UNL A   1      39.843  25.909  27.537  1.00  0.00     0.198 A 
ATOM     82  F   UNL A   1      39.025  26.417  29.686  1.00  0.00    -0.203 F 
ATOM     83  F   UNL A   1      41.938  27.839  25.299  1.00  0.00    -0.200 F 
ATOM     84  C   UNL A   1      40.584  26.263  26.420  1.00  0.00     0.200 A 
ATOM     85  F   UNL A   1      39.222  24.723  27.581  1.00  0.00    -0.200 F 
ATOM     86  F   UNL A   1      40.668  25.426  25.377  1.00  0.00    -0.200 F 
ENDBRANCH  52  76
BRANCH  64  87
ATOM     87  C   UNL A   1      43.892  28.266  34.652  1.00  0.00     0.064 A 
ATOM     88  C   UNL A   1      45.207  28.731  34.519  1.00  0.00     0.173 A 
ATOM     89  C   UNL A   1      43.675  27.092  35.388  1.00  0.00     0.173 A 
ATOM     90  F   UNL A   1      45.462  29.843  33.812  1.00  0.00    -0.203 F 
ATOM     91  C   UNL A   1      46.269  28.045  35.102  1.00  0.00     0.198 A 
ATOM     92  C   UNL A   1      44.737  26.420  35.985  1.00  0.00     0.198 A 
ATOM     93  F   UNL A   1      42.432  26.614  35.547  1.00  0.00    -0.203 F 
ATOM     94  F   UNL A   1      47.521  28.496  34.947  1.00  0.00    -0.200 F 
ATOM     95  C   UNL A   1      46.031  26.896  35.843  1.00  0.00     0.200 A 
ATOM     96  F   UNL A   1      44.506  25.317  36.710  1.00  0.00    -0.200 F 
ATOM     97  F   UNL A   1      47.052  26.247  36.418  1.00  0.00    -0.200 F 
ENDBRANCH  64  87
ENDBRANCH  38  39
ENDBRANCH  30  33
ENDBRANCH  28  29
ENDBRANCH  27  28
ENDBRANCH   1  27
TORSDOF 15
ENDMDL
