MODEL 1
REMARK VINA RESULT:     -12.8      0.000      0.000
REMARK SMILES Nc1cc(C(=O)NCCCCNC(=O)c2ccc(-c3c4nc(c(-c5c(F)c(F)c(F)c(F)c5F)c5ccc([nH]5)c(-c5c(F)c(F)c(F)c(F)c5F)c5nc(c(-c6c(F)c(F)c(F)c(F)c6F)c6ccc3[nH]6)C=C5)C=C4)cc2)nc2ccccc12
REMARK SMILES IDX 10 1 9 2 8 3 7 4 5 5 6 6 4 8 2 9 3 10 84 11 79 12 83 13
REMARK SMILES IDX 78 14 80 15 82 16 81 17 1 18 11 21 12 22 13 23 14 25 15 26
REMARK SMILES IDX 16 27 77 28 17 29 76 30 18 31 19 32 20 33 70 34 21 35 75 36
REMARK SMILES IDX 69 37 71 38 22 39 74 40 68 41 67 42 23 44 55 45 35 46 54 47
REMARK SMILES IDX 36 48 39 49 53 50 72 51 37 52 38 53 52 55 73 56 40 57 24 58
REMARK SMILES IDX 25 59 33 60 26 61 27 62 31 63 34 64 28 65 29 66 32 67 30 68
REMARK SMILES IDX 56 69 57 70 65 71 58 72 59 73 63 74 66 75 60 76 61 77 64 78
REMARK SMILES IDX 62 79 41 80 42 81 50 82 43 83 44 84 48 85 51 86 45 87 46 88
REMARK SMILES IDX 49 89 47 90
REMARK H PARENT 7 7 1 19 1 20 12 24 71 43 39 54
REMARK Flexibility Score: inf
ROOT
ATOM      1  C   UNL A   1      32.714  29.476  25.308  1.00  0.00     0.023 C 
ENDROOT
BRANCH   1   2
ATOM      2  C   UNL A   1      33.851  28.477  25.089  1.00  0.00     0.023 C 
BRANCH   2   3
ATOM      3  C   UNL A   1      33.506  27.024  25.433  1.00  0.00     0.116 C 
BRANCH   3   4
ATOM      4  N   UNL A   1      33.422  26.209  24.241  1.00  0.00    -0.351 N 
ATOM      5  C   UNL A   1      32.446  26.052  23.281  1.00  0.00     0.269 C 
ATOM      6  O   UNL A   1      32.732  25.290  22.354  1.00  0.00    -0.268 OA
ATOM      7  H   UNL A   1      34.222  25.655  24.085  1.00  0.00     0.163 HD
BRANCH   5   8
ATOM      8  C   UNL A   1      31.105  26.750  23.296  1.00  0.00     0.130 A 
ATOM      9  C   UNL A   1      28.749  26.937  23.764  1.00  0.00     0.043 A 
ATOM     10  C   UNL A   1      29.935  26.202  23.791  1.00  0.00     0.060 A 
ATOM     11  C   UNL A   1      28.745  28.196  23.126  1.00  0.00     0.023 A 
ATOM     12  C   UNL A   1      29.975  28.666  22.617  1.00  0.00     0.073 A 
ATOM     13  C   UNL A   1      27.591  29.000  22.963  1.00  0.00     0.012 A 
ATOM     14  N   UNL A   1      31.119  27.977  22.719  1.00  0.00    -0.242 NA
ATOM     15  C   UNL A   1      30.010  29.891  21.968  1.00  0.00     0.029 A 
ATOM     16  C   UNL A   1      27.653  30.229  22.309  1.00  0.00     0.001 A 
ATOM     17  C   UNL A   1      28.866  30.674  21.807  1.00  0.00     0.002 A 
BRANCH   9  18
ATOM     18  N   UNL A   1      27.589  26.328  24.247  1.00  0.00    -0.398 N 
ATOM     19  H   UNL A   1      27.363  25.411  23.971  1.00  0.00     0.156 HD
ATOM     20  H   UNL A   1      26.997  26.816  24.864  1.00  0.00     0.156 HD
ENDBRANCH   9  18
ENDBRANCH   5   8
ENDBRANCH   3   4
ENDBRANCH   2   3
ENDBRANCH   1   2
BRANCH   1  21
ATOM     21  C   UNL A   1      32.501  29.893  26.756  1.00  0.00     0.116 C 
BRANCH  21  22
ATOM     22  N   UNL A   1      32.378  31.332  26.942  1.00  0.00    -0.352 N 
ATOM     23  C   UNL A   1      33.318  32.202  27.452  1.00  0.00     0.251 C 
ATOM     24  H   UNL A   1      31.520  31.732  26.671  1.00  0.00     0.163 HD
ATOM     25  O   UNL A   1      33.059  33.380  27.626  1.00  0.00    -0.269 OA
BRANCH  23  26
ATOM     26  C   UNL A   1      34.632  31.652  27.847  1.00  0.00     0.039 A 
ATOM     27  C   UNL A   1      34.760  30.298  28.164  1.00  0.00     0.014 A 
ATOM     28  C   UNL A   1      35.708  32.529  28.001  1.00  0.00     0.014 A 
ATOM     29  C   UNL A   1      35.916  29.854  28.795  1.00  0.00     0.010 A 
ATOM     30  C   UNL A   1      36.894  32.063  28.571  1.00  0.00     0.010 A 
ATOM     31  C   UNL A   1      36.984  30.737  29.024  1.00  0.00    -0.014 A 
BRANCH  31  32
ATOM     32  C   UNL A   1      38.170  30.265  29.777  1.00  0.00     0.031 A 
ATOM     33  C   UNL A   1      38.382  30.687  31.206  1.00  0.00     0.074 A 
ATOM     34  C   UNL A   1      39.021  29.403  29.193  1.00  0.00     0.049 A 
ATOM     35  N   UNL A   1      39.365  30.390  32.018  1.00  0.00    -0.248 NA
ATOM     36  C   UNL A   1      37.355  31.556  31.803  1.00  0.00     0.031 C 
ATOM     37  C   UNL A   1      38.898  28.896  27.826  1.00  0.00     0.029 A 
ATOM     38  N   UNL A   1      40.139  28.779  29.683  1.00  0.00    -0.354 N 
ATOM     39  C   UNL A   1      39.088  31.048  33.209  1.00  0.00     0.074 A 
ATOM     40  C   UNL A   1      37.853  31.776  33.012  1.00  0.00     0.031 C 
ATOM     41  C   UNL A   1      39.871  28.001  27.603  1.00  0.00     0.029 A 
ATOM     42  C   UNL A   1      40.718  27.915  28.788  1.00  0.00     0.049 A 
ATOM     43  H   UNL A   1      40.493  28.936  30.589  1.00  0.00     0.167 HD
ATOM     44  C   UNL A   1      39.797  31.039  34.362  1.00  0.00     0.037 A 
ATOM     45  C   UNL A   1      41.817  27.147  28.906  1.00  0.00     0.037 A 
ATOM     46  C   UNL A   1      41.012  30.292  34.563  1.00  0.00     0.049 A 
ATOM     47  C   UNL A   1      42.603  27.183  30.184  1.00  0.00     0.074 A 
ATOM     48  C   UNL A   1      41.807  30.225  35.694  1.00  0.00     0.029 A 
ATOM     49  N   UNL A   1      41.600  29.473  33.611  1.00  0.00    -0.354 N 
ATOM     50  N   UNL A   1      42.355  27.844  31.288  1.00  0.00    -0.248 NA
ATOM     51  C   UNL A   1      43.832  26.378  30.226  1.00  0.00     0.031 C 
ATOM     52  C   UNL A   1      42.890  29.384  35.418  1.00  0.00     0.029 A 
ATOM     53  C   UNL A   1      42.752  28.901  34.127  1.00  0.00     0.049 A 
ATOM     54  H   UNL A   1      41.250  29.319  32.705  1.00  0.00     0.167 HD
ATOM     55  C   UNL A   1      43.391  27.536  32.157  1.00  0.00     0.074 A 
ATOM     56  C   UNL A   1      44.259  26.609  31.460  1.00  0.00     0.031 C 
ATOM     57  C   UNL A   1      43.606  27.987  33.416  1.00  0.00     0.037 A 
BRANCH  44  58
ATOM     58  C   UNL A   1      39.289  31.870  35.501  1.00  0.00     0.064 A 
ATOM     59  C   UNL A   1      38.427  31.337  36.470  1.00  0.00     0.173 A 
ATOM     60  C   UNL A   1      39.718  33.197  35.660  1.00  0.00     0.173 A 
ATOM     61  F   UNL A   1      37.977  30.078  36.353  1.00  0.00    -0.203 F 
ATOM     62  C   UNL A   1      38.005  32.105  37.553  1.00  0.00     0.198 A 
ATOM     63  C   UNL A   1      39.311  33.954  36.755  1.00  0.00     0.198 A 
ATOM     64  F   UNL A   1      40.545  33.751  34.762  1.00  0.00    -0.203 F 
ATOM     65  F   UNL A   1      37.160  31.584  38.453  1.00  0.00    -0.200 F 
ATOM     66  C   UNL A   1      38.454  33.409  37.698  1.00  0.00     0.200 A 
ATOM     67  F   UNL A   1      39.751  35.212  36.898  1.00  0.00    -0.200 F 
ATOM     68  F   UNL A   1      38.056  34.143  38.747  1.00  0.00    -0.200 F 
ENDBRANCH  44  58
BRANCH  45  69
ATOM     69  C   UNL A   1      42.227  26.281  27.775  1.00  0.00     0.064 A 
ATOM     70  C   UNL A   1      43.234  26.688  26.889  1.00  0.00     0.173 A 
ATOM     71  C   UNL A   1      41.651  25.018  27.578  1.00  0.00     0.173 A 
ATOM     72  F   UNL A   1      43.799  27.897  27.028  1.00  0.00    -0.203 F 
ATOM     73  C   UNL A   1      43.649  25.862  25.848  1.00  0.00     0.198 A 
ATOM     74  C   UNL A   1      42.083  24.183  26.551  1.00  0.00     0.198 A 
ATOM     75  F   UNL A   1      40.686  24.585  28.402  1.00  0.00    -0.203 F 
ATOM     76  F   UNL A   1      44.597  26.282  25.000  1.00  0.00    -0.200 F 
ATOM     77  C   UNL A   1      43.080  24.608  25.684  1.00  0.00     0.200 A 
ATOM     78  F   UNL A   1      41.541  22.967  26.406  1.00  0.00    -0.200 F 
ATOM     79  F   UNL A   1      43.491  23.807  24.692  1.00  0.00    -0.200 F 
ENDBRANCH  45  69
BRANCH  57  80
ATOM     80  C   UNL A   1      44.827  27.483  34.122  1.00  0.00     0.064 A 
ATOM     81  C   UNL A   1      46.042  28.181  34.062  1.00  0.00     0.173 A 
ATOM     82  C   UNL A   1      44.772  26.317  34.898  1.00  0.00     0.173 A 
ATOM     83  F   UNL A   1      46.145  29.294  33.320  1.00  0.00    -0.203 F 
ATOM     84  C   UNL A   1      47.165  27.719  34.742  1.00  0.00     0.198 A 
ATOM     85  C   UNL A   1      45.891  25.869  35.594  1.00  0.00     0.198 A 
ATOM     86  F   UNL A   1      43.630  25.619  34.988  1.00  0.00    -0.203 F 
ATOM     87  F   UNL A   1      48.325  28.382  34.645  1.00  0.00    -0.200 F 
ATOM     88  C   UNL A   1      47.086  26.568  35.513  1.00  0.00     0.200 A 
ATOM     89  F   UNL A   1      45.813  24.761  36.344  1.00  0.00    -0.200 F 
ATOM     90  F   UNL A   1      48.167  26.126  36.171  1.00  0.00    -0.200 F 
ENDBRANCH  57  80
ENDBRANCH  31  32
ENDBRANCH  23  26
ENDBRANCH  21  22
ENDBRANCH   1  21
TORSDOF 12
ENDMDL
MODEL 2
REMARK VINA RESULT:     -12.7      0.332      1.222
REMARK SMILES Nc1cc(C(=O)NCCCCNC(=O)c2ccc(-c3c4nc(c(-c5c(F)c(F)c(F)c(F)c5F)c5ccc([nH]5)c(-c5c(F)c(F)c(F)c(F)c5F)c5nc(c(-c6c(F)c(F)c(F)c(F)c6F)c6ccc3[nH]6)C=C5)C=C4)cc2)nc2ccccc12
REMARK SMILES IDX 10 1 9 2 8 3 7 4 5 5 6 6 4 8 2 9 3 10 84 11 79 12 83 13
REMARK SMILES IDX 78 14 80 15 82 16 81 17 1 18 11 21 12 22 13 23 14 25 15 26
REMARK SMILES IDX 16 27 77 28 17 29 76 30 18 31 19 32 20 33 70 34 21 35 75 36
REMARK SMILES IDX 69 37 71 38 22 39 74 40 68 41 67 42 23 44 55 45 35 46 54 47
REMARK SMILES IDX 36 48 39 49 53 50 72 51 37 52 38 53 52 55 73 56 40 57 24 58
REMARK SMILES IDX 25 59 33 60 26 61 27 62 31 63 34 64 28 65 29 66 32 67 30 68
REMARK SMILES IDX 56 69 57 70 65 71 58 72 59 73 63 74 66 75 60 76 61 77 64 78
REMARK SMILES IDX 62 79 41 80 42 81 50 82 43 83 44 84 48 85 51 86 45 87 46 88
REMARK SMILES IDX 49 89 47 90
REMARK H PARENT 7 7 1 19 1 20 12 24 71 43 39 54
REMARK Flexibility Score: inf
ROOT
ATOM      1  C   UNL A   1      31.845  28.871  26.504  1.00  0.00     0.023 C 
ENDROOT
BRANCH   1   2
ATOM      2  C   UNL A   1      32.395  27.447  26.418  1.00  0.00     0.023 C 
BRANCH   2   3
ATOM      3  C   UNL A   1      33.630  27.287  25.526  1.00  0.00     0.116 C 
BRANCH   3   4
ATOM      4  N   UNL A   1      33.476  26.178  24.610  1.00  0.00    -0.351 N 
ATOM      5  C   UNL A   1      32.460  25.804  23.756  1.00  0.00     0.269 C 
ATOM      6  O   UNL A   1      32.687  24.804  23.070  1.00  0.00    -0.268 OA
ATOM      7  H   UNL A   1      34.249  25.569  24.594  1.00  0.00     0.163 HD
BRANCH   5   8
ATOM      8  C   UNL A   1      31.146  26.535  23.610  1.00  0.00     0.130 A 
ATOM      9  C   UNL A   1      28.760  26.794  23.818  1.00  0.00     0.043 A 
ATOM     10  C   UNL A   1      29.914  26.030  23.989  1.00  0.00     0.060 A 
ATOM     11  C   UNL A   1      28.858  28.035  23.154  1.00  0.00     0.023 A 
ATOM     12  C   UNL A   1      30.148  28.460  22.769  1.00  0.00     0.073 A 
ATOM     13  C   UNL A   1      27.751  28.863  22.849  1.00  0.00     0.012 A 
ATOM     14  N   UNL A   1      31.255  27.746  23.010  1.00  0.00    -0.242 NA
ATOM     15  C   UNL A   1      30.287  29.667  22.098  1.00  0.00     0.029 A 
ATOM     16  C   UNL A   1      27.916  30.072  22.176  1.00  0.00     0.001 A 
ATOM     17  C   UNL A   1      29.188  30.474  21.797  1.00  0.00     0.002 A 
BRANCH   9  18
ATOM     18  N   UNL A   1      27.538  26.227  24.188  1.00  0.00    -0.398 N 
ATOM     19  H   UNL A   1      27.039  25.671  23.547  1.00  0.00     0.156 HD
ATOM     20  H   UNL A   1      27.175  26.384  25.091  1.00  0.00     0.156 HD
ENDBRANCH   9  18
ENDBRANCH   5   8
ENDBRANCH   3   4
ENDBRANCH   2   3
ENDBRANCH   1   2
BRANCH   1  21
ATOM     21  C   UNL A   1      32.806  29.956  26.038  1.00  0.00     0.116 C 
BRANCH  21  22
ATOM     22  N   UNL A   1      32.496  31.280  26.557  1.00  0.00    -0.352 N 
ATOM     23  C   UNL A   1      33.273  32.070  27.378  1.00  0.00     0.251 C 
ATOM     24  H   UNL A   1      31.626  31.656  26.291  1.00  0.00     0.163 HD
ATOM     25  O   UNL A   1      32.860  33.134  27.805  1.00  0.00    -0.269 OA
BRANCH  23  26
ATOM     26  C   UNL A   1      34.600  31.558  27.781  1.00  0.00     0.039 A 
ATOM     27  C   UNL A   1      34.764  30.210  28.107  1.00  0.00     0.014 A 
ATOM     28  C   UNL A   1      35.651  32.465  27.934  1.00  0.00     0.014 A 
ATOM     29  C   UNL A   1      35.928  29.802  28.746  1.00  0.00     0.010 A 
ATOM     30  C   UNL A   1      36.847  32.035  28.512  1.00  0.00     0.010 A 
ATOM     31  C   UNL A   1      36.971  30.715  28.973  1.00  0.00    -0.014 A 
BRANCH  31  32
ATOM     32  C   UNL A   1      38.167  30.280  29.735  1.00  0.00     0.031 A 
ATOM     33  C   UNL A   1      38.373  30.737  31.153  1.00  0.00     0.074 A 
ATOM     34  C   UNL A   1      39.031  29.420  29.168  1.00  0.00     0.049 A 
ATOM     35  N   UNL A   1      39.362  30.475  31.970  1.00  0.00    -0.248 NA
ATOM     36  C   UNL A   1      37.332  31.601  31.733  1.00  0.00     0.031 C 
ATOM     37  C   UNL A   1      38.914  28.881  27.813  1.00  0.00     0.029 A 
ATOM     38  N   UNL A   1      40.160  28.826  29.670  1.00  0.00    -0.354 N 
ATOM     39  C   UNL A   1      39.076  31.155  33.146  1.00  0.00     0.074 A 
ATOM     40  C   UNL A   1      37.829  31.857  32.936  1.00  0.00     0.031 C 
ATOM     41  C   UNL A   1      39.902  27.998  27.607  1.00  0.00     0.029 A 
ATOM     42  C   UNL A   1      40.752  27.953  28.793  1.00  0.00     0.049 A 
ATOM     43  H   UNL A   1      40.513  29.009  30.570  1.00  0.00     0.167 HD
ATOM     44  C   UNL A   1      39.788  31.183  34.298  1.00  0.00     0.037 A 
ATOM     45  C   UNL A   1      41.865  27.207  28.925  1.00  0.00     0.037 A 
ATOM     46  C   UNL A   1      41.015  30.462  34.513  1.00  0.00     0.049 A 
ATOM     47  C   UNL A   1      42.652  27.284  30.200  1.00  0.00     0.074 A 
ATOM     48  C   UNL A   1      41.813  30.433  35.643  1.00  0.00     0.029 A 
ATOM     49  N   UNL A   1      41.615  29.632  33.578  1.00  0.00    -0.354 N 
ATOM     50  N   UNL A   1      42.395  27.966  31.290  1.00  0.00    -0.248 NA
ATOM     51  C   UNL A   1      43.894  26.502  30.258  1.00  0.00     0.031 C 
ATOM     52  C   UNL A   1      42.911  29.606  35.384  1.00  0.00     0.029 A 
ATOM     53  C   UNL A   1      42.778  29.092  34.104  1.00  0.00     0.049 A 
ATOM     54  H   UNL A   1      41.267  29.452  32.676  1.00  0.00     0.167 HD
ATOM     55  C   UNL A   1      43.437  27.694  32.163  1.00  0.00     0.074 A 
ATOM     56  C   UNL A   1      44.320  26.767  31.486  1.00  0.00     0.031 C 
ATOM     57  C   UNL A   1      43.647  28.177  33.412  1.00  0.00     0.037 A 
BRANCH  44  58
ATOM     58  C   UNL A   1      39.267  32.030  35.419  1.00  0.00     0.064 A 
ATOM     59  C   UNL A   1      38.460  31.491  36.432  1.00  0.00     0.173 A 
ATOM     60  C   UNL A   1      39.630  33.382  35.516  1.00  0.00     0.173 A 
ATOM     61  F   UNL A   1      38.073  30.208  36.375  1.00  0.00    -0.203 F 
ATOM     62  C   UNL A   1      38.027  32.278  37.497  1.00  0.00     0.198 A 
ATOM     63  C   UNL A   1      39.213  34.160  36.594  1.00  0.00     0.198 A 
ATOM     64  F   UNL A   1      40.403  33.943  34.575  1.00  0.00    -0.203 F 
ATOM     65  F   UNL A   1      37.235  31.749  38.439  1.00  0.00    -0.200 F 
ATOM     66  C   UNL A   1      38.411  33.608  37.581  1.00  0.00     0.200 A 
ATOM     67  F   UNL A   1      39.591  35.443  36.677  1.00  0.00    -0.200 F 
ATOM     68  F   UNL A   1      38.004  34.361  38.612  1.00  0.00    -0.200 F 
ENDBRANCH  44  58
BRANCH  45  69
ATOM     69  C   UNL A   1      42.287  26.323  27.812  1.00  0.00     0.064 A 
ATOM     70  C   UNL A   1      41.720  25.052  27.651  1.00  0.00     0.173 A 
ATOM     71  C   UNL A   1      43.234  26.744  26.867  1.00  0.00     0.173 A 
ATOM     72  F   UNL A   1      40.825  24.601  28.543  1.00  0.00    -0.203 F 
ATOM     73  C   UNL A   1      42.085  24.233  26.586  1.00  0.00     0.198 A 
ATOM     74  C   UNL A   1      43.581  25.934  25.789  1.00  0.00     0.198 A 
ATOM     75  F   UNL A   1      43.801  27.953  26.978  1.00  0.00    -0.203 F 
ATOM     76  F   UNL A   1      41.547  23.013  26.466  1.00  0.00    -0.200 F 
ATOM     77  C   UNL A   1      43.009  24.678  25.651  1.00  0.00     0.200 A 
ATOM     78  F   UNL A   1      44.462  26.373  24.881  1.00  0.00    -0.200 F 
ATOM     79  F   UNL A   1      43.348  23.896  24.617  1.00  0.00    -0.200 F 
ENDBRANCH  45  69
BRANCH  57  80
ATOM     80  C   UNL A   1      44.878  27.710  34.126  1.00  0.00     0.064 A 
ATOM     81  C   UNL A   1      46.079  28.428  34.050  1.00  0.00     0.173 A 
ATOM     82  C   UNL A   1      44.844  26.558  34.926  1.00  0.00     0.173 A 
ATOM     83  F   UNL A   1      46.161  29.527  33.285  1.00  0.00    -0.203 F 
ATOM     84  C   UNL A   1      47.211  28.000  34.738  1.00  0.00     0.198 A 
ATOM     85  C   UNL A   1      45.972  26.146  35.629  1.00  0.00     0.198 A 
ATOM     86  F   UNL A   1      43.715  25.842  35.032  1.00  0.00    -0.203 F 
ATOM     87  F   UNL A   1      48.359  28.682  34.626  1.00  0.00    -0.200 F 
ATOM     88  C   UNL A   1      47.154  26.864  35.532  1.00  0.00     0.200 A 
ATOM     89  F   UNL A   1      45.914  25.052  36.402  1.00  0.00    -0.200 F 
ATOM     90  F   UNL A   1      48.244  26.456  36.198  1.00  0.00    -0.200 F 
ENDBRANCH  57  80
ENDBRANCH  31  32
ENDBRANCH  23  26
ENDBRANCH  21  22
ENDBRANCH   1  21
TORSDOF 12
ENDMDL
MODEL 3
REMARK VINA RESULT:     -12.7      6.013     11.275
REMARK SMILES Nc1cc(C(=O)NCCCCNC(=O)c2ccc(-c3c4nc(c(-c5c(F)c(F)c(F)c(F)c5F)c5ccc([nH]5)c(-c5c(F)c(F)c(F)c(F)c5F)c5nc(c(-c6c(F)c(F)c(F)c(F)c6F)c6ccc3[nH]6)C=C5)C=C4)cc2)nc2ccccc12
REMARK SMILES IDX 10 1 9 2 8 3 7 4 5 5 6 6 4 8 2 9 3 10 84 11 79 12 83 13
REMARK SMILES IDX 78 14 80 15 82 16 81 17 1 18 11 21 12 22 13 23 14 25 15 26
REMARK SMILES IDX 16 27 77 28 17 29 76 30 18 31 19 32 20 33 70 34 21 35 75 36
REMARK SMILES IDX 69 37 71 38 22 39 74 40 68 41 67 42 23 44 55 45 35 46 54 47
REMARK SMILES IDX 36 48 39 49 53 50 72 51 37 52 38 53 52 55 73 56 40 57 24 58
REMARK SMILES IDX 25 59 33 60 26 61 27 62 31 63 34 64 28 65 29 66 32 67 30 68
REMARK SMILES IDX 56 69 57 70 65 71 58 72 59 73 63 74 66 75 60 76 61 77 64 78
REMARK SMILES IDX 62 79 41 80 42 81 50 82 43 83 44 84 48 85 51 86 45 87 46 88
REMARK SMILES IDX 49 89 47 90
REMARK H PARENT 7 7 1 19 1 20 12 24 71 43 39 54
REMARK Flexibility Score: inf
ROOT
ATOM      1  C   UNL A   1      44.933  21.028  24.153  1.00  0.00     0.023 C 
ENDROOT
BRANCH   1   2
ATOM      2  C   UNL A   1      46.101  22.002  24.316  1.00  0.00     0.023 C 
BRANCH   2   3
ATOM      3  C   UNL A   1      45.717  23.380  24.864  1.00  0.00     0.116 C 
BRANCH   3   4
ATOM      4  N   UNL A   1      46.823  24.307  24.775  1.00  0.00    -0.351 N 
ATOM      5  C   UNL A   1      46.928  25.664  24.998  1.00  0.00     0.269 C 
ATOM      6  O   UNL A   1      48.061  26.135  24.871  1.00  0.00    -0.268 OA
ATOM      7  H   UNL A   1      47.670  23.886  24.501  1.00  0.00     0.163 HD
BRANCH   5   8
ATOM      8  C   UNL A   1      45.778  26.562  25.390  1.00  0.00     0.130 A 
ATOM      9  C   UNL A   1      43.458  27.190  25.550  1.00  0.00     0.043 A 
ATOM     10  C   UNL A   1      44.444  26.294  25.136  1.00  0.00     0.060 A 
ATOM     11  C   UNL A   1      43.852  28.417  26.126  1.00  0.00     0.023 A 
ATOM     12  C   UNL A   1      45.235  28.625  26.317  1.00  0.00     0.073 A 
ATOM     13  C   UNL A   1      42.952  29.439  26.511  1.00  0.00     0.012 A 
ATOM     14  N   UNL A   1      46.164  27.719  25.981  1.00  0.00    -0.242 NA
ATOM     15  C   UNL A   1      45.666  29.824  26.865  1.00  0.00     0.029 A 
ATOM     16  C   UNL A   1      43.409  30.635  27.062  1.00  0.00     0.001 A 
ATOM     17  C   UNL A   1      44.771  30.829  27.236  1.00  0.00     0.002 A 
BRANCH   9  18
ATOM     18  N   UNL A   1      42.129  26.889  25.244  1.00  0.00    -0.398 N 
ATOM     19  H   UNL A   1      41.399  27.293  25.766  1.00  0.00     0.156 HD
ATOM     20  H   UNL A   1      41.921  26.270  24.505  1.00  0.00     0.156 HD
ENDBRANCH   9  18
ENDBRANCH   5   8
ENDBRANCH   3   4
ENDBRANCH   2   3
ENDBRANCH   1   2
BRANCH   1  21
ATOM     21  C   UNL A   1      44.741  20.061  25.312  1.00  0.00     0.116 C 
BRANCH  21  22
ATOM     22  N   UNL A   1      43.479  19.338  25.273  1.00  0.00    -0.352 N 
ATOM     23  C   UNL A   1      42.262  19.732  25.788  1.00  0.00     0.251 C 
ATOM     24  H   UNL A   1      43.496  18.461  24.825  1.00  0.00     0.163 HD
ATOM     25  O   UNL A   1      41.293  18.994  25.754  1.00  0.00    -0.269 OA
BRANCH  23  26
ATOM     26  C   UNL A   1      42.181  21.053  26.446  1.00  0.00     0.039 A 
ATOM     27  C   UNL A   1      42.080  22.216  25.679  1.00  0.00     0.014 A 
ATOM     28  C   UNL A   1      42.318  21.122  27.834  1.00  0.00     0.014 A 
ATOM     29  C   UNL A   1      42.286  23.450  26.283  1.00  0.00     0.010 A 
ATOM     30  C   UNL A   1      42.454  22.368  28.448  1.00  0.00     0.010 A 
ATOM     31  C   UNL A   1      42.496  23.535  27.669  1.00  0.00    -0.014 A 
BRANCH  31  32
ATOM     32  C   UNL A   1      42.802  24.852  28.279  1.00  0.00     0.031 A 
ATOM     33  C   UNL A   1      44.224  25.239  28.581  1.00  0.00     0.074 A 
ATOM     34  C   UNL A   1      41.802  25.724  28.499  1.00  0.00     0.049 A 
ATOM     35  N   UNL A   1      44.683  26.337  29.127  1.00  0.00    -0.248 NA
ATOM     36  C   UNL A   1      45.270  24.267  28.223  1.00  0.00     0.031 C 
ATOM     37  C   UNL A   1      40.389  25.472  28.213  1.00  0.00     0.029 A 
ATOM     38  N   UNL A   1      41.823  27.005  28.986  1.00  0.00    -0.354 N 
ATOM     39  C   UNL A   1      46.061  26.180  29.197  1.00  0.00     0.074 A 
ATOM     40  C   UNL A   1      46.366  24.875  28.654  1.00  0.00     0.031 C 
ATOM     41  C   UNL A   1      39.685  26.581  28.481  1.00  0.00     0.029 A 
ATOM     42  C   UNL A   1      40.587  27.599  29.012  1.00  0.00     0.049 A 
ATOM     43  H   UNL A   1      42.645  27.455  29.288  1.00  0.00     0.167 HD
ATOM     44  C   UNL A   1      46.985  27.052  29.666  1.00  0.00     0.037 A 
ATOM     45  C   UNL A   1      40.219  28.824  29.430  1.00  0.00     0.037 A 
ATOM     46  C   UNL A   1      46.681  28.361  30.181  1.00  0.00     0.049 A 
ATOM     47  C   UNL A   1      41.260  29.756  29.976  1.00  0.00     0.074 A 
ATOM     48  C   UNL A   1      47.548  29.314  30.686  1.00  0.00     0.029 A 
ATOM     49  N   UNL A   1      45.407  28.905  30.246  1.00  0.00    -0.354 N 
ATOM     50  N   UNL A   1      42.554  29.580  30.078  1.00  0.00    -0.248 NA
ATOM     51  C   UNL A   1      40.786  31.052  30.482  1.00  0.00     0.031 C 
ATOM     52  C   UNL A   1      46.797  30.426  31.080  1.00  0.00     0.029 A 
ATOM     53  C   UNL A   1      45.465  30.179  30.789  1.00  0.00     0.049 A 
ATOM     54  H   UNL A   1      44.584  28.455  29.948  1.00  0.00     0.167 HD
ATOM     55  C   UNL A   1      43.052  30.739  30.655  1.00  0.00     0.074 A 
ATOM     56  C   UNL A   1      41.922  31.622  30.860  1.00  0.00     0.031 C 
ATOM     57  C   UNL A   1      44.329  31.039  30.992  1.00  0.00     0.037 A 
BRANCH  44  58
ATOM     58  C   UNL A   1      48.420  26.619  29.656  1.00  0.00     0.064 A 
ATOM     59  C   UNL A   1      49.281  26.957  28.602  1.00  0.00     0.173 A 
ATOM     60  C   UNL A   1      48.956  25.910  30.743  1.00  0.00     0.173 A 
ATOM     61  F   UNL A   1      48.812  27.619  27.534  1.00  0.00    -0.203 F 
ATOM     62  C   UNL A   1      50.626  26.594  28.632  1.00  0.00     0.198 A 
ATOM     63  C   UNL A   1      50.305  25.568  30.779  1.00  0.00     0.198 A 
ATOM     64  F   UNL A   1      48.175  25.567  31.776  1.00  0.00    -0.203 F 
ATOM     65  F   UNL A   1      51.425  26.904  27.602  1.00  0.00    -0.200 F 
ATOM     66  C   UNL A   1      51.138  25.908  29.723  1.00  0.00     0.200 A 
ATOM     67  F   UNL A   1      50.800  24.912  31.837  1.00  0.00    -0.200 F 
ATOM     68  F   UNL A   1      52.435  25.569  29.756  1.00  0.00    -0.200 F 
ENDBRANCH  44  58
BRANCH  45  69
ATOM     69  C   UNL A   1      38.795  29.229  29.339  1.00  0.00     0.064 A 
ATOM     70  C   UNL A   1      37.988  29.274  30.483  1.00  0.00     0.173 A 
ATOM     71  C   UNL A   1      38.224  29.616  28.118  1.00  0.00     0.173 A 
ATOM     72  F   UNL A   1      38.488  28.894  31.669  1.00  0.00    -0.203 F 
ATOM     73  C   UNL A   1      36.661  29.689  30.409  1.00  0.00     0.198 A 
ATOM     74  C   UNL A   1      36.905  30.054  28.049  1.00  0.00     0.198 A 
ATOM     75  F   UNL A   1      38.959  29.593  26.997  1.00  0.00    -0.203 F 
ATOM     76  F   UNL A   1      35.903  29.701  31.513  1.00  0.00    -0.200 F 
ATOM     77  C   UNL A   1      36.123  30.087  29.195  1.00  0.00     0.200 A 
ATOM     78  F   UNL A   1      36.393  30.451  26.876  1.00  0.00    -0.200 F 
ATOM     79  F   UNL A   1      34.851  30.502  29.127  1.00  0.00    -0.200 F 
ENDBRANCH  45  69
BRANCH  57  80
ATOM     80  C   UNL A   1      44.573  32.379  31.615  1.00  0.00     0.064 A 
ATOM     81  C   UNL A   1      44.828  33.511  30.827  1.00  0.00     0.173 A 
ATOM     82  C   UNL A   1      44.511  32.541  33.006  1.00  0.00     0.173 A 
ATOM     83  F   UNL A   1      44.911  33.400  29.493  1.00  0.00    -0.203 F 
ATOM     84  C   UNL A   1      45.028  34.757  31.414  1.00  0.00     0.198 A 
ATOM     85  C   UNL A   1      44.690  33.793  33.587  1.00  0.00     0.198 A 
ATOM     86  F   UNL A   1      44.265  31.487  33.799  1.00  0.00    -0.203 F 
ATOM     87  F   UNL A   1      45.303  35.821  30.646  1.00  0.00    -0.200 F 
ATOM     88  C   UNL A   1      44.952  34.898  32.792  1.00  0.00     0.200 A 
ATOM     89  F   UNL A   1      44.609  33.930  34.919  1.00  0.00    -0.200 F 
ATOM     90  F   UNL A   1      45.140  36.100  33.355  1.00  0.00    -0.200 F 
ENDBRANCH  57  80
ENDBRANCH  31  32
ENDBRANCH  23  26
ENDBRANCH  21  22
ENDBRANCH   1  21
TORSDOF 12
ENDMDL
