MODEL 1
REMARK VINA RESULT:     -14.0      0.000      0.000
REMARK SMILES CC(C)=C1[C@H]2CC[C@@H]1[C@@H](C(=O)Nc1cc(C)cc(C)c1)[C@@H]2C(=O)NCCCCNC(=O)c1ccc(-c2c3nc(c(-c4c(F)c(F)c(F)c(F)c4F)c4ccc([nH]4)c(-c4c(F)c(F)c(F)c(F)c4F)c4nc(c(-c5c(F)c(F)c(F)c(F)c5F)c5ccc2[nH]5)C=C4)C=C3)cc1
REMARK SMILES IDX 26 1 25 2 24 3 22 4 23 5 21 7 1 8 2 9 3 10 4 11 5 12 8 13
REMARK SMILES IDX 6 14 7 15 9 16 10 17 11 18 12 19 13 21 14 22 20 23 15 24
REMARK SMILES IDX 18 25 16 26 17 27 19 28 27 29 28 30 29 31 30 32 31 34 32 35
REMARK SMILES IDX 33 36 94 37 34 38 93 39 35 40 36 41 37 42 87 43 38 44 92 45
REMARK SMILES IDX 86 46 88 47 39 48 91 49 85 50 84 51 40 53 72 54 52 55 71 56
REMARK SMILES IDX 53 57 56 58 70 59 89 60 54 61 55 62 69 64 90 65 57 66 41 67
REMARK SMILES IDX 42 68 50 69 43 70 44 71 48 72 51 73 45 74 46 75 49 76 47 77
REMARK SMILES IDX 73 78 74 79 82 80 75 81 76 82 80 83 83 84 77 85 78 86 81 87
REMARK SMILES IDX 79 88 58 89 59 90 67 91 60 92 61 93 65 94 68 95 62 96 63 97
REMARK SMILES IDX 66 98 64 99
REMARK H PARENT 24 6 12 20 29 33 88 52 56 63
REMARK Flexibility Score: inf
ROOT
ATOM      1  C   UNL A   1      33.654  27.923  25.229  1.00  0.00     0.023 C 
ENDROOT
BRANCH   1   2
ATOM      2  C   UNL A   1      32.993  26.832  26.045  1.00  0.00     0.116 C 
BRANCH   2   3
ATOM      3  N   UNL A   1      32.222  25.849  25.336  1.00  0.00    -0.356 N 
ATOM      4  C   UNL A   1      32.384  24.497  25.293  1.00  0.00     0.224 C 
ATOM      5  O   UNL A   1      31.410  23.852  24.881  1.00  0.00    -0.275 OA
ATOM      6  H   UNL A   1      31.471  26.204  24.805  1.00  0.00     0.163 HD
BRANCH   4   7
ATOM      7  C   UNL A   1      33.659  23.733  25.699  1.00  0.00     0.098 C 
ATOM      8  C   UNL A   1      37.971  21.622  25.513  1.00  0.00     0.039 C 
ATOM      9  C   UNL A   1      37.254  22.936  25.705  1.00  0.00    -0.077 C 
ATOM     10  C   UNL A   1      38.127  24.078  26.126  1.00  0.00     0.039 C 
ATOM     11  C   UNL A   1      35.956  23.092  25.386  1.00  0.00    -0.064 C 
ATOM     12  C   UNL A   1      35.040  24.303  25.277  1.00  0.00     0.028 C 
ATOM     13  C   UNL A   1      35.110  22.122  24.623  1.00  0.00     0.028 C 
ATOM     14  C   UNL A   1      35.155  24.425  23.760  1.00  0.00     0.009 C 
ATOM     15  C   UNL A   1      35.252  22.942  23.308  1.00  0.00     0.009 C 
ATOM     16  C   UNL A   1      33.768  22.246  25.382  1.00  0.00     0.099 C 
BRANCH  16  17
ATOM     17  C   UNL A   1      33.641  21.249  26.559  1.00  0.00     0.228 C 
ATOM     18  O   UNL A   1      33.752  21.722  27.705  1.00  0.00    -0.274 OA
ATOM     19  N   UNL A   1      33.276  19.937  26.522  1.00  0.00    -0.326 N 
ATOM     20  H   UNL A   1      33.079  19.574  27.415  1.00  0.00     0.169 HD
BRANCH  19  21
ATOM     21  C   UNL A   1      33.118  18.983  25.507  1.00  0.00     0.041 A 
ATOM     22  C   UNL A   1      32.921  19.302  24.166  1.00  0.00     0.029 A 
ATOM     23  C   UNL A   1      33.230  17.638  25.868  1.00  0.00     0.029 A 
ATOM     24  C   UNL A   1      32.618  18.310  23.223  1.00  0.00    -0.049 A 
ATOM     25  C   UNL A   1      32.970  16.622  24.936  1.00  0.00    -0.049 A 
ATOM     26  C   UNL A   1      32.154  18.685  21.846  1.00  0.00     0.044 C 
ATOM     27  C   UNL A   1      32.638  16.969  23.620  1.00  0.00     0.007 A 
ATOM     28  C   UNL A   1      32.903  15.187  25.369  1.00  0.00     0.044 C 
ENDBRANCH  19  21
ENDBRANCH  16  17
ENDBRANCH   4   7
ENDBRANCH   2   3
ENDBRANCH   1   2
BRANCH   1  29
ATOM     29  C   UNL A   1      32.989  29.286  25.314  1.00  0.00     0.023 C 
BRANCH  29  30
ATOM     30  C   UNL A   1      32.575  29.737  26.709  1.00  0.00     0.116 C 
BRANCH  30  31
ATOM     31  N   UNL A   1      32.455  31.181  26.879  1.00  0.00    -0.352 N 
ATOM     32  C   UNL A   1      33.373  32.042  27.437  1.00  0.00     0.251 C 
ATOM     33  H   UNL A   1      31.619  31.587  26.556  1.00  0.00     0.163 HD
ATOM     34  O   UNL A   1      33.130  33.238  27.560  1.00  0.00    -0.269 OA
BRANCH  32  35
ATOM     35  C   UNL A   1      34.646  31.485  27.931  1.00  0.00     0.039 A 
ATOM     36  C   UNL A   1      35.753  32.326  28.056  1.00  0.00     0.014 A 
ATOM     37  C   UNL A   1      34.702  30.161  28.376  1.00  0.00     0.014 A 
ATOM     38  C   UNL A   1      36.899  31.857  28.699  1.00  0.00     0.010 A 
ATOM     39  C   UNL A   1      35.803  29.732  29.102  1.00  0.00     0.010 A 
ATOM     40  C   UNL A   1      36.919  30.569  29.260  1.00  0.00    -0.014 A 
BRANCH  40  41
ATOM     41  C   UNL A   1      38.115  30.058  29.977  1.00  0.00     0.031 A 
ATOM     42  C   UNL A   1      38.393  30.532  31.377  1.00  0.00     0.074 A 
ATOM     43  C   UNL A   1      38.974  29.226  29.359  1.00  0.00     0.049 A 
ATOM     44  N   UNL A   1      39.406  30.259  32.160  1.00  0.00    -0.248 NA
ATOM     45  C   UNL A   1      37.420  31.468  31.963  1.00  0.00     0.031 C 
ATOM     46  C   UNL A   1      38.847  28.743  27.981  1.00  0.00     0.029 A 
ATOM     47  N   UNL A   1      40.130  28.640  29.809  1.00  0.00    -0.354 N 
ATOM     48  C   UNL A   1      39.199  31.004  33.313  1.00  0.00     0.074 A 
ATOM     49  C   UNL A   1      38.007  31.794  33.104  1.00  0.00     0.031 C 
ATOM     50  C   UNL A   1      39.867  27.911  27.712  1.00  0.00     0.029 A 
ATOM     51  C   UNL A   1      40.734  27.825  28.883  1.00  0.00     0.049 A 
ATOM     52  H   UNL A   1      40.493  28.790  30.712  1.00  0.00     0.167 HD
ATOM     53  C   UNL A   1      39.917  31.002  34.461  1.00  0.00     0.037 A 
ATOM     54  C   UNL A   1      41.859  27.089  28.974  1.00  0.00     0.037 A 
ATOM     55  C   UNL A   1      41.078  30.185  34.681  1.00  0.00     0.049 A 
ATOM     56  C   UNL A   1      42.629  27.088  30.269  1.00  0.00     0.074 A 
ATOM     57  C   UNL A   1      41.844  30.063  35.826  1.00  0.00     0.029 A 
ATOM     58  N   UNL A   1      41.638  29.342  33.732  1.00  0.00    -0.354 N 
ATOM     59  N   UNL A   1      42.382  27.738  31.381  1.00  0.00    -0.248 NA
ATOM     60  C   UNL A   1      43.826  26.238  30.326  1.00  0.00     0.031 C 
ATOM     61  C   UNL A   1      42.892  29.176  35.558  1.00  0.00     0.029 A 
ATOM     62  C   UNL A   1      42.748  28.706  34.261  1.00  0.00     0.049 A 
ATOM     63  H   UNL A   1      41.297  29.216  32.817  1.00  0.00     0.167 HD
ATOM     64  C   UNL A   1      43.369  27.350  32.278  1.00  0.00     0.074 A 
ATOM     65  C   UNL A   1      44.211  26.398  31.585  1.00  0.00     0.031 C 
ATOM     66  C   UNL A   1      43.560  27.746  33.561  1.00  0.00     0.037 A 
BRANCH  53  67
ATOM     67  C   UNL A   1      39.452  31.904  35.567  1.00  0.00     0.064 A 
ATOM     68  C   UNL A   1      39.936  33.215  35.699  1.00  0.00     0.173 A 
ATOM     69  C   UNL A   1      38.499  31.462  36.496  1.00  0.00     0.173 A 
ATOM     70  F   UNL A   1      40.861  33.683  34.847  1.00  0.00    -0.203 F 
ATOM     71  C   UNL A   1      39.512  34.035  36.742  1.00  0.00     0.198 A 
ATOM     72  C   UNL A   1      38.051  32.296  37.518  1.00  0.00     0.198 A 
ATOM     73  F   UNL A   1      38.000  30.219  36.414  1.00  0.00    -0.203 F 
ATOM     74  F   UNL A   1      40.035  35.261  36.882  1.00  0.00    -0.200 F 
ATOM     75  C   UNL A   1      38.565  33.578  37.644  1.00  0.00     0.200 A 
ATOM     76  F   UNL A   1      37.126  31.858  38.382  1.00  0.00    -0.200 F 
ATOM     77  F   UNL A   1      38.153  34.370  38.644  1.00  0.00    -0.200 F 
ENDBRANCH  53  67
BRANCH  54  78
ATOM     78  C   UNL A   1      42.303  26.255  27.826  1.00  0.00     0.064 A 
ATOM     79  C   UNL A   1      43.301  26.709  26.951  1.00  0.00     0.173 A 
ATOM     80  C   UNL A   1      41.735  24.999  27.569  1.00  0.00     0.173 A 
ATOM     81  F   UNL A   1      43.861  27.912  27.143  1.00  0.00    -0.203 F 
ATOM     82  C   UNL A   1      43.693  25.952  25.849  1.00  0.00     0.198 A 
ATOM     83  C   UNL A   1      42.148  24.230  26.483  1.00  0.00     0.198 A 
ATOM     84  F   UNL A   1      40.782  24.515  28.379  1.00  0.00    -0.203 F 
ATOM     85  F   UNL A   1      44.612  26.434  25.001  1.00  0.00    -0.200 F 
ATOM     86  C   UNL A   1      43.119  24.711  25.618  1.00  0.00     0.200 A 
ATOM     87  F   UNL A   1      41.602  23.025  26.271  1.00  0.00    -0.200 F 
ATOM     88  F   UNL A   1      43.497  23.983  24.559  1.00  0.00    -0.200 F 
ENDBRANCH  54  78
BRANCH  66  89
ATOM     89  C   UNL A   1      44.691  27.111  34.317  1.00  0.00     0.064 A 
ATOM     90  C   UNL A   1      45.964  27.696  34.371  1.00  0.00     0.173 A 
ATOM     91  C   UNL A   1      44.481  25.922  35.033  1.00  0.00     0.173 A 
ATOM     92  F   UNL A   1      46.218  28.825  33.692  1.00  0.00    -0.203 F 
ATOM     93  C   UNL A   1      46.994  27.099  35.092  1.00  0.00     0.198 A 
ATOM     94  C   UNL A   1      45.505  25.345  35.779  1.00  0.00     0.198 A 
ATOM     95  F   UNL A   1      43.279  25.328  35.020  1.00  0.00    -0.203 F 
ATOM     96  F   UNL A   1      48.216  27.648  35.090  1.00  0.00    -0.200 F 
ATOM     97  C   UNL A   1      46.762  25.929  35.802  1.00  0.00     0.200 A 
ATOM     98  F   UNL A   1      45.274  24.224  36.475  1.00  0.00    -0.200 F 
ATOM     99  F   UNL A   1      47.753  25.361  36.503  1.00  0.00    -0.200 F 
ENDBRANCH  66  89
ENDBRANCH  40  41
ENDBRANCH  32  35
ENDBRANCH  30  31
ENDBRANCH  29  30
ENDBRANCH   1  29
TORSDOF 13
ENDMDL
MODEL 2
REMARK VINA RESULT:     -13.9      4.424     10.265
REMARK SMILES CC(C)=C1[C@H]2CC[C@@H]1[C@@H](C(=O)Nc1cc(C)cc(C)c1)[C@@H]2C(=O)NCCCCNC(=O)c1ccc(-c2c3nc(c(-c4c(F)c(F)c(F)c(F)c4F)c4ccc([nH]4)c(-c4c(F)c(F)c(F)c(F)c4F)c4nc(c(-c5c(F)c(F)c(F)c(F)c5F)c5ccc2[nH]5)C=C4)C=C3)cc1
REMARK SMILES IDX 26 1 25 2 24 3 22 4 23 5 21 7 1 8 2 9 3 10 4 11 5 12 8 13
REMARK SMILES IDX 6 14 7 15 9 16 10 17 11 18 12 19 13 21 14 22 20 23 15 24
REMARK SMILES IDX 18 25 16 26 17 27 19 28 27 29 28 30 29 31 30 32 31 34 32 35
REMARK SMILES IDX 33 36 94 37 34 38 93 39 35 40 36 41 37 42 87 43 38 44 92 45
REMARK SMILES IDX 86 46 88 47 39 48 91 49 85 50 84 51 40 53 72 54 52 55 71 56
REMARK SMILES IDX 53 57 56 58 70 59 89 60 54 61 55 62 69 64 90 65 57 66 41 67
REMARK SMILES IDX 42 68 50 69 43 70 44 71 48 72 51 73 45 74 46 75 49 76 47 77
REMARK SMILES IDX 73 78 74 79 82 80 75 81 76 82 80 83 83 84 77 85 78 86 81 87
REMARK SMILES IDX 79 88 58 89 59 90 67 91 60 92 61 93 65 94 68 95 62 96 63 97
REMARK SMILES IDX 66 98 64 99
REMARK H PARENT 24 6 12 20 29 33 88 52 56 63
REMARK Flexibility Score: inf
ROOT
ATOM      1  C   UNL A   1      36.431  23.464  23.608  1.00  0.00     0.023 C 
ENDROOT
BRANCH   1   2
ATOM      2  C   UNL A   1      35.360  24.102  24.468  1.00  0.00     0.116 C 
BRANCH   2   3
ATOM      3  N   UNL A   1      34.002  24.020  24.005  1.00  0.00    -0.356 N 
ATOM      4  C   UNL A   1      33.128  25.027  23.726  1.00  0.00     0.224 C 
ATOM      5  O   UNL A   1      32.145  24.711  23.042  1.00  0.00    -0.275 OA
ATOM      6  H   UNL A   1      33.656  23.108  23.870  1.00  0.00     0.163 HD
BRANCH   4   7
ATOM      7  C   UNL A   1      33.264  26.489  24.195  1.00  0.00     0.098 C 
ATOM      8  C   UNL A   1      32.777  30.527  26.754  1.00  0.00     0.039 C 
ATOM      9  C   UNL A   1      33.548  29.235  26.632  1.00  0.00    -0.077 C 
ATOM     10  C   UNL A   1      34.729  29.114  27.546  1.00  0.00     0.039 C 
ATOM     11  C   UNL A   1      33.121  28.220  25.859  1.00  0.00    -0.064 C 
ATOM     12  C   UNL A   1      33.554  26.771  25.694  1.00  0.00     0.028 C 
ATOM     13  C   UNL A   1      31.779  28.112  25.205  1.00  0.00     0.028 C 
ATOM     14  C   UNL A   1      32.460  26.198  26.593  1.00  0.00     0.009 C 
ATOM     15  C   UNL A   1      31.259  27.138  26.302  1.00  0.00     0.009 C 
ATOM     16  C   UNL A   1      32.168  27.488  23.844  1.00  0.00     0.099 C 
BRANCH  16  17
ATOM     17  C   UNL A   1      32.479  28.545  22.758  1.00  0.00     0.228 C 
ATOM     18  O   UNL A   1      33.658  28.609  22.364  1.00  0.00    -0.274 OA
ATOM     19  N   UNL A   1      31.607  29.324  22.060  1.00  0.00    -0.326 N 
ATOM     20  H   UNL A   1      32.030  29.770  21.291  1.00  0.00     0.169 HD
BRANCH  19  21
ATOM     21  C   UNL A   1      30.247  29.641  22.183  1.00  0.00     0.041 A 
ATOM     22  C   UNL A   1      29.342  28.898  22.936  1.00  0.00     0.029 A 
ATOM     23  C   UNL A   1      29.801  30.808  21.559  1.00  0.00     0.029 A 
ATOM     24  C   UNL A   1      27.969  29.175  22.898  1.00  0.00    -0.049 A 
ATOM     25  C   UNL A   1      28.436  31.133  21.538  1.00  0.00    -0.049 A 
ATOM     26  C   UNL A   1      26.981  28.217  23.499  1.00  0.00     0.044 C 
ATOM     27  C   UNL A   1      27.523  30.295  22.188  1.00  0.00     0.007 A 
ATOM     28  C   UNL A   1      27.936  32.280  20.709  1.00  0.00     0.044 C 
ENDBRANCH  19  21
ENDBRANCH  16  17
ENDBRANCH   4   7
ENDBRANCH   2   3
ENDBRANCH   1   2
BRANCH   1  29
ATOM     29  C   UNL A   1      36.809  22.045  23.993  1.00  0.00     0.023 C 
BRANCH  29  30
ATOM     30  C   UNL A   1      37.243  21.843  25.441  1.00  0.00     0.116 C 
BRANCH  30  31
ATOM     31  N   UNL A   1      38.267  20.824  25.639  1.00  0.00    -0.352 N 
ATOM     32  C   UNL A   1      39.509  20.977  26.214  1.00  0.00     0.251 C 
ATOM     33  H   UNL A   1      38.043  19.918  25.326  1.00  0.00     0.163 HD
ATOM     34  O   UNL A   1      40.299  20.042  26.282  1.00  0.00    -0.269 OA
BRANCH  32  35
ATOM     35  C   UNL A   1      39.892  22.314  26.707  1.00  0.00     0.039 A 
ATOM     36  C   UNL A   1      40.874  22.419  27.694  1.00  0.00     0.014 A 
ATOM     37  C   UNL A   1      39.357  23.458  26.107  1.00  0.00     0.014 A 
ATOM     38  C   UNL A   1      41.376  23.677  28.027  1.00  0.00     0.010 A 
ATOM     39  C   UNL A   1      39.929  24.695  26.368  1.00  0.00     0.010 A 
ATOM     40  C   UNL A   1      40.934  24.821  27.341  1.00  0.00    -0.014 A 
BRANCH  40  41
ATOM     41  C   UNL A   1      41.476  26.166  27.654  1.00  0.00     0.031 A 
ATOM     42  C   UNL A   1      42.872  26.519  27.218  1.00  0.00     0.074 A 
ATOM     43  C   UNL A   1      40.749  27.042  28.374  1.00  0.00     0.049 A 
ATOM     44  N   UNL A   1      43.560  27.612  27.437  1.00  0.00    -0.248 NA
ATOM     45  C   UNL A   1      43.609  25.490  26.466  1.00  0.00     0.031 C 
ATOM     46  C   UNL A   1      39.407  26.795  28.907  1.00  0.00     0.029 A 
ATOM     47  N   UNL A   1      41.038  28.318  28.786  1.00  0.00    -0.354 N 
ATOM     48  C   UNL A   1      44.807  27.389  26.870  1.00  0.00     0.074 A 
ATOM     49  C   UNL A   1      44.810  26.037  26.361  1.00  0.00     0.031 C 
ATOM     50  C   UNL A   1      38.979  27.896  29.547  1.00  0.00     0.029 A 
ATOM     51  C   UNL A   1      40.025  28.913  29.497  1.00  0.00     0.049 A 
ATOM     52  H   UNL A   1      41.893  28.766  28.590  1.00  0.00     0.167 HD
ATOM     53  C   UNL A   1      45.846  28.248  26.749  1.00  0.00     0.037 A 
ATOM     54  C   UNL A   1      39.950  30.143  30.041  1.00  0.00     0.037 A 
ATOM     55  C   UNL A   1      45.825  29.606  27.219  1.00  0.00     0.049 A 
ATOM     56  C   UNL A   1      41.112  31.088  29.875  1.00  0.00     0.074 A 
ATOM     57  C   UNL A   1      46.801  30.578  27.097  1.00  0.00     0.029 A 
ATOM     58  N   UNL A   1      44.764  30.186  27.901  1.00  0.00    -0.354 N 
ATOM     59  N   UNL A   1      42.259  30.893  29.271  1.00  0.00    -0.248 NA
ATOM     60  C   UNL A   1      40.962  32.430  30.456  1.00  0.00     0.031 C 
ATOM     61  C   UNL A   1      46.348  31.735  27.738  1.00  0.00     0.029 A 
ATOM     62  C   UNL A   1      45.068  31.499  28.217  1.00  0.00     0.049 A 
ATOM     63  H   UNL A   1      43.922  29.730  28.128  1.00  0.00     0.167 HD
ATOM     64  C   UNL A   1      42.950  32.094  29.366  1.00  0.00     0.074 A 
ATOM     65  C   UNL A   1      42.089  33.015  30.076  1.00  0.00     0.031 C 
ATOM     66  C   UNL A   1      44.187  32.406  28.906  1.00  0.00     0.037 A 
BRANCH  53  67
ATOM     67  C   UNL A   1      47.084  27.742  26.068  1.00  0.00     0.064 A 
ATOM     68  C   UNL A   1      47.214  27.758  24.670  1.00  0.00     0.173 A 
ATOM     69  C   UNL A   1      48.161  27.250  26.819  1.00  0.00     0.173 A 
ATOM     70  F   UNL A   1      46.206  28.203  23.904  1.00  0.00    -0.203 F 
ATOM     71  C   UNL A   1      48.359  27.267  24.050  1.00  0.00     0.198 A 
ATOM     72  C   UNL A   1      49.320  26.791  26.197  1.00  0.00     0.198 A 
ATOM     73  F   UNL A   1      48.093  27.215  28.159  1.00  0.00    -0.203 F 
ATOM     74  F   UNL A   1      48.433  27.237  22.712  1.00  0.00    -0.200 F 
ATOM     75  C   UNL A   1      49.413  26.791  24.814  1.00  0.00     0.200 A 
ATOM     76  F   UNL A   1      50.344  26.343  26.936  1.00  0.00    -0.200 F 
ATOM     77  F   UNL A   1      50.518  26.324  24.215  1.00  0.00    -0.200 F 
ENDBRANCH  53  67
BRANCH  54  78
ATOM     78  C   UNL A   1      38.718  30.573  30.753  1.00  0.00     0.064 A 
ATOM     79  C   UNL A   1      37.606  31.049  30.043  1.00  0.00     0.173 A 
ATOM     80  C   UNL A   1      38.628  30.534  32.152  1.00  0.00     0.173 A 
ATOM     81  F   UNL A   1      37.650  31.124  28.705  1.00  0.00    -0.203 F 
ATOM     82  C   UNL A   1      36.463  31.493  30.705  1.00  0.00     0.198 A 
ATOM     83  C   UNL A   1      37.474  30.952  32.812  1.00  0.00     0.198 A 
ATOM     84  F   UNL A   1      39.661  30.082  32.878  1.00  0.00    -0.203 F 
ATOM     85  F   UNL A   1      35.436  31.990  30.003  1.00  0.00    -0.200 F 
ATOM     86  C   UNL A   1      36.396  31.440  32.089  1.00  0.00     0.200 A 
ATOM     87  F   UNL A   1      37.408  30.886  34.148  1.00  0.00    -0.200 F 
ATOM     88  F   UNL A   1      35.297  31.867  32.725  1.00  0.00    -0.200 F 
ENDBRANCH  54  78
BRANCH  66  89
ATOM     89  C   UNL A   1      44.662  33.816  29.108  1.00  0.00     0.064 A 
ATOM     90  C   UNL A   1      44.386  34.829  28.179  1.00  0.00     0.173 A 
ATOM     91  C   UNL A   1      45.367  34.163  30.271  1.00  0.00     0.173 A 
ATOM     92  F   UNL A   1      43.727  34.544  27.045  1.00  0.00    -0.203 F 
ATOM     93  C   UNL A   1      44.821  36.134  28.394  1.00  0.00     0.198 A 
ATOM     94  C   UNL A   1      45.773  35.475  30.498  1.00  0.00     0.198 A 
ATOM     95  F   UNL A   1      45.649  33.231  31.194  1.00  0.00    -0.203 F 
ATOM     96  F   UNL A   1      44.589  37.076  27.471  1.00  0.00    -0.200 F 
ATOM     97  C   UNL A   1      45.507  36.457  29.556  1.00  0.00     0.200 A 
ATOM     98  F   UNL A   1      46.421  35.787  31.628  1.00  0.00    -0.200 F 
ATOM     99  F   UNL A   1      45.917  37.715  29.765  1.00  0.00    -0.200 F 
ENDBRANCH  66  89
ENDBRANCH  40  41
ENDBRANCH  32  35
ENDBRANCH  30  31
ENDBRANCH  29  30
ENDBRANCH   1  29
TORSDOF 13
ENDMDL
MODEL 3
REMARK VINA RESULT:     -13.9      0.738      7.171
REMARK SMILES CC(C)=C1[C@H]2CC[C@@H]1[C@@H](C(=O)Nc1cc(C)cc(C)c1)[C@@H]2C(=O)NCCCCNC(=O)c1ccc(-c2c3nc(c(-c4c(F)c(F)c(F)c(F)c4F)c4ccc([nH]4)c(-c4c(F)c(F)c(F)c(F)c4F)c4nc(c(-c5c(F)c(F)c(F)c(F)c5F)c5ccc2[nH]5)C=C4)C=C3)cc1
REMARK SMILES IDX 26 1 25 2 24 3 22 4 23 5 21 7 1 8 2 9 3 10 4 11 5 12 8 13
REMARK SMILES IDX 6 14 7 15 9 16 10 17 11 18 12 19 13 21 14 22 20 23 15 24
REMARK SMILES IDX 18 25 16 26 17 27 19 28 27 29 28 30 29 31 30 32 31 34 32 35
REMARK SMILES IDX 33 36 94 37 34 38 93 39 35 40 36 41 37 42 87 43 38 44 92 45
REMARK SMILES IDX 86 46 88 47 39 48 91 49 85 50 84 51 40 53 72 54 52 55 71 56
REMARK SMILES IDX 53 57 56 58 70 59 89 60 54 61 55 62 69 64 90 65 57 66 41 67
REMARK SMILES IDX 42 68 50 69 43 70 44 71 48 72 51 73 45 74 46 75 49 76 47 77
REMARK SMILES IDX 73 78 74 79 82 80 75 81 76 82 80 83 83 84 77 85 78 86 81 87
REMARK SMILES IDX 79 88 58 89 59 90 67 91 60 92 61 93 65 94 68 95 62 96 63 97
REMARK SMILES IDX 66 98 64 99
REMARK H PARENT 24 6 12 20 29 33 88 52 56 63
REMARK Flexibility Score: inf
ROOT
ATOM      1  C   UNL A   1      31.975  27.611  26.434  1.00  0.00     0.023 C 
ENDROOT
BRANCH   1   2
ATOM      2  C   UNL A   1      31.776  26.119  26.602  1.00  0.00     0.116 C 
BRANCH   2   3
ATOM      3  N   UNL A   1      31.490  25.352  25.422  1.00  0.00    -0.356 N 
ATOM      4  C   UNL A   1      32.030  24.170  25.014  1.00  0.00     0.224 C 
ATOM      5  O   UNL A   1      31.394  23.560  24.144  1.00  0.00    -0.275 OA
ATOM      6  H   UNL A   1      30.809  25.736  24.823  1.00  0.00     0.163 HD
BRANCH   4   7
ATOM      7  C   UNL A   1      33.344  23.556  25.537  1.00  0.00     0.098 C 
ATOM      8  C   UNL A   1      37.857  21.917  25.732  1.00  0.00     0.039 C 
ATOM      9  C   UNL A   1      36.992  23.150  25.832  1.00  0.00    -0.077 C 
ATOM     10  C   UNL A   1      37.705  24.388  26.283  1.00  0.00     0.039 C 
ATOM     11  C   UNL A   1      35.713  23.159  25.413  1.00  0.00    -0.064 C 
ATOM     12  C   UNL A   1      34.686  24.262  25.201  1.00  0.00     0.028 C 
ATOM     13  C   UNL A   1      35.036  22.088  24.619  1.00  0.00     0.028 C 
ATOM     14  C   UNL A   1      34.903  24.363  23.694  1.00  0.00     0.009 C 
ATOM     15  C   UNL A   1      35.191  22.890  23.295  1.00  0.00     0.009 C 
ATOM     16  C   UNL A   1      33.633  22.083  25.273  1.00  0.00     0.099 C 
BRANCH  16  17
ATOM     17  C   UNL A   1      33.522  21.103  26.465  1.00  0.00     0.228 C 
ATOM     18  O   UNL A   1      33.608  21.599  27.604  1.00  0.00    -0.274 OA
ATOM     19  N   UNL A   1      33.195  19.781  26.448  1.00  0.00    -0.326 N 
ATOM     20  H   UNL A   1      32.998  19.429  27.345  1.00  0.00     0.169 HD
BRANCH  19  21
ATOM     21  C   UNL A   1      33.073  18.806  25.448  1.00  0.00     0.041 A 
ATOM     22  C   UNL A   1      32.961  19.094  24.091  1.00  0.00     0.029 A 
ATOM     23  C   UNL A   1      33.134  17.468  25.847  1.00  0.00     0.029 A 
ATOM     24  C   UNL A   1      32.691  18.085  23.157  1.00  0.00    -0.049 A 
ATOM     25  C   UNL A   1      32.906  16.435  24.926  1.00  0.00    -0.049 A 
ATOM     26  C   UNL A   1      32.314  18.436  21.746  1.00  0.00     0.044 C 
ATOM     27  C   UNL A   1      32.658  16.755  23.586  1.00  0.00     0.007 A 
ATOM     28  C   UNL A   1      32.782  15.013  25.389  1.00  0.00     0.044 C 
ENDBRANCH  19  21
ENDBRANCH  16  17
ENDBRANCH   4   7
ENDBRANCH   2   3
ENDBRANCH   1   2
BRANCH   1  29
ATOM     29  C   UNL A   1      32.523  28.041  25.084  1.00  0.00     0.023 C 
BRANCH  29  30
ATOM     30  C   UNL A   1      33.286  29.360  25.066  1.00  0.00     0.116 C 
BRANCH  30  31
ATOM     31  N   UNL A   1      32.608  30.472  25.725  1.00  0.00    -0.352 N 
ATOM     32  C   UNL A   1      33.040  31.197  26.813  1.00  0.00     0.251 C 
ATOM     33  H   UNL A   1      31.738  30.734  25.346  1.00  0.00     0.163 HD
ATOM     34  O   UNL A   1      32.349  32.085  27.300  1.00  0.00    -0.269 OA
BRANCH  32  35
ATOM     35  C   UNL A   1      34.341  30.848  27.415  1.00  0.00     0.039 A 
ATOM     36  C   UNL A   1      35.294  31.851  27.602  1.00  0.00     0.014 A 
ATOM     37  C   UNL A   1      34.562  29.554  27.895  1.00  0.00     0.014 A 
ATOM     38  C   UNL A   1      36.444  31.572  28.340  1.00  0.00     0.010 A 
ATOM     39  C   UNL A   1      35.656  29.309  28.712  1.00  0.00     0.010 A 
ATOM     40  C   UNL A   1      36.616  30.310  28.933  1.00  0.00    -0.014 A 
BRANCH  40  41
ATOM     41  C   UNL A   1      37.815  29.998  29.750  1.00  0.00     0.031 A 
ATOM     42  C   UNL A   1      38.852  29.052  29.207  1.00  0.00     0.074 A 
ATOM     43  C   UNL A   1      37.946  30.509  30.989  1.00  0.00     0.049 A 
ATOM     44  N   UNL A   1      39.941  28.599  29.775  1.00  0.00    -0.248 NA
ATOM     45  C   UNL A   1      38.612  28.513  27.859  1.00  0.00     0.031 C 
ATOM     46  C   UNL A   1      36.979  31.389  31.651  1.00  0.00     0.029 A 
ATOM     47  N   UNL A   1      38.945  30.359  31.917  1.00  0.00    -0.354 N 
ATOM     48  C   UNL A   1      40.498  27.713  28.863  1.00  0.00     0.074 A 
ATOM     49  C   UNL A   1      39.595  27.634  27.738  1.00  0.00     0.031 C 
ATOM     50  C   UNL A   1      37.450  31.724  32.864  1.00  0.00     0.029 A 
ATOM     51  C   UNL A   1      38.732  31.060  33.078  1.00  0.00     0.049 A 
ATOM     52  H   UNL A   1      39.741  29.799  31.764  1.00  0.00     0.167 HD
ATOM     53  C   UNL A   1      41.676  27.052  28.939  1.00  0.00     0.037 A 
ATOM     54  C   UNL A   1      39.491  31.159  34.187  1.00  0.00     0.037 A 
ATOM     55  C   UNL A   1      42.591  27.164  30.041  1.00  0.00     0.049 A 
ATOM     56  C   UNL A   1      40.808  30.429  34.238  1.00  0.00     0.074 A 
ATOM     57  C   UNL A   1      43.838  26.583  30.192  1.00  0.00     0.029 A 
ATOM     58  N   UNL A   1      42.358  27.916  31.183  1.00  0.00    -0.354 N 
ATOM     59  N   UNL A   1      41.361  29.653  33.338  1.00  0.00    -0.248 NA
ATOM     60  C   UNL A   1      41.614  30.602  35.455  1.00  0.00     0.031 C 
ATOM     61  C   UNL A   1      44.343  26.952  31.443  1.00  0.00     0.029 A 
ATOM     62  C   UNL A   1      43.432  27.804  32.049  1.00  0.00     0.049 A 
ATOM     63  H   UNL A   1      41.548  28.449  31.353  1.00  0.00     0.167 HD
ATOM     64  C   UNL A   1      42.591  29.275  33.862  1.00  0.00     0.074 A 
ATOM     65  C   UNL A   1      42.708  29.917  35.154  1.00  0.00     0.031 C 
ATOM     66  C   UNL A   1      43.538  28.469  33.322  1.00  0.00     0.037 A 
BRANCH  53  67
ATOM     67  C   UNL A   1      42.042  26.160  27.788  1.00  0.00     0.064 A 
ATOM     68  C   UNL A   1      41.430  24.911  27.601  1.00  0.00     0.173 A 
ATOM     69  C   UNL A   1      43.003  26.564  26.850  1.00  0.00     0.173 A 
ATOM     70  F   UNL A   1      40.517  24.469  28.479  1.00  0.00    -0.203 F 
ATOM     71  C   UNL A   1      41.793  24.084  26.541  1.00  0.00     0.198 A 
ATOM     72  C   UNL A   1      43.340  25.750  25.770  1.00  0.00     0.198 A 
ATOM     73  F   UNL A   1      43.617  27.750  26.977  1.00  0.00    -0.203 F 
ATOM     74  F   UNL A   1      41.238  22.871  26.420  1.00  0.00    -0.200 F 
ATOM     75  C   UNL A   1      42.741  24.508  25.623  1.00  0.00     0.200 A 
ATOM     76  F   UNL A   1      44.247  26.165  24.876  1.00  0.00    -0.200 F 
ATOM     77  F   UNL A   1      43.086  23.714  24.599  1.00  0.00    -0.200 F 
ENDBRANCH  53  67
BRANCH  54  78
ATOM     78  C   UNL A   1      39.053  32.015  35.321  1.00  0.00     0.064 A 
ATOM     79  C   UNL A   1      39.382  33.378  35.362  1.00  0.00     0.173 A 
ATOM     80  C   UNL A   1      38.313  31.491  36.391  1.00  0.00     0.173 A 
ATOM     81  F   UNL A   1      40.105  33.921  34.373  1.00  0.00    -0.203 F 
ATOM     82  C   UNL A   1      39.011  34.176  36.442  1.00  0.00     0.198 A 
ATOM     83  C   UNL A   1      37.917  32.297  37.456  1.00  0.00     0.198 A 
ATOM     84  F   UNL A   1      37.967  30.195  36.397  1.00  0.00    -0.203 F 
ATOM     85  F   UNL A   1      39.382  35.463  36.479  1.00  0.00    -0.200 F 
ATOM     86  C   UNL A   1      38.275  33.637  37.486  1.00  0.00     0.200 A 
ATOM     87  F   UNL A   1      37.195  31.775  38.456  1.00  0.00    -0.200 F 
ATOM     88  F   UNL A   1      37.917  34.405  38.524  1.00  0.00    -0.200 F 
ENDBRANCH  54  78
BRANCH  66  89
ATOM     89  C   UNL A   1      44.807  28.279  34.101  1.00  0.00     0.064 A 
ATOM     90  C   UNL A   1      45.902  29.141  33.951  1.00  0.00     0.173 A 
ATOM     91  C   UNL A   1      44.908  27.243  35.043  1.00  0.00     0.173 A 
ATOM     92  F   UNL A   1      45.860  30.138  33.054  1.00  0.00    -0.203 F 
ATOM     93  C   UNL A   1      47.064  28.956  34.697  1.00  0.00     0.198 A 
ATOM     94  C   UNL A   1      46.058  27.081  35.809  1.00  0.00     0.198 A 
ATOM     95  F   UNL A   1      43.884  26.397  35.229  1.00  0.00    -0.203 F 
ATOM     96  F   UNL A   1      48.116  29.762  34.503  1.00  0.00    -0.200 F 
ATOM     97  C   UNL A   1      47.138  27.932  35.630  1.00  0.00     0.200 A 
ATOM     98  F   UNL A   1      46.122  26.101  36.720  1.00  0.00    -0.200 F 
ATOM     99  F   UNL A   1      48.253  27.762  36.352  1.00  0.00    -0.200 F 
ENDBRANCH  66  89
ENDBRANCH  40  41
ENDBRANCH  32  35
ENDBRANCH  30  31
ENDBRANCH  29  30
ENDBRANCH   1  29
TORSDOF 13
ENDMDL
