MODEL 1
REMARK VINA RESULT:     -13.6      0.000      0.000
REMARK SMILES CC(C)Cc1ccc(S(=O)(=O)Nc2cnc(N3CCCC3)c(C(=O)NCCCCNC(=O)c3ccc(-c4c5nc(c(-c6c(F)c(F)c(F)c(F)c6F)c6ccc([nH]6)c(-c6c(F)c(F)c(F)c(F)c6F)c6nc(c(-c7c(F)c(F)c(F)c(F)c7F)c7ccc4[nH]7)C=C6)C=C5)cc3)c2)cc1
REMARK SMILES IDX 26 1 25 2 23 3 24 4 22 6 13 7 14 8 96 9 15 10 16 11 12 12
REMARK SMILES IDX 9 14 10 15 11 16 8 17 5 18 6 19 98 20 7 21 97 22 4 23 2 24
REMARK SMILES IDX 1 25 3 26 17 27 18 28 21 29 19 30 20 31 27 32 28 33 29 34
REMARK SMILES IDX 30 35 31 36 32 38 33 39 34 40 95 41 35 42 94 43 36 44 37 45
REMARK SMILES IDX 38 46 88 47 39 48 93 49 87 50 89 51 40 52 92 53 86 54 85 55
REMARK SMILES IDX 41 57 73 58 53 59 72 60 54 61 57 62 71 63 90 64 55 65 56 66
REMARK SMILES IDX 70 68 91 69 58 70 42 71 43 72 51 73 44 74 45 75 49 76 52 77
REMARK SMILES IDX 46 78 47 79 50 80 48 81 74 82 75 83 83 84 76 85 77 86 81 87
REMARK SMILES IDX 84 88 78 89 79 90 82 91 80 92 59 93 60 94 68 95 61 96 62 97
REMARK SMILES IDX 66 98 69 99 63 100 64 101 67 102 65 103
REMARK H PARENT 25 5 12 13 30 37 89 56 57 67
REMARK Flexibility Score: inf
ROOT
ATOM      1  C   UNL A   1      31.817  29.981  25.675  1.00  0.00     0.116 C 
ENDROOT
BRANCH   1   2
ATOM      2  N   UNL A   1      32.247  29.760  24.309  1.00  0.00    -0.352 N 
ATOM      3  C   UNL A   1      31.906  28.919  23.280  1.00  0.00     0.255 C 
ATOM      4  O   UNL A   1      32.629  29.068  22.294  1.00  0.00    -0.269 OA
ATOM      5  H   UNL A   1      32.974  30.374  24.053  1.00  0.00     0.163 HD
BRANCH   3   6
ATOM      6  C   UNL A   1      30.739  27.966  23.296  1.00  0.00     0.084 A 
ATOM      7  C   UNL A   1      29.858  25.866  24.100  1.00  0.00     0.068 A 
ATOM      8  C   UNL A   1      28.587  26.376  23.918  1.00  0.00     0.140 A 
ATOM      9  C   UNL A   1      30.924  26.614  23.621  1.00  0.00     0.046 A 
ATOM     10  N   UNL A   1      28.352  27.618  23.461  1.00  0.00    -0.236 NA
ATOM     11  C   UNL A   1      29.406  28.435  23.189  1.00  0.00     0.141 A 
BRANCH   7  12
ATOM     12  N   UNL A   1      30.013  24.700  24.903  1.00  0.00    -0.278 N 
ATOM     13  H   UNL A   1      29.576  23.869  24.609  1.00  0.00     0.180 HD
BRANCH  12  14
ATOM     14  S   UNL A   1      30.909  24.673  26.332  1.00  0.00     0.261 S 
ATOM     15  O   UNL A   1      30.319  23.658  27.185  1.00  0.00    -0.201 OA
ATOM     16  O   UNL A   1      30.988  26.052  26.757  1.00  0.00    -0.201 OA
BRANCH  14  17
ATOM     17  C   UNL A   1      32.587  24.140  26.014  1.00  0.00     0.087 A 
ATOM     18  C   UNL A   1      35.362  23.657  25.829  1.00  0.00    -0.048 A 
ATOM     19  C   UNL A   1      34.808  24.829  25.300  1.00  0.00     0.005 A 
ATOM     20  C   UNL A   1      34.498  22.699  26.377  1.00  0.00     0.005 A 
ATOM     21  C   UNL A   1      33.436  25.077  25.407  1.00  0.00     0.022 A 
ATOM     22  C   UNL A   1      33.115  22.923  26.443  1.00  0.00     0.022 A 
BRANCH  18  23
ATOM     23  C   UNL A   1      36.857  23.409  25.791  1.00  0.00     0.038 C 
BRANCH  23  24
ATOM     24  C   UNL A   1      37.340  22.508  24.631  1.00  0.00    -0.013 C 
ATOM     25  C   UNL A   1      37.160  21.022  24.944  1.00  0.00     0.008 C 
ATOM     26  C   UNL A   1      36.580  22.840  23.346  1.00  0.00     0.008 C 
ENDBRANCH  23  24
ENDBRANCH  18  23
ENDBRANCH  14  17
ENDBRANCH  12  14
ENDBRANCH   7  12
BRANCH  11  27
ATOM     27  N   UNL A   1      29.054  29.720  22.896  1.00  0.00    -0.356 N 
ATOM     28  C   UNL A   1      29.325  30.353  21.617  1.00  0.00     0.118 C 
ATOM     29  C   UNL A   1      27.927  30.365  23.556  1.00  0.00     0.118 C 
ATOM     30  C   UNL A   1      29.021  31.809  21.946  1.00  0.00     0.023 C 
ATOM     31  C   UNL A   1      27.767  31.696  22.810  1.00  0.00     0.023 C 
ENDBRANCH  11  27
ENDBRANCH   3   6
ENDBRANCH   1   2
BRANCH   1  32
ATOM     32  C   UNL A   1      31.121  31.333  25.795  1.00  0.00     0.023 C 
BRANCH  32  33
ATOM     33  C   UNL A   1      31.385  32.034  27.135  1.00  0.00     0.023 C 
BRANCH  33  34
ATOM     34  C   UNL A   1      32.648  32.891  27.183  1.00  0.00     0.116 C 
BRANCH  34  35
ATOM     35  N   UNL A   1      32.391  34.259  27.606  1.00  0.00    -0.352 N 
ATOM     36  C   UNL A   1      33.023  34.984  28.583  1.00  0.00     0.251 C 
ATOM     37  H   UNL A   1      31.667  34.725  27.128  1.00  0.00     0.163 HD
ATOM     38  O   UNL A   1      32.627  36.102  28.894  1.00  0.00    -0.269 OA
BRANCH  36  39
ATOM     39  C   UNL A   1      34.174  34.388  29.288  1.00  0.00     0.039 A 
ATOM     40  C   UNL A   1      33.933  33.611  30.423  1.00  0.00     0.014 A 
ATOM     41  C   UNL A   1      35.475  34.576  28.814  1.00  0.00     0.014 A 
ATOM     42  C   UNL A   1      34.997  32.966  31.052  1.00  0.00     0.010 A 
ATOM     43  C   UNL A   1      36.529  33.894  29.416  1.00  0.00     0.010 A 
ATOM     44  C   UNL A   1      36.296  33.078  30.534  1.00  0.00    -0.014 A 
BRANCH  44  45
ATOM     45  C   UNL A   1      37.426  32.334  31.142  1.00  0.00     0.031 A 
ATOM     46  C   UNL A   1      37.933  32.715  32.502  1.00  0.00     0.074 A 
ATOM     47  C   UNL A   1      38.026  31.353  30.442  1.00  0.00     0.049 A 
ATOM     48  N   UNL A   1      38.959  32.244  33.164  1.00  0.00    -0.248 NA
ATOM     49  C   UNL A   1      37.201  33.781  33.203  1.00  0.00     0.031 C 
ATOM     50  C   UNL A   1      37.644  30.917  29.097  1.00  0.00     0.029 A 
ATOM     51  N   UNL A   1      39.096  30.554  30.759  1.00  0.00    -0.354 N 
ATOM     52  C   UNL A   1      38.999  32.956  34.354  1.00  0.00     0.074 A 
ATOM     53  C   UNL A   1      37.921  33.922  34.307  1.00  0.00     0.031 C 
ATOM     54  C   UNL A   1      38.461  29.924  28.709  1.00  0.00     0.029 A 
ATOM     55  C   UNL A   1      39.441  29.676  29.761  1.00  0.00     0.049 A 
ATOM     56  H   UNL A   1      39.572  30.607  31.619  1.00  0.00     0.167 HD
ATOM     57  C   UNL A   1      39.846  32.803  35.399  1.00  0.00     0.037 A 
ATOM     58  C   UNL A   1      40.444  28.779  29.702  1.00  0.00     0.037 A 
ATOM     59  C   UNL A   1      40.907  31.832  35.451  1.00  0.00     0.049 A 
ATOM     60  C   UNL A   1      41.372  28.635  30.877  1.00  0.00     0.074 A 
ATOM     61  C   UNL A   1      41.806  31.588  36.474  1.00  0.00     0.029 A 
ATOM     62  N   UNL A   1      41.204  30.936  34.434  1.00  0.00    -0.354 N 
ATOM     63  N   UNL A   1      41.377  29.289  32.012  1.00  0.00    -0.248 NA
ATOM     64  C   UNL A   1      42.431  27.623  30.763  1.00  0.00     0.031 C 
ATOM     65  C   UNL A   1      42.663  30.560  36.068  1.00  0.00     0.029 A 
ATOM     66  C   UNL A   1      42.276  30.142  34.805  1.00  0.00     0.049 A 
ATOM     67  H   UNL A   1      40.725  30.875  33.577  1.00  0.00     0.167 HD
ATOM     68  C   UNL A   1      42.417  28.753  32.757  1.00  0.00     0.074 A 
ATOM     69  C   UNL A   1      43.016  27.709  31.951  1.00  0.00     0.031 C 
ATOM     70  C   UNL A   1      42.844  29.096  33.995  1.00  0.00     0.037 A 
BRANCH  57  71
ATOM     71  C   UNL A   1      39.650  33.698  36.585  1.00  0.00     0.064 A 
ATOM     72  C   UNL A   1      40.243  34.966  36.643  1.00  0.00     0.173 A 
ATOM     73  C   UNL A   1      38.821  33.308  37.647  1.00  0.00     0.173 A 
ATOM     74  F   UNL A   1      41.055  35.378  35.658  1.00  0.00    -0.203 F 
ATOM     75  C   UNL A   1      40.029  35.808  37.732  1.00  0.00     0.198 A 
ATOM     76  C   UNL A   1      38.590  34.160  38.724  1.00  0.00     0.198 A 
ATOM     77  F   UNL A   1      38.228  32.105  37.636  1.00  0.00    -0.203 F 
ATOM     78  F   UNL A   1      40.634  37.003  37.783  1.00  0.00    -0.200 F 
ATOM     79  C   UNL A   1      39.196  35.407  38.766  1.00  0.00     0.200 A 
ATOM     80  F   UNL A   1      37.779  33.777  39.719  1.00  0.00    -0.200 F 
ATOM     81  F   UNL A   1      38.983  36.223  39.809  1.00  0.00    -0.200 F 
ENDBRANCH  57  71
BRANCH  58  82
ATOM     82  C   UNL A   1      40.618  27.934  28.493  1.00  0.00     0.064 A 
ATOM     83  C   UNL A   1      41.378  28.384  27.405  1.00  0.00     0.173 A 
ATOM     84  C   UNL A   1      40.010  26.675  28.391  1.00  0.00     0.173 A 
ATOM     85  F   UNL A   1      41.962  29.591  27.450  1.00  0.00    -0.203 F 
ATOM     86  C   UNL A   1      41.503  27.617  26.249  1.00  0.00     0.198 A 
ATOM     87  C   UNL A   1      40.155  25.899  27.242  1.00  0.00     0.198 A 
ATOM     88  F   UNL A   1      39.274  26.199  29.406  1.00  0.00    -0.203 F 
ATOM     89  F   UNL A   1      42.193  28.093  25.203  1.00  0.00    -0.200 F 
ATOM     90  C   UNL A   1      40.893  26.374  26.170  1.00  0.00     0.200 A 
ATOM     91  F   UNL A   1      39.573  24.694  27.173  1.00  0.00    -0.200 F 
ATOM     92  F   UNL A   1      41.009  25.639  25.055  1.00  0.00    -0.200 F 
ENDBRANCH  58  82
BRANCH  70  93
ATOM     93  C   UNL A   1      43.985  28.313  34.569  1.00  0.00     0.064 A 
ATOM     94  C   UNL A   1      45.313  28.735  34.414  1.00  0.00     0.173 A 
ATOM     95  C   UNL A   1      43.743  27.151  35.315  1.00  0.00     0.173 A 
ATOM     96  F   UNL A   1      45.593  29.833  33.695  1.00  0.00    -0.203 F 
ATOM     97  C   UNL A   1      46.362  28.008  34.969  1.00  0.00     0.198 A 
ATOM     98  C   UNL A   1      44.793  26.438  35.889  1.00  0.00     0.198 A 
ATOM     99  F   UNL A   1      42.489  26.710  35.493  1.00  0.00    -0.203 F 
ATOM    100  F   UNL A   1      47.627  28.407  34.777  1.00  0.00    -0.200 F 
ATOM    101  C   UNL A   1      46.100  26.865  35.711  1.00  0.00     0.200 A 
ATOM    102  F   UNL A   1      44.539  25.340  36.611  1.00  0.00    -0.200 F 
ATOM    103  F   UNL A   1      47.111  26.169  36.250  1.00  0.00    -0.200 F 
ENDBRANCH  70  93
ENDBRANCH  44  45
ENDBRANCH  36  39
ENDBRANCH  34  35
ENDBRANCH  33  34
ENDBRANCH  32  33
ENDBRANCH   1  32
TORSDOF 17
ENDMDL
MODEL 2
REMARK VINA RESULT:     -13.4      0.515      6.996
REMARK SMILES CC(C)Cc1ccc(S(=O)(=O)Nc2cnc(N3CCCC3)c(C(=O)NCCCCNC(=O)c3ccc(-c4c5nc(c(-c6c(F)c(F)c(F)c(F)c6F)c6ccc([nH]6)c(-c6c(F)c(F)c(F)c(F)c6F)c6nc(c(-c7c(F)c(F)c(F)c(F)c7F)c7ccc4[nH]7)C=C6)C=C5)cc3)c2)cc1
REMARK SMILES IDX 26 1 25 2 23 3 24 4 22 6 13 7 14 8 96 9 15 10 16 11 12 12
REMARK SMILES IDX 9 14 10 15 11 16 8 17 5 18 6 19 98 20 7 21 97 22 4 23 2 24
REMARK SMILES IDX 1 25 3 26 17 27 18 28 21 29 19 30 20 31 27 32 28 33 29 34
REMARK SMILES IDX 30 35 31 36 32 38 33 39 34 40 95 41 35 42 94 43 36 44 37 45
REMARK SMILES IDX 38 46 88 47 39 48 93 49 87 50 89 51 40 52 92 53 86 54 85 55
REMARK SMILES IDX 41 57 73 58 53 59 72 60 54 61 57 62 71 63 90 64 55 65 56 66
REMARK SMILES IDX 70 68 91 69 58 70 42 71 43 72 51 73 44 74 45 75 49 76 52 77
REMARK SMILES IDX 46 78 47 79 50 80 48 81 74 82 75 83 83 84 76 85 77 86 81 87
REMARK SMILES IDX 84 88 78 89 79 90 82 91 80 92 59 93 60 94 68 95 61 96 62 97
REMARK SMILES IDX 66 98 69 99 63 100 64 101 67 102 65 103
REMARK H PARENT 25 5 12 13 30 37 89 56 57 67
REMARK Flexibility Score: inf
ROOT
ATOM      1  C   UNL A   1      32.100  29.848  25.574  1.00  0.00     0.116 C 
ENDROOT
BRANCH   1   2
ATOM      2  N   UNL A   1      32.425  29.702  24.169  1.00  0.00    -0.352 N 
ATOM      3  C   UNL A   1      32.010  28.912  23.127  1.00  0.00     0.255 C 
ATOM      4  O   UNL A   1      32.655  29.117  22.098  1.00  0.00    -0.269 OA
ATOM      5  H   UNL A   1      33.128  30.333  23.891  1.00  0.00     0.163 HD
BRANCH   3   6
ATOM      6  C   UNL A   1      30.852  27.949  23.183  1.00  0.00     0.084 A 
ATOM      7  C   UNL A   1      30.010  25.848  24.026  1.00  0.00     0.068 A 
ATOM      8  C   UNL A   1      28.731  26.347  23.876  1.00  0.00     0.140 A 
ATOM      9  C   UNL A   1      31.056  26.602  23.512  1.00  0.00     0.046 A 
ATOM     10  N   UNL A   1      28.473  27.584  23.416  1.00  0.00    -0.236 NA
ATOM     11  C   UNL A   1      29.512  28.407  23.109  1.00  0.00     0.141 A 
BRANCH   7  12
ATOM     12  N   UNL A   1      30.197  24.690  24.833  1.00  0.00    -0.278 N 
ATOM     13  H   UNL A   1      29.923  23.818  24.469  1.00  0.00     0.180 HD
BRANCH  12  14
ATOM     14  S   UNL A   1      30.865  24.738  26.381  1.00  0.00     0.261 S 
ATOM     15  O   UNL A   1      30.333  23.602  27.110  1.00  0.00    -0.201 OA
ATOM     16  O   UNL A   1      30.652  26.090  26.845  1.00  0.00    -0.201 OA
BRANCH  14  17
ATOM     17  C   UNL A   1      32.637  24.497  26.311  1.00  0.00     0.087 A 
ATOM     18  C   UNL A   1      35.322  23.708  25.947  1.00  0.00    -0.048 A 
ATOM     19  C   UNL A   1      34.474  22.976  26.787  1.00  0.00     0.005 A 
ATOM     20  C   UNL A   1      34.830  24.881  25.360  1.00  0.00     0.005 A 
ATOM     21  C   UNL A   1      33.138  23.356  26.954  1.00  0.00     0.022 A 
ATOM     22  C   UNL A   1      33.505  25.292  25.564  1.00  0.00     0.022 A 
BRANCH  18  23
ATOM     23  C   UNL A   1      36.750  23.263  25.694  1.00  0.00     0.038 C 
BRANCH  23  24
ATOM     24  C   UNL A   1      36.921  22.239  24.548  1.00  0.00    -0.013 C 
ATOM     25  C   UNL A   1      36.057  20.995  24.755  1.00  0.00     0.008 C 
ATOM     26  C   UNL A   1      36.559  22.876  23.205  1.00  0.00     0.008 C 
ENDBRANCH  23  24
ENDBRANCH  18  23
ENDBRANCH  14  17
ENDBRANCH  12  14
ENDBRANCH   7  12
BRANCH  11  27
ATOM     27  N   UNL A   1      29.142  29.687  22.817  1.00  0.00    -0.356 N 
ATOM     28  C   UNL A   1      29.122  30.227  21.469  1.00  0.00     0.118 C 
ATOM     29  C   UNL A   1      28.225  30.424  23.675  1.00  0.00     0.118 C 
ATOM     30  C   UNL A   1      28.950  31.713  21.756  1.00  0.00     0.023 C 
ATOM     31  C   UNL A   1      27.934  31.713  22.895  1.00  0.00     0.023 C 
ENDBRANCH  11  27
ENDBRANCH   3   6
ENDBRANCH   1   2
BRANCH   1  32
ATOM     32  C   UNL A   1      31.283  31.117  25.795  1.00  0.00     0.023 C 
BRANCH  32  33
ATOM     33  C   UNL A   1      31.543  31.775  27.157  1.00  0.00     0.023 C 
BRANCH  33  34
ATOM     34  C   UNL A   1      32.752  32.708  27.208  1.00  0.00     0.116 C 
BRANCH  34  35
ATOM     35  N   UNL A   1      32.399  34.077  27.550  1.00  0.00    -0.352 N 
ATOM     36  C   UNL A   1      32.959  34.891  28.502  1.00  0.00     0.251 C 
ATOM     37  H   UNL A   1      31.662  34.471  27.030  1.00  0.00     0.163 HD
ATOM     38  O   UNL A   1      32.487  35.996  28.741  1.00  0.00    -0.269 OA
BRANCH  36  39
ATOM     39  C   UNL A   1      34.124  34.406  29.265  1.00  0.00     0.039 A 
ATOM     40  C   UNL A   1      33.900  33.679  30.437  1.00  0.00     0.014 A 
ATOM     41  C   UNL A   1      35.424  34.647  28.812  1.00  0.00     0.014 A 
ATOM     42  C   UNL A   1      34.983  33.136  31.126  1.00  0.00     0.010 A 
ATOM     43  C   UNL A   1      36.501  34.065  29.476  1.00  0.00     0.010 A 
ATOM     44  C   UNL A   1      36.287  33.299  30.633  1.00  0.00    -0.014 A 
BRANCH  44  45
ATOM     45  C   UNL A   1      37.442  32.660  31.308  1.00  0.00     0.031 A 
ATOM     46  C   UNL A   1      38.157  31.514  30.656  1.00  0.00     0.074 A 
ATOM     47  C   UNL A   1      37.808  33.080  32.535  1.00  0.00     0.049 A 
ATOM     48  N   UNL A   1      39.129  30.771  31.122  1.00  0.00    -0.248 NA
ATOM     49  C   UNL A   1      37.705  31.138  29.307  1.00  0.00     0.031 C 
ATOM     50  C   UNL A   1      37.167  34.163  33.285  1.00  0.00     0.029 A 
ATOM     51  N   UNL A   1      38.799  32.637  33.374  1.00  0.00    -0.354 N 
ATOM     52  C   UNL A   1      39.402  29.842  30.129  1.00  0.00     0.074 A 
ATOM     53  C   UNL A   1      38.466  30.083  29.051  1.00  0.00     0.031 C 
ATOM     54  C   UNL A   1      37.787  34.305  34.467  1.00  0.00     0.029 A 
ATOM     55  C   UNL A   1      38.846  33.306  34.572  1.00  0.00     0.049 A 
ATOM     56  H   UNL A   1      39.418  31.907  33.138  1.00  0.00     0.167 HD
ATOM     57  C   UNL A   1      40.362  28.887  30.110  1.00  0.00     0.037 A 
ATOM     58  C   UNL A   1      39.648  33.123  35.638  1.00  0.00     0.037 A 
ATOM     59  C   UNL A   1      41.302  28.658  31.175  1.00  0.00     0.049 A 
ATOM     60  C   UNL A   1      40.702  32.051  35.590  1.00  0.00     0.074 A 
ATOM     61  C   UNL A   1      42.323  27.727  31.241  1.00  0.00     0.029 A 
ATOM     62  N   UNL A   1      41.340  29.379  32.360  1.00  0.00    -0.354 N 
ATOM     63  N   UNL A   1      40.975  31.202  34.630  1.00  0.00    -0.248 NA
ATOM     64  C   UNL A   1      41.563  31.916  36.773  1.00  0.00     0.031 C 
ATOM     65  C   UNL A   1      42.965  27.868  32.476  1.00  0.00     0.029 A 
ATOM     66  C   UNL A   1      42.364  28.908  33.164  1.00  0.00     0.049 A 
ATOM     67  H   UNL A   1      40.729  30.114  32.594  1.00  0.00     0.167 HD
ATOM     68  C   UNL A   1      42.052  30.452  35.080  1.00  0.00     0.074 A 
ATOM     69  C   UNL A   1      42.393  30.953  36.395  1.00  0.00     0.031 C 
ATOM     70  C   UNL A   1      42.699  29.435  34.462  1.00  0.00     0.037 A 
BRANCH  57  71
ATOM     71  C   UNL A   1      40.455  28.024  28.889  1.00  0.00     0.064 A 
ATOM     72  C   UNL A   1      39.739  26.823  28.792  1.00  0.00     0.173 A 
ATOM     73  C   UNL A   1      41.225  28.424  27.787  1.00  0.00     0.173 A 
ATOM     74  F   UNL A   1      39.000  26.393  29.825  1.00  0.00    -0.203 F 
ATOM     75  C   UNL A   1      39.802  26.043  27.640  1.00  0.00     0.198 A 
ATOM     76  C   UNL A   1      41.268  27.653  26.628  1.00  0.00     0.198 A 
ATOM     77  F   UNL A   1      41.926  29.566  27.830  1.00  0.00    -0.203 F 
ATOM     78  F   UNL A   1      39.135  24.882  27.582  1.00  0.00    -0.200 F 
ATOM     79  C   UNL A   1      40.559  26.463  26.557  1.00  0.00     0.200 A 
ATOM     80  F   UNL A   1      41.993  28.062  25.578  1.00  0.00    -0.200 F 
ATOM     81  F   UNL A   1      40.611  25.715  25.445  1.00  0.00    -0.200 F 
ENDBRANCH  57  71
BRANCH  58  82
ATOM     82  C   UNL A   1      39.499  33.984  36.839  1.00  0.00     0.064 A 
ATOM     83  C   UNL A   1      40.144  35.225  36.918  1.00  0.00     0.173 A 
ATOM     84  C   UNL A   1      38.733  33.573  37.939  1.00  0.00     0.173 A 
ATOM     85  F   UNL A   1      40.905  35.650  35.898  1.00  0.00    -0.203 F 
ATOM     86  C   UNL A   1      40.050  36.013  38.063  1.00  0.00     0.198 A 
ATOM     87  C   UNL A   1      38.620  34.373  39.074  1.00  0.00     0.198 A 
ATOM     88  F   UNL A   1      38.095  32.394  37.910  1.00  0.00    -0.203 F 
ATOM     89  F   UNL A   1      40.718  37.173  38.133  1.00  0.00    -0.200 F 
ATOM     90  C   UNL A   1      39.286  35.587  39.139  1.00  0.00     0.200 A 
ATOM     91  F   UNL A   1      37.872  33.964  40.108  1.00  0.00    -0.200 F 
ATOM     92  F   UNL A   1      39.199  36.343  40.242  1.00  0.00    -0.200 F 
ENDBRANCH  58  82
BRANCH  70  93
ATOM     93  C   UNL A   1      43.862  28.824  35.183  1.00  0.00     0.064 A 
ATOM     94  C   UNL A   1      45.167  29.305  35.003  1.00  0.00     0.173 A 
ATOM     95  C   UNL A   1      43.662  27.776  36.092  1.00  0.00     0.173 A 
ATOM     96  F   UNL A   1      45.408  30.297  34.132  1.00  0.00    -0.203 F 
ATOM     97  C   UNL A   1      46.236  28.741  35.695  1.00  0.00     0.198 A 
ATOM     98  C   UNL A   1      44.730  27.230  36.799  1.00  0.00     0.198 A 
ATOM     99  F   UNL A   1      42.431  27.286  36.299  1.00  0.00    -0.203 F 
ATOM    100  F   UNL A   1      47.481  29.189  35.480  1.00  0.00    -0.200 F 
ATOM    101  C   UNL A   1      46.015  27.710  36.596  1.00  0.00     0.200 A 
ATOM    102  F   UNL A   1      44.515  26.240  37.675  1.00  0.00    -0.200 F 
ATOM    103  F   UNL A   1      47.044  27.171  37.265  1.00  0.00    -0.200 F 
ENDBRANCH  70  93
ENDBRANCH  44  45
ENDBRANCH  36  39
ENDBRANCH  34  35
ENDBRANCH  33  34
ENDBRANCH  32  33
ENDBRANCH   1  32
TORSDOF 17
ENDMDL
MODEL 3
REMARK VINA RESULT:     -13.1      5.528     10.328
REMARK SMILES CC(C)Cc1ccc(S(=O)(=O)Nc2cnc(N3CCCC3)c(C(=O)NCCCCNC(=O)c3ccc(-c4c5nc(c(-c6c(F)c(F)c(F)c(F)c6F)c6ccc([nH]6)c(-c6c(F)c(F)c(F)c(F)c6F)c6nc(c(-c7c(F)c(F)c(F)c(F)c7F)c7ccc4[nH]7)C=C6)C=C5)cc3)c2)cc1
REMARK SMILES IDX 26 1 25 2 23 3 24 4 22 6 13 7 14 8 96 9 15 10 16 11 12 12
REMARK SMILES IDX 9 14 10 15 11 16 8 17 5 18 6 19 98 20 7 21 97 22 4 23 2 24
REMARK SMILES IDX 1 25 3 26 17 27 18 28 21 29 19 30 20 31 27 32 28 33 29 34
REMARK SMILES IDX 30 35 31 36 32 38 33 39 34 40 95 41 35 42 94 43 36 44 37 45
REMARK SMILES IDX 38 46 88 47 39 48 93 49 87 50 89 51 40 52 92 53 86 54 85 55
REMARK SMILES IDX 41 57 73 58 53 59 72 60 54 61 57 62 71 63 90 64 55 65 56 66
REMARK SMILES IDX 70 68 91 69 58 70 42 71 43 72 51 73 44 74 45 75 49 76 52 77
REMARK SMILES IDX 46 78 47 79 50 80 48 81 74 82 75 83 83 84 76 85 77 86 81 87
REMARK SMILES IDX 84 88 78 89 79 90 82 91 80 92 59 93 60 94 68 95 61 96 62 97
REMARK SMILES IDX 66 98 69 99 63 100 64 101 67 102 65 103
REMARK H PARENT 25 5 12 13 30 37 89 56 57 67
REMARK Flexibility Score: inf
ROOT
ATOM      1  C   UNL A   1      36.465  21.282  25.164  1.00  0.00     0.116 C 
ENDROOT
BRANCH   1   2
ATOM      2  N   UNL A   1      35.453  21.135  26.192  1.00  0.00    -0.352 N 
ATOM      3  C   UNL A   1      34.082  21.147  26.250  1.00  0.00     0.255 C 
ATOM      4  O   UNL A   1      33.661  21.044  27.402  1.00  0.00    -0.269 OA
ATOM      5  H   UNL A   1      35.854  20.987  27.079  1.00  0.00     0.163 HD
BRANCH   3   6
ATOM      6  C   UNL A   1      33.169  21.202  25.052  1.00  0.00     0.084 A 
ATOM      7  C   UNL A   1      32.349  22.512  23.195  1.00  0.00     0.068 A 
ATOM      8  C   UNL A   1      32.029  21.330  22.556  1.00  0.00     0.140 A 
ATOM      9  C   UNL A   1      32.762  22.434  24.518  1.00  0.00     0.046 A 
ATOM     10  N   UNL A   1      32.257  20.119  23.092  1.00  0.00    -0.236 NA
ATOM     11  C   UNL A   1      32.861  20.035  24.308  1.00  0.00     0.141 A 
BRANCH   7  12
ATOM     12  N   UNL A   1      32.398  23.709  22.427  1.00  0.00    -0.278 N 
ATOM     13  H   UNL A   1      32.990  23.737  21.641  1.00  0.00     0.180 HD
BRANCH  12  14
ATOM     14  S   UNL A   1      31.491  25.084  22.795  1.00  0.00     0.261 S 
ATOM     15  O   UNL A   1      30.196  24.626  23.265  1.00  0.00    -0.201 OA
ATOM     16  O   UNL A   1      31.606  25.937  21.635  1.00  0.00    -0.201 OA
BRANCH  14  17
ATOM     17  C   UNL A   1      32.227  25.977  24.160  1.00  0.00     0.087 A 
ATOM     18  C   UNL A   1      33.205  27.788  26.092  1.00  0.00    -0.048 A 
ATOM     19  C   UNL A   1      33.742  27.769  24.799  1.00  0.00     0.005 A 
ATOM     20  C   UNL A   1      32.231  26.835  26.423  1.00  0.00     0.005 A 
ATOM     21  C   UNL A   1      33.246  26.884  23.836  1.00  0.00     0.022 A 
ATOM     22  C   UNL A   1      31.765  25.915  25.474  1.00  0.00     0.022 A 
BRANCH  18  23
ATOM     23  C   UNL A   1      33.677  28.794  27.123  1.00  0.00     0.038 C 
BRANCH  23  24
ATOM     24  C   UNL A   1      33.432  30.275  26.750  1.00  0.00    -0.013 C 
ATOM     25  C   UNL A   1      31.946  30.585  26.572  1.00  0.00     0.008 C 
ATOM     26  C   UNL A   1      34.006  31.198  27.827  1.00  0.00     0.008 C 
ENDBRANCH  23  24
ENDBRANCH  18  23
ENDBRANCH  14  17
ENDBRANCH  12  14
ENDBRANCH   7  12
BRANCH  11  27
ATOM     27  N   UNL A   1      33.197  18.766  24.678  1.00  0.00    -0.356 N 
ATOM     28  C   UNL A   1      32.221  17.745  25.016  1.00  0.00     0.118 C 
ATOM     29  C   UNL A   1      34.443  18.154  24.235  1.00  0.00     0.118 C 
ATOM     30  C   UNL A   1      33.120  16.679  25.630  1.00  0.00     0.023 C 
ATOM     31  C   UNL A   1      34.332  16.697  24.703  1.00  0.00     0.023 C 
ENDBRANCH  11  27
ENDBRANCH   3   6
ENDBRANCH   1   2
BRANCH   1  32
ATOM     32  C   UNL A   1      37.237  19.978  24.996  1.00  0.00     0.023 C 
BRANCH  32  33
ATOM     33  C   UNL A   1      38.752  20.185  24.856  1.00  0.00     0.023 C 
BRANCH  33  34
ATOM     34  C   UNL A   1      39.555  19.994  26.142  1.00  0.00     0.116 C 
BRANCH  34  35
ATOM     35  N   UNL A   1      40.574  18.962  26.028  1.00  0.00    -0.352 N 
ATOM     36  C   UNL A   1      41.937  19.095  26.107  1.00  0.00     0.251 C 
ATOM     37  H   UNL A   1      40.241  18.049  25.873  1.00  0.00     0.163 HD
ATOM     38  O   UNL A   1      42.676  18.141  25.892  1.00  0.00    -0.269 OA
BRANCH  36  39
ATOM     39  C   UNL A   1      42.512  20.417  26.422  1.00  0.00     0.039 A 
ATOM     40  C   UNL A   1      42.987  21.206  25.371  1.00  0.00     0.014 A 
ATOM     41  C   UNL A   1      42.557  20.879  27.740  1.00  0.00     0.014 A 
ATOM     42  C   UNL A   1      43.452  22.493  25.636  1.00  0.00     0.010 A 
ATOM     43  C   UNL A   1      42.980  22.180  27.995  1.00  0.00     0.010 A 
ATOM     44  C   UNL A   1      43.423  22.999  26.945  1.00  0.00    -0.014 A 
BRANCH  44  45
ATOM     45  C   UNL A   1      43.838  24.394  27.231  1.00  0.00     0.031 A 
ATOM     46  C   UNL A   1      42.824  25.406  27.674  1.00  0.00     0.074 A 
ATOM     47  C   UNL A   1      45.121  24.756  27.037  1.00  0.00     0.049 A 
ATOM     48  N   UNL A   1      42.973  26.688  27.891  1.00  0.00    -0.248 NA
ATOM     49  C   UNL A   1      41.452  24.916  27.884  1.00  0.00     0.031 C 
ATOM     50  C   UNL A   1      46.190  23.869  26.575  1.00  0.00     0.029 A 
ATOM     51  N   UNL A   1      45.740  25.971  27.189  1.00  0.00    -0.354 N 
ATOM     52  C   UNL A   1      41.720  27.158  28.257  1.00  0.00     0.074 A 
ATOM     53  C   UNL A   1      40.810  26.034  28.192  1.00  0.00     0.031 C 
ATOM     54  C   UNL A   1      47.334  24.567  26.490  1.00  0.00     0.029 A 
ATOM     55  C   UNL A   1      47.073  25.954  26.861  1.00  0.00     0.049 A 
ATOM     56  H   UNL A   1      45.272  26.779  27.503  1.00  0.00     0.167 HD
ATOM     57  C   UNL A   1      41.366  28.409  28.632  1.00  0.00     0.037 A 
ATOM     58  C   UNL A   1      47.978  26.951  26.852  1.00  0.00     0.037 A 
ATOM     59  C   UNL A   1      42.276  29.522  28.710  1.00  0.00     0.049 A 
ATOM     60  C   UNL A   1      47.554  28.332  27.269  1.00  0.00     0.074 A 
ATOM     61  C   UNL A   1      42.015  30.825  29.099  1.00  0.00     0.029 A 
ATOM     62  N   UNL A   1      43.627  29.458  28.403  1.00  0.00    -0.354 N 
ATOM     63  N   UNL A   1      46.374  28.756  27.649  1.00  0.00    -0.248 NA
ATOM     64  C   UNL A   1      48.592  29.373  27.262  1.00  0.00     0.031 C 
ATOM     65  C   UNL A   1      43.205  31.556  29.003  1.00  0.00     0.029 A 
ATOM     66  C   UNL A   1      44.211  30.700  28.588  1.00  0.00     0.049 A 
ATOM     67  H   UNL A   1      44.099  28.651  28.097  1.00  0.00     0.167 HD
ATOM     68  C   UNL A   1      46.531  30.101  27.950  1.00  0.00     0.074 A 
ATOM     69  C   UNL A   1      47.925  30.423  27.722  1.00  0.00     0.031 C 
ATOM     70  C   UNL A   1      45.604  30.993  28.373  1.00  0.00     0.037 A 
BRANCH  57  71
ATOM     71  C   UNL A   1      39.934  28.641  29.004  1.00  0.00     0.064 A 
ATOM     72  C   UNL A   1      39.478  28.419  30.311  1.00  0.00     0.173 A 
ATOM     73  C   UNL A   1      39.021  29.138  28.063  1.00  0.00     0.173 A 
ATOM     74  F   UNL A   1      40.311  27.931  31.243  1.00  0.00    -0.203 F 
ATOM     75  C   UNL A   1      38.154  28.670  30.660  1.00  0.00     0.198 A 
ATOM     76  C   UNL A   1      37.702  29.410  28.421  1.00  0.00     0.198 A 
ATOM     77  F   UNL A   1      39.409  29.370  26.801  1.00  0.00    -0.203 F 
ATOM     78  F   UNL A   1      37.733  28.418  31.908  1.00  0.00    -0.200 F 
ATOM     79  C   UNL A   1      37.271  29.173  29.718  1.00  0.00     0.200 A 
ATOM     80  F   UNL A   1      36.851  29.904  27.512  1.00  0.00    -0.200 F 
ATOM     81  F   UNL A   1      35.998  29.424  30.058  1.00  0.00    -0.200 F 
ENDBRANCH  57  71
BRANCH  58  82
ATOM     82  C   UNL A   1      49.381  26.681  26.446  1.00  0.00     0.064 A 
ATOM     83  C   UNL A   1      49.793  26.860  25.119  1.00  0.00     0.173 A 
ATOM     84  C   UNL A   1      50.329  26.215  27.368  1.00  0.00     0.173 A 
ATOM     85  F   UNL A   1      48.914  27.284  24.197  1.00  0.00    -0.203 F 
ATOM     86  C   UNL A   1      51.094  26.559  24.722  1.00  0.00     0.198 A 
ATOM     87  C   UNL A   1      51.637  25.937  26.975  1.00  0.00     0.198 A 
ATOM     88  F   UNL A   1      49.984  26.030  28.651  1.00  0.00    -0.203 F 
ATOM     89  F   UNL A   1      51.447  26.691  23.436  1.00  0.00    -0.200 F 
ATOM     90  C   UNL A   1      52.015  26.101  25.652  1.00  0.00     0.200 A 
ATOM     91  F   UNL A   1      52.528  25.505  27.878  1.00  0.00    -0.200 F 
ATOM     92  F   UNL A   1      53.266  25.807  25.269  1.00  0.00    -0.200 F 
ENDBRANCH  58  82
BRANCH  70  93
ATOM     93  C   UNL A   1      46.073  32.388  28.653  1.00  0.00     0.064 A 
ATOM     94  C   UNL A   1      46.564  32.755  29.915  1.00  0.00     0.173 A 
ATOM     95  C   UNL A   1      46.070  33.356  27.638  1.00  0.00     0.173 A 
ATOM     96  F   UNL A   1      46.571  31.867  30.921  1.00  0.00    -0.203 F 
ATOM     97  C   UNL A   1      47.015  34.050  30.156  1.00  0.00     0.198 A 
ATOM     98  C   UNL A   1      46.543  34.643  27.877  1.00  0.00     0.198 A 
ATOM     99  F   UNL A   1      45.613  33.050  26.415  1.00  0.00    -0.203 F 
ATOM    100  F   UNL A   1      47.443  34.391  31.379  1.00  0.00    -0.200 F 
ATOM    101  C   UNL A   1      47.010  34.989  29.135  1.00  0.00     0.200 A 
ATOM    102  F   UNL A   1      46.546  35.547  26.888  1.00  0.00    -0.200 F 
ATOM    103  F   UNL A   1      47.450  36.234  29.367  1.00  0.00    -0.200 F 
ENDBRANCH  70  93
ENDBRANCH  44  45
ENDBRANCH  36  39
ENDBRANCH  34  35
ENDBRANCH  33  34
ENDBRANCH  32  33
ENDBRANCH   1  32
TORSDOF 17
ENDMDL
