MODEL 1
REMARK VINA RESULT:     -13.0      0.000      0.000
REMARK SMILES O=C(NCCCCNC(=O)[C@@H](CCCCl)[P@TB4](=O)(c1ccccc1)c1ccccc1)c1ccc(-c2c3nc(c(-c4c(F)c(F)c(F)c(F)c4F)c4ccc([nH]4)c(-c4c(F)c(F)c(F)c(F)c4F)c4nc(c(-c5c(F)c(F)c(F)c(F)c5F)c5ccc2[nH]5)C=C4)C=C3)cc1
REMARK SMILES IDX 6 1 5 2 4 3 3 4 1 5 2 6 30 8 31 9 92 10 32 11 91 12 33 13
REMARK SMILES IDX 34 14 35 15 85 16 36 17 90 18 84 19 86 20 37 21 89 22 83 23
REMARK SMILES IDX 82 24 38 26 70 27 50 28 69 29 51 30 54 31 68 32 87 33 52 34
REMARK SMILES IDX 53 35 67 37 88 38 55 39 39 40 40 41 48 42 41 43 42 44 46 45
REMARK SMILES IDX 49 46 43 47 44 48 47 49 45 50 71 51 72 52 80 53 73 54 74 55
REMARK SMILES IDX 78 56 81 57 75 58 76 59 79 60 77 61 56 62 57 63 65 64 58 65
REMARK SMILES IDX 59 66 63 67 66 68 60 69 61 70 64 71 62 72 7 73 8 74 9 75
REMARK SMILES IDX 10 77 11 78 12 79 13 80 14 81 15 82 16 83 17 84 18 85 19 86
REMARK SMILES IDX 23 87 20 88 22 89 21 90 24 91 25 92 29 93 26 94 28 95 27 96
REMARK H PARENT 3 7 86 25 54 36 8 76
REMARK Flexibility Score: inf
ROOT
ATOM      1  C   UNL A   1      31.401  27.419  26.776  1.00  0.00       nan C 
ENDROOT
BRANCH   1   2
ATOM      2  C   UNL A   1      31.766  28.637  25.949  1.00  0.00       nan C 
BRANCH   2   3
ATOM      3  C   UNL A   1      32.870  29.496  26.532  1.00  0.00       nan C 
BRANCH   3   4
ATOM      4  N   UNL A   1      32.505  30.865  26.880  1.00  0.00       nan N 
ATOM      5  O   UNL A   1      32.930  32.960  27.665  1.00  0.00       nan OA
ATOM      6  C   UNL A   1      33.337  31.843  27.409  1.00  0.00       nan C 
ATOM      7  H   UNL A   1      31.568  31.124  26.722  1.00  0.00       nan HD
BRANCH   6   8
ATOM      8  C   UNL A   1      34.733  31.452  27.713  1.00  0.00       nan A 
ATOM      9  C   UNL A   1      35.004  30.127  28.033  1.00  0.00       nan A 
ATOM     10  C   UNL A   1      35.702  32.443  27.895  1.00  0.00       nan A 
ATOM     11  C   UNL A   1      36.123  29.845  28.797  1.00  0.00       inf A 
ATOM     12  C   UNL A   1      36.910  32.114  28.522  1.00  0.00       inf A 
ATOM     13  C   UNL A   1      37.103  30.826  29.043  1.00  0.00    -0.014 A 
BRANCH  13  14
ATOM     14  C   UNL A   1      38.308  30.432  29.825  1.00  0.00     0.031 A 
ATOM     15  C   UNL A   1      38.498  30.831  31.266  1.00  0.00     0.074 A 
ATOM     16  C   UNL A   1      39.192  29.602  29.236  1.00  0.00     0.049 A 
ATOM     17  N   UNL A   1      39.470  30.506  32.086  1.00  0.00    -0.248 NA
ATOM     18  C   UNL A   1      37.488  31.713  31.869  1.00  0.00     0.031 C 
ATOM     19  C   UNL A   1      39.122  29.162  27.840  1.00  0.00     0.029 A 
ATOM     20  N   UNL A   1      40.276  28.930  29.737  1.00  0.00    -0.354 N 
ATOM     21  C   UNL A   1      39.210  31.170  33.279  1.00  0.00     0.074 A 
ATOM     22  C   UNL A   1      37.992  31.925  33.079  1.00  0.00     0.031 C 
ATOM     23  C   UNL A   1      40.042  28.214  27.628  1.00  0.00     0.029 A 
ATOM     24  C   UNL A   1      40.840  28.059  28.837  1.00  0.00     0.049 A 
ATOM     25  H   UNL A   1      40.617  29.060  30.652  1.00  0.00     0.167 HD
ATOM     26  C   UNL A   1      39.925  31.147  34.431  1.00  0.00     0.037 A 
ATOM     27  C   UNL A   1      41.897  27.237  28.955  1.00  0.00     0.037 A 
ATOM     28  C   UNL A   1      41.120  30.365  34.631  1.00  0.00     0.049 A 
ATOM     29  C   UNL A   1      42.644  27.209  30.253  1.00  0.00     0.074 A 
ATOM     30  C   UNL A   1      41.920  30.280  35.760  1.00  0.00     0.029 A 
ATOM     31  N   UNL A   1      41.682  29.521  33.684  1.00  0.00    -0.354 N 
ATOM     32  N   UNL A   1      42.401  27.869  31.358  1.00  0.00    -0.248 NA
ATOM     33  C   UNL A   1      43.823  26.337  30.315  1.00  0.00     0.031 C 
ATOM     34  C   UNL A   1      42.979  29.408  35.484  1.00  0.00     0.029 A 
ATOM     35  C   UNL A   1      42.818  28.916  34.201  1.00  0.00     0.049 A 
ATOM     36  H   UNL A   1      41.325  29.374  32.778  1.00  0.00     0.167 HD
ATOM     37  C   UNL A   1      43.403  27.508  32.243  1.00  0.00     0.074 A 
ATOM     38  C   UNL A   1      44.229  26.531  31.561  1.00  0.00     0.031 C 
ATOM     39  C   UNL A   1      43.635  27.962  33.498  1.00  0.00     0.037 A 
BRANCH  26  40
ATOM     40  C   UNL A   1      39.452  32.006  35.572  1.00  0.00     0.064 A 
ATOM     41  C   UNL A   1      39.838  33.348  35.694  1.00  0.00     0.173 A 
ATOM     42  C   UNL A   1      38.540  31.499  36.511  1.00  0.00     0.173 A 
ATOM     43  F   UNL A   1      40.715  33.880  34.830  1.00  0.00    -0.203 F 
ATOM     44  C   UNL A   1      39.338  34.147  36.721  1.00  0.00     0.198 A 
ATOM     45  C   UNL A   1      38.022  32.307  37.521  1.00  0.00     0.198 A 
ATOM     46  F   UNL A   1      38.131  30.224  36.435  1.00  0.00    -0.203 F 
ATOM     47  F   UNL A   1      39.743  35.420  36.835  1.00  0.00    -0.200 F 
ATOM     48  C   UNL A   1      38.425  33.630  37.627  1.00  0.00     0.200 A 
ATOM     49  F   UNL A   1      37.130  31.808  38.387  1.00  0.00    -0.200 F 
ATOM     50  F   UNL A   1      37.934  34.405  38.604  1.00  0.00    -0.200 F 
ENDBRANCH  26  40
BRANCH  27  51
ATOM     51  C   UNL A   1      42.316  26.411  27.795  1.00  0.00     0.064 A 
ATOM     52  C   UNL A   1      41.724  25.168  27.536  1.00  0.00     0.173 A 
ATOM     53  C   UNL A   1      43.295  26.868  26.898  1.00  0.00     0.173 A 
ATOM     54  F   UNL A   1      40.796  24.681  28.372  1.00  0.00    -0.203 F 
ATOM     55  C   UNL A   1      42.099  24.412  26.428  1.00  0.00     0.198 A 
ATOM     56  C   UNL A   1      43.642  26.129  25.771  1.00  0.00     0.198 A 
ATOM     57  F   UNL A   1      43.884  28.055  27.097  1.00  0.00    -0.203 F 
ATOM     58  F   UNL A   1      41.543  23.210  26.220  1.00  0.00    -0.200 F 
ATOM     59  C   UNL A   1      43.049  24.897  25.541  1.00  0.00     0.200 A 
ATOM     60  F   UNL A   1      44.540  26.616  24.905  1.00  0.00    -0.200 F 
ATOM     61  F   UNL A   1      43.395  24.179  24.464  1.00  0.00    -0.200 F 
ENDBRANCH  27  51
BRANCH  39  62
ATOM     62  C   UNL A   1      44.835  27.400  34.199  1.00  0.00     0.064 A 
ATOM     63  C   UNL A   1      44.749  26.224  34.960  1.00  0.00     0.173 A 
ATOM     64  C   UNL A   1      46.076  28.047  34.120  1.00  0.00     0.173 A 
ATOM     65  F   UNL A   1      43.575  25.583  35.079  1.00  0.00    -0.203 F 
ATOM     66  C   UNL A   1      45.855  25.737  35.648  1.00  0.00     0.198 A 
ATOM     67  C   UNL A   1      47.187  27.541  34.789  1.00  0.00     0.198 A 
ATOM     68  F   UNL A   1      46.208  29.172  33.403  1.00  0.00    -0.203 F 
ATOM     69  F   UNL A   1      45.736  24.646  36.417  1.00  0.00    -0.200 F 
ATOM     70  C   UNL A   1      47.073  26.393  35.559  1.00  0.00     0.200 A 
ATOM     71  F   UNL A   1      48.366  28.171  34.699  1.00  0.00    -0.200 F 
ATOM     72  F   UNL A   1      48.136  25.927  36.230  1.00  0.00    -0.200 F 
ENDBRANCH  39  62
ENDBRANCH  13  14
ENDBRANCH   6   8
ENDBRANCH   3   4
ENDBRANCH   2   3
ENDBRANCH   1   2
BRANCH   1  73
ATOM     73  C   UNL A   1      30.642  26.303  26.045  1.00  0.00       nan C 
BRANCH  73  74
ATOM     74  N   UNL A   1      30.636  25.045  26.768  1.00  0.00       nan N 
ATOM     75  C   UNL A   1      31.352  23.889  26.602  1.00  0.00       nan C 
ATOM     76  H   UNL A   1      29.998  25.016  27.517  1.00  0.00       nan HD
ATOM     77  O   UNL A   1      31.080  22.952  27.357  1.00  0.00       nan OA
BRANCH  75  78
ATOM     78  C   UNL A   1      32.337  23.710  25.436  1.00  0.00       nan C 
BRANCH  78  79
ATOM     79  C   UNL A   1      33.614  24.504  25.884  1.00  0.00       nan C 
BRANCH  79  80
ATOM     80  C   UNL A   1      34.401  25.595  25.104  1.00  0.00       nan C 
BRANCH  80  81
ATOM     81  C   UNL A   1      33.777  26.490  24.042  1.00  0.00       nan C 
ATOM     82  Cl  UNL A   1      33.640  25.603  22.499  1.00  0.00       nan Cl
ENDBRANCH  80  81
ENDBRANCH  79  80
ENDBRANCH  78  79
BRANCH  78  83
ATOM     83  P   UNL A   1      32.385  21.937  24.985  1.00  0.00       nan P 
ATOM     84  O   UNL A   1      31.699  22.315  23.652  1.00  0.00       nan OA
BRANCH  83  85
ATOM     85  C   UNL A   1      34.473  21.942  24.635  1.00  0.00       nan A 
ATOM     86  C   UNL A   1      35.383  21.683  25.691  1.00  0.00       nan A 
ATOM     87  C   UNL A   1      35.042  22.453  23.461  1.00  0.00       nan A 
ATOM     88  C   UNL A   1      36.722  22.086  25.645  1.00  0.00       nan A 
ATOM     89  C   UNL A   1      36.372  22.909  23.433  1.00  0.00       nan A 
ATOM     90  C   UNL A   1      37.202  22.758  24.537  1.00  0.00       nan A 
ENDBRANCH  83  85
BRANCH  83  91
ATOM     91  C   UNL A   1      32.432  20.164  24.534  1.00  0.00       nan A 
ATOM     92  C   UNL A   1      32.856  19.153  25.425  1.00  0.00       nan A 
ATOM     93  C   UNL A   1      32.259  19.819  23.182  1.00  0.00       nan A 
ATOM     94  C   UNL A   1      33.020  17.834  24.999  1.00  0.00       nan A 
ATOM     95  C   UNL A   1      32.449  18.501  22.752  1.00  0.00       nan A 
ATOM     96  C   UNL A   1      32.818  17.510  23.662  1.00  0.00       nan A 
ENDBRANCH  83  91
ENDBRANCH  78  83
ENDBRANCH  75  78
ENDBRANCH  73  74
ENDBRANCH   1  73
TORSDOF 17
ENDMDL
MODEL 2
REMARK VINA RESULT:     -12.9      4.280      9.719
REMARK SMILES O=C(NCCCCNC(=O)[C@@H](CCCCl)[P@TB4](=O)(c1ccccc1)c1ccccc1)c1ccc(-c2c3nc(c(-c4c(F)c(F)c(F)c(F)c4F)c4ccc([nH]4)c(-c4c(F)c(F)c(F)c(F)c4F)c4nc(c(-c5c(F)c(F)c(F)c(F)c5F)c5ccc2[nH]5)C=C4)C=C3)cc1
REMARK SMILES IDX 6 1 5 2 4 3 3 4 1 5 2 6 30 8 31 9 92 10 32 11 91 12 33 13
REMARK SMILES IDX 34 14 35 15 85 16 36 17 90 18 84 19 86 20 37 21 89 22 83 23
REMARK SMILES IDX 82 24 38 26 70 27 50 28 69 29 51 30 54 31 68 32 87 33 52 34
REMARK SMILES IDX 53 35 67 37 88 38 55 39 39 40 40 41 48 42 41 43 42 44 46 45
REMARK SMILES IDX 49 46 43 47 44 48 47 49 45 50 71 51 72 52 80 53 73 54 74 55
REMARK SMILES IDX 78 56 81 57 75 58 76 59 79 60 77 61 56 62 57 63 65 64 58 65
REMARK SMILES IDX 59 66 63 67 66 68 60 69 61 70 64 71 62 72 7 73 8 74 9 75
REMARK SMILES IDX 10 77 11 78 12 79 13 80 14 81 15 82 16 83 17 84 18 85 19 86
REMARK SMILES IDX 23 87 20 88 22 89 21 90 24 91 25 92 29 93 26 94 28 95 27 96
REMARK H PARENT 3 7 86 25 54 36 8 76
REMARK Flexibility Score: inf
ROOT
ATOM      1  C   UNL A   1      34.393  22.302  23.742  1.00  0.00       nan C 
ENDROOT
BRANCH   1   2
ATOM      2  C   UNL A   1      35.710  22.970  23.400  1.00  0.00       nan C 
BRANCH   2   3
ATOM      3  C   UNL A   1      36.753  22.923  24.498  1.00  0.00       nan C 
BRANCH   3   4
ATOM      4  N   UNL A   1      37.444  21.650  24.678  1.00  0.00       nan N 
ATOM      5  O   UNL A   1      38.983  20.274  25.639  1.00  0.00       nan OA
ATOM      6  C   UNL A   1      38.473  21.376  25.569  1.00  0.00       nan C 
ATOM      7  H   UNL A   1      37.148  20.905  24.106  1.00  0.00       nan HD
BRANCH   6   8
ATOM      8  C   UNL A   1      38.974  22.501  26.391  1.00  0.00       nan A 
ATOM      9  C   UNL A   1      38.509  23.785  26.126  1.00  0.00       nan A 
ATOM     10  C   UNL A   1      40.056  22.298  27.251  1.00  0.00       nan A 
ATOM     11  C   UNL A   1      39.299  24.863  26.485  1.00  0.00       inf A 
ATOM     12  C   UNL A   1      40.755  23.405  27.750  1.00  0.00       inf A 
ATOM     13  C   UNL A   1      40.425  24.697  27.314  1.00  0.00    -0.014 A 
BRANCH  13  14
ATOM     14  C   UNL A   1      41.193  25.913  27.705  1.00  0.00     0.031 A 
ATOM     15  C   UNL A   1      42.579  26.192  27.182  1.00  0.00     0.074 A 
ATOM     16  C   UNL A   1      40.566  26.831  28.466  1.00  0.00     0.049 A 
ATOM     17  N   UNL A   1      43.338  27.241  27.391  1.00  0.00    -0.248 NA
ATOM     18  C   UNL A   1      43.205  25.170  26.330  1.00  0.00     0.031 C 
ATOM     19  C   UNL A   1      39.229  26.663  29.046  1.00  0.00     0.029 A 
ATOM     20  N   UNL A   1      40.924  28.102  28.833  1.00  0.00    -0.354 N 
ATOM     21  C   UNL A   1      44.537  26.990  26.734  1.00  0.00     0.074 A 
ATOM     22  C   UNL A   1      44.412  25.684  26.122  1.00  0.00     0.031 C 
ATOM     23  C   UNL A   1      38.836  27.819  29.593  1.00  0.00     0.029 A 
ATOM     24  C   UNL A   1      39.932  28.775  29.504  1.00  0.00     0.049 A 
ATOM     25  H   UNL A   1      41.806  28.493  28.636  1.00  0.00     0.167 HD
ATOM     26  C   UNL A   1      45.636  27.780  26.652  1.00  0.00     0.037 A 
ATOM     27  C   UNL A   1      39.906  30.018  30.015  1.00  0.00     0.037 A 
ATOM     28  C   UNL A   1      45.740  29.094  27.237  1.00  0.00     0.049 A 
ATOM     29  C   UNL A   1      41.123  30.878  29.876  1.00  0.00     0.074 A 
ATOM     30  C   UNL A   1      46.813  29.970  27.214  1.00  0.00     0.029 A 
ATOM     31  N   UNL A   1      44.726  29.729  27.940  1.00  0.00    -0.354 N 
ATOM     32  N   UNL A   1      42.258  30.609  29.279  1.00  0.00    -0.248 NA
ATOM     33  C   UNL A   1      41.065  32.206  30.497  1.00  0.00     0.031 C 
ATOM     34  C   UNL A   1      46.458  31.120  27.928  1.00  0.00     0.029 A 
ATOM     35  C   UNL A   1      45.151  30.981  28.359  1.00  0.00     0.049 A 
ATOM     36  H   UNL A   1      43.835  29.346  28.115  1.00  0.00     0.167 HD
ATOM     37  C   UNL A   1      43.057  31.725  29.465  1.00  0.00     0.074 A 
ATOM     38  C   UNL A   1      42.258  32.694  30.188  1.00  0.00     0.031 C 
ATOM     39  C   UNL A   1      44.345  31.922  29.093  1.00  0.00     0.037 A 
BRANCH  26  40
ATOM     40  C   UNL A   1      46.835  27.246  25.917  1.00  0.00     0.064 A 
ATOM     41  C   UNL A   1      47.050  27.520  24.558  1.00  0.00     0.173 A 
ATOM     42  C   UNL A   1      47.821  26.517  26.601  1.00  0.00     0.173 A 
ATOM     43  F   UNL A   1      46.135  28.203  23.855  1.00  0.00    -0.203 F 
ATOM     44  C   UNL A   1      48.200  27.072  23.910  1.00  0.00     0.198 A 
ATOM     45  C   UNL A   1      48.981  26.093  25.957  1.00  0.00     0.198 A 
ATOM     46  F   UNL A   1      47.670  26.235  27.904  1.00  0.00    -0.203 F 
ATOM     47  F   UNL A   1      48.371  27.322  22.604  1.00  0.00    -0.200 F 
ATOM     48  C   UNL A   1      49.167  26.369  24.610  1.00  0.00     0.200 A 
ATOM     49  F   UNL A   1      49.920  25.425  26.639  1.00  0.00    -0.200 F 
ATOM     50  F   UNL A   1      50.280  25.953  23.988  1.00  0.00    -0.200 F 
ENDBRANCH  26  40
BRANCH  27  51
ATOM     51  C   UNL A   1      38.693  30.491  30.729  1.00  0.00     0.064 A 
ATOM     52  C   UNL A   1      38.606  30.443  32.126  1.00  0.00     0.173 A 
ATOM     53  C   UNL A   1      37.608  31.037  30.025  1.00  0.00     0.173 A 
ATOM     54  F   UNL A   1      39.609  29.915  32.842  1.00  0.00    -0.203 F 
ATOM     55  C   UNL A   1      37.478  30.918  32.791  1.00  0.00     0.198 A 
ATOM     56  C   UNL A   1      36.497  31.545  30.692  1.00  0.00     0.198 A 
ATOM     57  F   UNL A   1      37.647  31.114  28.687  1.00  0.00    -0.203 F 
ATOM     58  F   UNL A   1      37.403  30.829  34.126  1.00  0.00    -0.200 F 
ATOM     59  C   UNL A   1      36.430  31.478  32.076  1.00  0.00     0.200 A 
ATOM     60  F   UNL A   1      35.502  32.109  29.997  1.00  0.00    -0.200 F 
ATOM     61  F   UNL A   1      35.354  31.953  32.717  1.00  0.00    -0.200 F 
ENDBRANCH  27  51
BRANCH  39  62
ATOM     62  C   UNL A   1      44.955  33.237  29.474  1.00  0.00     0.064 A 
ATOM     63  C   UNL A   1      44.869  34.351  28.626  1.00  0.00     0.173 A 
ATOM     64  C   UNL A   1      45.641  33.381  30.688  1.00  0.00     0.173 A 
ATOM     65  F   UNL A   1      44.238  34.252  27.445  1.00  0.00    -0.203 F 
ATOM     66  C   UNL A   1      45.480  35.554  28.964  1.00  0.00     0.198 A 
ATOM     67  C   UNL A   1      46.230  34.594  31.034  1.00  0.00     0.198 A 
ATOM     68  F   UNL A   1      45.748  32.345  31.532  1.00  0.00    -0.203 F 
ATOM     69  F   UNL A   1      45.437  36.588  28.113  1.00  0.00    -0.200 F 
ATOM     70  C   UNL A   1      46.157  35.675  30.168  1.00  0.00     0.200 A 
ATOM     71  F   UNL A   1      46.878  34.714  32.201  1.00  0.00    -0.200 F 
ATOM     72  F   UNL A   1      46.754  36.832  30.488  1.00  0.00    -0.200 F 
ENDBRANCH  39  62
ENDBRANCH  13  14
ENDBRANCH   6   8
ENDBRANCH   3   4
ENDBRANCH   2   3
ENDBRANCH   1   2
BRANCH   1  73
ATOM     73  C   UNL A   1      33.211  22.613  22.814  1.00  0.00       nan C 
BRANCH  73  74
ATOM     74  N   UNL A   1      33.413  23.801  22.005  1.00  0.00       nan N 
ATOM     75  C   UNL A   1      33.182  25.128  22.251  1.00  0.00       nan C 
ATOM     76  H   UNL A   1      33.786  23.618  21.112  1.00  0.00       nan HD
ATOM     77  O   UNL A   1      33.411  25.914  21.328  1.00  0.00       nan OA
BRANCH  75  78
ATOM     78  C   UNL A   1      32.524  25.605  23.556  1.00  0.00       nan C 
BRANCH  78  79
ATOM     79  C   UNL A   1      33.734  25.927  24.502  1.00  0.00       nan C 
BRANCH  79  80
ATOM     80  C   UNL A   1      34.094  25.281  25.869  1.00  0.00       nan C 
BRANCH  80  81
ATOM     81  C   UNL A   1      33.295  24.152  26.507  1.00  0.00       nan C 
ATOM     82  Cl  UNL A   1      34.402  22.958  27.240  1.00  0.00       nan Cl
ENDBRANCH  80  81
ENDBRANCH  79  80
ENDBRANCH  78  79
BRANCH  78  83
ATOM     83  P   UNL A   1      31.240  26.841  23.140  1.00  0.00       nan P 
ATOM     84  O   UNL A   1      30.182  25.743  23.389  1.00  0.00       nan OA
BRANCH  83  85
ATOM     85  C   UNL A   1      31.479  27.901  24.957  1.00  0.00       nan A 
ATOM     86  C   UNL A   1      32.345  29.021  25.032  1.00  0.00       nan A 
ATOM     87  C   UNL A   1      31.028  27.404  26.187  1.00  0.00       nan A 
ATOM     88  C   UNL A   1      32.875  29.481  26.243  1.00  0.00       nan A 
ATOM     89  C   UNL A   1      31.601  27.828  27.400  1.00  0.00       nan A 
ATOM     90  C   UNL A   1      32.550  28.843  27.425  1.00  0.00       nan A 
ENDBRANCH  83  85
BRANCH  83  91
ATOM     91  C   UNL A   1      29.956  28.076  22.723  1.00  0.00       nan A 
ATOM     92  C   UNL A   1      30.252  29.328  22.137  1.00  0.00       nan A 
ATOM     93  C   UNL A   1      28.654  27.870  23.212  1.00  0.00       nan A 
ATOM     94  C   UNL A   1      29.266  30.301  21.972  1.00  0.00       nan A 
ATOM     95  C   UNL A   1      27.674  28.858  23.067  1.00  0.00       nan A 
ATOM     96  C   UNL A   1      27.977  30.066  22.440  1.00  0.00       nan A 
ENDBRANCH  83  91
ENDBRANCH  78  83
ENDBRANCH  75  78
ENDBRANCH  73  74
ENDBRANCH   1  73
TORSDOF 17
ENDMDL
MODEL 3
REMARK VINA RESULT:     -12.8      0.454      7.141
REMARK SMILES O=C(NCCCCNC(=O)[C@@H](CCCCl)[P@TB4](=O)(c1ccccc1)c1ccccc1)c1ccc(-c2c3nc(c(-c4c(F)c(F)c(F)c(F)c4F)c4ccc([nH]4)c(-c4c(F)c(F)c(F)c(F)c4F)c4nc(c(-c5c(F)c(F)c(F)c(F)c5F)c5ccc2[nH]5)C=C4)C=C3)cc1
REMARK SMILES IDX 6 1 5 2 4 3 3 4 1 5 2 6 30 8 31 9 92 10 32 11 91 12 33 13
REMARK SMILES IDX 34 14 35 15 85 16 36 17 90 18 84 19 86 20 37 21 89 22 83 23
REMARK SMILES IDX 82 24 38 26 70 27 50 28 69 29 51 30 54 31 68 32 87 33 52 34
REMARK SMILES IDX 53 35 67 37 88 38 55 39 39 40 40 41 48 42 41 43 42 44 46 45
REMARK SMILES IDX 49 46 43 47 44 48 47 49 45 50 71 51 72 52 80 53 73 54 74 55
REMARK SMILES IDX 78 56 81 57 75 58 76 59 79 60 77 61 56 62 57 63 65 64 58 65
REMARK SMILES IDX 59 66 63 67 66 68 60 69 61 70 64 71 62 72 7 73 8 74 9 75
REMARK SMILES IDX 10 77 11 78 12 79 13 80 14 81 15 82 16 83 17 84 18 85 19 86
REMARK SMILES IDX 23 87 20 88 22 89 21 90 24 91 25 92 29 93 26 94 28 95 27 96
REMARK H PARENT 3 7 86 25 54 36 8 76
REMARK Flexibility Score: inf
ROOT
ATOM      1  C   UNL A   1      31.325  27.519  26.504  1.00  0.00       nan C 
ENDROOT
BRANCH   1   2
ATOM      2  C   UNL A   1      31.502  28.818  25.743  1.00  0.00       nan C 
BRANCH   2   3
ATOM      3  C   UNL A   1      32.681  29.660  26.184  1.00  0.00       nan C 
BRANCH   3   4
ATOM      4  N   UNL A   1      32.373  31.011  26.644  1.00  0.00       nan N 
ATOM      5  O   UNL A   1      32.870  32.993  27.648  1.00  0.00       nan OA
ATOM      6  C   UNL A   1      33.227  31.883  27.306  1.00  0.00       nan C 
ATOM      7  H   UNL A   1      31.463  31.339  26.465  1.00  0.00       nan HD
BRANCH   6   8
ATOM      8  C   UNL A   1      34.581  31.382  27.641  1.00  0.00       nan A 
ATOM      9  C   UNL A   1      34.748  30.027  27.905  1.00  0.00       nan A 
ATOM     10  C   UNL A   1      35.606  32.292  27.907  1.00  0.00       nan A 
ATOM     11  C   UNL A   1      35.815  29.632  28.694  1.00  0.00       inf A 
ATOM     12  C   UNL A   1      36.764  31.852  28.560  1.00  0.00       inf A 
ATOM     13  C   UNL A   1      36.848  30.530  29.024  1.00  0.00    -0.014 A 
BRANCH  13  14
ATOM     14  C   UNL A   1      37.992  30.017  29.829  1.00  0.00     0.031 A 
ATOM     15  C   UNL A   1      39.066  29.143  29.235  1.00  0.00     0.074 A 
ATOM     16  C   UNL A   1      38.105  30.449  31.101  1.00  0.00     0.049 A 
ATOM     17  N   UNL A   1      40.152  28.676  29.806  1.00  0.00    -0.248 NA
ATOM     18  C   UNL A   1      38.909  28.726  27.834  1.00  0.00     0.031 C 
ATOM     19  C   UNL A   1      37.116  31.285  31.790  1.00  0.00     0.029 A 
ATOM     20  N   UNL A   1      39.113  30.310  32.019  1.00  0.00    -0.354 N 
ATOM     21  C   UNL A   1      40.780  27.883  28.852  1.00  0.00     0.074 A 
ATOM     22  C   UNL A   1      39.955  27.925  27.665  1.00  0.00     0.031 C 
ATOM     23  C   UNL A   1      37.613  31.675  32.969  1.00  0.00     0.029 A 
ATOM     24  C   UNL A   1      38.904  31.030  33.170  1.00  0.00     0.049 A 
ATOM     25  H   UNL A   1      39.908  29.749  31.868  1.00  0.00     0.167 HD
ATOM     26  C   UNL A   1      41.940  27.189  28.964  1.00  0.00     0.037 A 
ATOM     27  C   UNL A   1      39.653  31.147  34.280  1.00  0.00     0.037 A 
ATOM     28  C   UNL A   1      42.774  27.180  30.141  1.00  0.00     0.049 A 
ATOM     29  C   UNL A   1      40.946  30.396  34.357  1.00  0.00     0.074 A 
ATOM     30  C   UNL A   1      43.964  26.503  30.354  1.00  0.00     0.029 A 
ATOM     31  N   UNL A   1      42.511  27.895  31.301  1.00  0.00    -0.354 N 
ATOM     32  N   UNL A   1      41.507  29.627  33.457  1.00  0.00    -0.248 NA
ATOM     33  C   UNL A   1      41.702  30.513  35.610  1.00  0.00     0.031 C 
ATOM     34  C   UNL A   1      44.405  26.786  31.652  1.00  0.00     0.029 A 
ATOM     35  C   UNL A   1      43.514  27.671  32.233  1.00  0.00     0.049 A 
ATOM     36  H   UNL A   1      41.729  28.475  31.442  1.00  0.00     0.167 HD
ATOM     37  C   UNL A   1      42.671  29.153  34.037  1.00  0.00     0.074 A 
ATOM     38  C   UNL A   1      42.762  29.762  35.349  1.00  0.00     0.031 C 
ATOM     39  C   UNL A   1      43.574  28.273  33.540  1.00  0.00     0.037 A 
BRANCH  26  40
ATOM     40  C   UNL A   1      42.380  26.358  27.790  1.00  0.00     0.064 A 
ATOM     41  C   UNL A   1      43.249  26.864  26.812  1.00  0.00     0.173 A 
ATOM     42  C   UNL A   1      41.990  25.013  27.686  1.00  0.00     0.173 A 
ATOM     43  F   UNL A   1      43.644  28.144  26.858  1.00  0.00    -0.203 F 
ATOM     44  C   UNL A   1      43.699  26.058  25.767  1.00  0.00     0.198 A 
ATOM     45  C   UNL A   1      42.461  24.204  26.655  1.00  0.00     0.198 A 
ATOM     46  F   UNL A   1      41.167  24.476  28.599  1.00  0.00    -0.203 F 
ATOM     47  F   UNL A   1      44.506  26.571  24.828  1.00  0.00    -0.200 F 
ATOM     48  C   UNL A   1      43.312  24.729  25.694  1.00  0.00     0.200 A 
ATOM     49  F   UNL A   1      42.097  22.917  26.594  1.00  0.00    -0.200 F 
ATOM     50  F   UNL A   1      43.759  23.952  24.696  1.00  0.00    -0.200 F 
ENDBRANCH  26  40
BRANCH  27  51
ATOM     51  C   UNL A   1      39.168  31.984  35.406  1.00  0.00     0.064 A 
ATOM     52  C   UNL A   1      38.396  31.437  36.440  1.00  0.00     0.173 A 
ATOM     53  C   UNL A   1      39.500  33.346  35.490  1.00  0.00     0.173 A 
ATOM     54  F   UNL A   1      38.040  30.145  36.397  1.00  0.00    -0.203 F 
ATOM     55  C   UNL A   1      37.971  32.221  37.510  1.00  0.00     0.198 A 
ATOM     56  C   UNL A   1      39.106  34.119  36.577  1.00  0.00     0.198 A 
ATOM     57  F   UNL A   1      40.244  33.914  34.530  1.00  0.00    -0.203 F 
ATOM     58  F   UNL A   1      37.205  31.683  38.469  1.00  0.00    -0.200 F 
ATOM     59  C   UNL A   1      38.335  33.557  37.584  1.00  0.00     0.200 A 
ATOM     60  F   UNL A   1      39.484  35.401  36.656  1.00  0.00    -0.200 F 
ATOM     61  F   UNL A   1      37.943  34.306  38.623  1.00  0.00    -0.200 F 
ENDBRANCH  27  51
BRANCH  39  62
ATOM     62  C   UNL A   1      44.727  27.924  34.432  1.00  0.00     0.064 A 
ATOM     63  C   UNL A   1      44.653  26.847  35.327  1.00  0.00     0.173 A 
ATOM     64  C   UNL A   1      45.907  28.678  34.400  1.00  0.00     0.173 A 
ATOM     65  F   UNL A   1      43.534  26.110  35.405  1.00  0.00    -0.203 F 
ATOM     66  C   UNL A   1      45.709  26.561  36.187  1.00  0.00     0.198 A 
ATOM     67  C   UNL A   1      46.972  28.372  35.244  1.00  0.00     0.198 A 
ATOM     68  F   UNL A   1      46.026  29.716  33.559  1.00  0.00    -0.203 F 
ATOM     69  F   UNL A   1      45.594  25.565  37.077  1.00  0.00    -0.200 F 
ATOM     70  C   UNL A   1      46.867  27.321  36.143  1.00  0.00     0.200 A 
ATOM     71  F   UNL A   1      48.094  29.103  35.197  1.00  0.00    -0.200 F 
ATOM     72  F   UNL A   1      47.879  27.049  36.979  1.00  0.00    -0.200 F 
ENDBRANCH  39  62
ENDBRANCH  13  14
ENDBRANCH   6   8
ENDBRANCH   3   4
ENDBRANCH   2   3
ENDBRANCH   1   2
BRANCH   1  73
ATOM     73  C   UNL A   1      30.648  26.371  25.743  1.00  0.00       nan C 
BRANCH  73  74
ATOM     74  N   UNL A   1      30.585  25.136  26.503  1.00  0.00       nan N 
ATOM     75  C   UNL A   1      31.318  23.980  26.436  1.00  0.00       nan C 
ATOM     76  H   UNL A   1      29.886  25.127  27.196  1.00  0.00       nan HD
ATOM     77  O   UNL A   1      30.986  23.067  27.196  1.00  0.00       nan OA
BRANCH  75  78
ATOM     78  C   UNL A   1      32.398  23.770  25.364  1.00  0.00       nan C 
BRANCH  78  79
ATOM     79  C   UNL A   1      33.609  24.635  25.862  1.00  0.00       nan C 
BRANCH  79  80
ATOM     80  C   UNL A   1      34.454  25.669  25.067  1.00  0.00       nan C 
BRANCH  80  81
ATOM     81  C   UNL A   1      33.883  26.568  23.978  1.00  0.00       nan C 
ATOM     82  Cl  UNL A   1      33.350  25.582  22.588  1.00  0.00       nan Cl
ENDBRANCH  80  81
ENDBRANCH  79  80
ENDBRANCH  78  79
BRANCH  78  83
ATOM     83  P   UNL A   1      32.539  21.977  25.026  1.00  0.00       nan P 
ATOM     84  O   UNL A   1      31.840  22.234  23.672  1.00  0.00       nan OA
BRANCH  83  85
ATOM     85  C   UNL A   1      34.626  22.067  24.679  1.00  0.00       nan A 
ATOM     86  C   UNL A   1      35.542  21.964  25.755  1.00  0.00       nan A 
ATOM     87  C   UNL A   1      35.171  22.493  23.460  1.00  0.00       nan A 
ATOM     88  C   UNL A   1      36.856  22.438  25.670  1.00  0.00       nan A 
ATOM     89  C   UNL A   1      36.473  23.020  23.388  1.00  0.00       nan A 
ATOM     90  C   UNL A   1      37.304  23.025  24.502  1.00  0.00       nan A 
ENDBRANCH  83  85
BRANCH  83  91
ATOM     91  C   UNL A   1      32.679  20.184  24.689  1.00  0.00       nan A 
ATOM     92  C   UNL A   1      32.412  19.614  23.423  1.00  0.00       nan A 
ATOM     93  C   UNL A   1      32.834  19.313  25.782  1.00  0.00       nan A 
ATOM     94  C   UNL A   1      32.384  18.231  23.243  1.00  0.00       nan A 
ATOM     95  C   UNL A   1      32.780  17.927  25.603  1.00  0.00       nan A 
ATOM     96  C   UNL A   1      32.566  17.388  24.334  1.00  0.00       nan A 
ENDBRANCH  83  91
ENDBRANCH  78  83
ENDBRANCH  75  78
ENDBRANCH  73  74
ENDBRANCH   1  73
TORSDOF 17
ENDMDL
