MODEL 1
REMARK VINA RESULT:     -11.9      0.000      0.000
REMARK SMILES CC[C@@](O)(C(=O)NCCCCNC(=O)c1ccc(-c2c3nc(c(-c4c(F)c(F)c(F)c(F)c4F)c4ccc([nH]4)c(-c4c(F)c(F)c(F)c(F)c4F)c4nc(c(-c5c(F)c(F)c(F)c(F)c5F)c5ccc2[nH]5)C=C4)C=C3)cc1)[C@H]1CCc2ccc(OC)cc21
REMARK SMILES IDX 9 1 8 2 7 3 5 4 6 5 3 7 2 8 1 9 4 10 78 12 79 13 88 14 80 15
REMARK SMILES IDX 81 16 87 17 82 18 84 19 83 20 85 21 86 22 10 23 11 24 12 25
REMARK SMILES IDX 13 26 14 28 15 29 16 30 77 31 17 32 76 33 18 34 19 35 20 36
REMARK SMILES IDX 70 37 21 38 75 39 69 40 71 41 22 42 74 43 68 44 67 45 23 47
REMARK SMILES IDX 55 48 35 49 54 50 36 51 39 52 53 53 72 54 37 55 38 56 52 58
REMARK SMILES IDX 73 59 40 60 24 61 25 62 33 63 26 64 27 65 31 66 34 67 28 68
REMARK SMILES IDX 29 69 32 70 30 71 56 72 57 73 65 74 58 75 59 76 63 77 66 78
REMARK SMILES IDX 60 79 61 80 64 81 62 82 41 83 42 84 50 85 43 86 44 87 48 88
REMARK SMILES IDX 51 89 45 90 46 91 49 92 47 93
REMARK H PARENT 7 6 4 11 12 27 71 46 39 57
REMARK Flexibility Score: inf
ROOT
ATOM      1  C   UNL A   1      31.731  30.723  26.106  1.00  0.00     0.023 C 
ENDROOT
BRANCH   1   2
ATOM      2  C   UNL A   1      32.597  29.843  27.015  1.00  0.00     0.116 C 
BRANCH   2   3
ATOM      3  N   UNL A   1      31.853  28.660  27.374  1.00  0.00    -0.354 N 
ATOM      4  C   UNL A   1      31.738  27.471  26.711  1.00  0.00     0.252 C 
ATOM      5  O   UNL A   1      30.818  26.740  27.094  1.00  0.00    -0.272 OA
ATOM      6  H   UNL A   1      31.356  28.718  28.222  1.00  0.00     0.163 HD
BRANCH   4   7
ATOM      7  C   UNL A   1      32.740  27.036  25.578  1.00  0.00     0.149 C 
BRANCH   7   8
ATOM      8  C   UNL A   1      32.655  27.926  24.304  1.00  0.00     0.043 C 
ATOM      9  C   UNL A   1      33.868  27.984  23.383  1.00  0.00     0.007 C 
ENDBRANCH   7   8
BRANCH   7  10
ATOM     10  O   UNL A   1      34.035  27.247  26.183  1.00  0.00    -0.379 OA
ATOM     11  H   UNL A   1      34.490  27.974  25.730  1.00  0.00     0.212 HD
ENDBRANCH   7  10
BRANCH   7  12
ATOM     12  C   UNL A   1      32.488  25.496  25.330  1.00  0.00     0.061 C 
ATOM     13  C   UNL A   1      31.488  25.221  24.166  1.00  0.00     0.017 C 
ATOM     14  C   UNL A   1      33.684  24.683  24.906  1.00  0.00    -0.035 A 
ATOM     15  C   UNL A   1      31.984  24.001  23.383  1.00  0.00     0.036 C 
ATOM     16  C   UNL A   1      33.435  23.978  23.729  1.00  0.00    -0.044 A 
ATOM     17  C   UNL A   1      34.907  24.567  25.555  1.00  0.00     0.050 A 
ATOM     18  C   UNL A   1      34.461  23.328  23.067  1.00  0.00     0.008 A 
ATOM     19  C   UNL A   1      35.943  23.890  24.916  1.00  0.00     0.119 A 
ATOM     20  C   UNL A   1      35.732  23.330  23.649  1.00  0.00     0.047 A 
BRANCH  19  21
ATOM     21  O   UNL A   1      37.208  23.755  25.422  1.00  0.00    -0.497 OA
ATOM     22  C   UNL A   1      37.715  22.423  25.445  1.00  0.00     0.278 C 
ENDBRANCH  19  21
ENDBRANCH   7  12
ENDBRANCH   4   7
ENDBRANCH   2   3
ENDBRANCH   1   2
BRANCH   1  23
ATOM     23  C   UNL A   1      31.432  32.104  26.683  1.00  0.00     0.023 C 
BRANCH  23  24
ATOM     24  C   UNL A   1      32.639  32.787  27.304  1.00  0.00     0.116 C 
BRANCH  24  25
ATOM     25  N   UNL A   1      32.372  34.162  27.693  1.00  0.00    -0.352 N 
ATOM     26  C   UNL A   1      33.023  34.931  28.621  1.00  0.00     0.251 C 
ATOM     27  H   UNL A   1      31.624  34.600  27.227  1.00  0.00     0.163 HD
ATOM     28  O   UNL A   1      32.582  36.035  28.930  1.00  0.00    -0.269 OA
BRANCH  26  29
ATOM     29  C   UNL A   1      34.231  34.403  29.279  1.00  0.00     0.039 A 
ATOM     30  C   UNL A   1      34.078  33.652  30.444  1.00  0.00     0.014 A 
ATOM     31  C   UNL A   1      35.502  34.621  28.737  1.00  0.00     0.014 A 
ATOM     32  C   UNL A   1      35.199  33.077  31.038  1.00  0.00     0.010 A 
ATOM     33  C   UNL A   1      36.604  33.970  29.277  1.00  0.00     0.010 A 
ATOM     34  C   UNL A   1      36.465  33.201  30.439  1.00  0.00    -0.014 A 
BRANCH  34  35
ATOM     35  C   UNL A   1      37.638  32.517  31.032  1.00  0.00     0.031 A 
ATOM     36  C   UNL A   1      38.133  32.892  32.399  1.00  0.00     0.074 A 
ATOM     37  C   UNL A   1      38.261  31.557  30.321  1.00  0.00     0.049 A 
ATOM     38  N   UNL A   1      39.106  32.363  33.098  1.00  0.00    -0.248 NA
ATOM     39  C   UNL A   1      37.468  34.025  33.062  1.00  0.00     0.031 C 
ATOM     40  C   UNL A   1      37.917  31.163  28.953  1.00  0.00     0.029 A 
ATOM     41  N   UNL A   1      39.304  30.732  30.651  1.00  0.00    -0.354 N 
ATOM     42  C   UNL A   1      39.158  33.088  34.281  1.00  0.00     0.074 A 
ATOM     43  C   UNL A   1      38.177  34.144  34.175  1.00  0.00     0.031 C 
ATOM     44  C   UNL A   1      38.707  30.145  28.577  1.00  0.00     0.029 A 
ATOM     45  C   UNL A   1      39.631  29.837  29.662  1.00  0.00     0.049 A 
ATOM     46  H   UNL A   1      39.776  30.777  31.514  1.00  0.00     0.167 HD
ATOM     47  C   UNL A   1      39.930  32.868  35.372  1.00  0.00     0.037 A 
ATOM     48  C   UNL A   1      40.569  28.872  29.638  1.00  0.00     0.037 A 
ATOM     49  C   UNL A   1      40.905  31.814  35.470  1.00  0.00     0.049 A 
ATOM     50  C   UNL A   1      41.411  28.649  30.865  1.00  0.00     0.074 A 
ATOM     51  C   UNL A   1      41.718  31.483  36.540  1.00  0.00     0.029 A 
ATOM     52  N   UNL A   1      41.203  30.918  34.452  1.00  0.00    -0.354 N 
ATOM     53  N   UNL A   1      41.395  29.288  32.010  1.00  0.00    -0.248 NA
ATOM     54  C   UNL A   1      42.390  27.557  30.801  1.00  0.00     0.031 C 
ATOM     55  C   UNL A   1      42.542  30.421  36.154  1.00  0.00     0.029 A 
ATOM     56  C   UNL A   1      42.201  30.048  34.864  1.00  0.00     0.049 A 
ATOM     57  H   UNL A   1      40.771  30.902  33.568  1.00  0.00     0.167 HD
ATOM     58  C   UNL A   1      42.345  28.666  32.808  1.00  0.00     0.074 A 
ATOM     59  C   UNL A   1      42.891  27.575  32.027  1.00  0.00     0.031 C 
ATOM     60  C   UNL A   1      42.739  28.973  34.069  1.00  0.00     0.037 A 
BRANCH  47  61
ATOM     61  C   UNL A   1      39.737  33.777  36.552  1.00  0.00     0.064 A 
ATOM     62  C   UNL A   1      40.352  35.038  36.614  1.00  0.00     0.173 A 
ATOM     63  C   UNL A   1      38.898  33.407  37.614  1.00  0.00     0.173 A 
ATOM     64  F   UNL A   1      41.176  35.437  35.633  1.00  0.00    -0.203 F 
ATOM     65  C   UNL A   1      40.153  35.882  37.704  1.00  0.00     0.198 A 
ATOM     66  C   UNL A   1      38.675  34.268  38.686  1.00  0.00     0.198 A 
ATOM     67  F   UNL A   1      38.282  32.215  37.606  1.00  0.00    -0.203 F 
ATOM     68  F   UNL A   1      40.790  37.059  37.761  1.00  0.00    -0.200 F 
ATOM     69  C   UNL A   1      39.308  35.501  38.733  1.00  0.00     0.200 A 
ATOM     70  F   UNL A   1      37.846  33.904  39.674  1.00  0.00    -0.200 F 
ATOM     71  F   UNL A   1      39.107  36.319  39.776  1.00  0.00    -0.200 F 
ENDBRANCH  47  61
BRANCH  48  72
ATOM     72  C   UNL A   1      40.746  28.033  28.423  1.00  0.00     0.064 A 
ATOM     73  C   UNL A   1      41.544  28.461  27.353  1.00  0.00     0.173 A 
ATOM     74  C   UNL A   1      40.107  26.790  28.302  1.00  0.00     0.173 A 
ATOM     75  F   UNL A   1      42.164  29.648  27.412  1.00  0.00    -0.203 F 
ATOM     76  C   UNL A   1      41.666  27.695  26.194  1.00  0.00     0.198 A 
ATOM     77  C   UNL A   1      40.259  26.009  27.158  1.00  0.00     0.198 A 
ATOM     78  F   UNL A   1      39.341  26.328  29.301  1.00  0.00    -0.203 F 
ATOM     79  F   UNL A   1      42.385  28.158  25.162  1.00  0.00    -0.200 F 
ATOM     80  C   UNL A   1      41.028  26.468  26.099  1.00  0.00     0.200 A 
ATOM     81  F   UNL A   1      39.657  24.815  27.080  1.00  0.00    -0.200 F 
ATOM     82  F   UNL A   1      41.146  25.733  24.986  1.00  0.00    -0.200 F 
ENDBRANCH  48  72
BRANCH  60  83
ATOM     83  C   UNL A   1      43.798  28.099  34.681  1.00  0.00     0.064 A 
ATOM     84  C   UNL A   1      43.473  26.927  35.380  1.00  0.00     0.173 A 
ATOM     85  C   UNL A   1      45.155  28.440  34.569  1.00  0.00     0.173 A 
ATOM     86  F   UNL A   1      42.190  26.562  35.528  1.00  0.00    -0.203 F 
ATOM     87  C   UNL A   1      44.462  26.158  35.988  1.00  0.00     0.198 A 
ATOM     88  C   UNL A   1      46.144  27.648  35.143  1.00  0.00     0.198 A 
ATOM     89  F   UNL A   1      45.522  29.545  33.901  1.00  0.00    -0.203 F 
ATOM     90  F   UNL A   1      44.121  25.085  36.714  1.00  0.00    -0.200 F 
ATOM     91  C   UNL A   1      45.796  26.516  35.864  1.00  0.00     0.200 A 
ATOM     92  F   UNL A   1      47.434  27.986  35.009  1.00  0.00    -0.200 F 
ATOM     93  F   UNL A   1      46.746  25.777  36.453  1.00  0.00    -0.200 F 
ENDBRANCH  60  83
ENDBRANCH  34  35
ENDBRANCH  26  29
ENDBRANCH  24  25
ENDBRANCH  23  24
ENDBRANCH   1  23
TORSDOF 15
ENDMDL
MODEL 2
REMARK VINA RESULT:     -11.8      1.051      2.394
REMARK SMILES CC[C@@](O)(C(=O)NCCCCNC(=O)c1ccc(-c2c3nc(c(-c4c(F)c(F)c(F)c(F)c4F)c4ccc([nH]4)c(-c4c(F)c(F)c(F)c(F)c4F)c4nc(c(-c5c(F)c(F)c(F)c(F)c5F)c5ccc2[nH]5)C=C4)C=C3)cc1)[C@H]1CCc2ccc(OC)cc21
REMARK SMILES IDX 9 1 8 2 7 3 5 4 6 5 3 7 2 8 1 9 4 10 78 12 79 13 88 14 80 15
REMARK SMILES IDX 81 16 87 17 82 18 84 19 83 20 85 21 86 22 10 23 11 24 12 25
REMARK SMILES IDX 13 26 14 28 15 29 16 30 77 31 17 32 76 33 18 34 19 35 20 36
REMARK SMILES IDX 70 37 21 38 75 39 69 40 71 41 22 42 74 43 68 44 67 45 23 47
REMARK SMILES IDX 55 48 35 49 54 50 36 51 39 52 53 53 72 54 37 55 38 56 52 58
REMARK SMILES IDX 73 59 40 60 24 61 25 62 33 63 26 64 27 65 31 66 34 67 28 68
REMARK SMILES IDX 29 69 32 70 30 71 56 72 57 73 65 74 58 75 59 76 63 77 66 78
REMARK SMILES IDX 60 79 61 80 64 81 62 82 41 83 42 84 50 85 43 86 44 87 48 88
REMARK SMILES IDX 51 89 45 90 46 91 49 92 47 93
REMARK H PARENT 7 6 4 11 12 27 71 46 39 57
REMARK Flexibility Score: inf
ROOT
ATOM      1  C   UNL A   1      31.606  30.523  26.551  1.00  0.00     0.023 C 
ENDROOT
BRANCH   1   2
ATOM      2  C   UNL A   1      32.457  29.963  25.405  1.00  0.00     0.116 C 
BRANCH   2   3
ATOM      3  N   UNL A   1      31.601  29.670  24.281  1.00  0.00    -0.354 N 
ATOM      4  C   UNL A   1      31.600  28.586  23.448  1.00  0.00     0.252 C 
ATOM      5  O   UNL A   1      30.953  28.724  22.404  1.00  0.00    -0.272 OA
ATOM      6  H   UNL A   1      30.916  30.350  24.087  1.00  0.00     0.163 HD
BRANCH   4   7
ATOM      7  C   UNL A   1      32.323  27.238  23.816  1.00  0.00     0.149 C 
BRANCH   7   8
ATOM      8  C   UNL A   1      32.173  26.140  22.722  1.00  0.00     0.043 C 
ATOM      9  C   UNL A   1      33.270  26.015  21.672  1.00  0.00     0.007 C 
ENDBRANCH   7   8
BRANCH   7  10
ATOM     10  O   UNL A   1      33.716  27.616  23.878  1.00  0.00    -0.379 OA
ATOM     11  H   UNL A   1      33.973  27.756  24.804  1.00  0.00     0.212 HD
ENDBRANCH   7  10
BRANCH   7  12
ATOM     12  C   UNL A   1      31.795  26.827  25.246  1.00  0.00     0.061 C 
ATOM     13  C   UNL A   1      30.251  26.609  25.288  1.00  0.00     0.017 C 
ATOM     14  C   UNL A   1      32.304  25.520  25.797  1.00  0.00    -0.035 A 
ATOM     15  C   UNL A   1      29.958  25.411  26.197  1.00  0.00     0.036 C 
ATOM     16  C   UNL A   1      31.259  24.679  26.176  1.00  0.00    -0.044 A 
ATOM     17  C   UNL A   1      33.626  25.127  25.968  1.00  0.00     0.050 A 
ATOM     18  C   UNL A   1      31.504  23.363  26.522  1.00  0.00     0.008 A 
ATOM     19  C   UNL A   1      33.891  23.813  26.346  1.00  0.00     0.119 A 
ATOM     20  C   UNL A   1      32.830  22.922  26.558  1.00  0.00     0.047 A 
BRANCH  19  21
ATOM     21  O   UNL A   1      35.147  23.286  26.493  1.00  0.00    -0.497 OA
ATOM     22  C   UNL A   1      36.138  23.828  25.624  1.00  0.00     0.278 C 
ENDBRANCH  19  21
ENDBRANCH   7  12
ENDBRANCH   4   7
ENDBRANCH   2   3
ENDBRANCH   1   2
BRANCH   1  23
ATOM     23  C   UNL A   1      31.490  32.045  26.550  1.00  0.00     0.023 C 
BRANCH  23  24
ATOM     24  C   UNL A   1      32.679  32.753  27.176  1.00  0.00     0.116 C 
BRANCH  24  25
ATOM     25  N   UNL A   1      32.369  34.108  27.603  1.00  0.00    -0.352 N 
ATOM     26  C   UNL A   1      32.980  34.863  28.569  1.00  0.00     0.251 C 
ATOM     27  H   UNL A   1      31.620  34.542  27.135  1.00  0.00     0.163 HD
ATOM     28  O   UNL A   1      32.505  35.945  28.903  1.00  0.00    -0.269 OA
BRANCH  26  29
ATOM     29  C   UNL A   1      34.187  34.343  29.236  1.00  0.00     0.039 A 
ATOM     30  C   UNL A   1      34.028  33.491  30.328  1.00  0.00     0.014 A 
ATOM     31  C   UNL A   1      35.465  34.671  28.772  1.00  0.00     0.014 A 
ATOM     32  C   UNL A   1      35.152  32.926  30.924  1.00  0.00     0.010 A 
ATOM     33  C   UNL A   1      36.578  34.035  29.307  1.00  0.00     0.010 A 
ATOM     34  C   UNL A   1      36.434  33.165  30.395  1.00  0.00    -0.014 A 
BRANCH  34  35
ATOM     35  C   UNL A   1      37.617  32.494  30.983  1.00  0.00     0.031 A 
ATOM     36  C   UNL A   1      38.117  32.880  32.346  1.00  0.00     0.074 A 
ATOM     37  C   UNL A   1      38.245  31.537  30.272  1.00  0.00     0.049 A 
ATOM     38  N   UNL A   1      39.099  32.362  33.041  1.00  0.00    -0.248 NA
ATOM     39  C   UNL A   1      37.446  34.009  33.009  1.00  0.00     0.031 C 
ATOM     40  C   UNL A   1      37.895  31.134  28.908  1.00  0.00     0.029 A 
ATOM     41  N   UNL A   1      39.297  30.724  30.599  1.00  0.00    -0.354 N 
ATOM     42  C   UNL A   1      39.152  33.093  34.220  1.00  0.00     0.074 A 
ATOM     43  C   UNL A   1      38.160  34.139  34.116  1.00  0.00     0.031 C 
ATOM     44  C   UNL A   1      38.692  30.122  28.531  1.00  0.00     0.029 A 
ATOM     45  C   UNL A   1      39.626  29.827  29.612  1.00  0.00     0.049 A 
ATOM     46  H   UNL A   1      39.774  30.776  31.459  1.00  0.00     0.167 HD
ATOM     47  C   UNL A   1      39.933  32.885  35.307  1.00  0.00     0.037 A 
ATOM     48  C   UNL A   1      40.573  28.871  29.586  1.00  0.00     0.037 A 
ATOM     49  C   UNL A   1      40.919  31.841  35.403  1.00  0.00     0.049 A 
ATOM     50  C   UNL A   1      41.425  28.661  30.808  1.00  0.00     0.074 A 
ATOM     51  C   UNL A   1      41.741  31.522  36.470  1.00  0.00     0.029 A 
ATOM     52  N   UNL A   1      41.219  30.943  34.387  1.00  0.00    -0.354 N 
ATOM     53  N   UNL A   1      41.410  29.305  31.951  1.00  0.00    -0.248 NA
ATOM     54  C   UNL A   1      42.413  27.578  30.743  1.00  0.00     0.031 C 
ATOM     55  C   UNL A   1      42.573  30.466  36.083  1.00  0.00     0.029 A 
ATOM     56  C   UNL A   1      42.227  30.084  34.796  1.00  0.00     0.049 A 
ATOM     57  H   UNL A   1      40.781  30.920  33.506  1.00  0.00     0.167 HD
ATOM     58  C   UNL A   1      42.371  28.695  32.745  1.00  0.00     0.074 A 
ATOM     59  C   UNL A   1      42.922  27.606  31.966  1.00  0.00     0.031 C 
ATOM     60  C   UNL A   1      42.770  29.011  34.002  1.00  0.00     0.037 A 
BRANCH  47  61
ATOM     61  C   UNL A   1      39.739  33.797  36.485  1.00  0.00     0.064 A 
ATOM     62  C   UNL A   1      38.900  33.445  37.554  1.00  0.00     0.173 A 
ATOM     63  C   UNL A   1      40.430  35.015  36.572  1.00  0.00     0.173 A 
ATOM     64  F   UNL A   1      38.204  32.297  37.517  1.00  0.00    -0.203 F 
ATOM     65  C   UNL A   1      38.741  34.287  38.651  1.00  0.00     0.198 A 
ATOM     66  C   UNL A   1      40.294  35.840  37.686  1.00  0.00     0.198 A 
ATOM     67  F   UNL A   1      41.248  35.401  35.581  1.00  0.00    -0.203 F 
ATOM     68  F   UNL A   1      37.896  33.949  39.635  1.00  0.00    -0.200 F 
ATOM     69  C   UNL A   1      39.445  35.478  38.721  1.00  0.00     0.200 A 
ATOM     70  F   UNL A   1      40.987  36.985  37.758  1.00  0.00    -0.200 F 
ATOM     71  F   UNL A   1      39.301  36.283  39.783  1.00  0.00    -0.200 F 
ENDBRANCH  47  61
BRANCH  48  72
ATOM     72  C   UNL A   1      40.750  28.029  28.373  1.00  0.00     0.064 A 
ATOM     73  C   UNL A   1      40.110  26.788  28.248  1.00  0.00     0.173 A 
ATOM     74  C   UNL A   1      41.578  28.443  27.319  1.00  0.00     0.173 A 
ATOM     75  F   UNL A   1      39.319  26.339  29.233  1.00  0.00    -0.203 F 
ATOM     76  C   UNL A   1      40.319  25.979  27.132  1.00  0.00     0.198 A 
ATOM     77  C   UNL A   1      41.758  27.650  26.188  1.00  0.00     0.198 A 
ATOM     78  F   UNL A   1      42.206  29.626  27.383  1.00  0.00    -0.203 F 
ATOM     79  F   UNL A   1      39.743  24.771  27.067  1.00  0.00    -0.200 F 
ATOM     80  C   UNL A   1      41.139  26.412  26.101  1.00  0.00     0.200 A 
ATOM     81  F   UNL A   1      42.534  28.082  25.186  1.00  0.00    -0.200 F 
ATOM     82  F   UNL A   1      41.339  25.634  25.029  1.00  0.00    -0.200 F 
ENDBRANCH  48  72
BRANCH  60  83
ATOM     83  C   UNL A   1      43.841  28.150  34.611  1.00  0.00     0.064 A 
ATOM     84  C   UNL A   1      45.201  28.474  34.497  1.00  0.00     0.173 A 
ATOM     85  C   UNL A   1      43.502  26.983  35.314  1.00  0.00     0.173 A 
ATOM     86  F   UNL A   1      45.580  29.571  33.824  1.00  0.00    -0.203 F 
ATOM     87  C   UNL A   1      46.184  27.636  35.019  1.00  0.00     0.198 A 
ATOM     88  C   UNL A   1      44.484  26.169  35.869  1.00  0.00     0.198 A 
ATOM     89  F   UNL A   1      42.216  26.632  35.462  1.00  0.00    -0.203 F 
ATOM     90  F   UNL A   1      47.478  27.927  34.832  1.00  0.00    -0.200 F 
ATOM     91  C   UNL A   1      45.824  26.488  35.709  1.00  0.00     0.200 A 
ATOM     92  F   UNL A   1      44.135  25.068  36.549  1.00  0.00    -0.200 F 
ATOM     93  F   UNL A   1      46.771  25.681  36.207  1.00  0.00    -0.200 F 
ENDBRANCH  60  83
ENDBRANCH  34  35
ENDBRANCH  26  29
ENDBRANCH  24  25
ENDBRANCH  23  24
ENDBRANCH   1  23
TORSDOF 15
ENDMDL
MODEL 3
REMARK VINA RESULT:     -11.7      2.226      3.412
REMARK SMILES CC[C@@](O)(C(=O)NCCCCNC(=O)c1ccc(-c2c3nc(c(-c4c(F)c(F)c(F)c(F)c4F)c4ccc([nH]4)c(-c4c(F)c(F)c(F)c(F)c4F)c4nc(c(-c5c(F)c(F)c(F)c(F)c5F)c5ccc2[nH]5)C=C4)C=C3)cc1)[C@H]1CCc2ccc(OC)cc21
REMARK SMILES IDX 9 1 8 2 7 3 5 4 6 5 3 7 2 8 1 9 4 10 78 12 79 13 88 14 80 15
REMARK SMILES IDX 81 16 87 17 82 18 84 19 83 20 85 21 86 22 10 23 11 24 12 25
REMARK SMILES IDX 13 26 14 28 15 29 16 30 77 31 17 32 76 33 18 34 19 35 20 36
REMARK SMILES IDX 70 37 21 38 75 39 69 40 71 41 22 42 74 43 68 44 67 45 23 47
REMARK SMILES IDX 55 48 35 49 54 50 36 51 39 52 53 53 72 54 37 55 38 56 52 58
REMARK SMILES IDX 73 59 40 60 24 61 25 62 33 63 26 64 27 65 31 66 34 67 28 68
REMARK SMILES IDX 29 69 32 70 30 71 56 72 57 73 65 74 58 75 59 76 63 77 66 78
REMARK SMILES IDX 60 79 61 80 64 81 62 82 41 83 42 84 50 85 43 86 44 87 48 88
REMARK SMILES IDX 51 89 45 90 46 91 49 92 47 93
REMARK H PARENT 7 6 4 11 12 27 71 46 39 57
REMARK Flexibility Score: inf
ROOT
ATOM      1  C   UNL A   1      31.282  27.928  25.427  1.00  0.00     0.023 C 
ENDROOT
BRANCH   1   2
ATOM      2  C   UNL A   1      32.340  27.056  24.741  1.00  0.00     0.116 C 
BRANCH   2   3
ATOM      3  N   UNL A   1      31.934  26.806  23.379  1.00  0.00    -0.354 N 
ATOM      4  C   UNL A   1      31.837  25.621  22.704  1.00  0.00     0.252 C 
ATOM      5  O   UNL A   1      31.741  25.721  21.476  1.00  0.00    -0.272 OA
ATOM      6  H   UNL A   1      31.692  27.606  22.860  1.00  0.00     0.163 HD
BRANCH   4   7
ATOM      7  C   UNL A   1      31.791  24.232  23.441  1.00  0.00     0.149 C 
BRANCH   7   8
ATOM      8  C   UNL A   1      31.705  24.358  24.990  1.00  0.00     0.043 C 
ATOM      9  C   UNL A   1      30.641  23.548  25.721  1.00  0.00     0.007 C 
ENDBRANCH   7   8
BRANCH   7  10
ATOM     10  O   UNL A   1      30.554  23.651  22.973  1.00  0.00    -0.379 OA
ATOM     11  H   UNL A   1      29.804  24.105  23.389  1.00  0.00     0.212 HD
ENDBRANCH   7  10
BRANCH   7  12
ATOM     12  C   UNL A   1      33.028  23.407  22.909  1.00  0.00     0.061 C 
ATOM     13  C   UNL A   1      34.385  24.151  23.098  1.00  0.00     0.017 C 
ATOM     14  C   UNL A   1      33.300  22.093  23.597  1.00  0.00    -0.035 A 
ATOM     15  C   UNL A   1      35.447  23.123  23.502  1.00  0.00     0.036 C 
ATOM     16  C   UNL A   1      34.613  22.018  24.060  1.00  0.00    -0.044 A 
ATOM     17  C   UNL A   1      32.427  21.026  23.768  1.00  0.00     0.050 A 
ATOM     18  C   UNL A   1      35.010  20.983  24.886  1.00  0.00     0.008 A 
ATOM     19  C   UNL A   1      32.822  19.960  24.573  1.00  0.00     0.119 A 
ATOM     20  C   UNL A   1      34.086  19.975  25.179  1.00  0.00     0.047 A 
BRANCH  19  21
ATOM     21  O   UNL A   1      32.035  18.879  24.868  1.00  0.00    -0.497 OA
ATOM     22  C   UNL A   1      32.740  17.698  25.244  1.00  0.00     0.278 C 
ENDBRANCH  19  21
ENDBRANCH   7  12
ENDBRANCH   4   7
ENDBRANCH   2   3
ENDBRANCH   1   2
BRANCH   1  23
ATOM     23  C   UNL A   1      31.836  28.817  26.537  1.00  0.00     0.023 C 
BRANCH  23  24
ATOM     24  C   UNL A   1      32.925  29.771  26.076  1.00  0.00     0.116 C 
BRANCH  24  25
ATOM     25  N   UNL A   1      32.659  31.153  26.443  1.00  0.00    -0.352 N 
ATOM     26  C   UNL A   1      33.366  31.966  27.289  1.00  0.00     0.251 C 
ATOM     27  H   UNL A   1      31.864  31.559  26.028  1.00  0.00     0.163 HD
ATOM     28  O   UNL A   1      32.926  33.070  27.599  1.00  0.00    -0.269 OA
BRANCH  26  29
ATOM     29  C   UNL A   1      34.637  31.485  27.859  1.00  0.00     0.039 A 
ATOM     30  C   UNL A   1      35.694  32.386  27.978  1.00  0.00     0.014 A 
ATOM     31  C   UNL A   1      34.776  30.165  28.299  1.00  0.00     0.014 A 
ATOM     32  C   UNL A   1      36.877  31.974  28.585  1.00  0.00     0.010 A 
ATOM     33  C   UNL A   1      35.921  29.783  28.987  1.00  0.00     0.010 A 
ATOM     34  C   UNL A   1      36.987  30.681  29.128  1.00  0.00    -0.014 A 
BRANCH  34  35
ATOM     35  C   UNL A   1      38.219  30.278  29.846  1.00  0.00     0.031 A 
ATOM     36  C   UNL A   1      38.486  30.766  31.241  1.00  0.00     0.074 A 
ATOM     37  C   UNL A   1      39.102  29.472  29.225  1.00  0.00     0.049 A 
ATOM     38  N   UNL A   1      39.480  30.471  32.041  1.00  0.00    -0.248 NA
ATOM     39  C   UNL A   1      37.529  31.731  31.806  1.00  0.00     0.031 C 
ATOM     40  C   UNL A   1      38.986  28.999  27.843  1.00  0.00     0.029 A 
ATOM     41  N   UNL A   1      40.264  28.902  29.673  1.00  0.00    -0.354 N 
ATOM     42  C   UNL A   1      39.259  31.201  33.202  1.00  0.00     0.074 A 
ATOM     43  C   UNL A   1      38.084  32.014  32.974  1.00  0.00     0.031 C 
ATOM     44  C   UNL A   1      40.011  28.177  27.572  1.00  0.00     0.029 A 
ATOM     45  C   UNL A   1      40.872  28.091  28.746  1.00  0.00     0.049 A 
ATOM     46  H   UNL A   1      40.629  29.058  30.574  1.00  0.00     0.167 HD
ATOM     47  C   UNL A   1      39.952  31.168  34.364  1.00  0.00     0.037 A 
ATOM     48  C   UNL A   1      41.996  27.357  28.838  1.00  0.00     0.037 A 
ATOM     49  C   UNL A   1      41.120  30.356  34.583  1.00  0.00     0.049 A 
ATOM     50  C   UNL A   1      42.746  27.337  30.142  1.00  0.00     0.074 A 
ATOM     51  C   UNL A   1      41.879  30.224  35.733  1.00  0.00     0.029 A 
ATOM     52  N   UNL A   1      41.703  29.539  33.625  1.00  0.00    -0.354 N 
ATOM     53  N   UNL A   1      42.480  27.969  31.261  1.00  0.00    -0.248 NA
ATOM     54  C   UNL A   1      43.941  26.488  30.201  1.00  0.00     0.031 C 
ATOM     55  C   UNL A   1      42.949  29.367  35.456  1.00  0.00     0.029 A 
ATOM     56  C   UNL A   1      42.823  28.914  34.152  1.00  0.00     0.049 A 
ATOM     57  H   UNL A   1      41.371  29.420  32.706  1.00  0.00     0.167 HD
ATOM     58  C   UNL A   1      43.462  27.579  32.161  1.00  0.00     0.074 A 
ATOM     59  C   UNL A   1      44.306  26.628  31.467  1.00  0.00     0.031 C 
ATOM     60  C   UNL A   1      43.657  27.978  33.443  1.00  0.00     0.037 A 
BRANCH  47  61
ATOM     61  C   UNL A   1      39.452  32.023  35.494  1.00  0.00     0.064 A 
ATOM     62  C   UNL A   1      38.550  31.524  36.447  1.00  0.00     0.173 A 
ATOM     63  C   UNL A   1      39.911  33.339  35.656  1.00  0.00     0.173 A 
ATOM     64  F   UNL A   1      38.069  30.276  36.334  1.00  0.00    -0.203 F 
ATOM     65  C   UNL A   1      38.107  32.317  37.503  1.00  0.00     0.198 A 
ATOM     66  C   UNL A   1      39.491  34.119  36.731  1.00  0.00     0.198 A 
ATOM     67  F   UNL A   1      40.775  33.867  34.777  1.00  0.00    -0.203 F 
ATOM     68  F   UNL A   1      37.208  31.832  38.370  1.00  0.00    -0.200 F 
ATOM     69  C   UNL A   1      38.585  33.609  37.649  1.00  0.00     0.200 A 
ATOM     70  F   UNL A   1      39.964  35.364  36.880  1.00  0.00    -0.200 F 
ATOM     71  F   UNL A   1      38.167  34.368  38.672  1.00  0.00    -0.200 F 
ENDBRANCH  47  61
BRANCH  48  72
ATOM     72  C   UNL A   1      42.469  26.567  27.669  1.00  0.00     0.064 A 
ATOM     73  C   UNL A   1      42.002  25.267  27.433  1.00  0.00     0.173 A 
ATOM     74  C   UNL A   1      43.410  27.093  26.772  1.00  0.00     0.173 A 
ATOM     75  F   UNL A   1      41.112  24.712  28.269  1.00  0.00    -0.203 F 
ATOM     76  C   UNL A   1      42.485  24.510  26.366  1.00  0.00     0.198 A 
ATOM     77  C   UNL A   1      43.866  26.350  25.686  1.00  0.00     0.198 A 
ATOM     78  F   UNL A   1      43.882  28.337  26.946  1.00  0.00    -0.203 F 
ATOM     79  F   UNL A   1      42.067  23.248  26.201  1.00  0.00    -0.200 F 
ATOM     80  C   UNL A   1      43.413  25.054  25.491  1.00  0.00     0.200 A 
ATOM     81  F   UNL A   1      44.746  26.887  24.832  1.00  0.00    -0.200 F 
ATOM     82  F   UNL A   1      43.877  24.327  24.466  1.00  0.00    -0.200 F 
ENDBRANCH  48  72
BRANCH  60  83
ATOM     83  C   UNL A   1      44.818  27.365  34.175  1.00  0.00     0.064 A 
ATOM     84  C   UNL A   1      44.687  26.169  34.897  1.00  0.00     0.173 A 
ATOM     85  C   UNL A   1      46.078  27.984  34.157  1.00  0.00     0.173 A 
ATOM     86  F   UNL A   1      43.501  25.544  34.958  1.00  0.00    -0.203 F 
ATOM     87  C   UNL A   1      45.758  25.645  35.615  1.00  0.00     0.198 A 
ATOM     88  C   UNL A   1      47.157  27.436  34.842  1.00  0.00     0.198 A 
ATOM     89  F   UNL A   1      46.262  29.124  33.472  1.00  0.00    -0.203 F 
ATOM     90  F   UNL A   1      45.587  24.543  36.358  1.00  0.00    -0.200 F 
ATOM     91  C   UNL A   1      46.993  26.275  35.583  1.00  0.00     0.200 A 
ATOM     92  F   UNL A   1      48.354  28.037  34.797  1.00  0.00    -0.200 F 
ATOM     93  F   UNL A   1      48.021  25.770  36.277  1.00  0.00    -0.200 F 
ENDBRANCH  60  83
ENDBRANCH  34  35
ENDBRANCH  26  29
ENDBRANCH  24  25
ENDBRANCH  23  24
ENDBRANCH   1  23
TORSDOF 15
ENDMDL
