MODEL 1
REMARK VINA RESULT:     -12.2      0.000      0.000
REMARK SMILES O=C(CCc1cccnc1)Nc1cccc(F)c1C(=O)NCCCCNC(=O)c1ccc(-c2c3nc(c(-c4c(F)c(F)c(F)c(F)c4F)c4ccc([nH]4)c(-c4c(F)c(F)c(F)c(F)c4F)c4nc(c(-c5c(F)c(F)c(F)c(F)c5F)c5ccc2[nH]5)C=C4)C=C3)cc1
REMARK SMILES IDX 22 1 21 2 19 3 20 4 18 6 12 7 13 8 14 9 16 10 15 11 17 12
REMARK SMILES IDX 11 13 1 14 2 15 3 17 4 18 5 19 6 20 10 21 7 22 9 23 8 24
REMARK SMILES IDX 23 25 24 26 25 27 26 28 27 29 28 31 29 32 30 33 91 34 31 35
REMARK SMILES IDX 90 36 32 37 33 38 34 39 84 40 35 41 89 42 83 43 85 44 36 45
REMARK SMILES IDX 88 46 82 47 81 48 37 50 69 51 49 52 68 53 50 54 53 55 67 56
REMARK SMILES IDX 86 57 51 58 52 59 66 61 87 62 54 63 38 64 39 65 47 66 40 67
REMARK SMILES IDX 41 68 45 69 48 70 42 71 43 72 46 73 44 74 70 75 71 76 79 77
REMARK SMILES IDX 72 78 73 79 77 80 80 81 74 82 75 83 78 84 76 85 55 86 56 87
REMARK SMILES IDX 64 88 57 89 58 90 62 91 65 92 59 93 60 94 63 95 61 96
REMARK H PARENT 21 5 11 16 26 30 85 49 53 60
REMARK Flexibility Score: inf
ROOT
ATOM      1  C   UNL A   1      36.601  22.203  25.459  1.00  0.00     0.116 C 
ENDROOT
BRANCH   1   2
ATOM      2  N   UNL A   1      35.653  22.101  26.556  1.00  0.00    -0.352 N 
ATOM      3  C   UNL A   1      34.374  21.580  26.606  1.00  0.00     0.256 C 
ATOM      4  O   UNL A   1      33.845  21.485  27.717  1.00  0.00    -0.269 OA
ATOM      5  H   UNL A   1      35.978  22.466  27.410  1.00  0.00     0.163 HD
BRANCH   3   6
ATOM      6  C   UNL A   1      33.560  21.234  25.404  1.00  0.00     0.099 A 
ATOM      7  C   UNL A   1      33.144  22.254  24.506  1.00  0.00     0.056 A 
ATOM      8  C   UNL A   1      32.554  21.883  23.286  1.00  0.00     0.027 A 
ATOM      9  C   UNL A   1      32.281  20.550  22.988  1.00  0.00     0.005 A 
ATOM     10  C   UNL A   1      33.146  19.925  25.142  1.00  0.00     0.138 A 
ATOM     11  C   UNL A   1      32.540  19.574  23.937  1.00  0.00     0.040 A 
ATOM     12  F   UNL A   1      33.265  18.958  26.062  1.00  0.00    -0.206 F 
BRANCH   7  13
ATOM     13  N   UNL A   1      33.303  23.628  24.848  1.00  0.00    -0.325 N 
ATOM     14  O   UNL A   1      34.704  24.350  23.155  1.00  0.00    -0.275 OA
ATOM     15  C   UNL A   1      34.086  24.560  24.201  1.00  0.00     0.224 C 
ATOM     16  H   UNL A   1      32.799  23.946  25.633  1.00  0.00     0.169 HD
BRANCH  15  17
ATOM     17  C   UNL A   1      34.240  25.931  24.852  1.00  0.00     0.105 C 
BRANCH  17  18
ATOM     18  C   UNL A   1      33.317  26.324  25.999  1.00  0.00     0.047 C 
BRANCH  18  19
ATOM     19  C   UNL A   1      33.020  27.791  26.191  1.00  0.00    -0.029 A 
ATOM     20  C   UNL A   1      33.672  28.615  27.111  1.00  0.00     0.007 A 
ATOM     21  C   UNL A   1      32.017  28.380  25.419  1.00  0.00     0.114 A 
ATOM     22  C   UNL A   1      33.272  29.940  27.261  1.00  0.00     0.020 A 
ATOM     23  N   UNL A   1      31.620  29.668  25.530  1.00  0.00    -0.264 NA
ATOM     24  C   UNL A   1      32.250  30.414  26.459  1.00  0.00     0.111 A 
ENDBRANCH  18  19
ENDBRANCH  17  18
ENDBRANCH  15  17
ENDBRANCH   7  13
ENDBRANCH   3   6
ENDBRANCH   1   2
BRANCH   1  25
ATOM     25  C   UNL A   1      36.779  20.944  24.613  1.00  0.00     0.023 C 
BRANCH  25  26
ATOM     26  C   UNL A   1      37.710  19.855  25.137  1.00  0.00     0.023 C 
BRANCH  26  27
ATOM     27  C   UNL A   1      39.096  20.284  25.603  1.00  0.00     0.116 C 
BRANCH  27  28
ATOM     28  N   UNL A   1      40.060  19.198  25.702  1.00  0.00    -0.352 N 
ATOM     29  C   UNL A   1      41.389  19.210  26.060  1.00  0.00     0.251 C 
ATOM     30  H   UNL A   1      39.703  18.309  25.476  1.00  0.00     0.163 HD
ATOM     31  O   UNL A   1      42.035  18.165  26.033  1.00  0.00    -0.269 OA
BRANCH  29  32
ATOM     32  C   UNL A   1      42.069  20.473  26.427  1.00  0.00     0.039 A 
ATOM     33  C   UNL A   1      42.562  21.287  25.402  1.00  0.00     0.014 A 
ATOM     34  C   UNL A   1      42.218  20.870  27.758  1.00  0.00     0.014 A 
ATOM     35  C   UNL A   1      43.105  22.540  25.703  1.00  0.00     0.010 A 
ATOM     36  C   UNL A   1      42.689  22.149  28.052  1.00  0.00     0.010 A 
ATOM     37  C   UNL A   1      43.120  23.006  27.027  1.00  0.00    -0.014 A 
BRANCH  37  38
ATOM     38  C   UNL A   1      43.533  24.396  27.351  1.00  0.00     0.031 A 
ATOM     39  C   UNL A   1      42.517  25.413  27.791  1.00  0.00     0.074 A 
ATOM     40  C   UNL A   1      44.816  24.767  27.166  1.00  0.00     0.049 A 
ATOM     41  N   UNL A   1      42.676  26.693  28.023  1.00  0.00    -0.248 NA
ATOM     42  C   UNL A   1      41.136  24.939  27.969  1.00  0.00     0.031 C 
ATOM     43  C   UNL A   1      45.887  23.890  26.689  1.00  0.00     0.029 A 
ATOM     44  N   UNL A   1      45.437  25.980  27.341  1.00  0.00    -0.354 N 
ATOM     45  C   UNL A   1      41.418  27.177  28.352  1.00  0.00     0.074 A 
ATOM     46  C   UNL A   1      40.497  26.065  28.253  1.00  0.00     0.031 C 
ATOM     47  C   UNL A   1      47.032  24.588  26.626  1.00  0.00     0.029 A 
ATOM     48  C   UNL A   1      46.772  25.969  27.018  1.00  0.00     0.049 A 
ATOM     49  H   UNL A   1      44.968  26.783  27.666  1.00  0.00     0.167 HD
ATOM     50  C   UNL A   1      41.068  28.431  28.721  1.00  0.00     0.037 A 
ATOM     51  C   UNL A   1      47.686  26.960  27.026  1.00  0.00     0.037 A 
ATOM     52  C   UNL A   1      41.993  29.525  28.862  1.00  0.00     0.049 A 
ATOM     53  C   UNL A   1      47.273  28.340  27.459  1.00  0.00     0.074 A 
ATOM     54  C   UNL A   1      41.743  30.807  29.318  1.00  0.00     0.029 A 
ATOM     55  N   UNL A   1      43.343  29.466  28.552  1.00  0.00    -0.354 N 
ATOM     56  N   UNL A   1      46.093  28.767  27.835  1.00  0.00    -0.248 NA
ATOM     57  C   UNL A   1      48.317  29.375  27.472  1.00  0.00     0.031 C 
ATOM     58  C   UNL A   1      42.931  31.539  29.242  1.00  0.00     0.029 A 
ATOM     59  C   UNL A   1      43.933  30.698  28.784  1.00  0.00     0.049 A 
ATOM     60  H   UNL A   1      43.812  28.668  28.216  1.00  0.00     0.167 HD
ATOM     61  C   UNL A   1      46.254  30.111  28.144  1.00  0.00     0.074 A 
ATOM     62  C   UNL A   1      47.650  30.426  27.928  1.00  0.00     0.031 C 
ATOM     63  C   UNL A   1      45.324  31.000  28.567  1.00  0.00     0.037 A 
BRANCH  50  64
ATOM     64  C   UNL A   1      39.625  28.701  29.024  1.00  0.00     0.064 A 
ATOM     65  C   UNL A   1      38.783  29.247  28.042  1.00  0.00     0.173 A 
ATOM     66  C   UNL A   1      39.098  28.509  30.309  1.00  0.00     0.173 A 
ATOM     67  F   UNL A   1      39.242  29.459  26.800  1.00  0.00    -0.203 F 
ATOM     68  C   UNL A   1      37.472  29.606  28.343  1.00  0.00     0.198 A 
ATOM     69  C   UNL A   1      37.779  28.845  30.599  1.00  0.00     0.198 A 
ATOM     70  F   UNL A   1      39.861  27.982  31.279  1.00  0.00    -0.203 F 
ATOM     71  F   UNL A   1      36.697  30.158  27.399  1.00  0.00    -0.200 F 
ATOM     72  C   UNL A   1      36.971  29.403  29.620  1.00  0.00     0.200 A 
ATOM     73  F   UNL A   1      37.289  28.630  31.827  1.00  0.00    -0.200 F 
ATOM     74  F   UNL A   1      35.707  29.746  29.907  1.00  0.00    -0.200 F 
ENDBRANCH  50  64
BRANCH  51  75
ATOM     75  C   UNL A   1      49.088  26.671  26.628  1.00  0.00     0.064 A 
ATOM     76  C   UNL A   1      49.526  26.860  25.309  1.00  0.00     0.173 A 
ATOM     77  C   UNL A   1      50.011  26.176  27.558  1.00  0.00     0.173 A 
ATOM     78  F   UNL A   1      48.679  27.327  24.379  1.00  0.00    -0.203 F 
ATOM     79  C   UNL A   1      50.831  26.549  24.933  1.00  0.00     0.198 A 
ATOM     80  C   UNL A   1      51.324  25.890  27.187  1.00  0.00     0.198 A 
ATOM     81  F   UNL A   1      49.645  25.999  28.836  1.00  0.00    -0.203 F 
ATOM     82  F   UNL A   1      51.217  26.709  23.660  1.00  0.00    -0.200 F 
ATOM     83  C   UNL A   1      51.730  26.068  25.873  1.00  0.00     0.200 A 
ATOM     84  F   UNL A   1      52.195  25.447  28.104  1.00  0.00    -0.200 F 
ATOM     85  F   UNL A   1      52.989  25.781  25.514  1.00  0.00    -0.200 F 
ENDBRANCH  51  75
BRANCH  63  86
ATOM     86  C   UNL A   1      45.775  32.404  28.840  1.00  0.00     0.064 A 
ATOM     87  C   UNL A   1      46.194  32.780  30.125  1.00  0.00     0.173 A 
ATOM     88  C   UNL A   1      45.706  33.397  27.852  1.00  0.00     0.173 A 
ATOM     89  F   UNL A   1      46.268  31.868  31.105  1.00  0.00    -0.203 F 
ATOM     90  C   UNL A   1      46.508  34.103  30.416  1.00  0.00     0.198 A 
ATOM     91  C   UNL A   1      46.047  34.715  28.141  1.00  0.00     0.198 A 
ATOM     92  F   UNL A   1      45.323  33.083  26.605  1.00  0.00    -0.203 F 
ATOM     93  F   UNL A   1      46.870  34.447  31.660  1.00  0.00    -0.200 F 
ATOM     94  C   UNL A   1      46.436  35.070  29.424  1.00  0.00     0.200 A 
ATOM     95  F   UNL A   1      45.997  35.645  27.176  1.00  0.00    -0.200 F 
ATOM     96  F   UNL A   1      46.744  36.344  29.704  1.00  0.00    -0.200 F 
ENDBRANCH  63  86
ENDBRANCH  37  38
ENDBRANCH  29  32
ENDBRANCH  27  28
ENDBRANCH  26  27
ENDBRANCH  25  26
ENDBRANCH   1  25
TORSDOF 15
ENDMDL
MODEL 2
REMARK VINA RESULT:     -12.1      4.727     10.899
REMARK SMILES O=C(CCc1cccnc1)Nc1cccc(F)c1C(=O)NCCCCNC(=O)c1ccc(-c2c3nc(c(-c4c(F)c(F)c(F)c(F)c4F)c4ccc([nH]4)c(-c4c(F)c(F)c(F)c(F)c4F)c4nc(c(-c5c(F)c(F)c(F)c(F)c5F)c5ccc2[nH]5)C=C4)C=C3)cc1
REMARK SMILES IDX 22 1 21 2 19 3 20 4 18 6 12 7 13 8 14 9 16 10 15 11 17 12
REMARK SMILES IDX 11 13 1 14 2 15 3 17 4 18 5 19 6 20 10 21 7 22 9 23 8 24
REMARK SMILES IDX 23 25 24 26 25 27 26 28 27 29 28 31 29 32 30 33 91 34 31 35
REMARK SMILES IDX 90 36 32 37 33 38 34 39 84 40 35 41 89 42 83 43 85 44 36 45
REMARK SMILES IDX 88 46 82 47 81 48 37 50 69 51 49 52 68 53 50 54 53 55 67 56
REMARK SMILES IDX 86 57 51 58 52 59 66 61 87 62 54 63 38 64 39 65 47 66 40 67
REMARK SMILES IDX 41 68 45 69 48 70 42 71 43 72 46 73 44 74 70 75 71 76 79 77
REMARK SMILES IDX 72 78 73 79 77 80 80 81 74 82 75 83 78 84 76 85 55 86 56 87
REMARK SMILES IDX 64 88 57 89 58 90 62 91 65 92 59 93 60 94 63 95 61 96
REMARK H PARENT 21 5 11 16 26 30 85 49 53 60
REMARK Flexibility Score: inf
ROOT
ATOM      1  C   UNL A   1      44.242  23.925  29.253  1.00  0.00     0.116 C 
ENDROOT
BRANCH   1   2
ATOM      2  N   UNL A   1      45.451  23.680  28.485  1.00  0.00    -0.352 N 
ATOM      3  C   UNL A   1      46.164  24.496  27.628  1.00  0.00     0.256 C 
ATOM      4  O   UNL A   1      47.252  24.078  27.221  1.00  0.00    -0.269 OA
ATOM      5  H   UNL A   1      45.827  22.777  28.595  1.00  0.00     0.163 HD
BRANCH   3   6
ATOM      6  C   UNL A   1      45.656  25.789  27.081  1.00  0.00     0.099 A 
ATOM      7  C   UNL A   1      45.069  25.834  25.787  1.00  0.00     0.056 A 
ATOM      8  C   UNL A   1      44.423  27.012  25.377  1.00  0.00     0.027 A 
ATOM      9  C   UNL A   1      44.434  28.158  26.170  1.00  0.00     0.005 A 
ATOM     10  C   UNL A   1      45.774  26.989  27.786  1.00  0.00     0.138 A 
ATOM     11  C   UNL A   1      45.147  28.157  27.358  1.00  0.00     0.040 A 
ATOM     12  F   UNL A   1      46.542  27.082  28.881  1.00  0.00    -0.206 F 
BRANCH   7  13
ATOM     13  N   UNL A   1      45.155  24.711  24.913  1.00  0.00    -0.325 N 
ATOM     14  O   UNL A   1      42.992  23.896  25.022  1.00  0.00    -0.275 OA
ATOM     15  C   UNL A   1      44.156  23.806  24.624  1.00  0.00     0.224 C 
ATOM     16  H   UNL A   1      46.023  24.566  24.469  1.00  0.00     0.169 HD
BRANCH  15  17
ATOM     17  C   UNL A   1      44.529  22.580  23.797  1.00  0.00     0.105 C 
BRANCH  17  18
ATOM     18  C   UNL A   1      45.312  21.445  24.448  1.00  0.00     0.047 C 
BRANCH  18  19
ATOM     19  C   UNL A   1      44.528  20.307  25.052  1.00  0.00    -0.029 A 
ATOM     20  C   UNL A   1      43.214  20.411  25.516  1.00  0.00     0.007 A 
ATOM     21  C   UNL A   1      45.143  19.061  25.182  1.00  0.00     0.114 A 
ATOM     22  C   UNL A   1      42.604  19.318  26.124  1.00  0.00     0.020 A 
ATOM     23  N   UNL A   1      44.569  17.977  25.751  1.00  0.00    -0.264 NA
ATOM     24  C   UNL A   1      43.316  18.137  26.220  1.00  0.00     0.111 A 
ENDBRANCH  18  19
ENDBRANCH  17  18
ENDBRANCH  15  17
ENDBRANCH   7  13
ENDBRANCH   3   6
ENDBRANCH   1   2
BRANCH   1  25
ATOM     25  C   UNL A   1      43.172  22.838  29.175  1.00  0.00     0.023 C 
BRANCH  25  26
ATOM     26  C   UNL A   1      42.246  22.831  27.962  1.00  0.00     0.023 C 
BRANCH  26  27
ATOM     27  C   UNL A   1      40.957  22.024  28.071  1.00  0.00     0.116 C 
BRANCH  27  28
ATOM     28  N   UNL A   1      40.042  22.200  26.953  1.00  0.00    -0.352 N 
ATOM     29  C   UNL A   1      39.385  23.322  26.502  1.00  0.00     0.251 C 
ATOM     30  H   UNL A   1      39.863  21.382  26.435  1.00  0.00     0.163 HD
ATOM     31  O   UNL A   1      38.613  23.232  25.550  1.00  0.00    -0.269 OA
BRANCH  29  32
ATOM     32  C   UNL A   1      39.552  24.629  27.179  1.00  0.00     0.039 A 
ATOM     33  C   UNL A   1      38.920  24.827  28.411  1.00  0.00     0.014 A 
ATOM     34  C   UNL A   1      40.326  25.651  26.626  1.00  0.00     0.014 A 
ATOM     35  C   UNL A   1      39.149  26.001  29.133  1.00  0.00     0.010 A 
ATOM     36  C   UNL A   1      40.615  26.789  27.379  1.00  0.00     0.010 A 
ATOM     37  C   UNL A   1      40.045  26.967  28.649  1.00  0.00    -0.014 A 
BRANCH  37  38
ATOM     38  C   UNL A   1      40.435  28.141  29.474  1.00  0.00     0.031 A 
ATOM     39  C   UNL A   1      41.767  28.178  30.170  1.00  0.00     0.074 A 
ATOM     40  C   UNL A   1      39.550  29.140  29.667  1.00  0.00     0.049 A 
ATOM     41  N   UNL A   1      42.238  29.071  31.006  1.00  0.00    -0.248 NA
ATOM     42  C   UNL A   1      42.681  27.054  29.917  1.00  0.00     0.031 C 
ATOM     43  C   UNL A   1      38.204  29.196  29.094  1.00  0.00     0.029 A 
ATOM     44  N   UNL A   1      39.640  30.292  30.410  1.00  0.00    -0.354 N 
ATOM     45  C   UNL A   1      43.487  28.606  31.391  1.00  0.00     0.074 A 
ATOM     46  C   UNL A   1      43.689  27.334  30.730  1.00  0.00     0.031 C 
ATOM     47  C   UNL A   1      37.602  30.328  29.492  1.00  0.00     0.029 A 
ATOM     48  C   UNL A   1      38.502  31.060  30.378  1.00  0.00     0.049 A 
ATOM     49  H   UNL A   1      40.445  30.543  30.918  1.00  0.00     0.167 HD
ATOM     50  C   UNL A   1      44.392  29.198  32.207  1.00  0.00     0.037 A 
ATOM     51  C   UNL A   1      38.207  32.219  31.000  1.00  0.00     0.037 A 
ATOM     52  C   UNL A   1      44.208  30.483  32.827  1.00  0.00     0.049 A 
ATOM     53  C   UNL A   1      39.237  32.864  31.886  1.00  0.00     0.074 A 
ATOM     54  C   UNL A   1      45.106  31.201  33.596  1.00  0.00     0.029 A 
ATOM     55  N   UNL A   1      43.051  31.243  32.748  1.00  0.00    -0.354 N 
ATOM     56  N   UNL A   1      40.443  32.447  32.186  1.00  0.00    -0.248 NA
ATOM     57  C   UNL A   1      38.870  34.139  32.519  1.00  0.00     0.031 C 
ATOM     58  C   UNL A   1      44.479  32.376  34.021  1.00  0.00     0.029 A 
ATOM     59  C   UNL A   1      43.205  32.411  33.476  1.00  0.00     0.049 A 
ATOM     60  H   UNL A   1      42.240  30.989  32.250  1.00  0.00     0.167 HD
ATOM     61  C   UNL A   1      40.983  33.412  33.024  1.00  0.00     0.074 A 
ATOM     62  C   UNL A   1      39.981  34.445  33.174  1.00  0.00     0.031 C 
ATOM     63  C   UNL A   1      42.201  33.434  33.616  1.00  0.00     0.037 A 
BRANCH  50  64
ATOM     64  C   UNL A   1      45.680  28.479  32.470  1.00  0.00     0.064 A 
ATOM     65  C   UNL A   1      46.780  28.655  31.616  1.00  0.00     0.173 A 
ATOM     66  C   UNL A   1      45.798  27.546  33.510  1.00  0.00     0.173 A 
ATOM     67  F   UNL A   1      46.714  29.529  30.601  1.00  0.00    -0.203 F 
ATOM     68  C   UNL A   1      47.944  27.910  31.785  1.00  0.00     0.198 A 
ATOM     69  C   UNL A   1      46.972  26.821  33.692  1.00  0.00     0.198 A 
ATOM     70  F   UNL A   1      44.777  27.348  34.358  1.00  0.00    -0.203 F 
ATOM     71  F   UNL A   1      48.968  28.069  30.936  1.00  0.00    -0.200 F 
ATOM     72  C   UNL A   1      48.040  26.996  32.823  1.00  0.00     0.200 A 
ATOM     73  F   UNL A   1      47.072  25.952  34.706  1.00  0.00    -0.200 F 
ATOM     74  F   UNL A   1      49.162  26.281  32.986  1.00  0.00    -0.200 F 
ENDBRANCH  50  64
BRANCH  51  75
ATOM     75  C   UNL A   1      36.880  32.851  30.786  1.00  0.00     0.064 A 
ATOM     76  C   UNL A   1      36.609  33.612  29.639  1.00  0.00     0.173 A 
ATOM     77  C   UNL A   1      35.861  32.724  31.740  1.00  0.00     0.173 A 
ATOM     78  F   UNL A   1      37.552  33.768  28.698  1.00  0.00    -0.203 F 
ATOM     79  C   UNL A   1      35.376  34.236  29.464  1.00  0.00     0.198 A 
ATOM     80  C   UNL A   1      34.619  33.326  31.551  1.00  0.00     0.198 A 
ATOM     81  F   UNL A   1      36.065  31.988  32.843  1.00  0.00    -0.203 F 
ATOM     82  F   UNL A   1      35.153  34.983  28.374  1.00  0.00    -0.200 F 
ATOM     83  C   UNL A   1      34.379  34.088  30.418  1.00  0.00     0.200 A 
ATOM     84  F   UNL A   1      33.652  33.163  32.465  1.00  0.00    -0.200 F 
ATOM     85  F   UNL A   1      33.189  34.678  30.243  1.00  0.00    -0.200 F 
ENDBRANCH  51  75
BRANCH  63  86
ATOM     86  C   UNL A   1      42.537  34.615  34.477  1.00  0.00     0.064 A 
ATOM     87  C   UNL A   1      42.346  34.561  35.866  1.00  0.00     0.173 A 
ATOM     88  C   UNL A   1      42.961  35.829  33.917  1.00  0.00     0.173 A 
ATOM     89  F   UNL A   1      41.933  33.425  36.447  1.00  0.00    -0.203 F 
ATOM     90  C   UNL A   1      42.549  35.685  36.661  1.00  0.00     0.198 A 
ATOM     91  C   UNL A   1      43.188  36.944  34.719  1.00  0.00     0.198 A 
ATOM     92  F   UNL A   1      43.169  35.926  32.596  1.00  0.00    -0.203 F 
ATOM     93  F   UNL A   1      42.325  35.621  37.980  1.00  0.00    -0.200 F 
ATOM     94  C   UNL A   1      42.971  36.874  36.088  1.00  0.00     0.200 A 
ATOM     95  F   UNL A   1      43.616  38.088  34.167  1.00  0.00    -0.200 F 
ATOM     96  F   UNL A   1      43.171  37.956  36.854  1.00  0.00    -0.200 F 
ENDBRANCH  63  86
ENDBRANCH  37  38
ENDBRANCH  29  32
ENDBRANCH  27  28
ENDBRANCH  26  27
ENDBRANCH  25  26
ENDBRANCH   1  25
TORSDOF 15
ENDMDL
MODEL 3
REMARK VINA RESULT:     -11.7      5.054     10.312
REMARK SMILES O=C(CCc1cccnc1)Nc1cccc(F)c1C(=O)NCCCCNC(=O)c1ccc(-c2c3nc(c(-c4c(F)c(F)c(F)c(F)c4F)c4ccc([nH]4)c(-c4c(F)c(F)c(F)c(F)c4F)c4nc(c(-c5c(F)c(F)c(F)c(F)c5F)c5ccc2[nH]5)C=C4)C=C3)cc1
REMARK SMILES IDX 22 1 21 2 19 3 20 4 18 6 12 7 13 8 14 9 16 10 15 11 17 12
REMARK SMILES IDX 11 13 1 14 2 15 3 17 4 18 5 19 6 20 10 21 7 22 9 23 8 24
REMARK SMILES IDX 23 25 24 26 25 27 26 28 27 29 28 31 29 32 30 33 91 34 31 35
REMARK SMILES IDX 90 36 32 37 33 38 34 39 84 40 35 41 89 42 83 43 85 44 36 45
REMARK SMILES IDX 88 46 82 47 81 48 37 50 69 51 49 52 68 53 50 54 53 55 67 56
REMARK SMILES IDX 86 57 51 58 52 59 66 61 87 62 54 63 38 64 39 65 47 66 40 67
REMARK SMILES IDX 41 68 45 69 48 70 42 71 43 72 46 73 44 74 70 75 71 76 79 77
REMARK SMILES IDX 72 78 73 79 77 80 80 81 74 82 75 83 78 84 76 85 55 86 56 87
REMARK SMILES IDX 64 88 57 89 58 90 62 91 65 92 59 93 60 94 63 95 61 96
REMARK H PARENT 21 5 11 16 26 30 85 49 53 60
REMARK Flexibility Score: inf
ROOT
ATOM      1  C   UNL A   1      36.349  33.205  31.539  1.00  0.00     0.116 C 
ENDROOT
BRANCH   1   2
ATOM      2  N   UNL A   1      36.565  31.816  31.905  1.00  0.00    -0.352 N 
ATOM      3  C   UNL A   1      37.067  31.248  33.060  1.00  0.00     0.256 C 
ATOM      4  O   UNL A   1      37.000  30.019  33.163  1.00  0.00    -0.269 OA
ATOM      5  H   UNL A   1      36.310  31.167  31.210  1.00  0.00     0.163 HD
BRANCH   3   6
ATOM      6  C   UNL A   1      37.777  32.008  34.131  1.00  0.00     0.099 A 
ATOM      7  C   UNL A   1      39.140  31.728  34.421  1.00  0.00     0.056 A 
ATOM      8  C   UNL A   1      39.839  32.585  35.288  1.00  0.00     0.027 A 
ATOM      9  C   UNL A   1      39.198  33.636  35.939  1.00  0.00     0.005 A 
ATOM     10  C   UNL A   1      37.131  32.976  34.905  1.00  0.00     0.138 A 
ATOM     11  C   UNL A   1      37.831  33.805  35.779  1.00  0.00     0.040 A 
ATOM     12  F   UNL A   1      35.798  33.113  34.880  1.00  0.00    -0.206 F 
BRANCH   7  13
ATOM     13  N   UNL A   1      39.779  30.584  33.859  1.00  0.00    -0.325 N 
ATOM     14  O   UNL A   1      40.260  29.362  35.764  1.00  0.00    -0.275 OA
ATOM     15  C   UNL A   1      40.327  29.520  34.543  1.00  0.00     0.224 C 
ATOM     16  H   UNL A   1      39.835  30.552  32.876  1.00  0.00     0.169 HD
BRANCH  15  17
ATOM     17  C   UNL A   1      41.117  28.493  33.738  1.00  0.00     0.105 C 
BRANCH  17  18
ATOM     18  C   UNL A   1      42.487  28.042  34.235  1.00  0.00     0.047 C 
BRANCH  18  19
ATOM     19  C   UNL A   1      42.671  26.580  34.557  1.00  0.00    -0.029 A 
ATOM     20  C   UNL A   1      43.807  25.836  34.228  1.00  0.00     0.007 A 
ATOM     21  C   UNL A   1      41.643  25.900  35.211  1.00  0.00     0.114 A 
ATOM     22  C   UNL A   1      43.848  24.473  34.504  1.00  0.00     0.020 A 
ATOM     23  N   UNL A   1      41.662  24.582  35.510  1.00  0.00    -0.264 NA
ATOM     24  C   UNL A   1      42.762  23.897  35.136  1.00  0.00     0.111 A 
ENDBRANCH  18  19
ENDBRANCH  17  18
ENDBRANCH  15  17
ENDBRANCH   7  13
ENDBRANCH   3   6
ENDBRANCH   1   2
BRANCH   1  25
ATOM     25  C   UNL A   1      34.944  33.557  31.059  1.00  0.00     0.023 C 
BRANCH  25  26
ATOM     26  C   UNL A   1      34.782  34.064  29.629  1.00  0.00     0.023 C 
BRANCH  26  27
ATOM     27  C   UNL A   1      35.331  33.189  28.509  1.00  0.00     0.116 C 
BRANCH  27  28
ATOM     28  N   UNL A   1      34.413  32.161  28.044  1.00  0.00    -0.352 N 
ATOM     29  C   UNL A   1      34.593  30.806  27.879  1.00  0.00     0.251 C 
ATOM     30  H   UNL A   1      33.514  32.488  27.808  1.00  0.00     0.163 HD
ATOM     31  O   UNL A   1      33.679  30.122  27.423  1.00  0.00    -0.269 OA
BRANCH  29  32
ATOM     32  C   UNL A   1      35.892  30.165  28.191  1.00  0.00     0.039 A 
ATOM     33  C   UNL A   1      36.916  30.237  27.242  1.00  0.00     0.014 A 
ATOM     34  C   UNL A   1      36.116  29.509  29.403  1.00  0.00     0.014 A 
ATOM     35  C   UNL A   1      38.189  29.748  27.548  1.00  0.00     0.010 A 
ATOM     36  C   UNL A   1      37.403  29.089  29.737  1.00  0.00     0.010 A 
ATOM     37  C   UNL A   1      38.458  29.221  28.821  1.00  0.00    -0.014 A 
BRANCH  37  38
ATOM     38  C   UNL A   1      39.840  28.852  29.227  1.00  0.00     0.031 A 
ATOM     39  C   UNL A   1      40.677  29.800  30.039  1.00  0.00     0.074 A 
ATOM     40  C   UNL A   1      40.372  27.693  28.790  1.00  0.00     0.049 A 
ATOM     41  N   UNL A   1      41.931  29.691  30.402  1.00  0.00    -0.248 NA
ATOM     42  C   UNL A   1      40.033  31.048  30.478  1.00  0.00     0.031 C 
ATOM     43  C   UNL A   1      39.683  26.712  27.949  1.00  0.00     0.029 A 
ATOM     44  N   UNL A   1      41.619  27.148  28.977  1.00  0.00    -0.354 N 
ATOM     45  C   UNL A   1      42.228  30.858  31.091  1.00  0.00     0.074 A 
ATOM     46  C   UNL A   1      41.039  31.682  31.064  1.00  0.00     0.031 C 
ATOM     47  C   UNL A   1      40.508  25.681  27.708  1.00  0.00     0.029 A 
ATOM     48  C   UNL A   1      41.796  25.943  28.342  1.00  0.00     0.049 A 
ATOM     49  H   UNL A   1      42.320  27.581  29.516  1.00  0.00     0.167 HD
ATOM     50  C   UNL A   1      43.384  31.202  31.707  1.00  0.00     0.037 A 
ATOM     51  C   UNL A   1      42.876  25.140  28.267  1.00  0.00     0.037 A 
ATOM     52  C   UNL A   1      44.552  30.363  31.771  1.00  0.00     0.049 A 
ATOM     53  C   UNL A   1      44.142  25.538  28.976  1.00  0.00     0.074 A 
ATOM     54  C   UNL A   1      45.736  30.591  32.449  1.00  0.00     0.029 A 
ATOM     55  N   UNL A   1      44.682  29.137  31.137  1.00  0.00    -0.354 N 
ATOM     56  N   UNL A   1      44.386  26.614  29.683  1.00  0.00    -0.248 NA
ATOM     57  C   UNL A   1      45.280  24.613  28.880  1.00  0.00     0.031 C 
ATOM     58  C   UNL A   1      46.601  29.524  32.191  1.00  0.00     0.029 A 
ATOM     59  C   UNL A   1      45.937  28.608  31.390  1.00  0.00     0.049 A 
ATOM     60  H   UNL A   1      43.986  28.707  30.589  1.00  0.00     0.167 HD
ATOM     61  C   UNL A   1      45.695  26.488  30.130  1.00  0.00     0.074 A 
ATOM     62  C   UNL A   1      46.189  25.224  29.628  1.00  0.00     0.031 C 
ATOM     63  C   UNL A   1      46.418  27.347  30.886  1.00  0.00     0.037 A 
BRANCH  50  64
ATOM     64  C   UNL A   1      43.452  32.537  32.385  1.00  0.00     0.064 A 
ATOM     65  C   UNL A   1      43.186  32.651  33.758  1.00  0.00     0.173 A 
ATOM     66  C   UNL A   1      43.687  33.714  31.660  1.00  0.00     0.173 A 
ATOM     67  F   UNL A   1      42.947  31.555  34.494  1.00  0.00    -0.203 F 
ATOM     68  C   UNL A   1      43.137  33.897  34.377  1.00  0.00     0.198 A 
ATOM     69  C   UNL A   1      43.662  34.957  32.287  1.00  0.00     0.198 A 
ATOM     70  F   UNL A   1      43.954  33.656  30.347  1.00  0.00    -0.203 F 
ATOM     71  F   UNL A   1      42.846  33.985  35.682  1.00  0.00    -0.200 F 
ATOM     72  C   UNL A   1      43.376  35.048  33.641  1.00  0.00     0.200 A 
ATOM     73  F   UNL A   1      43.912  36.067  31.581  1.00  0.00    -0.200 F 
ATOM     74  F   UNL A   1      43.330  36.248  34.239  1.00  0.00    -0.200 F 
ENDBRANCH  50  64
BRANCH  51  75
ATOM     75  C   UNL A   1      42.796  23.868  27.504  1.00  0.00     0.064 A 
ATOM     76  C   UNL A   1      43.191  23.796  26.160  1.00  0.00     0.173 A 
ATOM     77  C   UNL A   1      42.298  22.702  28.102  1.00  0.00     0.173 A 
ATOM     78  F   UNL A   1      43.670  24.885  25.541  1.00  0.00    -0.203 F 
ATOM     79  C   UNL A   1      43.075  22.610  25.438  1.00  0.00     0.198 A 
ATOM     80  C   UNL A   1      42.207  21.510  27.386  1.00  0.00     0.198 A 
ATOM     81  F   UNL A   1      41.928  22.717  29.390  1.00  0.00    -0.203 F 
ATOM     82  F   UNL A   1      43.430  22.575  24.147  1.00  0.00    -0.200 F 
ATOM     83  C   UNL A   1      42.588  21.466  26.053  1.00  0.00     0.200 A 
ATOM     84  F   UNL A   1      41.756  20.402  27.991  1.00  0.00    -0.200 F 
ATOM     85  F   UNL A   1      42.488  20.322  25.363  1.00  0.00    -0.200 F 
ENDBRANCH  51  75
BRANCH  63  86
ATOM     86  C   UNL A   1      47.823  26.957  31.236  1.00  0.00     0.064 A 
ATOM     87  C   UNL A   1      48.081  26.154  32.357  1.00  0.00     0.173 A 
ATOM     88  C   UNL A   1      48.919  27.451  30.513  1.00  0.00     0.173 A 
ATOM     89  F   UNL A   1      47.066  25.664  33.085  1.00  0.00    -0.203 F 
ATOM     90  C   UNL A   1      49.384  25.876  32.754  1.00  0.00     0.198 A 
ATOM     91  C   UNL A   1      50.222  27.149  30.899  1.00  0.00     0.198 A 
ATOM     92  F   UNL A   1      48.723  28.213  29.427  1.00  0.00    -0.203 F 
ATOM     93  F   UNL A   1      49.608  25.138  33.850  1.00  0.00    -0.200 F 
ATOM     94  C   UNL A   1      50.454  26.373  32.025  1.00  0.00     0.200 A 
ATOM     95  F   UNL A   1      51.255  27.613  30.181  1.00  0.00    -0.200 F 
ATOM     96  F   UNL A   1      51.710  26.102  32.405  1.00  0.00    -0.200 F 
ENDBRANCH  63  86
ENDBRANCH  37  38
ENDBRANCH  29  32
ENDBRANCH  27  28
ENDBRANCH  26  27
ENDBRANCH  25  26
ENDBRANCH   1  25
TORSDOF 15
ENDMDL
