MODEL 1
REMARK VINA RESULT:     -10.4      0.000      0.000
REMARK SMILES C[C@H]1CCC[C@H](C(C)(C)C(=O)NCCCCNC(=O)c2ccc(-c3c4nc(c(-c5c(F)c(F)c(F)c(F)c5F)c5ccc([nH]5)c(-c5c(F)c(F)c(F)c(F)c5F)c5nc(c(-c6c(F)c(F)c(F)c(F)c6F)c6ccc3[nH]6)C=C5)C=C4)cc2)C1
REMARK SMILES IDX 15 1 14 2 13 3 12 4 10 5 11 6 7 8 8 9 9 10 6 11 1 12 2 13
REMARK SMILES IDX 3 14 83 15 4 16 5 17 16 18 17 19 18 20 19 22 20 23 21 24
REMARK SMILES IDX 82 25 22 26 81 27 23 28 24 29 25 30 75 31 26 32 80 33 74 34
REMARK SMILES IDX 76 35 27 36 79 37 73 38 72 39 28 41 60 42 40 43 59 44 41 45
REMARK SMILES IDX 44 46 58 47 77 48 42 49 43 50 57 52 78 53 45 54 29 55 30 56
REMARK SMILES IDX 38 57 31 58 32 59 36 60 39 61 33 62 34 63 37 64 35 65 61 66
REMARK SMILES IDX 62 67 70 68 63 69 64 70 68 71 71 72 65 73 66 74 69 75 67 76
REMARK SMILES IDX 46 77 47 78 55 79 48 80 49 81 53 82 56 83 50 84 51 85 54 86
REMARK SMILES IDX 52 87
REMARK H PARENT 12 7 17 21 76 40 44 51
REMARK Flexibility Score: inf
ROOT
ATOM      1  C   UNL A   1      35.022  33.708  28.414  1.00  0.00     0.023 C 
ENDROOT
BRANCH   1   2
ATOM      2  C   UNL A   1      34.621  35.037  29.066  1.00  0.00     0.023 C 
BRANCH   2   3
ATOM      3  C   UNL A   1      33.674  34.896  30.255  1.00  0.00     0.116 C 
BRANCH   3   4
ATOM      4  N   UNL A   1      34.077  35.769  31.334  1.00  0.00    -0.356 N 
ATOM      5  C   UNL A   1      34.638  35.577  32.551  1.00  0.00     0.225 C 
ATOM      6  O   UNL A   1      34.646  36.605  33.227  1.00  0.00    -0.275 OA
ATOM      7  H   UNL A   1      33.905  36.718  31.140  1.00  0.00     0.163 HD
BRANCH   5   8
ATOM      8  C   UNL A   1      35.261  34.238  33.015  1.00  0.00     0.046 C 
ATOM      9  C   UNL A   1      34.156  33.162  32.881  1.00  0.00     0.022 C 
ATOM     10  C   UNL A   1      35.701  34.337  34.494  1.00  0.00     0.022 C 
BRANCH   8  11
ATOM     11  C   UNL A   1      36.526  33.733  32.183  1.00  0.00     0.004 C 
ATOM     12  C   UNL A   1      37.861  30.248  33.359  1.00  0.00     0.007 C 
ATOM     13  C   UNL A   1      37.557  31.745  33.447  1.00  0.00    -0.014 C 
ATOM     14  C   UNL A   1      38.852  32.539  33.676  1.00  0.00     0.003 C 
ATOM     15  C   UNL A   1      36.828  32.219  32.193  1.00  0.00     0.008 C 
ATOM     16  C   UNL A   1      38.756  34.056  33.484  1.00  0.00     0.001 C 
ATOM     17  C   UNL A   1      37.855  34.500  32.336  1.00  0.00     0.005 C 
ENDBRANCH   8  11
ENDBRANCH   5   8
ENDBRANCH   3   4
ENDBRANCH   2   3
ENDBRANCH   1   2
BRANCH   1  18
ATOM     18  C   UNL A   1      34.649  32.462  29.207  1.00  0.00     0.116 C 
BRANCH  18  19
ATOM     19  N   UNL A   1      33.994  31.452  28.391  1.00  0.00    -0.352 N 
ATOM     20  C   UNL A   1      34.520  30.308  27.851  1.00  0.00     0.251 C 
ATOM     21  H   UNL A   1      33.042  31.613  28.200  1.00  0.00     0.163 HD
ATOM     22  O   UNL A   1      33.856  29.629  27.072  1.00  0.00    -0.269 OA
BRANCH  20  23
ATOM     23  C   UNL A   1      35.899  29.912  28.189  1.00  0.00     0.039 A 
ATOM     24  C   UNL A   1      36.906  30.118  27.245  1.00  0.00     0.014 A 
ATOM     25  C   UNL A   1      36.197  29.350  29.434  1.00  0.00     0.014 A 
ATOM     26  C   UNL A   1      38.224  29.792  27.563  1.00  0.00     0.010 A 
ATOM     27  C   UNL A   1      37.521  29.108  29.781  1.00  0.00     0.010 A 
ATOM     28  C   UNL A   1      38.544  29.303  28.841  1.00  0.00    -0.014 A 
BRANCH  28  29
ATOM     29  C   UNL A   1      39.938  28.942  29.193  1.00  0.00     0.031 A 
ATOM     30  C   UNL A   1      40.760  29.874  30.042  1.00  0.00     0.074 A 
ATOM     31  C   UNL A   1      40.477  27.802  28.718  1.00  0.00     0.049 A 
ATOM     32  N   UNL A   1      42.007  29.766  30.425  1.00  0.00    -0.248 NA
ATOM     33  C   UNL A   1      40.099  31.109  30.495  1.00  0.00     0.031 C 
ATOM     34  C   UNL A   1      39.796  26.842  27.849  1.00  0.00     0.029 A 
ATOM     35  N   UNL A   1      41.724  27.262  28.898  1.00  0.00    -0.354 N 
ATOM     36  C   UNL A   1      42.279  30.921  31.148  1.00  0.00     0.074 A 
ATOM     37  C   UNL A   1      41.094  31.746  31.093  1.00  0.00     0.031 C 
ATOM     38  C   UNL A   1      40.624  25.816  27.595  1.00  0.00     0.029 A 
ATOM     39  C   UNL A   1      41.904  26.064  28.251  1.00  0.00     0.049 A 
ATOM     40  H   UNL A   1      42.425  27.691  29.440  1.00  0.00     0.167 HD
ATOM     41  C   UNL A   1      43.406  31.249  31.823  1.00  0.00     0.037 A 
ATOM     42  C   UNL A   1      42.982  25.260  28.193  1.00  0.00     0.037 A 
ATOM     43  C   UNL A   1      44.575  30.413  31.892  1.00  0.00     0.049 A 
ATOM     44  C   UNL A   1      44.224  25.650  28.950  1.00  0.00     0.074 A 
ATOM     45  C   UNL A   1      45.753  30.629  32.584  1.00  0.00     0.029 A 
ATOM     46  N   UNL A   1      44.712  29.195  31.239  1.00  0.00    -0.354 N 
ATOM     47  N   UNL A   1      44.450  26.713  29.685  1.00  0.00    -0.248 NA
ATOM     48  C   UNL A   1      45.357  24.718  28.881  1.00  0.00     0.031 C 
ATOM     49  C   UNL A   1      46.623  29.570  32.308  1.00  0.00     0.029 A 
ATOM     50  C   UNL A   1      45.963  28.658  31.500  1.00  0.00     0.049 A 
ATOM     51  H   UNL A   1      44.024  28.776  30.675  1.00  0.00     0.167 HD
ATOM     52  C   UNL A   1      45.732  26.559  30.198  1.00  0.00     0.074 A 
ATOM     53  C   UNL A   1      46.228  25.292  29.700  1.00  0.00     0.031 C 
ATOM     54  C   UNL A   1      46.434  27.388  31.009  1.00  0.00     0.037 A 
BRANCH  41  55
ATOM     55  C   UNL A   1      43.425  32.570  32.539  1.00  0.00     0.064 A 
ATOM     56  C   UNL A   1      43.995  33.716  31.960  1.00  0.00     0.173 A 
ATOM     57  C   UNL A   1      42.849  32.700  33.812  1.00  0.00     0.173 A 
ATOM     58  F   UNL A   1      44.573  33.646  30.751  1.00  0.00    -0.203 F 
ATOM     59  C   UNL A   1      44.019  34.929  32.642  1.00  0.00     0.198 A 
ATOM     60  C   UNL A   1      42.842  33.925  34.476  1.00  0.00     0.198 A 
ATOM     61  F   UNL A   1      42.287  31.640  34.411  1.00  0.00    -0.203 F 
ATOM     62  F   UNL A   1      44.622  35.993  32.094  1.00  0.00    -0.200 F 
ATOM     63  C   UNL A   1      43.436  35.035  33.895  1.00  0.00     0.200 A 
ATOM     64  F   UNL A   1      42.264  34.028  35.680  1.00  0.00    -0.200 F 
ATOM     65  F   UNL A   1      43.452  36.206  34.547  1.00  0.00    -0.200 F 
ENDBRANCH  41  55
BRANCH  42  66
ATOM     66  C   UNL A   1      42.929  23.991  27.419  1.00  0.00     0.064 A 
ATOM     67  C   UNL A   1      42.519  22.795  28.024  1.00  0.00     0.173 A 
ATOM     68  C   UNL A   1      43.299  23.944  26.068  1.00  0.00     0.173 A 
ATOM     69  F   UNL A   1      42.170  22.784  29.319  1.00  0.00    -0.203 F 
ATOM     70  C   UNL A   1      42.512  21.594  27.316  1.00  0.00     0.198 A 
ATOM     71  C   UNL A   1      43.261  22.750  25.351  1.00  0.00     0.198 A 
ATOM     72  F   UNL A   1      43.691  25.062  25.439  1.00  0.00    -0.203 F 
ATOM     73  F   UNL A   1      42.172  20.456  27.936  1.00  0.00    -0.200 F 
ATOM     74  C   UNL A   1      42.878  21.573  25.979  1.00  0.00     0.200 A 
ATOM     75  F   UNL A   1      43.600  22.737  24.055  1.00  0.00    -0.200 F 
ATOM     76  F   UNL A   1      42.872  20.419  25.298  1.00  0.00    -0.200 F 
ENDBRANCH  42  66
BRANCH  54  77
ATOM     77  C   UNL A   1      47.789  26.921  31.463  1.00  0.00     0.064 A 
ATOM     78  C   UNL A   1      47.953  26.089  32.581  1.00  0.00     0.173 A 
ATOM     79  C   UNL A   1      48.939  27.299  30.754  1.00  0.00     0.173 A 
ATOM     80  F   UNL A   1      46.888  25.707  33.302  1.00  0.00    -0.203 F 
ATOM     81  C   UNL A   1      49.222  25.690  32.996  1.00  0.00     0.198 A 
ATOM     82  C   UNL A   1      50.202  26.867  31.148  1.00  0.00     0.198 A 
ATOM     83  F   UNL A   1      48.839  28.084  29.671  1.00  0.00    -0.203 F 
ATOM     84  F   UNL A   1      49.360  24.951  34.105  1.00  0.00    -0.200 F 
ATOM     85  C   UNL A   1      50.344  26.073  32.276  1.00  0.00     0.200 A 
ATOM     86  F   UNL A   1      51.282  27.223  30.440  1.00  0.00    -0.200 F 
ATOM     87  F   UNL A   1      51.562  25.686  32.676  1.00  0.00    -0.200 F 
ENDBRANCH  54  77
ENDBRANCH  28  29
ENDBRANCH  20  23
ENDBRANCH  18  19
ENDBRANCH   1  18
TORSDOF 12
ENDMDL
MODEL 2
REMARK VINA RESULT:     -10.3      3.767     10.001
REMARK SMILES C[C@H]1CCC[C@H](C(C)(C)C(=O)NCCCCNC(=O)c2ccc(-c3c4nc(c(-c5c(F)c(F)c(F)c(F)c5F)c5ccc([nH]5)c(-c5c(F)c(F)c(F)c(F)c5F)c5nc(c(-c6c(F)c(F)c(F)c(F)c6F)c6ccc3[nH]6)C=C5)C=C4)cc2)C1
REMARK SMILES IDX 15 1 14 2 13 3 12 4 10 5 11 6 7 8 8 9 9 10 6 11 1 12 2 13
REMARK SMILES IDX 3 14 83 15 4 16 5 17 16 18 17 19 18 20 19 22 20 23 21 24
REMARK SMILES IDX 82 25 22 26 81 27 23 28 24 29 25 30 75 31 26 32 80 33 74 34
REMARK SMILES IDX 76 35 27 36 79 37 73 38 72 39 28 41 60 42 40 43 59 44 41 45
REMARK SMILES IDX 44 46 58 47 77 48 42 49 43 50 57 52 78 53 45 54 29 55 30 56
REMARK SMILES IDX 38 57 31 58 32 59 36 60 39 61 33 62 34 63 37 64 35 65 61 66
REMARK SMILES IDX 62 67 70 68 63 69 64 70 68 71 71 72 65 73 66 74 69 75 67 76
REMARK SMILES IDX 46 77 47 78 55 79 48 80 49 81 53 82 56 83 50 84 51 85 54 86
REMARK SMILES IDX 52 87
REMARK H PARENT 12 7 17 21 76 40 44 51
REMARK Flexibility Score: inf
ROOT
ATOM      1  C   UNL A   1      31.317  32.335  26.640  1.00  0.00     0.023 C 
ENDROOT
BRANCH   1   2
ATOM      2  C   UNL A   1      31.508  30.927  26.064  1.00  0.00     0.023 C 
BRANCH   2   3
ATOM      3  C   UNL A   1      32.357  29.999  26.932  1.00  0.00     0.116 C 
BRANCH   3   4
ATOM      4  N   UNL A   1      31.659  28.761  27.188  1.00  0.00    -0.356 N 
ATOM      5  C   UNL A   1      31.675  27.529  26.628  1.00  0.00     0.225 C 
ATOM      6  O   UNL A   1      30.773  26.810  27.058  1.00  0.00    -0.275 OA
ATOM      7  H   UNL A   1      31.029  28.828  27.942  1.00  0.00     0.163 HD
BRANCH   5   8
ATOM      8  C   UNL A   1      32.745  27.052  25.616  1.00  0.00     0.046 C 
ATOM      9  C   UNL A   1      33.159  25.623  26.045  1.00  0.00     0.022 C 
ATOM     10  C   UNL A   1      33.981  27.978  25.666  1.00  0.00     0.022 C 
BRANCH   8  11
ATOM     11  C   UNL A   1      32.277  26.978  24.091  1.00  0.00     0.004 C 
ATOM     12  C   UNL A   1      29.647  29.716  23.144  1.00  0.00     0.007 C 
ATOM     13  C   UNL A   1      30.194  28.464  23.834  1.00  0.00    -0.014 C 
ATOM     14  C   UNL A   1      29.343  27.238  23.468  1.00  0.00     0.003 C 
ATOM     15  C   UNL A   1      31.661  28.251  23.472  1.00  0.00     0.008 C 
ATOM     16  C   UNL A   1      29.936  25.873  23.830  1.00  0.00     0.001 C 
ATOM     17  C   UNL A   1      31.445  25.760  23.640  1.00  0.00     0.005 C 
ENDBRANCH   8  11
ENDBRANCH   5   8
ENDBRANCH   3   4
ENDBRANCH   2   3
ENDBRANCH   1   2
BRANCH   1  18
ATOM     18  C   UNL A   1      32.554  32.937  27.295  1.00  0.00     0.116 C 
BRANCH  18  19
ATOM     19  N   UNL A   1      32.362  34.322  27.691  1.00  0.00    -0.352 N 
ATOM     20  C   UNL A   1      33.020  35.042  28.653  1.00  0.00     0.251 C 
ATOM     21  H   UNL A   1      31.662  34.811  27.200  1.00  0.00     0.163 HD
ATOM     22  O   UNL A   1      32.640  36.171  28.950  1.00  0.00    -0.269 OA
BRANCH  20  23
ATOM     23  C   UNL A   1      34.171  34.441  29.350  1.00  0.00     0.039 A 
ATOM     24  C   UNL A   1      33.935  33.653  30.478  1.00  0.00     0.014 A 
ATOM     25  C   UNL A   1      35.474  34.646  28.887  1.00  0.00     0.014 A 
ATOM     26  C   UNL A   1      35.008  33.039  31.124  1.00  0.00     0.010 A 
ATOM     27  C   UNL A   1      36.531  33.963  29.478  1.00  0.00     0.010 A 
ATOM     28  C   UNL A   1      36.311  33.172  30.617  1.00  0.00    -0.014 A 
BRANCH  28  29
ATOM     29  C   UNL A   1      37.464  32.534  31.297  1.00  0.00     0.031 A 
ATOM     30  C   UNL A   1      38.207  31.416  30.617  1.00  0.00     0.074 A 
ATOM     31  C   UNL A   1      37.815  32.930  32.536  1.00  0.00     0.049 A 
ATOM     32  N   UNL A   1      39.210  30.699  31.055  1.00  0.00    -0.248 NA
ATOM     33  C   UNL A   1      37.738  31.032  29.276  1.00  0.00     0.031 C 
ATOM     34  C   UNL A   1      37.144  33.970  33.315  1.00  0.00     0.029 A 
ATOM     35  N   UNL A   1      38.825  32.498  33.357  1.00  0.00    -0.354 N 
ATOM     36  C   UNL A   1      39.479  29.776  30.052  1.00  0.00     0.074 A 
ATOM     37  C   UNL A   1      38.493  29.976  29.015  1.00  0.00     0.031 C 
ATOM     38  C   UNL A   1      37.777  34.116  34.490  1.00  0.00     0.029 A 
ATOM     39  C   UNL A   1      38.874  33.155  34.562  1.00  0.00     0.049 A 
ATOM     40  H   UNL A   1      39.456  31.784  33.108  1.00  0.00     0.167 HD
ATOM     41  C   UNL A   1      40.477  28.864  29.988  1.00  0.00     0.037 A 
ATOM     42  C   UNL A   1      39.709  32.997  35.606  1.00  0.00     0.037 A 
ATOM     43  C   UNL A   1      41.470  28.685  31.016  1.00  0.00     0.049 A 
ATOM     44  C   UNL A   1      40.809  31.973  35.511  1.00  0.00     0.074 A 
ATOM     45  C   UNL A   1      42.551  27.821  31.032  1.00  0.00     0.029 A 
ATOM     46  N   UNL A   1      41.499  29.385  32.214  1.00  0.00    -0.354 N 
ATOM     47  N   UNL A   1      41.095  31.149  34.531  1.00  0.00    -0.248 NA
ATOM     48  C   UNL A   1      41.713  31.869  36.664  1.00  0.00     0.031 C 
ATOM     49  C   UNL A   1      43.202  27.960  32.262  1.00  0.00     0.029 A 
ATOM     50  C   UNL A   1      42.570  28.959  32.984  1.00  0.00     0.049 A 
ATOM     51  H   UNL A   1      40.855  30.080  32.478  1.00  0.00     0.167 HD
ATOM     52  C   UNL A   1      42.233  30.460  34.931  1.00  0.00     0.074 A 
ATOM     53  C   UNL A   1      42.592  30.973  36.237  1.00  0.00     0.031 C 
ATOM     54  C   UNL A   1      42.921  29.492  34.276  1.00  0.00     0.037 A 
BRANCH  41  55
ATOM     55  C   UNL A   1      40.543  27.991  28.767  1.00  0.00     0.064 A 
ATOM     56  C   UNL A   1      39.861  26.766  28.698  1.00  0.00     0.173 A 
ATOM     57  C   UNL A   1      41.280  28.392  27.643  1.00  0.00     0.173 A 
ATOM     58  F   UNL A   1      39.153  26.325  29.749  1.00  0.00    -0.203 F 
ATOM     59  C   UNL A   1      39.944  25.961  27.564  1.00  0.00     0.198 A 
ATOM     60  C   UNL A   1      41.330  27.602  26.496  1.00  0.00     0.198 A 
ATOM     61  F   UNL A   1      41.948  29.556  27.651  1.00  0.00    -0.203 F 
ATOM     62  F   UNL A   1      39.333  24.768  27.546  1.00  0.00    -0.200 F 
ATOM     63  C   UNL A   1      40.671  26.383  26.463  1.00  0.00     0.200 A 
ATOM     64  F   UNL A   1      42.021  28.020  25.427  1.00  0.00    -0.200 F 
ATOM     65  F   UNL A   1      40.743  25.611  25.369  1.00  0.00    -0.200 F 
ENDBRANCH  41  55
BRANCH  42  66
ATOM     66  C   UNL A   1      39.562  33.847  36.817  1.00  0.00     0.064 A 
ATOM     67  C   UNL A   1      38.808  33.412  37.916  1.00  0.00     0.173 A 
ATOM     68  C   UNL A   1      40.156  35.115  36.896  1.00  0.00     0.173 A 
ATOM     69  F   UNL A   1      38.205  32.214  37.883  1.00  0.00    -0.203 F 
ATOM     70  C   UNL A   1      38.628  34.224  39.034  1.00  0.00     0.198 A 
ATOM     71  C   UNL A   1      40.003  35.913  38.028  1.00  0.00     0.198 A 
ATOM     72  F   UNL A   1      40.895  35.576  35.876  1.00  0.00    -0.203 F 
ATOM     73  F   UNL A   1      37.854  33.806  40.045  1.00  0.00    -0.200 F 
ATOM     74  C   UNL A   1      39.230  35.472  39.091  1.00  0.00     0.200 A 
ATOM     75  F   UNL A   1      40.600  37.111  38.086  1.00  0.00    -0.200 F 
ATOM     76  F   UNL A   1      39.057  36.253  40.167  1.00  0.00    -0.200 F 
ENDBRANCH  42  66
BRANCH  54  77
ATOM     77  C   UNL A   1      44.168  28.971  34.932  1.00  0.00     0.064 A 
ATOM     78  C   UNL A   1      44.152  27.857  35.786  1.00  0.00     0.173 A 
ATOM     79  C   UNL A   1      45.405  29.588  34.687  1.00  0.00     0.173 A 
ATOM     80  F   UNL A   1      42.995  27.237  36.064  1.00  0.00    -0.203 F 
ATOM     81  C   UNL A   1      45.318  27.409  36.401  1.00  0.00     0.198 A 
ATOM     82  C   UNL A   1      46.575  29.114  35.272  1.00  0.00     0.198 A 
ATOM     83  F   UNL A   1      45.480  30.649  33.869  1.00  0.00    -0.203 F 
ATOM     84  F   UNL A   1      45.267  26.386  37.264  1.00  0.00    -0.200 F 
ATOM     85  C   UNL A   1      46.529  28.033  36.139  1.00  0.00     0.200 A 
ATOM     86  F   UNL A   1      47.746  29.706  35.001  1.00  0.00    -0.200 F 
ATOM     87  F   UNL A   1      47.650  27.598  36.730  1.00  0.00    -0.200 F 
ENDBRANCH  54  77
ENDBRANCH  28  29
ENDBRANCH  20  23
ENDBRANCH  18  19
ENDBRANCH   1  18
TORSDOF 12
ENDMDL
MODEL 3
REMARK VINA RESULT:     -10.3      3.743     10.013
REMARK SMILES C[C@H]1CCC[C@H](C(C)(C)C(=O)NCCCCNC(=O)c2ccc(-c3c4nc(c(-c5c(F)c(F)c(F)c(F)c5F)c5ccc([nH]5)c(-c5c(F)c(F)c(F)c(F)c5F)c5nc(c(-c6c(F)c(F)c(F)c(F)c6F)c6ccc3[nH]6)C=C5)C=C4)cc2)C1
REMARK SMILES IDX 15 1 14 2 13 3 12 4 10 5 11 6 7 8 8 9 9 10 6 11 1 12 2 13
REMARK SMILES IDX 3 14 83 15 4 16 5 17 16 18 17 19 18 20 19 22 20 23 21 24
REMARK SMILES IDX 82 25 22 26 81 27 23 28 24 29 25 30 75 31 26 32 80 33 74 34
REMARK SMILES IDX 76 35 27 36 79 37 73 38 72 39 28 41 60 42 40 43 59 44 41 45
REMARK SMILES IDX 44 46 58 47 77 48 42 49 43 50 57 52 78 53 45 54 29 55 30 56
REMARK SMILES IDX 38 57 31 58 32 59 36 60 39 61 33 62 34 63 37 64 35 65 61 66
REMARK SMILES IDX 62 67 70 68 63 69 64 70 68 71 71 72 65 73 66 74 69 75 67 76
REMARK SMILES IDX 46 77 47 78 55 79 48 80 49 81 53 82 56 83 50 84 51 85 54 86
REMARK SMILES IDX 52 87
REMARK H PARENT 12 7 17 21 76 40 44 51
REMARK Flexibility Score: inf
ROOT
ATOM      1  C   UNL A   1      31.361  32.524  26.584  1.00  0.00     0.023 C 
ENDROOT
BRANCH   1   2
ATOM      2  C   UNL A   1      31.491  31.062  26.142  1.00  0.00     0.023 C 
BRANCH   2   3
ATOM      3  C   UNL A   1      32.290  30.181  27.100  1.00  0.00     0.116 C 
BRANCH   3   4
ATOM      4  N   UNL A   1      31.665  28.887  27.246  1.00  0.00    -0.356 N 
ATOM      5  C   UNL A   1      31.813  27.687  26.638  1.00  0.00     0.225 C 
ATOM      6  O   UNL A   1      30.934  26.889  26.961  1.00  0.00    -0.275 OA
ATOM      7  H   UNL A   1      30.973  28.876  27.947  1.00  0.00     0.163 HD
BRANCH   5   8
ATOM      8  C   UNL A   1      32.992  27.333  25.699  1.00  0.00     0.046 C 
ATOM      9  C   UNL A   1      33.402  25.877  26.029  1.00  0.00     0.022 C 
ATOM     10  C   UNL A   1      34.189  28.274  25.964  1.00  0.00     0.022 C 
BRANCH   8  11
ATOM     11  C   UNL A   1      32.680  27.400  24.134  1.00  0.00     0.004 C 
ATOM     12  C   UNL A   1      29.651  29.716  23.257  1.00  0.00     0.007 C 
ATOM     13  C   UNL A   1      30.374  28.498  23.837  1.00  0.00    -0.014 C 
ATOM     14  C   UNL A   1      29.818  27.204  23.223  1.00  0.00     0.003 C 
ATOM     15  C   UNL A   1      31.880  28.615  23.619  1.00  0.00     0.008 C 
ATOM     16  C   UNL A   1      30.636  25.934  23.471  1.00  0.00     0.001 C 
ATOM     17  C   UNL A   1      32.148  26.130  23.440  1.00  0.00     0.005 C 
ENDBRANCH   8  11
ENDBRANCH   5   8
ENDBRANCH   3   4
ENDBRANCH   2   3
ENDBRANCH   1   2
BRANCH   1  18
ATOM     18  C   UNL A   1      32.550  33.071  27.364  1.00  0.00     0.116 C 
BRANCH  18  19
ATOM     19  N   UNL A   1      32.366  34.454  27.773  1.00  0.00    -0.352 N 
ATOM     20  C   UNL A   1      33.026  35.160  28.743  1.00  0.00     0.251 C 
ATOM     21  H   UNL A   1      31.671  34.952  27.285  1.00  0.00     0.163 HD
ATOM     22  O   UNL A   1      32.653  36.289  29.051  1.00  0.00    -0.269 OA
BRANCH  20  23
ATOM     23  C   UNL A   1      34.172  34.544  29.437  1.00  0.00     0.039 A 
ATOM     24  C   UNL A   1      33.947  33.882  30.645  1.00  0.00     0.014 A 
ATOM     25  C   UNL A   1      35.458  34.613  28.894  1.00  0.00     0.014 A 
ATOM     26  C   UNL A   1      35.011  33.254  31.293  1.00  0.00     0.010 A 
ATOM     27  C   UNL A   1      36.498  33.913  29.494  1.00  0.00     0.010 A 
ATOM     28  C   UNL A   1      36.290  33.248  30.713  1.00  0.00    -0.014 A 
BRANCH  28  29
ATOM     29  C   UNL A   1      37.434  32.594  31.393  1.00  0.00     0.031 A 
ATOM     30  C   UNL A   1      38.150  31.454  30.721  1.00  0.00     0.074 A 
ATOM     31  C   UNL A   1      37.801  32.996  32.625  1.00  0.00     0.049 A 
ATOM     32  N   UNL A   1      39.141  30.721  31.161  1.00  0.00    -0.248 NA
ATOM     33  C   UNL A   1      37.665  31.065  29.387  1.00  0.00     0.031 C 
ATOM     34  C   UNL A   1      37.155  34.058  33.397  1.00  0.00     0.029 A 
ATOM     35  N   UNL A   1      38.807  32.553  33.445  1.00  0.00    -0.354 N 
ATOM     36  C   UNL A   1      39.385  29.782  30.167  1.00  0.00     0.074 A 
ATOM     37  C   UNL A   1      38.397  29.991  29.134  1.00  0.00     0.031 C 
ATOM     38  C   UNL A   1      37.798  34.205  34.566  1.00  0.00     0.029 A 
ATOM     39  C   UNL A   1      38.876  33.222  34.642  1.00  0.00     0.049 A 
ATOM     40  H   UNL A   1      39.421  31.824  33.200  1.00  0.00     0.167 HD
ATOM     41  C   UNL A   1      40.365  28.849  30.108  1.00  0.00     0.037 A 
ATOM     42  C   UNL A   1      39.714  33.059  35.683  1.00  0.00     0.037 A 
ATOM     43  C   UNL A   1      41.359  28.661  31.131  1.00  0.00     0.049 A 
ATOM     44  C   UNL A   1      40.793  32.012  35.593  1.00  0.00     0.074 A 
ATOM     45  C   UNL A   1      42.422  27.776  31.151  1.00  0.00     0.029 A 
ATOM     46  N   UNL A   1      41.410  29.374  32.322  1.00  0.00    -0.354 N 
ATOM     47  N   UNL A   1      41.056  31.172  34.621  1.00  0.00    -0.248 NA
ATOM     48  C   UNL A   1      41.701  31.902  36.742  1.00  0.00     0.031 C 
ATOM     49  C   UNL A   1      43.084  27.915  32.375  1.00  0.00     0.029 A 
ATOM     50  C   UNL A   1      42.477  28.935  33.090  1.00  0.00     0.049 A 
ATOM     51  H   UNL A   1      40.781  30.085  32.582  1.00  0.00     0.167 HD
ATOM     52  C   UNL A   1      42.182  30.464  35.022  1.00  0.00     0.074 A 
ATOM     53  C   UNL A   1      42.559  30.984  36.320  1.00  0.00     0.031 C 
ATOM     54  C   UNL A   1      42.846  29.475  34.374  1.00  0.00     0.037 A 
BRANCH  41  55
ATOM     55  C   UNL A   1      40.405  27.962  28.897  1.00  0.00     0.064 A 
ATOM     56  C   UNL A   1      41.150  28.302  27.756  1.00  0.00     0.173 A 
ATOM     57  C   UNL A   1      39.707  26.744  28.881  1.00  0.00     0.173 A 
ATOM     58  F   UNL A   1      41.824  29.461  27.710  1.00  0.00    -0.203 F 
ATOM     59  C   UNL A   1      41.165  27.476  26.635  1.00  0.00     0.198 A 
ATOM     60  C   UNL A   1      39.755  25.903  27.772  1.00  0.00     0.198 A 
ATOM     61  F   UNL A   1      38.982  26.366  29.944  1.00  0.00    -0.203 F 
ATOM     62  F   UNL A   1      41.834  27.852  25.536  1.00  0.00    -0.200 F 
ATOM     63  C   UNL A   1      40.475  26.274  26.647  1.00  0.00     0.200 A 
ATOM     64  F   UNL A   1      39.099  24.734  27.791  1.00  0.00    -0.200 F 
ATOM     65  F   UNL A   1      40.497  25.476  25.570  1.00  0.00    -0.200 F 
ENDBRANCH  41  55
BRANCH  42  66
ATOM     66  C   UNL A   1      39.592  33.926  36.885  1.00  0.00     0.064 A 
ATOM     67  C   UNL A   1      38.828  33.523  37.989  1.00  0.00     0.173 A 
ATOM     68  C   UNL A   1      40.220  35.177  36.951  1.00  0.00     0.173 A 
ATOM     69  F   UNL A   1      38.192  32.341  37.969  1.00  0.00    -0.203 F 
ATOM     70  C   UNL A   1      38.671  34.351  39.099  1.00  0.00     0.198 A 
ATOM     71  C   UNL A   1      40.091  35.991  38.074  1.00  0.00     0.198 A 
ATOM     72  F   UNL A   1      40.970  35.607  35.925  1.00  0.00    -0.203 F 
ATOM     73  F   UNL A   1      37.888  33.965  40.115  1.00  0.00    -0.200 F 
ATOM     74  C   UNL A   1      39.306  35.582  39.143  1.00  0.00     0.200 A 
ATOM     75  F   UNL A   1      40.720  37.173  38.119  1.00  0.00    -0.200 F 
ATOM     76  F   UNL A   1      39.156  36.379  40.210  1.00  0.00    -0.200 F 
ENDBRANCH  42  66
BRANCH  54  77
ATOM     77  C   UNL A   1      44.087  28.936  35.029  1.00  0.00     0.064 A 
ATOM     78  C   UNL A   1      45.348  29.519  34.829  1.00  0.00     0.173 A 
ATOM     79  C   UNL A   1      44.008  27.827  35.885  1.00  0.00     0.173 A 
ATOM     80  F   UNL A   1      45.483  30.574  34.011  1.00  0.00    -0.203 F 
ATOM     81  C   UNL A   1      46.487  28.986  35.429  1.00  0.00     0.198 A 
ATOM     82  C   UNL A   1      45.141  27.320  36.514  1.00  0.00     0.198 A 
ATOM     83  F   UNL A   1      42.825  27.238  36.121  1.00  0.00    -0.203 F 
ATOM     84  F   UNL A   1      47.689  29.518  35.170  1.00  0.00    -0.200 F 
ATOM     85  C   UNL A   1      46.382  27.892  36.275  1.00  0.00     0.200 A 
ATOM     86  F   UNL A   1      45.034  26.275  37.345  1.00  0.00    -0.200 F 
ATOM     87  F   UNL A   1      47.478  27.382  36.851  1.00  0.00    -0.200 F 
ENDBRANCH  54  77
ENDBRANCH  28  29
ENDBRANCH  20  23
ENDBRANCH  18  19
ENDBRANCH   1  18
TORSDOF 12
ENDMDL
