MODEL 1
REMARK VINA RESULT:     -13.6      0.000      0.000
REMARK SMILES COC(=O)c1ccc([C@H]2Nc3c(C(=O)NCCCCNC(=O)c4ccc(-c5c6nc(c(-c7c(F)c(F)c(F)c(F)c7F)c7ccc([nH]7)c(-c7c(F)c(F)c(F)c(F)c7F)c7nc(c(-c8c(F)c(F)c(F)c(F)c8F)c8ccc5[nH]8)C=C7)C=C6)cc4)cccc3[C@H]3[C@H]4CC[C@H](C4)[C@H]32)cc1
REMARK SMILES IDX 17 1 16 2 15 3 13 4 14 5 12 7 9 8 10 9 96 10 11 11 90 13
REMARK SMILES IDX 94 14 89 15 91 16 93 17 95 18 86 19 88 20 92 21 87 22 8 23
REMARK SMILES IDX 5 24 6 25 98 26 7 27 97 28 3 29 4 30 2 31 1 32 18 33 19 34
REMARK SMILES IDX 20 35 21 36 22 38 23 39 24 40 85 41 25 42 84 43 26 44 27 45
REMARK SMILES IDX 28 46 78 47 29 48 83 49 77 50 79 51 30 52 82 53 76 54 75 55
REMARK SMILES IDX 31 57 63 58 43 59 62 60 44 61 47 62 61 63 80 64 45 65 46 66
REMARK SMILES IDX 60 68 81 69 48 70 32 71 33 72 41 73 34 74 35 75 39 76 42 77
REMARK SMILES IDX 36 78 37 79 40 80 38 81 64 82 65 83 73 84 66 85 67 86 71 87
REMARK SMILES IDX 74 88 68 89 69 90 72 91 70 92 49 93 50 94 58 95 51 96 52 97
REMARK SMILES IDX 56 98 59 99 53 100 54 101 57 102 55 103
REMARK H PARENT 15 6 10 12 20 37 79 56 47 67
REMARK Flexibility Score: inf
ROOT
ATOM      1  C   UNL A   1      31.107  27.463  26.548  1.00  0.00     0.023 C 
ENDROOT
BRANCH   1   2
ATOM      2  C   UNL A   1      31.507  26.017  26.275  1.00  0.00     0.116 C 
BRANCH   2   3
ATOM      3  N   UNL A   1      30.456  25.014  26.433  1.00  0.00    -0.352 N 
ATOM      4  C   UNL A   1      30.582  23.658  26.729  1.00  0.00     0.253 C 
ATOM      5  O   UNL A   1      29.580  22.958  26.857  1.00  0.00    -0.269 OA
ATOM      6  H   UNL A   1      29.536  25.340  26.315  1.00  0.00     0.163 HD
BRANCH   4   7
ATOM      7  C   UNL A   1      31.941  23.058  26.806  1.00  0.00     0.063 A 
ATOM      8  C   UNL A   1      33.323  22.391  23.465  1.00  0.00     0.113 C 
ATOM      9  N   UNL A   1      32.434  23.148  24.383  1.00  0.00    -0.377 N 
ATOM     10  C   UNL A   1      34.716  23.100  23.528  1.00  0.00     0.027 C 
ATOM     11  C   UNL A   1      32.832  23.179  25.730  1.00  0.00     0.051 A 
ATOM     12  H   UNL A   1      31.617  23.599  24.067  1.00  0.00     0.161 HD
ATOM     13  C   UNL A   1      35.075  23.751  24.896  1.00  0.00     0.030 C 
ATOM     14  C   UNL A   1      36.082  22.506  23.104  1.00  0.00    -0.005 C 
ATOM     15  C   UNL A   1      34.208  23.244  26.014  1.00  0.00    -0.020 A 
ATOM     16  C   UNL A   1      36.626  23.657  24.951  1.00  0.00    -0.003 C 
ATOM     17  C   UNL A   1      36.658  21.449  24.075  1.00  0.00     0.004 C 
ATOM     18  C   UNL A   1      36.989  23.703  23.457  1.00  0.00     0.008 C 
ATOM     19  C   UNL A   1      32.401  22.555  28.026  1.00  0.00     0.016 A 
ATOM     20  C   UNL A   1      34.657  22.970  27.310  1.00  0.00     0.006 A 
ATOM     21  C   UNL A   1      37.124  22.253  25.284  1.00  0.00     0.004 C 
ATOM     22  C   UNL A   1      33.766  22.516  28.279  1.00  0.00     0.001 A 
BRANCH   8  23
ATOM     23  C   UNL A   1      33.194  20.870  23.654  1.00  0.00    -0.025 A 
ATOM     24  C   UNL A   1      33.197  18.043  23.817  1.00  0.00     0.060 A 
ATOM     25  C   UNL A   1      33.820  18.795  24.810  1.00  0.00     0.016 A 
ATOM     26  C   UNL A   1      32.438  18.687  22.843  1.00  0.00     0.016 A 
ATOM     27  C   UNL A   1      33.816  20.193  24.724  1.00  0.00     0.007 A 
ATOM     28  C   UNL A   1      32.389  20.087  22.811  1.00  0.00     0.007 A 
BRANCH  24  29
ATOM     29  C   UNL A   1      33.382  16.578  23.804  1.00  0.00     0.337 C 
ATOM     30  O   UNL A   1      34.126  15.983  23.042  1.00  0.00    -0.246 OA
BRANCH  29  31
ATOM     31  O   UNL A   1      32.507  16.034  24.686  1.00  0.00    -0.465 OA
ATOM     32  C   UNL A   1      33.025  14.959  25.475  1.00  0.00     0.282 C 
ENDBRANCH  29  31
ENDBRANCH  24  29
ENDBRANCH   8  23
ENDBRANCH   4   7
ENDBRANCH   2   3
ENDBRANCH   1   2
BRANCH   1  33
ATOM     33  C   UNL A   1      31.874  28.189  27.645  1.00  0.00     0.023 C 
BRANCH  33  34
ATOM     34  C   UNL A   1      33.225  28.775  27.246  1.00  0.00     0.116 C 
BRANCH  34  35
ATOM     35  N   UNL A   1      33.332  30.213  27.448  1.00  0.00    -0.352 N 
ATOM     36  C   UNL A   1      34.380  30.962  27.934  1.00  0.00     0.251 C 
ATOM     37  H   UNL A   1      32.531  30.730  27.198  1.00  0.00     0.163 HD
ATOM     38  O   UNL A   1      34.240  32.170  28.106  1.00  0.00    -0.269 OA
BRANCH  36  39
ATOM     39  C   UNL A   1      35.665  30.317  28.295  1.00  0.00     0.039 A 
ATOM     40  C   UNL A   1      36.690  30.282  27.344  1.00  0.00     0.014 A 
ATOM     41  C   UNL A   1      35.871  29.757  29.557  1.00  0.00     0.014 A 
ATOM     42  C   UNL A   1      37.945  29.772  27.691  1.00  0.00     0.010 A 
ATOM     43  C   UNL A   1      37.143  29.327  29.928  1.00  0.00     0.010 A 
ATOM     44  C   UNL A   1      38.197  29.336  29.002  1.00  0.00    -0.014 A 
BRANCH  44  45
ATOM     45  C   UNL A   1      39.556  28.904  29.428  1.00  0.00     0.031 A 
ATOM     46  C   UNL A   1      40.394  29.790  30.309  1.00  0.00     0.074 A 
ATOM     47  C   UNL A   1      40.066  27.747  28.963  1.00  0.00     0.049 A 
ATOM     48  N   UNL A   1      41.631  29.631  30.710  1.00  0.00    -0.248 NA
ATOM     49  C   UNL A   1      39.766  31.034  30.782  1.00  0.00     0.031 C 
ATOM     50  C   UNL A   1      39.379  26.819  28.062  1.00  0.00     0.029 A 
ATOM     51  N   UNL A   1      41.292  27.159  29.170  1.00  0.00    -0.354 N 
ATOM     52  C   UNL A   1      41.929  30.753  31.473  1.00  0.00     0.074 A 
ATOM     53  C   UNL A   1      40.767  31.612  31.431  1.00  0.00     0.031 C 
ATOM     54  C   UNL A   1      40.183  25.776  27.806  1.00  0.00     0.029 A 
ATOM     55  C   UNL A   1      41.458  25.976  28.488  1.00  0.00     0.049 A 
ATOM     56  H   UNL A   1      41.984  27.547  29.750  1.00  0.00     0.167 HD
ATOM     57  C   UNL A   1      43.060  31.028  32.166  1.00  0.00     0.037 A 
ATOM     58  C   UNL A   1      42.522  25.155  28.409  1.00  0.00     0.037 A 
ATOM     59  C   UNL A   1      44.211  30.165  32.221  1.00  0.00     0.049 A 
ATOM     60  C   UNL A   1      43.772  25.493  29.178  1.00  0.00     0.074 A 
ATOM     61  C   UNL A   1      45.387  30.339  32.929  1.00  0.00     0.029 A 
ATOM     62  N   UNL A   1      44.330  28.963  31.539  1.00  0.00    -0.354 N 
ATOM     63  N   UNL A   1      44.018  26.526  29.945  1.00  0.00    -0.248 NA
ATOM     64  C   UNL A   1      44.891  24.545  29.075  1.00  0.00     0.031 C 
ATOM     65  C   UNL A   1      46.236  29.266  32.642  1.00  0.00     0.029 A 
ATOM     66  C   UNL A   1      45.567  28.394  31.797  1.00  0.00     0.049 A 
ATOM     67  H   UNL A   1      43.639  28.572  30.957  1.00  0.00     0.167 HD
ATOM     68  C   UNL A   1      45.302  26.339  30.439  1.00  0.00     0.074 A 
ATOM     69  C   UNL A   1      45.779  25.083  29.900  1.00  0.00     0.031 C 
ATOM     70  C   UNL A   1      46.023  27.137  31.264  1.00  0.00     0.037 A 
BRANCH  57  71
ATOM     71  C   UNL A   1      43.105  32.315  32.938  1.00  0.00     0.064 A 
ATOM     72  C   UNL A   1      43.460  33.526  32.324  1.00  0.00     0.173 A 
ATOM     73  C   UNL A   1      42.738  32.351  34.292  1.00  0.00     0.173 A 
ATOM     74  F   UNL A   1      43.829  33.546  31.034  1.00  0.00    -0.203 F 
ATOM     75  C   UNL A   1      43.471  34.719  33.042  1.00  0.00     0.198 A 
ATOM     76  C   UNL A   1      42.720  33.551  34.999  1.00  0.00     0.198 A 
ATOM     77  F   UNL A   1      42.383  31.223  34.926  1.00  0.00    -0.203 F 
ATOM     78  F   UNL A   1      43.857  35.855  32.445  1.00  0.00    -0.200 F 
ATOM     79  C   UNL A   1      43.092  34.732  34.376  1.00  0.00     0.200 A 
ATOM     80  F   UNL A   1      42.339  33.564  36.283  1.00  0.00    -0.200 F 
ATOM     81  F   UNL A   1      43.091  35.883  35.062  1.00  0.00    -0.200 F 
ENDBRANCH  57  71
BRANCH  58  82
ATOM     82  C   UNL A   1      42.457  23.924  27.576  1.00  0.00     0.064 A 
ATOM     83  C   UNL A   1      41.994  22.712  28.110  1.00  0.00     0.173 A 
ATOM     84  C   UNL A   1      42.879  23.927  26.237  1.00  0.00     0.173 A 
ATOM     85  F   UNL A   1      41.599  22.653  29.390  1.00  0.00    -0.203 F 
ATOM     86  C   UNL A   1      41.983  21.546  27.348  1.00  0.00     0.198 A 
ATOM     87  C   UNL A   1      42.837  22.766  25.467  1.00  0.00     0.198 A 
ATOM     88  F   UNL A   1      43.326  25.059  25.676  1.00  0.00    -0.203 F 
ATOM     89  F   UNL A   1      41.590  20.391  27.901  1.00  0.00    -0.200 F 
ATOM     90  C   UNL A   1      42.400  21.575  26.025  1.00  0.00     0.200 A 
ATOM     91  F   UNL A   1      43.226  22.801  24.185  1.00  0.00    -0.200 F 
ATOM     92  F   UNL A   1      42.392  20.452  25.294  1.00  0.00    -0.200 F 
ENDBRANCH  58  82
BRANCH  70  93
ATOM     93  C   UNL A   1      47.388  26.657  31.670  1.00  0.00     0.064 A 
ATOM     94  C   UNL A   1      47.585  25.880  32.821  1.00  0.00     0.173 A 
ATOM     95  C   UNL A   1      48.506  26.945  30.873  1.00  0.00     0.173 A 
ATOM     96  F   UNL A   1      46.551  25.589  33.624  1.00  0.00    -0.203 F 
ATOM     97  C   UNL A   1      48.856  25.434  33.175  1.00  0.00     0.198 A 
ATOM     98  C   UNL A   1      49.770  26.470  31.211  1.00  0.00     0.198 A 
ATOM     99  F   UNL A   1      48.371  27.678  29.758  1.00  0.00    -0.203 F 
ATOM    100  F   UNL A   1      49.029  24.736  34.306  1.00  0.00    -0.200 F 
ATOM    101  C   UNL A   1      49.946  25.723  32.366  1.00  0.00     0.200 A 
ATOM    102  F   UNL A   1      50.820  26.738  30.421  1.00  0.00    -0.200 F 
ATOM    103  F   UNL A   1      51.166  25.285  32.703  1.00  0.00    -0.200 F 
ENDBRANCH  70  93
ENDBRANCH  44  45
ENDBRANCH  36  39
ENDBRANCH  34  35
ENDBRANCH  33  34
ENDBRANCH   1  33
TORSDOF 14
ENDMDL
MODEL 2
REMARK VINA RESULT:     -13.4      2.357      7.339
REMARK SMILES COC(=O)c1ccc([C@H]2Nc3c(C(=O)NCCCCNC(=O)c4ccc(-c5c6nc(c(-c7c(F)c(F)c(F)c(F)c7F)c7ccc([nH]7)c(-c7c(F)c(F)c(F)c(F)c7F)c7nc(c(-c8c(F)c(F)c(F)c(F)c8F)c8ccc5[nH]8)C=C7)C=C6)cc4)cccc3[C@H]3[C@H]4CC[C@H](C4)[C@H]32)cc1
REMARK SMILES IDX 17 1 16 2 15 3 13 4 14 5 12 7 9 8 10 9 96 10 11 11 90 13
REMARK SMILES IDX 94 14 89 15 91 16 93 17 95 18 86 19 88 20 92 21 87 22 8 23
REMARK SMILES IDX 5 24 6 25 98 26 7 27 97 28 3 29 4 30 2 31 1 32 18 33 19 34
REMARK SMILES IDX 20 35 21 36 22 38 23 39 24 40 85 41 25 42 84 43 26 44 27 45
REMARK SMILES IDX 28 46 78 47 29 48 83 49 77 50 79 51 30 52 82 53 76 54 75 55
REMARK SMILES IDX 31 57 63 58 43 59 62 60 44 61 47 62 61 63 80 64 45 65 46 66
REMARK SMILES IDX 60 68 81 69 48 70 32 71 33 72 41 73 34 74 35 75 39 76 42 77
REMARK SMILES IDX 36 78 37 79 40 80 38 81 64 82 65 83 73 84 66 85 67 86 71 87
REMARK SMILES IDX 74 88 68 89 69 90 72 91 70 92 49 93 50 94 58 95 51 96 52 97
REMARK SMILES IDX 56 98 59 99 53 100 54 101 57 102 55 103
REMARK H PARENT 15 6 10 12 20 37 79 56 47 67
REMARK Flexibility Score: inf
ROOT
ATOM      1  C   UNL A   1      31.116  27.491  26.067  1.00  0.00     0.023 C 
ENDROOT
BRANCH   1   2
ATOM      2  C   UNL A   1      31.554  26.073  26.417  1.00  0.00     0.116 C 
BRANCH   2   3
ATOM      3  N   UNL A   1      30.494  25.071  26.501  1.00  0.00    -0.352 N 
ATOM      4  C   UNL A   1      30.605  23.701  26.728  1.00  0.00     0.253 C 
ATOM      5  O   UNL A   1      29.596  23.003  26.799  1.00  0.00    -0.269 OA
ATOM      6  H   UNL A   1      29.578  25.410  26.383  1.00  0.00     0.163 HD
BRANCH   4   7
ATOM      7  C   UNL A   1      31.958  23.087  26.799  1.00  0.00     0.063 A 
ATOM      8  C   UNL A   1      33.337  22.444  23.453  1.00  0.00     0.113 C 
ATOM      9  N   UNL A   1      32.455  23.198  24.378  1.00  0.00    -0.377 N 
ATOM     10  C   UNL A   1      34.737  23.139  23.524  1.00  0.00     0.027 C 
ATOM     11  C   UNL A   1      32.851  23.211  25.725  1.00  0.00     0.051 A 
ATOM     12  H   UNL A   1      31.642  23.660  24.066  1.00  0.00     0.161 HD
ATOM     13  C   UNL A   1      35.100  23.772  24.899  1.00  0.00     0.030 C 
ATOM     14  C   UNL A   1      36.097  22.537  23.095  1.00  0.00    -0.005 C 
ATOM     15  C   UNL A   1      34.227  23.261  26.012  1.00  0.00    -0.020 A 
ATOM     16  C   UNL A   1      36.650  23.663  24.955  1.00  0.00    -0.003 C 
ATOM     17  C   UNL A   1      36.663  21.464  24.056  1.00  0.00     0.004 C 
ATOM     18  C   UNL A   1      37.016  23.722  23.463  1.00  0.00     0.008 C 
ATOM     19  C   UNL A   1      32.412  22.566  28.014  1.00  0.00     0.016 A 
ATOM     20  C   UNL A   1      34.672  22.968  27.304  1.00  0.00     0.006 A 
ATOM     21  C   UNL A   1      37.135  22.250  25.273  1.00  0.00     0.004 C 
ATOM     22  C   UNL A   1      33.777  22.512  28.268  1.00  0.00     0.001 A 
BRANCH   8  23
ATOM     23  C   UNL A   1      33.194  20.922  23.625  1.00  0.00    -0.025 A 
ATOM     24  C   UNL A   1      33.176  18.094  23.763  1.00  0.00     0.060 A 
ATOM     25  C   UNL A   1      33.778  18.833  24.777  1.00  0.00     0.016 A 
ATOM     26  C   UNL A   1      32.445  18.751  22.775  1.00  0.00     0.016 A 
ATOM     27  C   UNL A   1      33.784  20.231  24.704  1.00  0.00     0.007 A 
ATOM     28  C   UNL A   1      32.406  20.152  22.755  1.00  0.00     0.007 A 
BRANCH  24  29
ATOM     29  C   UNL A   1      33.352  16.627  23.742  1.00  0.00     0.337 C 
ATOM     30  O   UNL A   1      34.088  16.033  22.973  1.00  0.00    -0.246 OA
BRANCH  29  31
ATOM     31  O   UNL A   1      32.478  16.084  24.626  1.00  0.00    -0.465 OA
ATOM     32  C   UNL A   1      33.049  15.167  25.562  1.00  0.00     0.282 C 
ENDBRANCH  29  31
ENDBRANCH  24  29
ENDBRANCH   8  23
ENDBRANCH   4   7
ENDBRANCH   2   3
ENDBRANCH   1   2
BRANCH   1  33
ATOM     33  C   UNL A   1      31.710  28.617  26.902  1.00  0.00     0.023 C 
BRANCH  33  34
ATOM     34  C   UNL A   1      32.677  29.551  26.182  1.00  0.00     0.116 C 
BRANCH  34  35
ATOM     35  N   UNL A   1      32.465  30.963  26.471  1.00  0.00    -0.352 N 
ATOM     36  C   UNL A   1      33.237  31.843  27.195  1.00  0.00     0.251 C 
ATOM     37  H   UNL A   1      31.643  31.347  26.087  1.00  0.00     0.163 HD
ATOM     38  O   UNL A   1      32.838  32.987  27.392  1.00  0.00    -0.269 OA
BRANCH  36  39
ATOM     39  C   UNL A   1      34.528  31.410  27.780  1.00  0.00     0.039 A 
ATOM     40  C   UNL A   1      35.542  32.359  27.949  1.00  0.00     0.014 A 
ATOM     41  C   UNL A   1      34.746  30.087  28.168  1.00  0.00     0.014 A 
ATOM     42  C   UNL A   1      36.731  32.001  28.591  1.00  0.00     0.010 A 
ATOM     43  C   UNL A   1      35.895  29.751  28.881  1.00  0.00     0.010 A 
ATOM     44  C   UNL A   1      36.898  30.707  29.108  1.00  0.00    -0.014 A 
BRANCH  44  45
ATOM     45  C   UNL A   1      38.102  30.337  29.901  1.00  0.00     0.031 A 
ATOM     46  C   UNL A   1      39.102  29.356  29.351  1.00  0.00     0.074 A 
ATOM     47  C   UNL A   1      38.261  30.829  31.145  1.00  0.00     0.049 A 
ATOM     48  N   UNL A   1      40.161  28.841  29.925  1.00  0.00    -0.248 NA
ATOM     49  C   UNL A   1      38.866  28.869  27.983  1.00  0.00     0.031 C 
ATOM     50  C   UNL A   1      37.340  31.749  31.816  1.00  0.00     0.029 A 
ATOM     51  N   UNL A   1      39.246  30.609  32.079  1.00  0.00    -0.354 N 
ATOM     52  C   UNL A   1      40.710  27.968  28.995  1.00  0.00     0.074 A 
ATOM     53  C   UNL A   1      39.836  27.978  27.842  1.00  0.00     0.031 C 
ATOM     54  C   UNL A   1      37.809  32.026  33.043  1.00  0.00     0.029 A 
ATOM     55  C   UNL A   1      39.039  31.273  33.265  1.00  0.00     0.049 A 
ATOM     56  H   UNL A   1      40.025  30.032  31.914  1.00  0.00     0.167 HD
ATOM     57  C   UNL A   1      41.852  27.245  29.084  1.00  0.00     0.037 A 
ATOM     58  C   UNL A   1      39.754  31.265  34.407  1.00  0.00     0.037 A 
ATOM     59  C   UNL A   1      42.730  27.249  30.224  1.00  0.00     0.049 A 
ATOM     60  C   UNL A   1      41.011  30.440  34.484  1.00  0.00     0.074 A 
ATOM     61  C   UNL A   1      43.931  26.581  30.391  1.00  0.00     0.029 A 
ATOM     62  N   UNL A   1      42.501  27.956  31.396  1.00  0.00    -0.354 N 
ATOM     63  N   UNL A   1      41.552  29.668  33.573  1.00  0.00    -0.248 NA
ATOM     64  C   UNL A   1      41.763  30.493  35.746  1.00  0.00     0.031 C 
ATOM     65  C   UNL A   1      44.407  26.847  31.679  1.00  0.00     0.029 A 
ATOM     66  C   UNL A   1      43.530  27.726  32.295  1.00  0.00     0.049 A 
ATOM     67  H   UNL A   1      41.723  28.535  31.563  1.00  0.00     0.167 HD
ATOM     68  C   UNL A   1      42.717  29.168  34.138  1.00  0.00     0.074 A 
ATOM     69  C   UNL A   1      42.817  29.739  35.465  1.00  0.00     0.031 C 
ATOM     70  C   UNL A   1      43.623  28.311  33.607  1.00  0.00     0.037 A 
BRANCH  57  71
ATOM     71  C   UNL A   1      42.229  26.396  27.904  1.00  0.00     0.064 A 
ATOM     72  C   UNL A   1      41.659  25.130  27.701  1.00  0.00     0.173 A 
ATOM     73  C   UNL A   1      43.129  26.871  26.938  1.00  0.00     0.173 A 
ATOM     74  F   UNL A   1      40.801  24.623  28.599  1.00  0.00    -0.203 F 
ATOM     75  C   UNL A   1      41.995  24.362  26.588  1.00  0.00     0.198 A 
ATOM     76  C   UNL A   1      43.438  26.114  25.811  1.00  0.00     0.198 A 
ATOM     77  F   UNL A   1      43.699  28.079  27.080  1.00  0.00    -0.203 F 
ATOM     78  F   UNL A   1      41.471  23.138  26.439  1.00  0.00    -0.200 F 
ATOM     79  C   UNL A   1      42.876  24.859  25.640  1.00  0.00     0.200 A 
ATOM     80  F   UNL A   1      44.279  26.601  24.888  1.00  0.00    -0.200 F 
ATOM     81  F   UNL A   1      43.188  24.124  24.564  1.00  0.00    -0.200 F 
ENDBRANCH  57  71
BRANCH  58  82
ATOM     82  C   UNL A   1      39.304  32.069  35.575  1.00  0.00     0.064 A 
ATOM     83  C   UNL A   1      39.762  33.380  35.770  1.00  0.00     0.173 A 
ATOM     84  C   UNL A   1      38.429  31.536  36.534  1.00  0.00     0.173 A 
ATOM     85  F   UNL A   1      40.617  33.928  34.893  1.00  0.00    -0.203 F 
ATOM     86  C   UNL A   1      39.386  34.116  36.892  1.00  0.00     0.198 A 
ATOM     87  C   UNL A   1      38.028  32.285  37.639  1.00  0.00     0.198 A 
ATOM     88  F   UNL A   1      37.957  30.289  36.393  1.00  0.00    -0.203 F 
ATOM     89  F   UNL A   1      39.885  35.345  37.082  1.00  0.00    -0.200 F 
ATOM     90  C   UNL A   1      38.516  33.569  37.824  1.00  0.00     0.200 A 
ATOM     91  F   UNL A   1      37.175  31.758  38.528  1.00  0.00    -0.200 F 
ATOM     92  F   UNL A   1      38.156  34.276  38.903  1.00  0.00    -0.200 F 
ENDBRANCH  58  82
BRANCH  70  93
ATOM     93  C   UNL A   1      44.825  27.972  34.442  1.00  0.00     0.064 A 
ATOM     94  C   UNL A   1      45.967  28.784  34.457  1.00  0.00     0.173 A 
ATOM     95  C   UNL A   1      44.814  26.838  35.270  1.00  0.00     0.173 A 
ATOM     96  F   UNL A   1      46.033  29.871  33.674  1.00  0.00    -0.203 F 
ATOM     97  C   UNL A   1      47.067  28.459  35.249  1.00  0.00     0.198 A 
ATOM     98  C   UNL A   1      45.902  26.533  36.084  1.00  0.00     0.198 A 
ATOM     99  F   UNL A   1      43.743  26.031  35.298  1.00  0.00    -0.203 F 
ATOM    100  F   UNL A   1      48.168  29.222  35.209  1.00  0.00    -0.200 F 
ATOM    101  C   UNL A   1      47.030  27.339  36.066  1.00  0.00     0.200 A 
ATOM    102  F   UNL A   1      45.859  25.459  36.884  1.00  0.00    -0.200 F 
ATOM    103  F   UNL A   1      48.085  27.032  36.833  1.00  0.00    -0.200 F 
ENDBRANCH  70  93
ENDBRANCH  44  45
ENDBRANCH  36  39
ENDBRANCH  34  35
ENDBRANCH  33  34
ENDBRANCH   1  33
TORSDOF 14
ENDMDL
MODEL 3
REMARK VINA RESULT:     -13.2      4.683      7.343
REMARK SMILES COC(=O)c1ccc([C@H]2Nc3c(C(=O)NCCCCNC(=O)c4ccc(-c5c6nc(c(-c7c(F)c(F)c(F)c(F)c7F)c7ccc([nH]7)c(-c7c(F)c(F)c(F)c(F)c7F)c7nc(c(-c8c(F)c(F)c(F)c(F)c8F)c8ccc5[nH]8)C=C7)C=C6)cc4)cccc3[C@H]3[C@H]4CC[C@H](C4)[C@H]32)cc1
REMARK SMILES IDX 17 1 16 2 15 3 13 4 14 5 12 7 9 8 10 9 96 10 11 11 90 13
REMARK SMILES IDX 94 14 89 15 91 16 93 17 95 18 86 19 88 20 92 21 87 22 8 23
REMARK SMILES IDX 5 24 6 25 98 26 7 27 97 28 3 29 4 30 2 31 1 32 18 33 19 34
REMARK SMILES IDX 20 35 21 36 22 38 23 39 24 40 85 41 25 42 84 43 26 44 27 45
REMARK SMILES IDX 28 46 78 47 29 48 83 49 77 50 79 51 30 52 82 53 76 54 75 55
REMARK SMILES IDX 31 57 63 58 43 59 62 60 44 61 47 62 61 63 80 64 45 65 46 66
REMARK SMILES IDX 60 68 81 69 48 70 32 71 33 72 41 73 34 74 35 75 39 76 42 77
REMARK SMILES IDX 36 78 37 79 40 80 38 81 64 82 65 83 73 84 66 85 67 86 71 87
REMARK SMILES IDX 74 88 68 89 69 90 72 91 70 92 49 93 50 94 58 95 51 96 52 97
REMARK SMILES IDX 56 98 59 99 53 100 54 101 57 102 55 103
REMARK H PARENT 15 6 10 12 20 37 79 56 47 67
REMARK Flexibility Score: inf
ROOT
ATOM      1  C   UNL A   1      32.682  33.406  27.630  1.00  0.00     0.023 C 
ENDROOT
BRANCH   1   2
ATOM      2  C   UNL A   1      32.786  31.915  27.329  1.00  0.00     0.116 C 
BRANCH   2   3
ATOM      3  N   UNL A   1      34.134  31.352  27.307  1.00  0.00    -0.352 N 
ATOM      4  C   UNL A   1      34.537  30.068  26.947  1.00  0.00     0.253 C 
ATOM      5  O   UNL A   1      35.729  29.769  26.957  1.00  0.00    -0.269 OA
ATOM      6  H   UNL A   1      34.855  31.963  27.582  1.00  0.00     0.163 HD
BRANCH   4   7
ATOM      7  C   UNL A   1      33.502  29.046  26.633  1.00  0.00     0.063 A 
ATOM      8  C   UNL A   1      32.967  28.722  23.010  1.00  0.00     0.113 C 
ATOM      9  N   UNL A   1      33.819  29.058  24.179  1.00  0.00    -0.377 N 
ATOM     10  C   UNL A   1      33.133  27.183  22.780  1.00  0.00     0.027 C 
ATOM     11  C   UNL A   1      33.487  28.413  25.381  1.00  0.00     0.051 A 
ATOM     12  H   UNL A   1      34.570  29.693  24.115  1.00  0.00     0.161 HD
ATOM     13  C   UNL A   1      33.383  26.338  24.063  1.00  0.00     0.030 C 
ATOM     14  C   UNL A   1      32.185  26.255  21.982  1.00  0.00    -0.005 C 
ATOM     15  C   UNL A   1      33.027  27.085  25.318  1.00  0.00    -0.020 A 
ATOM     16  C   UNL A   1      32.754  24.958  23.721  1.00  0.00    -0.003 C 
ATOM     17  C   UNL A   1      30.848  25.931  22.690  1.00  0.00     0.004 C 
ATOM     18  C   UNL A   1      32.920  24.915  22.194  1.00  0.00     0.008 C 
ATOM     19  C   UNL A   1      32.676  28.570  27.654  1.00  0.00     0.016 A 
ATOM     20  C   UNL A   1      32.403  26.519  26.434  1.00  0.00     0.006 A 
ATOM     21  C   UNL A   1      31.229  24.964  23.805  1.00  0.00     0.004 C 
ATOM     22  C   UNL A   1      32.128  27.297  27.555  1.00  0.00     0.001 A 
BRANCH   8  23
ATOM     23  C   UNL A   1      31.574  29.368  23.101  1.00  0.00    -0.025 A 
ATOM     24  C   UNL A   1      29.151  30.826  23.231  1.00  0.00     0.060 A 
ATOM     25  C   UNL A   1      29.547  30.246  22.029  1.00  0.00     0.016 A 
ATOM     26  C   UNL A   1      29.862  30.547  24.396  1.00  0.00     0.016 A 
ATOM     27  C   UNL A   1      30.747  29.526  21.970  1.00  0.00     0.007 A 
ATOM     28  C   UNL A   1      31.025  29.768  24.331  1.00  0.00     0.007 A 
BRANCH  24  29
ATOM     29  C   UNL A   1      27.998  31.750  23.237  1.00  0.00     0.337 C 
ATOM     30  O   UNL A   1      26.907  31.487  23.714  1.00  0.00    -0.246 OA
BRANCH  29  31
ATOM     31  O   UNL A   1      28.339  32.855  22.529  1.00  0.00    -0.465 OA
ATOM     32  C   UNL A   1      29.126  33.815  23.238  1.00  0.00     0.282 C 
ENDBRANCH  29  31
ENDBRANCH  24  29
ENDBRANCH   8  23
ENDBRANCH   4   7
ENDBRANCH   2   3
ENDBRANCH   1   2
BRANCH   1  33
ATOM     33  C   UNL A   1      33.436  33.911  28.853  1.00  0.00     0.023 C 
BRANCH  33  34
ATOM     34  C   UNL A   1      33.459  35.423  29.052  1.00  0.00     0.116 C 
BRANCH  34  35
ATOM     35  N   UNL A   1      32.587  35.896  30.119  1.00  0.00    -0.352 N 
ATOM     36  C   UNL A   1      32.699  35.750  31.483  1.00  0.00     0.251 C 
ATOM     37  H   UNL A   1      31.796  36.400  29.818  1.00  0.00     0.163 HD
ATOM     38  O   UNL A   1      31.805  36.158  32.218  1.00  0.00    -0.269 OA
BRANCH  36  39
ATOM     39  C   UNL A   1      33.872  35.062  32.074  1.00  0.00     0.039 A 
ATOM     40  C   UNL A   1      33.710  33.765  32.574  1.00  0.00     0.014 A 
ATOM     41  C   UNL A   1      35.124  35.676  32.134  1.00  0.00     0.014 A 
ATOM     42  C   UNL A   1      34.820  33.056  33.042  1.00  0.00     0.010 A 
ATOM     43  C   UNL A   1      36.242  34.941  32.522  1.00  0.00     0.010 A 
ATOM     44  C   UNL A   1      36.105  33.619  32.973  1.00  0.00    -0.014 A 
BRANCH  44  45
ATOM     45  C   UNL A   1      37.315  32.840  33.352  1.00  0.00     0.031 A 
ATOM     46  C   UNL A   1      38.047  33.146  34.630  1.00  0.00     0.074 A 
ATOM     47  C   UNL A   1      37.798  31.904  32.510  1.00  0.00     0.049 A 
ATOM     48  N   UNL A   1      39.167  32.641  35.086  1.00  0.00    -0.248 NA
ATOM     49  C   UNL A   1      37.455  34.174  35.500  1.00  0.00     0.031 C 
ATOM     50  C   UNL A   1      37.213  31.544  31.218  1.00  0.00     0.029 A 
ATOM     51  N   UNL A   1      38.905  31.095  32.608  1.00  0.00    -0.354 N 
ATOM     52  C   UNL A   1      39.415  33.294  36.286  1.00  0.00     0.074 A 
ATOM     53  C   UNL A   1      38.363  34.272  36.460  1.00  0.00     0.031 C 
ATOM     54  C   UNL A   1      37.954  30.580  30.651  1.00  0.00     0.029 A 
ATOM     55  C   UNL A   1      39.090  30.280  31.516  1.00  0.00     0.049 A 
ATOM     56  H   UNL A   1      39.507  31.098  33.386  1.00  0.00     0.167 HD
ATOM     57  C   UNL A   1      40.415  33.080  37.175  1.00  0.00     0.037 A 
ATOM     58  C   UNL A   1      40.072  29.401  31.238  1.00  0.00     0.037 A 
ATOM     59  C   UNL A   1      41.452  32.096  37.010  1.00  0.00     0.049 A 
ATOM     60  C   UNL A   1      41.180  29.194  32.237  1.00  0.00     0.074 A 
ATOM     61  C   UNL A   1      42.485  31.777  37.875  1.00  0.00     0.029 A 
ATOM     62  N   UNL A   1      41.591  31.272  35.903  1.00  0.00    -0.354 N 
ATOM     63  N   UNL A   1      41.368  29.774  33.397  1.00  0.00    -0.248 NA
ATOM     64  C   UNL A   1      42.209  28.203  31.891  1.00  0.00     0.031 C 
ATOM     65  C   UNL A   1      43.274  30.792  37.274  1.00  0.00     0.029 A 
ATOM     66  C   UNL A   1      42.701  30.456  36.057  1.00  0.00     0.049 A 
ATOM     67  H   UNL A   1      40.989  31.266  35.124  1.00  0.00     0.167 HD
ATOM     68  C   UNL A   1      42.514  29.199  33.931  1.00  0.00     0.074 A 
ATOM     69  C   UNL A   1      42.970  28.211  32.976  1.00  0.00     0.031 C 
ATOM     70  C   UNL A   1      43.135  29.468  35.105  1.00  0.00     0.037 A 
BRANCH  57  71
ATOM     71  C   UNL A   1      40.428  33.919  38.421  1.00  0.00     0.064 A 
ATOM     72  C   UNL A   1      41.142  35.125  38.484  1.00  0.00     0.173 A 
ATOM     73  C   UNL A   1      39.678  33.543  39.545  1.00  0.00     0.173 A 
ATOM     74  F   UNL A   1      41.884  35.527  37.441  1.00  0.00    -0.203 F 
ATOM     75  C   UNL A   1      41.125  35.910  39.635  1.00  0.00     0.198 A 
ATOM     76  C   UNL A   1      39.637  34.346  40.682  1.00  0.00     0.198 A 
ATOM     77  F   UNL A   1      38.971  32.401  39.535  1.00  0.00    -0.203 F 
ATOM     78  F   UNL A   1      41.850  37.035  39.687  1.00  0.00    -0.200 F 
ATOM     79  C   UNL A   1      40.365  35.524  40.728  1.00  0.00     0.200 A 
ATOM     80  F   UNL A   1      38.891  33.979  41.733  1.00  0.00    -0.200 F 
ATOM     81  F   UNL A   1      40.339  36.287  41.830  1.00  0.00    -0.200 F 
ENDBRANCH  57  71
BRANCH  58  82
ATOM     82  C   UNL A   1      40.056  28.642  29.959  1.00  0.00     0.064 A 
ATOM     83  C   UNL A   1      39.439  27.385  29.872  1.00  0.00     0.173 A 
ATOM     84  C   UNL A   1      40.677  29.143  28.805  1.00  0.00     0.173 A 
ATOM     85  F   UNL A   1      38.849  26.853  30.953  1.00  0.00    -0.203 F 
ATOM     86  C   UNL A   1      39.469  26.647  28.690  1.00  0.00     0.198 A 
ATOM     87  C   UNL A   1      40.679  28.418  27.615  1.00  0.00     0.198 A 
ATOM     88  F   UNL A   1      41.278  30.342  28.832  1.00  0.00    -0.203 F 
ATOM     89  F   UNL A   1      38.922  25.425  28.653  1.00  0.00    -0.200 F 
ATOM     90  C   UNL A   1      40.085  27.166  27.561  1.00  0.00     0.200 A 
ATOM     91  F   UNL A   1      41.262  28.930  26.522  1.00  0.00    -0.200 F 
ATOM     92  F   UNL A   1      40.116  26.456  26.426  1.00  0.00    -0.200 F 
ENDBRANCH  58  82
BRANCH  70  93
ATOM     93  C   UNL A   1      44.350  28.652  35.446  1.00  0.00     0.064 A 
ATOM     94  C   UNL A   1      45.639  29.052  35.065  1.00  0.00     0.173 A 
ATOM     95  C   UNL A   1      44.223  27.475  36.200  1.00  0.00     0.173 A 
ATOM     96  F   UNL A   1      45.812  30.161  34.331  1.00  0.00    -0.203 F 
ATOM     97  C   UNL A   1      46.754  28.288  35.402  1.00  0.00     0.198 A 
ATOM     98  C   UNL A   1      45.343  26.731  36.564  1.00  0.00     0.198 A 
ATOM     99  F   UNL A   1      43.013  27.052  36.597  1.00  0.00    -0.203 F 
ATOM    100  F   UNL A   1      47.971  28.662  34.983  1.00  0.00    -0.200 F 
ATOM    101  C   UNL A   1      46.605  27.133  36.157  1.00  0.00     0.200 A 
ATOM    102  F   UNL A   1      45.199  25.624  37.306  1.00  0.00    -0.200 F 
ATOM    103  F   UNL A   1      47.680  26.405  36.487  1.00  0.00    -0.200 F 
ENDBRANCH  70  93
ENDBRANCH  44  45
ENDBRANCH  36  39
ENDBRANCH  34  35
ENDBRANCH  33  34
ENDBRANCH   1  33
TORSDOF 14
ENDMDL
