MODEL 1
REMARK VINA RESULT:     -13.2      0.000      0.000
REMARK SMILES COc1ccc(CCN2C(=O)C[C@@H](C(=O)NCCCCNC(=O)c3ccc(-c4c5nc(c(-c6c(F)c(F)c(F)c(F)c6F)c6ccc([nH]6)c(-c6c(F)c(F)c(F)c(F)c6F)c6nc(c(-c7c(F)c(F)c(F)c(F)c7F)c7ccc4[nH]7)C=C6)C=C5)cc3)S/C2=[NH+]\c2ccc(F)cc2)cc1OC
REMARK SMILES IDX 17 1 16 2 14 3 15 4 13 6 9 7 10 8 88 9 11 10 12 11 87 12
REMARK SMILES IDX 89 13 8 15 7 16 6 17 3 18 4 19 98 20 5 21 97 22 2 23 1 24
REMARK SMILES IDX 99 25 100 26 90 27 91 28 96 29 92 30 95 31 93 32 94 33 18 34
REMARK SMILES IDX 19 35 20 36 21 37 22 38 23 40 24 41 25 42 86 43 26 44 85 45
REMARK SMILES IDX 27 46 28 47 29 48 79 49 30 50 84 51 78 52 80 53 31 54 83 55
REMARK SMILES IDX 77 56 76 57 32 59 64 60 44 61 63 62 45 63 48 64 62 65 81 66
REMARK SMILES IDX 46 67 47 68 61 70 82 71 49 72 33 73 34 74 42 75 35 76 36 77
REMARK SMILES IDX 40 78 43 79 37 80 38 81 41 82 39 83 65 84 66 85 74 86 67 87
REMARK SMILES IDX 68 88 72 89 75 90 69 91 70 92 73 93 71 94 50 95 51 96 59 97
REMARK SMILES IDX 52 98 53 99 57 100 60 101 54 102 55 103 58 104 56 105
REMARK H PARENT 16 5 89 14 21 39 80 58 48 69
REMARK Flexibility Score: inf
ROOT
ATOM      1  C   UNL A   1      38.942  20.954  25.560  1.00  0.00     0.116 C 
ENDROOT
BRANCH   1   2
ATOM      2  N   UNL A   1      38.121  22.010  26.123  1.00  0.00    -0.355 N 
ATOM      3  C   UNL A   1      36.896  22.495  25.758  1.00  0.00     0.234 C 
ATOM      4  O   UNL A   1      36.420  23.390  26.464  1.00  0.00    -0.274 OA
ATOM      5  H   UNL A   1      38.515  22.456  26.907  1.00  0.00     0.163 HD
BRANCH   3   6
ATOM      6  C   UNL A   1      36.091  21.934  24.581  1.00  0.00     0.160 C 
ATOM      7  N   UNL A   1      33.248  22.346  23.825  1.00  0.00    -0.191 N 
ATOM      8  C   UNL A   1      34.237  22.976  23.098  1.00  0.00     0.311 C 
ATOM      9  C   UNL A   1      33.472  21.039  24.222  1.00  0.00     0.319 C 
ATOM     10  O   UNL A   1      34.011  23.550  22.030  1.00  0.00    -0.247 OA
ATOM     11  C   UNL A   1      35.631  23.032  23.662  1.00  0.00     0.153 C 
ATOM     12  S   UNL A   1      34.899  20.760  25.190  1.00  0.00    -0.024 SA
ATOM     13  N   UNL A   1      32.624  20.090  23.950  1.00  0.00    -0.235 N 
ATOM     14  H   UNL A   1      31.760  20.294  23.523  1.00  0.00     0.313 HD
BRANCH   7  15
ATOM     15  C   UNL A   1      31.866  22.818  23.587  1.00  0.00     0.251 C 
BRANCH  15  16
ATOM     16  C   UNL A   1      31.230  23.536  24.815  1.00  0.00     0.082 C 
BRANCH  16  17
ATOM     17  C   UNL A   1      31.515  25.018  24.983  1.00  0.00    -0.040 A 
ATOM     18  C   UNL A   1      32.218  27.738  25.367  1.00  0.00     0.160 A 
ATOM     19  C   UNL A   1      31.851  26.941  26.448  1.00  0.00     0.051 A 
ATOM     20  C   UNL A   1      32.158  27.201  24.073  1.00  0.00     0.160 A 
ATOM     21  C   UNL A   1      31.453  25.619  26.241  1.00  0.00     0.008 A 
ATOM     22  C   UNL A   1      31.842  25.839  23.895  1.00  0.00     0.054 A 
BRANCH  18  23
ATOM     23  O   UNL A   1      32.730  28.994  25.549  1.00  0.00    -0.493 OA
ATOM     24  C   UNL A   1      31.777  30.051  25.573  1.00  0.00     0.278 C 
ENDBRANCH  18  23
BRANCH  20  25
ATOM     25  O   UNL A   1      32.394  27.879  22.902  1.00  0.00    -0.493 OA
ATOM     26  C   UNL A   1      33.649  27.629  22.271  1.00  0.00     0.278 C 
ENDBRANCH  20  25
ENDBRANCH  16  17
ENDBRANCH  15  16
ENDBRANCH   7  15
BRANCH  13  27
ATOM     27  C   UNL A   1      32.971  18.761  24.279  1.00  0.00     0.125 A 
ATOM     28  C   UNL A   1      32.544  18.219  25.501  1.00  0.00     0.055 A 
ATOM     29  C   UNL A   1      33.624  17.935  23.356  1.00  0.00     0.055 A 
ATOM     30  C   UNL A   1      32.686  16.853  25.757  1.00  0.00     0.043 A 
ATOM     31  C   UNL A   1      33.757  16.567  23.607  1.00  0.00     0.043 A 
ATOM     32  C   UNL A   1      33.273  16.037  24.798  1.00  0.00     0.123 A 
ATOM     33  F   UNL A   1      33.360  14.718  25.017  1.00  0.00    -0.207 F 
ENDBRANCH  13  27
ENDBRANCH   3   6
ENDBRANCH   1   2
BRANCH   1  34
ATOM     34  C   UNL A   1      40.062  20.487  26.486  1.00  0.00     0.023 C 
BRANCH  34  35
ATOM     35  C   UNL A   1      41.434  21.099  26.205  1.00  0.00     0.023 C 
BRANCH  35  36
ATOM     36  C   UNL A   1      41.420  22.523  25.667  1.00  0.00     0.116 C 
BRANCH  36  37
ATOM     37  N   UNL A   1      42.703  22.955  25.133  1.00  0.00    -0.352 N 
ATOM     38  C   UNL A   1      43.386  24.127  25.361  1.00  0.00     0.251 C 
ATOM     39  H   UNL A   1      43.142  22.320  24.522  1.00  0.00     0.163 HD
ATOM     40  O   UNL A   1      44.410  24.377  24.732  1.00  0.00    -0.269 OA
BRANCH  38  41
ATOM     41  C   UNL A   1      42.863  25.106  26.338  1.00  0.00     0.039 A 
ATOM     42  C   UNL A   1      41.880  24.698  27.243  1.00  0.00     0.014 A 
ATOM     43  C   UNL A   1      43.357  26.413  26.383  1.00  0.00     0.014 A 
ATOM     44  C   UNL A   1      41.452  25.574  28.244  1.00  0.00     0.010 A 
ATOM     45  C   UNL A   1      42.988  27.256  27.427  1.00  0.00     0.010 A 
ATOM     46  C   UNL A   1      42.035  26.845  28.372  1.00  0.00    -0.014 A 
BRANCH  46  47
ATOM     47  C   UNL A   1      41.673  27.753  29.492  1.00  0.00     0.031 A 
ATOM     48  C   UNL A   1      42.424  27.686  30.794  1.00  0.00     0.074 A 
ATOM     49  C   UNL A   1      40.619  28.581  29.365  1.00  0.00     0.049 A 
ATOM     50  N   UNL A   1      42.205  28.333  31.911  1.00  0.00    -0.248 NA
ATOM     51  C   UNL A   1      43.553  26.746  30.858  1.00  0.00     0.031 C 
ATOM     52  C   UNL A   1      39.775  28.702  28.174  1.00  0.00     0.029 A 
ATOM     53  N   UNL A   1      40.065  29.471  30.253  1.00  0.00    -0.354 N 
ATOM     54  C   UNL A   1      43.152  27.865  32.811  1.00  0.00     0.074 A 
ATOM     55  C   UNL A   1      43.915  26.844  32.128  1.00  0.00     0.031 C 
ATOM     56  C   UNL A   1      38.824  29.623  28.398  1.00  0.00     0.029 A 
ATOM     57  C   UNL A   1      38.964  30.130  29.761  1.00  0.00     0.049 A 
ATOM     58  H   UNL A   1      40.421  29.621  31.158  1.00  0.00     0.167 HD
ATOM     59  C   UNL A   1      43.379  28.267  34.085  1.00  0.00     0.037 A 
ATOM     60  C   UNL A   1      38.153  31.033  30.344  1.00  0.00     0.037 A 
ATOM     61  C   UNL A   1      42.638  29.306  34.750  1.00  0.00     0.049 A 
ATOM     62  C   UNL A   1      38.428  31.463  31.760  1.00  0.00     0.074 A 
ATOM     63  C   UNL A   1      42.842  29.836  36.012  1.00  0.00     0.029 A 
ATOM     64  N   UNL A   1      41.546  29.969  34.209  1.00  0.00    -0.354 N 
ATOM     65  N   UNL A   1      39.379  31.071  32.574  1.00  0.00    -0.248 NA
ATOM     66  C   UNL A   1      37.522  32.465  32.337  1.00  0.00     0.031 C 
ATOM     67  C   UNL A   1      41.842  30.784  36.255  1.00  0.00     0.029 A 
ATOM     68  C   UNL A   1      41.050  30.885  35.123  1.00  0.00     0.049 A 
ATOM     69  H   UNL A   1      41.179  29.812  33.309  1.00  0.00     0.167 HD
ATOM     70  C   UNL A   1      39.204  31.798  33.743  1.00  0.00     0.074 A 
ATOM     71  C   UNL A   1      38.066  32.667  33.529  1.00  0.00     0.031 C 
ATOM     72  C   UNL A   1      39.922  31.751  34.893  1.00  0.00     0.037 A 
BRANCH  59  73
ATOM     73  C   UNL A   1      44.477  27.581  34.847  1.00  0.00     0.064 A 
ATOM     74  C   UNL A   1      45.789  28.079  34.857  1.00  0.00     0.173 A 
ATOM     75  C   UNL A   1      44.203  26.439  35.614  1.00  0.00     0.173 A 
ATOM     76  F   UNL A   1      46.106  29.162  34.132  1.00  0.00    -0.203 F 
ATOM     77  C   UNL A   1      46.791  27.440  35.583  1.00  0.00     0.198 A 
ATOM     78  C   UNL A   1      45.201  25.823  36.364  1.00  0.00     0.198 A 
ATOM     79  F   UNL A   1      42.965  25.925  35.644  1.00  0.00    -0.203 F 
ATOM     80  F   UNL A   1      48.048  27.905  35.537  1.00  0.00    -0.200 F 
ATOM     81  C   UNL A   1      46.495  26.319  36.341  1.00  0.00     0.200 A 
ATOM     82  F   UNL A   1      44.910  24.746  37.107  1.00  0.00    -0.200 F 
ATOM     83  F   UNL A   1      47.459  25.712  37.047  1.00  0.00    -0.200 F 
ENDBRANCH  59  73
BRANCH  60  84
ATOM     84  C   UNL A   1      37.009  31.607  29.587  1.00  0.00     0.064 A 
ATOM     85  C   UNL A   1      36.998  32.958  29.214  1.00  0.00     0.173 A 
ATOM     86  C   UNL A   1      35.900  30.824  29.233  1.00  0.00     0.173 A 
ATOM     87  F   UNL A   1      38.026  33.752  29.547  1.00  0.00    -0.203 F 
ATOM     88  C   UNL A   1      35.912  33.511  28.538  1.00  0.00     0.198 A 
ATOM     89  C   UNL A   1      34.827  31.371  28.531  1.00  0.00     0.198 A 
ATOM     90  F   UNL A   1      35.862  29.525  29.561  1.00  0.00    -0.203 F 
ATOM     91  F   UNL A   1      35.906  34.818  28.240  1.00  0.00    -0.200 F 
ATOM     92  C   UNL A   1      34.830  32.716  28.192  1.00  0.00     0.200 A 
ATOM     93  F   UNL A   1      33.791  30.595  28.186  1.00  0.00    -0.200 F 
ATOM     94  F   UNL A   1      33.786  33.247  27.542  1.00  0.00    -0.200 F 
ENDBRANCH  60  84
BRANCH  72  95
ATOM     95  C   UNL A   1      39.524  32.690  35.995  1.00  0.00     0.064 A 
ATOM     96  C   UNL A   1      38.589  32.326  36.973  1.00  0.00     0.173 A 
ATOM     97  C   UNL A   1      40.120  33.957  36.095  1.00  0.00     0.173 A 
ATOM     98  F   UNL A   1      37.979  31.132  36.912  1.00  0.00    -0.203 F 
ATOM     99  C   UNL A   1      38.245  33.204  37.997  1.00  0.00     0.198 A 
ATOM    100  C   UNL A   1      39.798  34.821  37.137  1.00  0.00     0.198 A 
ATOM    101  F   UNL A   1      41.027  34.352  35.187  1.00  0.00    -0.203 F 
ATOM    102  F   UNL A   1      37.312  32.853  38.894  1.00  0.00    -0.200 F 
ATOM    103  C   UNL A   1      38.856  34.446  38.083  1.00  0.00     0.200 A 
ATOM    104  F   UNL A   1      40.400  36.014  37.227  1.00  0.00    -0.200 F 
ATOM    105  F   UNL A   1      38.529  35.287  39.075  1.00  0.00    -0.200 F 
ENDBRANCH  72  95
ENDBRANCH  46  47
ENDBRANCH  38  41
ENDBRANCH  36  37
ENDBRANCH  35  36
ENDBRANCH  34  35
ENDBRANCH   1  34
TORSDOF 17
ENDMDL
MODEL 2
REMARK VINA RESULT:     -13.1      4.565      6.745
REMARK SMILES COc1ccc(CCN2C(=O)C[C@@H](C(=O)NCCCCNC(=O)c3ccc(-c4c5nc(c(-c6c(F)c(F)c(F)c(F)c6F)c6ccc([nH]6)c(-c6c(F)c(F)c(F)c(F)c6F)c6nc(c(-c7c(F)c(F)c(F)c(F)c7F)c7ccc4[nH]7)C=C6)C=C5)cc3)S/C2=[NH+]\c2ccc(F)cc2)cc1OC
REMARK SMILES IDX 17 1 16 2 14 3 15 4 13 6 9 7 10 8 88 9 11 10 12 11 87 12
REMARK SMILES IDX 89 13 8 15 7 16 6 17 3 18 4 19 98 20 5 21 97 22 2 23 1 24
REMARK SMILES IDX 99 25 100 26 90 27 91 28 96 29 92 30 95 31 93 32 94 33 18 34
REMARK SMILES IDX 19 35 20 36 21 37 22 38 23 40 24 41 25 42 86 43 26 44 85 45
REMARK SMILES IDX 27 46 28 47 29 48 79 49 30 50 84 51 78 52 80 53 31 54 83 55
REMARK SMILES IDX 77 56 76 57 32 59 64 60 44 61 63 62 45 63 48 64 62 65 81 66
REMARK SMILES IDX 46 67 47 68 61 70 82 71 49 72 33 73 34 74 42 75 35 76 36 77
REMARK SMILES IDX 40 78 43 79 37 80 38 81 41 82 39 83 65 84 66 85 74 86 67 87
REMARK SMILES IDX 68 88 72 89 75 90 69 91 70 92 73 93 71 94 50 95 51 96 59 97
REMARK SMILES IDX 52 98 53 99 57 100 60 101 54 102 55 103 58 104 56 105
REMARK H PARENT 16 5 89 14 21 39 80 58 48 69
REMARK Flexibility Score: inf
ROOT
ATOM      1  C   UNL A   1      38.453  22.396  25.637  1.00  0.00     0.116 C 
ENDROOT
BRANCH   1   2
ATOM      2  N   UNL A   1      37.283  22.830  26.378  1.00  0.00    -0.355 N 
ATOM      3  C   UNL A   1      35.952  22.778  26.075  1.00  0.00     0.234 C 
ATOM      4  O   UNL A   1      35.170  23.196  26.936  1.00  0.00    -0.274 OA
ATOM      5  H   UNL A   1      37.484  23.232  27.253  1.00  0.00     0.163 HD
BRANCH   3   6
ATOM      6  C   UNL A   1      35.412  22.172  24.775  1.00  0.00     0.160 C 
ATOM      7  N   UNL A   1      32.756  22.461  23.475  1.00  0.00    -0.191 N 
ATOM      8  C   UNL A   1      33.843  23.122  22.942  1.00  0.00     0.311 C 
ATOM      9  C   UNL A   1      32.948  21.168  23.933  1.00  0.00     0.319 C 
ATOM     10  O   UNL A   1      33.807  23.675  21.840  1.00  0.00    -0.247 OA
ATOM     11  C   UNL A   1      35.098  23.241  23.764  1.00  0.00     0.153 C 
ATOM     12  S   UNL A   1      34.169  20.957  25.163  1.00  0.00    -0.024 SA
ATOM     13  N   UNL A   1      32.205  20.183  23.519  1.00  0.00    -0.235 N 
ATOM     14  H   UNL A   1      31.433  20.347  22.929  1.00  0.00     0.313 HD
BRANCH   7  15
ATOM     15  C   UNL A   1      31.430  22.874  22.966  1.00  0.00     0.251 C 
BRANCH  15  16
ATOM     16  C   UNL A   1      30.614  23.737  23.974  1.00  0.00     0.082 C 
BRANCH  16  17
ATOM     17  C   UNL A   1      30.635  25.243  23.782  1.00  0.00    -0.040 A 
ATOM     18  C   UNL A   1      30.611  28.073  23.604  1.00  0.00     0.160 A 
ATOM     19  C   UNL A   1      29.424  27.348  23.540  1.00  0.00     0.051 A 
ATOM     20  C   UNL A   1      31.828  27.381  23.676  1.00  0.00     0.160 A 
ATOM     21  C   UNL A   1      29.452  25.953  23.574  1.00  0.00     0.008 A 
ATOM     22  C   UNL A   1      31.829  25.977  23.800  1.00  0.00     0.054 A 
BRANCH  18  23
ATOM     23  O   UNL A   1      30.609  29.438  23.699  1.00  0.00    -0.493 OA
ATOM     24  C   UNL A   1      29.376  30.077  23.386  1.00  0.00     0.278 C 
ENDBRANCH  18  23
BRANCH  20  25
ATOM     25  O   UNL A   1      33.083  27.942  23.650  1.00  0.00    -0.493 OA
ATOM     26  C   UNL A   1      33.720  28.002  22.376  1.00  0.00     0.278 C 
ENDBRANCH  20  25
ENDBRANCH  16  17
ENDBRANCH  15  16
ENDBRANCH   7  15
BRANCH  13  27
ATOM     27  C   UNL A   1      32.531  18.873  23.933  1.00  0.00     0.125 A 
ATOM     28  C   UNL A   1      33.205  18.017  23.049  1.00  0.00     0.055 A 
ATOM     29  C   UNL A   1      32.308  18.456  25.252  1.00  0.00     0.055 A 
ATOM     30  C   UNL A   1      33.726  16.802  23.499  1.00  0.00     0.043 A 
ATOM     31  C   UNL A   1      32.840  17.246  25.706  1.00  0.00     0.043 A 
ATOM     32  C   UNL A   1      33.556  16.438  24.829  1.00  0.00     0.123 A 
ATOM     33  F   UNL A   1      34.104  15.301  25.278  1.00  0.00    -0.207 F 
ENDBRANCH  13  27
ENDBRANCH   3   6
ENDBRANCH   1   2
BRANCH   1  34
ATOM     34  C   UNL A   1      39.702  22.231  26.501  1.00  0.00     0.023 C 
BRANCH  34  35
ATOM     35  C   UNL A   1      40.034  20.793  26.893  1.00  0.00     0.023 C 
BRANCH  35  36
ATOM     36  C   UNL A   1      40.045  19.785  25.751  1.00  0.00     0.116 C 
BRANCH  36  37
ATOM     37  N   UNL A   1      41.112  18.803  25.853  1.00  0.00    -0.352 N 
ATOM     38  C   UNL A   1      42.457  19.003  26.065  1.00  0.00     0.251 C 
ATOM     39  H   UNL A   1      40.834  17.864  25.755  1.00  0.00     0.163 HD
ATOM     40  O   UNL A   1      43.238  18.058  26.007  1.00  0.00    -0.269 OA
BRANCH  38  41
ATOM     41  C   UNL A   1      42.967  20.367  26.324  1.00  0.00     0.039 A 
ATOM     42  C   UNL A   1      43.342  21.165  25.241  1.00  0.00     0.014 A 
ATOM     43  C   UNL A   1      43.049  20.869  27.626  1.00  0.00     0.014 A 
ATOM     44  C   UNL A   1      43.720  22.493  25.456  1.00  0.00     0.010 A 
ATOM     45  C   UNL A   1      43.350  22.213  27.831  1.00  0.00     0.010 A 
ATOM     46  C   UNL A   1      43.685  23.041  26.748  1.00  0.00    -0.014 A 
BRANCH  46  47
ATOM     47  C   UNL A   1      43.980  24.478  26.988  1.00  0.00     0.031 A 
ATOM     48  C   UNL A   1      45.385  24.996  26.845  1.00  0.00     0.074 A 
ATOM     49  C   UNL A   1      42.999  25.299  27.410  1.00  0.00     0.049 A 
ATOM     50  N   UNL A   1      45.856  26.192  27.091  1.00  0.00    -0.248 NA
ATOM     51  C   UNL A   1      46.401  24.034  26.393  1.00  0.00     0.031 C 
ATOM     52  C   UNL A   1      41.607  24.907  27.640  1.00  0.00     0.029 A 
ATOM     53  N   UNL A   1      43.025  26.633  27.737  1.00  0.00    -0.354 N 
ATOM     54  C   UNL A   1      47.219  26.121  26.844  1.00  0.00     0.074 A 
ATOM     55  C   UNL A   1      47.511  24.751  26.478  1.00  0.00     0.031 C 
ATOM     56  C   UNL A   1      40.910  25.978  28.052  1.00  0.00     0.029 A 
ATOM     57  C   UNL A   1      41.812  27.122  28.155  1.00  0.00     0.049 A 
ATOM     58  H   UNL A   1      43.837  27.186  27.679  1.00  0.00     0.167 HD
ATOM     59  C   UNL A   1      48.142  27.112  26.896  1.00  0.00     0.037 A 
ATOM     60  C   UNL A   1      41.466  28.352  28.583  1.00  0.00     0.037 A 
ATOM     61  C   UNL A   1      47.842  28.479  27.230  1.00  0.00     0.049 A 
ATOM     62  C   UNL A   1      42.510  29.435  28.630  1.00  0.00     0.074 A 
ATOM     63  C   UNL A   1      48.694  29.571  27.235  1.00  0.00     0.029 A 
ATOM     64  N   UNL A   1      46.595  28.943  27.622  1.00  0.00    -0.354 N 
ATOM     65  N   UNL A   1      43.781  29.374  28.315  1.00  0.00    -0.248 NA
ATOM     66  C   UNL A   1      42.070  30.761  29.086  1.00  0.00     0.031 C 
ATOM     67  C   UNL A   1      47.974  30.684  27.681  1.00  0.00     0.029 A 
ATOM     68  C   UNL A   1      46.661  30.299  27.899  1.00  0.00     0.049 A 
ATOM     69  H   UNL A   1      45.784  28.390  27.693  1.00  0.00     0.167 HD
ATOM     70  C   UNL A   1      44.284  30.654  28.504  1.00  0.00     0.074 A 
ATOM     71  C   UNL A   1      43.177  31.476  28.947  1.00  0.00     0.031 C 
ATOM     72  C   UNL A   1      45.549  31.108  28.328  1.00  0.00     0.037 A 
BRANCH  59  73
ATOM     73  C   UNL A   1      49.567  26.755  26.583  1.00  0.00     0.064 A 
ATOM     74  C   UNL A   1      50.050  26.734  25.266  1.00  0.00     0.173 A 
ATOM     75  C   UNL A   1      50.473  26.476  27.618  1.00  0.00     0.173 A 
ATOM     76  F   UNL A   1      49.223  26.983  24.240  1.00  0.00    -0.203 F 
ATOM     77  C   UNL A   1      51.378  26.418  24.995  1.00  0.00     0.198 A 
ATOM     78  C   UNL A   1      51.808  26.192  27.344  1.00  0.00     0.198 A 
ATOM     79  F   UNL A   1      50.065  26.487  28.895  1.00  0.00    -0.203 F 
ATOM     80  F   UNL A   1      51.804  26.356  23.725  1.00  0.00    -0.200 F 
ATOM     81  C   UNL A   1      52.258  26.155  26.033  1.00  0.00     0.200 A 
ATOM     82  F   UNL A   1      52.660  25.951  28.350  1.00  0.00    -0.200 F 
ATOM     83  F   UNL A   1      53.538  25.861  25.770  1.00  0.00    -0.200 F 
ENDBRANCH  59  73
BRANCH  60  84
ATOM     84  C   UNL A   1      40.063  28.634  28.988  1.00  0.00     0.064 A 
ATOM     85  C   UNL A   1      39.637  28.421  30.306  1.00  0.00     0.173 A 
ATOM     86  C   UNL A   1      39.117  29.107  28.066  1.00  0.00     0.173 A 
ATOM     87  F   UNL A   1      40.499  27.949  31.219  1.00  0.00    -0.203 F 
ATOM     88  C   UNL A   1      38.315  28.646  30.683  1.00  0.00     0.198 A 
ATOM     89  C   UNL A   1      37.802  29.361  28.450  1.00  0.00     0.198 A 
ATOM     90  F   UNL A   1      39.474  29.333  26.794  1.00  0.00    -0.203 F 
ATOM     91  F   UNL A   1      37.923  28.384  31.937  1.00  0.00    -0.200 F 
ATOM     92  C   UNL A   1      37.399  29.121  29.755  1.00  0.00     0.200 A 
ATOM     93  F   UNL A   1      36.924  29.835  27.555  1.00  0.00    -0.200 F 
ATOM     94  F   UNL A   1      36.127  29.339  30.117  1.00  0.00    -0.200 F 
ENDBRANCH  60  84
BRANCH  72  95
ATOM     95  C   UNL A   1      45.800  32.567  28.576  1.00  0.00     0.064 A 
ATOM     96  C   UNL A   1      46.223  33.041  29.826  1.00  0.00     0.173 A 
ATOM     97  C   UNL A   1      45.654  33.498  27.536  1.00  0.00     0.173 A 
ATOM     98  F   UNL A   1      46.362  32.194  30.857  1.00  0.00    -0.203 F 
ATOM     99  C   UNL A   1      46.467  34.396  30.032  1.00  0.00     0.198 A 
ATOM    100  C   UNL A   1      45.929  34.847  27.736  1.00  0.00     0.198 A 
ATOM    101  F   UNL A   1      45.258  33.094  26.318  1.00  0.00    -0.203 F 
ATOM    102  F   UNL A   1      46.824  34.834  31.248  1.00  0.00    -0.200 F 
ATOM    103  C   UNL A   1      46.328  35.296  28.986  1.00  0.00     0.200 A 
ATOM    104  F   UNL A   1      45.808  35.712  26.720  1.00  0.00    -0.200 F 
ATOM    105  F   UNL A   1      46.571  36.599  29.184  1.00  0.00    -0.200 F 
ENDBRANCH  72  95
ENDBRANCH  46  47
ENDBRANCH  38  41
ENDBRANCH  36  37
ENDBRANCH  35  36
ENDBRANCH  34  35
ENDBRANCH   1  34
TORSDOF 17
ENDMDL
MODEL 3
REMARK VINA RESULT:     -13.0      4.465      6.693
REMARK SMILES COc1ccc(CCN2C(=O)C[C@@H](C(=O)NCCCCNC(=O)c3ccc(-c4c5nc(c(-c6c(F)c(F)c(F)c(F)c6F)c6ccc([nH]6)c(-c6c(F)c(F)c(F)c(F)c6F)c6nc(c(-c7c(F)c(F)c(F)c(F)c7F)c7ccc4[nH]7)C=C6)C=C5)cc3)S/C2=[NH+]\c2ccc(F)cc2)cc1OC
REMARK SMILES IDX 17 1 16 2 14 3 15 4 13 6 9 7 10 8 88 9 11 10 12 11 87 12
REMARK SMILES IDX 89 13 8 15 7 16 6 17 3 18 4 19 98 20 5 21 97 22 2 23 1 24
REMARK SMILES IDX 99 25 100 26 90 27 91 28 96 29 92 30 95 31 93 32 94 33 18 34
REMARK SMILES IDX 19 35 20 36 21 37 22 38 23 40 24 41 25 42 86 43 26 44 85 45
REMARK SMILES IDX 27 46 28 47 29 48 79 49 30 50 84 51 78 52 80 53 31 54 83 55
REMARK SMILES IDX 77 56 76 57 32 59 64 60 44 61 63 62 45 63 48 64 62 65 81 66
REMARK SMILES IDX 46 67 47 68 61 70 82 71 49 72 33 73 34 74 42 75 35 76 36 77
REMARK SMILES IDX 40 78 43 79 37 80 38 81 41 82 39 83 65 84 66 85 74 86 67 87
REMARK SMILES IDX 68 88 72 89 75 90 69 91 70 92 73 93 71 94 50 95 51 96 59 97
REMARK SMILES IDX 52 98 53 99 57 100 60 101 54 102 55 103 58 104 56 105
REMARK H PARENT 16 5 89 14 21 39 80 58 48 69
REMARK Flexibility Score: inf
ROOT
ATOM      1  C   UNL A   1      38.496  22.486  25.629  1.00  0.00     0.116 C 
ENDROOT
BRANCH   1   2
ATOM      2  N   UNL A   1      37.302  22.828  26.381  1.00  0.00    -0.355 N 
ATOM      3  C   UNL A   1      35.976  22.690  26.082  1.00  0.00     0.234 C 
ATOM      4  O   UNL A   1      35.172  23.041  26.952  1.00  0.00    -0.274 OA
ATOM      5  H   UNL A   1      37.480  23.229  27.262  1.00  0.00     0.163 HD
BRANCH   3   6
ATOM      6  C   UNL A   1      35.472  22.069  24.774  1.00  0.00     0.160 C 
ATOM      7  N   UNL A   1      32.861  22.359  23.388  1.00  0.00    -0.191 N 
ATOM      8  C   UNL A   1      33.970  23.005  22.880  1.00  0.00     0.311 C 
ATOM      9  C   UNL A   1      33.028  21.072  23.870  1.00  0.00     0.319 C 
ATOM     10  O   UNL A   1      33.973  23.542  21.770  1.00  0.00    -0.247 OA
ATOM     11  C   UNL A   1      35.199  23.126  23.739  1.00  0.00     0.153 C 
ATOM     12  S   UNL A   1      34.209  20.870  25.141  1.00  0.00    -0.024 SA
ATOM     13  N   UNL A   1      32.291  20.087  23.447  1.00  0.00    -0.235 N 
ATOM     14  H   UNL A   1      31.539  20.248  22.831  1.00  0.00     0.313 HD
BRANCH   7  15
ATOM     15  C   UNL A   1      31.555  22.775  22.831  1.00  0.00     0.251 C 
BRANCH  15  16
ATOM     16  C   UNL A   1      30.666  23.561  23.841  1.00  0.00     0.082 C 
BRANCH  16  17
ATOM     17  C   UNL A   1      31.230  24.850  24.412  1.00  0.00    -0.040 A 
ATOM     18  C   UNL A   1      32.447  27.216  25.391  1.00  0.00     0.160 A 
ATOM     19  C   UNL A   1      32.751  25.979  25.951  1.00  0.00     0.051 A 
ATOM     20  C   UNL A   1      31.469  27.289  24.389  1.00  0.00     0.160 A 
ATOM     21  C   UNL A   1      32.105  24.827  25.498  1.00  0.00     0.008 A 
ATOM     22  C   UNL A   1      30.895  26.105  23.885  1.00  0.00     0.054 A 
BRANCH  18  23
ATOM     23  O   UNL A   1      33.150  28.342  25.724  1.00  0.00    -0.493 OA
ATOM     24  C   UNL A   1      33.551  28.439  27.086  1.00  0.00     0.278 C 
ENDBRANCH  18  23
BRANCH  20  25
ATOM     25  O   UNL A   1      30.989  28.437  23.805  1.00  0.00    -0.493 OA
ATOM     26  C   UNL A   1      30.512  28.312  22.467  1.00  0.00     0.278 C 
ENDBRANCH  20  25
ENDBRANCH  16  17
ENDBRANCH  15  16
ENDBRANCH   7  15
BRANCH  13  27
ATOM     27  C   UNL A   1      32.594  18.780  23.890  1.00  0.00     0.125 A 
ATOM     28  C   UNL A   1      33.283  17.905  23.038  1.00  0.00     0.055 A 
ATOM     29  C   UNL A   1      32.331  18.385  25.208  1.00  0.00     0.055 A 
ATOM     30  C   UNL A   1      33.781  16.692  23.521  1.00  0.00     0.043 A 
ATOM     31  C   UNL A   1      32.839  17.178  25.695  1.00  0.00     0.043 A 
ATOM     32  C   UNL A   1      33.572  16.351  24.851  1.00  0.00     0.123 A 
ATOM     33  F   UNL A   1      34.097  15.216  25.332  1.00  0.00    -0.207 F 
ENDBRANCH  13  27
ENDBRANCH   3   6
ENDBRANCH   1   2
BRANCH   1  34
ATOM     34  C   UNL A   1      39.726  22.248  26.503  1.00  0.00     0.023 C 
BRANCH  34  35
ATOM     35  C   UNL A   1      39.956  20.796  26.919  1.00  0.00     0.023 C 
BRANCH  35  36
ATOM     36  C   UNL A   1      40.033  19.790  25.778  1.00  0.00     0.116 C 
BRANCH  36  37
ATOM     37  N   UNL A   1      41.104  18.818  25.933  1.00  0.00    -0.352 N 
ATOM     38  C   UNL A   1      42.439  19.032  26.192  1.00  0.00     0.251 C 
ATOM     39  H   UNL A   1      40.837  17.875  25.838  1.00  0.00     0.163 HD
ATOM     40  O   UNL A   1      43.229  18.093  26.176  1.00  0.00    -0.269 OA
BRANCH  38  41
ATOM     41  C   UNL A   1      42.927  20.404  26.450  1.00  0.00     0.039 A 
ATOM     42  C   UNL A   1      43.309  21.200  25.367  1.00  0.00     0.014 A 
ATOM     43  C   UNL A   1      42.985  20.914  27.750  1.00  0.00     0.014 A 
ATOM     44  C   UNL A   1      43.667  22.534  25.580  1.00  0.00     0.010 A 
ATOM     45  C   UNL A   1      43.266  22.263  27.951  1.00  0.00     0.010 A 
ATOM     46  C   UNL A   1      43.607  23.089  26.868  1.00  0.00    -0.014 A 
BRANCH  46  47
ATOM     47  C   UNL A   1      43.881  24.531  27.104  1.00  0.00     0.031 A 
ATOM     48  C   UNL A   1      45.266  25.080  26.904  1.00  0.00     0.074 A 
ATOM     49  C   UNL A   1      42.901  25.328  27.572  1.00  0.00     0.049 A 
ATOM     50  N   UNL A   1      45.721  26.285  27.137  1.00  0.00    -0.248 NA
ATOM     51  C   UNL A   1      46.283  24.143  26.404  1.00  0.00     0.031 C 
ATOM     52  C   UNL A   1      41.529  24.905  27.859  1.00  0.00     0.029 A 
ATOM     53  N   UNL A   1      42.912  26.660  27.906  1.00  0.00    -0.354 N 
ATOM     54  C   UNL A   1      47.074  26.245  26.832  1.00  0.00     0.074 A 
ATOM     55  C   UNL A   1      47.380  24.884  26.445  1.00  0.00     0.031 C 
ATOM     56  C   UNL A   1      40.827  25.958  28.307  1.00  0.00     0.029 A 
ATOM     57  C   UNL A   1      41.707  27.121  28.378  1.00  0.00     0.049 A 
ATOM     58  H   UNL A   1      43.709  27.231  27.817  1.00  0.00     0.167 HD
ATOM     59  C   UNL A   1      47.977  27.255  26.851  1.00  0.00     0.037 A 
ATOM     60  C   UNL A   1      41.353  28.341  28.828  1.00  0.00     0.037 A 
ATOM     61  C   UNL A   1      47.662  28.614  27.205  1.00  0.00     0.049 A 
ATOM     62  C   UNL A   1      42.375  29.446  28.837  1.00  0.00     0.074 A 
ATOM     63  C   UNL A   1      48.489  29.724  27.180  1.00  0.00     0.029 A 
ATOM     64  N   UNL A   1      46.423  29.049  27.652  1.00  0.00    -0.354 N 
ATOM     65  N   UNL A   1      43.633  29.414  28.468  1.00  0.00    -0.248 NA
ATOM     66  C   UNL A   1      41.926  30.760  29.319  1.00  0.00     0.031 C 
ATOM     67  C   UNL A   1      47.765  30.820  27.662  1.00  0.00     0.029 A 
ATOM     68  C   UNL A   1      46.472  30.405  27.934  1.00  0.00     0.049 A 
ATOM     69  H   UNL A   1      45.628  28.478  27.755  1.00  0.00     0.167 HD
ATOM     70  C   UNL A   1      44.115  30.704  28.643  1.00  0.00     0.074 A 
ATOM     71  C   UNL A   1      43.011  31.499  29.137  1.00  0.00     0.031 C 
ATOM     72  C   UNL A   1      45.362  31.187  28.415  1.00  0.00     0.037 A 
BRANCH  59  73
ATOM     73  C   UNL A   1      49.394  26.932  26.475  1.00  0.00     0.064 A 
ATOM     74  C   UNL A   1      50.336  26.525  27.432  1.00  0.00     0.173 A 
ATOM     75  C   UNL A   1      49.803  26.986  25.134  1.00  0.00     0.173 A 
ATOM     76  F   UNL A   1      50.000  26.467  28.729  1.00  0.00    -0.203 F 
ATOM     77  C   UNL A   1      51.642  26.212  27.063  1.00  0.00     0.198 A 
ATOM     78  C   UNL A   1      51.101  26.641  24.766  1.00  0.00     0.198 A 
ATOM     79  F   UNL A   1      48.942  27.363  24.178  1.00  0.00    -0.203 F 
ATOM     80  F   UNL A   1      52.538  25.873  28.002  1.00  0.00    -0.200 F 
ATOM     81  C   UNL A   1      52.021  26.263  25.732  1.00  0.00     0.200 A 
ATOM     82  F   UNL A   1      51.463  26.678  23.476  1.00  0.00    -0.200 F 
ATOM     83  F   UNL A   1      53.276  25.951  25.378  1.00  0.00    -0.200 F 
ENDBRANCH  59  73
BRANCH  60  84
ATOM     84  C   UNL A   1      39.963  28.590  29.294  1.00  0.00     0.064 A 
ATOM     85  C   UNL A   1      38.985  29.074  28.415  1.00  0.00     0.173 A 
ATOM     86  C   UNL A   1      39.587  28.363  30.626  1.00  0.00     0.173 A 
ATOM     87  F   UNL A   1      39.301  29.326  27.135  1.00  0.00    -0.203 F 
ATOM     88  C   UNL A   1      37.691  29.345  28.854  1.00  0.00     0.198 A 
ATOM     89  C   UNL A   1      38.285  28.607  31.058  1.00  0.00     0.198 A 
ATOM     90  F   UNL A   1      40.483  27.896  31.507  1.00  0.00    -0.203 F 
ATOM     91  F   UNL A   1      36.790  29.857  28.003  1.00  0.00    -0.200 F 
ATOM     92  C   UNL A   1      37.340  29.107  30.174  1.00  0.00     0.200 A 
ATOM     93  F   UNL A   1      37.946  28.360  32.331  1.00  0.00    -0.200 F 
ATOM     94  F   UNL A   1      36.096  29.367  30.597  1.00  0.00    -0.200 F 
ENDBRANCH  60  84
BRANCH  72  95
ATOM     95  C   UNL A   1      45.591  32.650  28.661  1.00  0.00     0.064 A 
ATOM     96  C   UNL A   1      45.350  33.611  27.670  1.00  0.00     0.173 A 
ATOM     97  C   UNL A   1      46.018  33.098  29.921  1.00  0.00     0.173 A 
ATOM     98  F   UNL A   1      44.956  33.233  26.444  1.00  0.00    -0.203 F 
ATOM     99  C   UNL A   1      45.553  34.965  27.922  1.00  0.00     0.198 A 
ATOM    100  C   UNL A   1      46.189  34.455  30.179  1.00  0.00     0.198 A 
ATOM    101  F   UNL A   1      46.256  32.219  30.906  1.00  0.00    -0.203 F 
ATOM    102  F   UNL A   1      45.363  35.863  26.944  1.00  0.00    -0.200 F 
ATOM    103  C   UNL A   1      45.963  35.386  29.178  1.00  0.00     0.200 A 
ATOM    104  F   UNL A   1      46.571  34.860  31.398  1.00  0.00    -0.200 F 
ATOM    105  F   UNL A   1      46.149  36.691  29.420  1.00  0.00    -0.200 F 
ENDBRANCH  72  95
ENDBRANCH  46  47
ENDBRANCH  38  41
ENDBRANCH  36  37
ENDBRANCH  35  36
ENDBRANCH  34  35
ENDBRANCH   1  34
TORSDOF 17
ENDMDL
