MODEL 1
REMARK VINA RESULT:     -12.6      0.000      0.000
REMARK SMILES O=C(CSc1nnc(C2CC2)n1-c1cccc2ccccc12)NCCCCNC(=O)c1ccc(-c2c3nc(c(-c4c(F)c(F)c(F)c(F)c4F)c4ccc([nH]4)c(-c4c(F)c(F)c(F)c(F)c4F)c4nc(c(-c5c(F)c(F)c(F)c(F)c5F)c5ccc2[nH]5)C=C4)C=C3)cc1
REMARK SMILES IDX 25 1 24 2 23 3 1 4 2 5 3 7 4 8 5 9 6 10 12 11 7 12 8 13
REMARK SMILES IDX 13 14 14 15 22 16 15 17 17 18 21 19 16 20 18 21 20 22 19 23
REMARK SMILES IDX 9 24 10 25 11 26 26 27 27 28 28 29 29 30 30 32 31 33 32 34
REMARK SMILES IDX 93 35 33 36 92 37 34 38 35 39 36 40 86 41 37 42 91 43 85 44
REMARK SMILES IDX 87 45 38 46 90 47 84 48 83 49 39 51 71 52 51 53 70 54 52 55
REMARK SMILES IDX 55 56 69 57 88 58 53 59 54 60 68 62 89 63 56 64 40 65 41 66
REMARK SMILES IDX 49 67 42 68 43 69 47 70 50 71 44 72 45 73 48 74 46 75 72 76
REMARK SMILES IDX 73 77 81 78 74 79 75 80 79 81 82 82 76 83 77 84 80 85 78 86
REMARK SMILES IDX 57 87 58 88 66 89 59 90 60 91 64 92 67 93 61 94 62 95 65 96
REMARK SMILES IDX 63 97
REMARK H PARENT 23 6 28 31 87 50 55 61
REMARK Flexibility Score: inf
ROOT
ATOM      1  C   UNL A   1      41.957  20.587  26.175  1.00  0.00     0.023 C 
ENDROOT
BRANCH   1   2
ATOM      2  C   UNL A   1      40.738  20.641  27.116  1.00  0.00     0.116 C 
BRANCH   2   3
ATOM      3  N   UNL A   1      39.800  21.735  26.868  1.00  0.00    -0.355 N 
ATOM      4  O   UNL A   1      38.606  20.588  25.284  1.00  0.00    -0.274 OA
ATOM      5  C   UNL A   1      38.746  21.599  25.973  1.00  0.00     0.230 C 
ATOM      6  H   UNL A   1      39.918  22.588  27.345  1.00  0.00     0.163 HD
BRANCH   5   7
ATOM      7  C   UNL A   1      37.854  22.814  25.750  1.00  0.00     0.178 C 
BRANCH   7   8
ATOM      8  S   UNL A   1      36.934  22.843  24.212  1.00  0.00    -0.076 SA
BRANCH   8   9
ATOM      9  C   UNL A   1      35.435  21.988  24.518  1.00  0.00     0.196 A 
ATOM     10  N   UNL A   1      35.280  20.774  24.978  1.00  0.00    -0.123 NA
ATOM     11  N   UNL A   1      34.200  22.639  24.478  1.00  0.00    -0.273 N 
ATOM     12  N   UNL A   1      33.959  20.643  25.363  1.00  0.00    -0.134 NA
ATOM     13  C   UNL A   1      33.331  21.792  25.167  1.00  0.00     0.141 A 
BRANCH  11  14
ATOM     14  C   UNL A   1      34.148  24.037  24.412  1.00  0.00     0.057 A 
ATOM     15  C   UNL A   1      34.400  24.798  25.567  1.00  0.00     0.027 A 
ATOM     16  C   UNL A   1      33.553  24.568  23.263  1.00  0.00     0.006 A 
ATOM     17  C   UNL A   1      34.116  26.161  25.567  1.00  0.00     0.003 A 
ATOM     18  C   UNL A   1      33.333  25.942  23.285  1.00  0.00    -0.016 A 
ATOM     19  C   UNL A   1      33.191  23.790  22.113  1.00  0.00     0.011 A 
ATOM     20  C   UNL A   1      33.585  26.739  24.421  1.00  0.00     0.009 A 
ATOM     21  C   UNL A   1      32.918  26.502  22.109  1.00  0.00     0.009 A 
ATOM     22  C   UNL A   1      32.805  24.365  20.940  1.00  0.00     0.001 A 
ATOM     23  C   UNL A   1      32.714  25.721  20.950  1.00  0.00     0.001 A 
ENDBRANCH  11  14
BRANCH  13  24
ATOM     24  C   UNL A   1      31.937  22.006  25.822  1.00  0.00     0.058 C 
ATOM     25  C   UNL A   1      31.578  23.152  26.757  1.00  0.00     0.012 C 
ATOM     26  C   UNL A   1      31.015  23.118  25.384  1.00  0.00     0.012 C 
ENDBRANCH  13  24
ENDBRANCH   8   9
ENDBRANCH   7   8
ENDBRANCH   5   7
ENDBRANCH   2   3
ENDBRANCH   1   2
BRANCH   1  27
ATOM     27  C   UNL A   1      42.368  19.221  25.600  1.00  0.00     0.023 C 
BRANCH  27  28
ATOM     28  C   UNL A   1      43.709  18.664  26.081  1.00  0.00     0.116 C 
BRANCH  28  29
ATOM     29  N   UNL A   1      44.820  18.724  25.116  1.00  0.00    -0.352 N 
ATOM     30  C   UNL A   1      45.322  19.811  24.379  1.00  0.00     0.251 C 
ATOM     31  H   UNL A   1      45.282  17.870  24.961  1.00  0.00     0.163 HD
ATOM     32  O   UNL A   1      45.997  19.617  23.384  1.00  0.00    -0.269 OA
BRANCH  30  33
ATOM     33  C   UNL A   1      45.067  21.212  24.821  1.00  0.00     0.039 A 
ATOM     34  C   UNL A   1      44.307  22.179  24.140  1.00  0.00     0.014 A 
ATOM     35  C   UNL A   1      45.616  21.581  26.012  1.00  0.00     0.014 A 
ATOM     36  C   UNL A   1      44.137  23.485  24.693  1.00  0.00     0.010 A 
ATOM     37  C   UNL A   1      45.118  22.683  26.643  1.00  0.00     0.010 A 
ATOM     38  C   UNL A   1      44.615  23.770  25.971  1.00  0.00    -0.014 A 
BRANCH  38  39
ATOM     39  C   UNL A   1      44.323  24.957  26.819  1.00  0.00     0.031 A 
ATOM     40  C   UNL A   1      45.186  26.086  26.424  1.00  0.00     0.074 A 
ATOM     41  C   UNL A   1      43.256  25.215  27.644  1.00  0.00     0.049 A 
ATOM     42  N   UNL A   1      46.191  26.488  27.121  1.00  0.00    -0.248 NA
ATOM     43  C   UNL A   1      45.089  26.713  25.097  1.00  0.00     0.031 C 
ATOM     44  C   UNL A   1      42.149  24.334  28.052  1.00  0.00     0.029 A 
ATOM     45  N   UNL A   1      42.832  26.422  28.181  1.00  0.00    -0.354 N 
ATOM     46  C   UNL A   1      46.696  27.586  26.455  1.00  0.00     0.074 A 
ATOM     47  C   UNL A   1      46.151  27.526  25.125  1.00  0.00     0.031 C 
ATOM     48  C   UNL A   1      41.083  25.064  28.483  1.00  0.00     0.029 A 
ATOM     49  C   UNL A   1      41.491  26.451  28.626  1.00  0.00     0.049 A 
ATOM     50  H   UNL A   1      43.425  27.204  28.250  1.00  0.00     0.167 HD
ATOM     51  C   UNL A   1      47.259  28.590  27.180  1.00  0.00     0.037 A 
ATOM     52  C   UNL A   1      40.804  27.481  29.213  1.00  0.00     0.037 A 
ATOM     53  C   UNL A   1      47.427  28.173  28.563  1.00  0.00     0.049 A 
ATOM     54  C   UNL A   1      41.832  28.280  29.900  1.00  0.00     0.074 A 
ATOM     55  C   UNL A   1      48.097  27.156  29.215  1.00  0.00     0.029 A 
ATOM     56  N   UNL A   1      46.468  28.620  29.436  1.00  0.00    -0.354 N 
ATOM     57  N   UNL A   1      42.517  27.839  30.914  1.00  0.00    -0.248 NA
ATOM     58  C   UNL A   1      42.373  29.448  29.227  1.00  0.00     0.031 C 
ATOM     59  C   UNL A   1      47.261  26.787  30.317  1.00  0.00     0.029 A 
ATOM     60  C   UNL A   1      46.160  27.640  30.343  1.00  0.00     0.049 A 
ATOM     61  H   UNL A   1      46.060  29.515  29.415  1.00  0.00     0.167 HD
ATOM     62  C   UNL A   1      43.790  28.322  30.679  1.00  0.00     0.074 A 
ATOM     63  C   UNL A   1      43.599  29.441  29.757  1.00  0.00     0.031 C 
ATOM     64  C   UNL A   1      44.874  27.555  30.999  1.00  0.00     0.037 A 
BRANCH  51  65
ATOM     65  C   UNL A   1      47.221  30.053  26.803  1.00  0.00     0.064 A 
ATOM     66  C   UNL A   1      48.411  30.800  26.935  1.00  0.00     0.173 A 
ATOM     67  C   UNL A   1      46.046  30.814  26.627  1.00  0.00     0.173 A 
ATOM     68  F   UNL A   1      49.587  30.181  27.118  1.00  0.00    -0.203 F 
ATOM     69  C   UNL A   1      48.406  32.195  26.992  1.00  0.00     0.198 A 
ATOM     70  C   UNL A   1      46.053  32.209  26.628  1.00  0.00     0.198 A 
ATOM     71  F   UNL A   1      44.830  30.261  26.567  1.00  0.00    -0.203 F 
ATOM     72  F   UNL A   1      49.541  32.851  27.265  1.00  0.00    -0.200 F 
ATOM     73  C   UNL A   1      47.226  32.898  26.847  1.00  0.00     0.200 A 
ATOM     74  F   UNL A   1      44.895  32.872  26.509  1.00  0.00    -0.200 F 
ATOM     75  F   UNL A   1      47.208  34.231  26.970  1.00  0.00    -0.200 F 
ENDBRANCH  51  65
BRANCH  52  76
ATOM     76  C   UNL A   1      39.388  27.974  29.170  1.00  0.00     0.064 A 
ATOM     77  C   UNL A   1      38.579  28.089  30.320  1.00  0.00     0.173 A 
ATOM     78  C   UNL A   1      38.937  28.699  28.062  1.00  0.00     0.173 A 
ATOM     79  F   UNL A   1      38.928  27.462  31.452  1.00  0.00    -0.203 F 
ATOM     80  C   UNL A   1      37.437  28.912  30.360  1.00  0.00     0.198 A 
ATOM     81  C   UNL A   1      37.827  29.555  28.109  1.00  0.00     0.198 A 
ATOM     82  F   UNL A   1      39.627  28.635  26.928  1.00  0.00    -0.203 F 
ATOM     83  F   UNL A   1      36.729  29.029  31.493  1.00  0.00    -0.200 F 
ATOM     84  C   UNL A   1      37.078  29.666  29.260  1.00  0.00     0.200 A 
ATOM     85  F   UNL A   1      37.516  30.324  27.057  1.00  0.00    -0.200 F 
ATOM     86  F   UNL A   1      36.045  30.518  29.315  1.00  0.00    -0.200 F 
ENDBRANCH  52  76
BRANCH  64  87
ATOM     87  C   UNL A   1      44.640  26.418  31.964  1.00  0.00     0.064 A 
ATOM     88  C   UNL A   1      44.496  25.070  31.594  1.00  0.00     0.173 A 
ATOM     89  C   UNL A   1      44.614  26.694  33.334  1.00  0.00     0.173 A 
ATOM     90  F   UNL A   1      44.599  24.695  30.322  1.00  0.00    -0.203 F 
ATOM     91  C   UNL A   1      44.274  24.061  32.528  1.00  0.00     0.198 A 
ATOM     92  C   UNL A   1      44.426  25.683  34.275  1.00  0.00     0.198 A 
ATOM     93  F   UNL A   1      44.795  27.952  33.764  1.00  0.00    -0.203 F 
ATOM     94  F   UNL A   1      44.115  22.792  32.124  1.00  0.00    -0.200 F 
ATOM     95  C   UNL A   1      44.240  24.370  33.873  1.00  0.00     0.200 A 
ATOM     96  F   UNL A   1      44.438  25.982  35.581  1.00  0.00    -0.200 F 
ATOM     97  F   UNL A   1      44.049  23.402  34.780  1.00  0.00    -0.200 F 
ENDBRANCH  64  87
ENDBRANCH  38  39
ENDBRANCH  30  33
ENDBRANCH  28  29
ENDBRANCH  27  28
ENDBRANCH   1  27
TORSDOF 15
ENDMDL
MODEL 2
REMARK VINA RESULT:     -12.5      0.908      1.960
REMARK SMILES O=C(CSc1nnc(C2CC2)n1-c1cccc2ccccc12)NCCCCNC(=O)c1ccc(-c2c3nc(c(-c4c(F)c(F)c(F)c(F)c4F)c4ccc([nH]4)c(-c4c(F)c(F)c(F)c(F)c4F)c4nc(c(-c5c(F)c(F)c(F)c(F)c5F)c5ccc2[nH]5)C=C4)C=C3)cc1
REMARK SMILES IDX 25 1 24 2 23 3 1 4 2 5 3 7 4 8 5 9 6 10 12 11 7 12 8 13
REMARK SMILES IDX 13 14 14 15 22 16 15 17 17 18 21 19 16 20 18 21 20 22 19 23
REMARK SMILES IDX 9 24 10 25 11 26 26 27 27 28 28 29 29 30 30 32 31 33 32 34
REMARK SMILES IDX 93 35 33 36 92 37 34 38 35 39 36 40 86 41 37 42 91 43 85 44
REMARK SMILES IDX 87 45 38 46 90 47 84 48 83 49 39 51 71 52 51 53 70 54 52 55
REMARK SMILES IDX 55 56 69 57 88 58 53 59 54 60 68 62 89 63 56 64 40 65 41 66
REMARK SMILES IDX 49 67 42 68 43 69 47 70 50 71 44 72 45 73 48 74 46 75 72 76
REMARK SMILES IDX 73 77 81 78 74 79 75 80 79 81 82 82 76 83 77 84 80 85 78 86
REMARK SMILES IDX 57 87 58 88 66 89 59 90 60 91 64 92 67 93 61 94 62 95 65 96
REMARK SMILES IDX 63 97
REMARK H PARENT 23 6 28 31 87 50 55 61
REMARK Flexibility Score: inf
ROOT
ATOM      1  C   UNL A   1      42.121  20.182  26.335  1.00  0.00     0.023 C 
ENDROOT
BRANCH   1   2
ATOM      2  C   UNL A   1      40.682  20.289  26.875  1.00  0.00     0.116 C 
BRANCH   2   3
ATOM      3  N   UNL A   1      40.111  21.635  26.882  1.00  0.00    -0.355 N 
ATOM      4  O   UNL A   1      38.494  21.150  25.333  1.00  0.00    -0.274 OA
ATOM      5  C   UNL A   1      38.996  21.955  26.117  1.00  0.00     0.230 C 
ATOM      6  H   UNL A   1      40.527  22.331  27.441  1.00  0.00     0.163 HD
BRANCH   5   7
ATOM      7  C   UNL A   1      38.508  23.398  26.158  1.00  0.00     0.178 C 
BRANCH   7   8
ATOM      8  S   UNL A   1      36.734  23.625  26.257  1.00  0.00    -0.076 SA
BRANCH   8   9
ATOM      9  C   UNL A   1      36.142  23.610  24.607  1.00  0.00     0.196 A 
ATOM     10  N   UNL A   1      36.736  23.135  23.544  1.00  0.00    -0.123 NA
ATOM     11  N   UNL A   1      34.823  23.949  24.300  1.00  0.00    -0.273 N 
ATOM     12  N   UNL A   1      35.784  23.040  22.547  1.00  0.00    -0.134 NA
ATOM     13  C   UNL A   1      34.610  23.424  23.024  1.00  0.00     0.141 A 
BRANCH  11  14
ATOM     14  C   UNL A   1      33.881  24.094  25.326  1.00  0.00     0.057 A 
ATOM     15  C   UNL A   1      33.335  22.951  25.936  1.00  0.00     0.027 A 
ATOM     16  C   UNL A   1      33.327  25.371  25.464  1.00  0.00     0.006 A 
ATOM     17  C   UNL A   1      32.234  23.082  26.778  1.00  0.00     0.003 A 
ATOM     18  C   UNL A   1      32.260  25.466  26.353  1.00  0.00    -0.016 A 
ATOM     19  C   UNL A   1      33.802  26.533  24.768  1.00  0.00     0.011 A 
ATOM     20  C   UNL A   1      31.695  24.344  26.994  1.00  0.00     0.009 A 
ATOM     21  C   UNL A   1      31.823  26.732  26.633  1.00  0.00     0.009 A 
ATOM     22  C   UNL A   1      33.377  27.789  25.078  1.00  0.00     0.001 A 
ATOM     23  C   UNL A   1      32.418  27.867  26.039  1.00  0.00     0.001 A 
ENDBRANCH  11  14
BRANCH  13  24
ATOM     24  C   UNL A   1      33.327  23.098  22.211  1.00  0.00     0.058 C 
ATOM     25  C   UNL A   1      32.393  21.927  22.484  1.00  0.00     0.012 C 
ATOM     26  C   UNL A   1      31.946  23.311  22.785  1.00  0.00     0.012 C 
ENDBRANCH  13  24
ENDBRANCH   8   9
ENDBRANCH   7   8
ENDBRANCH   5   7
ENDBRANCH   2   3
ENDBRANCH   1   2
BRANCH   1  27
ATOM     27  C   UNL A   1      42.635  18.795  25.911  1.00  0.00     0.023 C 
BRANCH  27  28
ATOM     28  C   UNL A   1      44.096  18.489  26.243  1.00  0.00     0.116 C 
BRANCH  28  29
ATOM     29  N   UNL A   1      45.049  18.588  25.125  1.00  0.00    -0.352 N 
ATOM     30  C   UNL A   1      45.372  19.682  24.303  1.00  0.00     0.251 C 
ATOM     31  H   UNL A   1      45.536  17.758  24.919  1.00  0.00     0.163 HD
ATOM     32  O   UNL A   1      45.906  19.500  23.223  1.00  0.00    -0.269 OA
BRANCH  30  33
ATOM     33  C   UNL A   1      45.097  21.076  24.752  1.00  0.00     0.039 A 
ATOM     34  C   UNL A   1      44.267  22.014  24.113  1.00  0.00     0.014 A 
ATOM     35  C   UNL A   1      45.705  21.472  25.906  1.00  0.00     0.014 A 
ATOM     36  C   UNL A   1      44.087  23.317  24.669  1.00  0.00     0.010 A 
ATOM     37  C   UNL A   1      45.209  22.562  26.560  1.00  0.00     0.010 A 
ATOM     38  C   UNL A   1      44.632  23.627  25.915  1.00  0.00    -0.014 A 
BRANCH  38  39
ATOM     39  C   UNL A   1      44.352  24.809  26.773  1.00  0.00     0.031 A 
ATOM     40  C   UNL A   1      45.244  25.925  26.403  1.00  0.00     0.074 A 
ATOM     41  C   UNL A   1      43.279  25.080  27.586  1.00  0.00     0.049 A 
ATOM     42  N   UNL A   1      46.246  26.298  27.118  1.00  0.00    -0.248 NA
ATOM     43  C   UNL A   1      45.178  26.569  25.082  1.00  0.00     0.031 C 
ATOM     44  C   UNL A   1      42.149  24.216  27.969  1.00  0.00     0.029 A 
ATOM     45  N   UNL A   1      42.872  26.288  28.132  1.00  0.00    -0.354 N 
ATOM     46  C   UNL A   1      46.783  27.393  26.473  1.00  0.00     0.074 A 
ATOM     47  C   UNL A   1      46.255  27.360  25.134  1.00  0.00     0.031 C 
ATOM     48  C   UNL A   1      41.092  24.963  28.394  1.00  0.00     0.029 A 
ATOM     49  C   UNL A   1      41.526  26.340  28.558  1.00  0.00     0.049 A 
ATOM     50  H   UNL A   1      43.480  27.058  28.218  1.00  0.00     0.167 HD
ATOM     51  C   UNL A   1      47.356  28.376  27.216  1.00  0.00     0.037 A 
ATOM     52  C   UNL A   1      40.853  27.377  29.148  1.00  0.00     0.037 A 
ATOM     53  C   UNL A   1      47.497  27.941  28.597  1.00  0.00     0.049 A 
ATOM     54  C   UNL A   1      41.886  28.147  29.859  1.00  0.00     0.074 A 
ATOM     55  C   UNL A   1      48.136  26.902  29.246  1.00  0.00     0.029 A 
ATOM     56  N   UNL A   1      46.535  28.396  29.462  1.00  0.00    -0.354 N 
ATOM     57  N   UNL A   1      42.549  27.680  30.876  1.00  0.00    -0.248 NA
ATOM     58  C   UNL A   1      42.461  29.311  29.207  1.00  0.00     0.031 C 
ATOM     59  C   UNL A   1      47.278  26.537  30.332  1.00  0.00     0.029 A 
ATOM     60  C   UNL A   1      46.194  27.413  30.353  1.00  0.00     0.049 A 
ATOM     61  H   UNL A   1      46.146  29.301  29.446  1.00  0.00     0.167 HD
ATOM     62  C   UNL A   1      43.834  28.140  30.665  1.00  0.00     0.074 A 
ATOM     63  C   UNL A   1      43.679  29.273  29.753  1.00  0.00     0.031 C 
ATOM     64  C   UNL A   1      44.897  27.347  30.990  1.00  0.00     0.037 A 
BRANCH  51  65
ATOM     65  C   UNL A   1      47.353  29.845  26.857  1.00  0.00     0.064 A 
ATOM     66  C   UNL A   1      48.547  30.573  27.043  1.00  0.00     0.173 A 
ATOM     67  C   UNL A   1      46.197  30.625  26.646  1.00  0.00     0.173 A 
ATOM     68  F   UNL A   1      49.707  29.934  27.262  1.00  0.00    -0.203 F 
ATOM     69  C   UNL A   1      48.561  31.967  27.117  1.00  0.00     0.198 A 
ATOM     70  C   UNL A   1      46.223  32.019  26.665  1.00  0.00     0.198 A 
ATOM     71  F   UNL A   1      44.976  30.090  26.533  1.00  0.00    -0.203 F 
ATOM     72  F   UNL A   1      49.693  32.603  27.441  1.00  0.00    -0.200 F 
ATOM     73  C   UNL A   1      47.397  32.689  26.936  1.00  0.00     0.200 A 
ATOM     74  F   UNL A   1      45.080  32.700  26.510  1.00  0.00    -0.200 F 
ATOM     75  F   UNL A   1      47.393  34.020  27.075  1.00  0.00    -0.200 F 
ENDBRANCH  51  65
BRANCH  52  76
ATOM     76  C   UNL A   1      39.447  27.900  29.092  1.00  0.00     0.064 A 
ATOM     77  C   UNL A   1      38.633  28.039  30.235  1.00  0.00     0.173 A 
ATOM     78  C   UNL A   1      39.019  28.626  27.976  1.00  0.00     0.173 A 
ATOM     79  F   UNL A   1      38.960  27.413  31.374  1.00  0.00    -0.203 F 
ATOM     80  C   UNL A   1      37.509  28.887  30.262  1.00  0.00     0.198 A 
ATOM     81  C   UNL A   1      37.928  29.506  28.010  1.00  0.00     0.198 A 
ATOM     82  F   UNL A   1      39.716  28.540  26.847  1.00  0.00    -0.203 F 
ATOM     83  F   UNL A   1      36.795  29.026  31.389  1.00  0.00    -0.200 F 
ATOM     84  C   UNL A   1      37.173  29.641  29.155  1.00  0.00     0.200 A 
ATOM     85  F   UNL A   1      37.641  30.275  26.951  1.00  0.00    -0.200 F 
ATOM     86  F   UNL A   1      36.158  30.515  29.196  1.00  0.00    -0.200 F 
ENDBRANCH  52  76
BRANCH  64  87
ATOM     87  C   UNL A   1      44.628  26.203  31.938  1.00  0.00     0.064 A 
ATOM     88  C   UNL A   1      44.427  26.340  33.323  1.00  0.00     0.173 A 
ATOM     89  C   UNL A   1      44.513  24.911  31.416  1.00  0.00     0.173 A 
ATOM     90  F   UNL A   1      44.425  27.539  33.897  1.00  0.00    -0.203 F 
ATOM     91  C   UNL A   1      44.190  25.247  34.152  1.00  0.00     0.198 A 
ATOM     92  C   UNL A   1      44.241  23.818  32.238  1.00  0.00     0.198 A 
ATOM     93  F   UNL A   1      44.642  24.711  30.097  1.00  0.00    -0.203 F 
ATOM     94  F   UNL A   1      44.032  25.425  35.472  1.00  0.00    -0.200 F 
ATOM     95  C   UNL A   1      44.096  23.982  33.607  1.00  0.00     0.200 A 
ATOM     96  F   UNL A   1      44.107  22.599  31.698  1.00  0.00    -0.200 F 
ATOM     97  F   UNL A   1      43.845  22.927  34.394  1.00  0.00    -0.200 F 
ENDBRANCH  64  87
ENDBRANCH  38  39
ENDBRANCH  30  33
ENDBRANCH  28  29
ENDBRANCH  27  28
ENDBRANCH   1  27
TORSDOF 15
ENDMDL
MODEL 3
REMARK VINA RESULT:     -12.5      1.198      2.141
REMARK SMILES O=C(CSc1nnc(C2CC2)n1-c1cccc2ccccc12)NCCCCNC(=O)c1ccc(-c2c3nc(c(-c4c(F)c(F)c(F)c(F)c4F)c4ccc([nH]4)c(-c4c(F)c(F)c(F)c(F)c4F)c4nc(c(-c5c(F)c(F)c(F)c(F)c5F)c5ccc2[nH]5)C=C4)C=C3)cc1
REMARK SMILES IDX 25 1 24 2 23 3 1 4 2 5 3 7 4 8 5 9 6 10 12 11 7 12 8 13
REMARK SMILES IDX 13 14 14 15 22 16 15 17 17 18 21 19 16 20 18 21 20 22 19 23
REMARK SMILES IDX 9 24 10 25 11 26 26 27 27 28 28 29 29 30 30 32 31 33 32 34
REMARK SMILES IDX 93 35 33 36 92 37 34 38 35 39 36 40 86 41 37 42 91 43 85 44
REMARK SMILES IDX 87 45 38 46 90 47 84 48 83 49 39 51 71 52 51 53 70 54 52 55
REMARK SMILES IDX 55 56 69 57 88 58 53 59 54 60 68 62 89 63 56 64 40 65 41 66
REMARK SMILES IDX 49 67 42 68 43 69 47 70 50 71 44 72 45 73 48 74 46 75 72 76
REMARK SMILES IDX 73 77 81 78 74 79 75 80 79 81 82 82 76 83 77 84 80 85 78 86
REMARK SMILES IDX 57 87 58 88 66 89 59 90 60 91 64 92 67 93 61 94 62 95 65 96
REMARK SMILES IDX 63 97
REMARK H PARENT 23 6 28 31 87 50 55 61
REMARK Flexibility Score: inf
ROOT
ATOM      1  C   UNL A   1      42.060  20.740  27.195  1.00  0.00     0.023 C 
ENDROOT
BRANCH   1   2
ATOM      2  C   UNL A   1      40.669  21.391  27.323  1.00  0.00     0.116 C 
BRANCH   2   3
ATOM      3  N   UNL A   1      39.656  20.897  26.390  1.00  0.00    -0.355 N 
ATOM      4  O   UNL A   1      38.677  22.946  26.091  1.00  0.00    -0.274 OA
ATOM      5  C   UNL A   1      38.738  21.753  25.795  1.00  0.00     0.230 C 
ATOM      6  H   UNL A   1      39.623  19.935  26.180  1.00  0.00     0.163 HD
BRANCH   5   7
ATOM      7  C   UNL A   1      37.694  21.133  24.875  1.00  0.00     0.178 C 
BRANCH   7   8
ATOM      8  S   UNL A   1      36.397  22.229  24.306  1.00  0.00    -0.076 SA
BRANCH   8   9
ATOM      9  C   UNL A   1      35.274  22.399  25.641  1.00  0.00     0.196 A 
ATOM     10  N   UNL A   1      35.436  23.076  26.747  1.00  0.00    -0.123 NA
ATOM     11  N   UNL A   1      33.952  21.957  25.546  1.00  0.00    -0.273 N 
ATOM     12  N   UNL A   1      34.195  23.196  27.343  1.00  0.00    -0.134 NA
ATOM     13  C   UNL A   1      33.282  22.622  26.575  1.00  0.00     0.141 A 
BRANCH  11  14
ATOM     14  C   UNL A   1      33.431  21.571  24.305  1.00  0.00     0.057 A 
ATOM     15  C   UNL A   1      33.015  22.553  23.389  1.00  0.00     0.027 A 
ATOM     16  C   UNL A   1      33.084  20.221  24.188  1.00  0.00     0.006 A 
ATOM     17  C   UNL A   1      32.281  22.177  22.266  1.00  0.00     0.003 A 
ATOM     18  C   UNL A   1      32.395  19.880  23.027  1.00  0.00    -0.016 A 
ATOM     19  C   UNL A   1      33.407  19.220  25.163  1.00  0.00     0.011 A 
ATOM     20  C   UNL A   1      31.974  20.836  22.079  1.00  0.00     0.009 A 
ATOM     21  C   UNL A   1      32.205  18.543  22.812  1.00  0.00     0.009 A 
ATOM     22  C   UNL A   1      33.237  17.890  24.924  1.00  0.00     0.001 A 
ATOM     23  C   UNL A   1      32.672  17.574  23.728  1.00  0.00     0.001 A 
ENDBRANCH  11  14
BRANCH  13  24
ATOM     24  C   UNL A   1      31.780  22.907  26.853  1.00  0.00     0.058 C 
ATOM     25  C   UNL A   1      30.891  23.809  26.008  1.00  0.00     0.012 C 
ATOM     26  C   UNL A   1      30.688  22.338  25.979  1.00  0.00     0.012 C 
ENDBRANCH  13  24
ENDBRANCH   8   9
ENDBRANCH   7   8
ENDBRANCH   5   7
ENDBRANCH   2   3
ENDBRANCH   1   2
BRANCH   1  27
ATOM     27  C   UNL A   1      42.363  19.923  25.926  1.00  0.00     0.023 C 
BRANCH  27  28
ATOM     28  C   UNL A   1      43.407  18.814  26.074  1.00  0.00     0.116 C 
BRANCH  28  29
ATOM     29  N   UNL A   1      44.571  18.898  25.177  1.00  0.00    -0.352 N 
ATOM     30  C   UNL A   1      45.101  19.997  24.479  1.00  0.00     0.251 C 
ATOM     31  H   UNL A   1      45.054  18.051  25.044  1.00  0.00     0.163 HD
ATOM     32  O   UNL A   1      45.836  19.820  23.524  1.00  0.00    -0.269 OA
BRANCH  30  33
ATOM     33  C   UNL A   1      44.800  21.390  24.915  1.00  0.00     0.039 A 
ATOM     34  C   UNL A   1      43.899  22.282  24.307  1.00  0.00     0.014 A 
ATOM     35  C   UNL A   1      45.458  21.834  26.023  1.00  0.00     0.014 A 
ATOM     36  C   UNL A   1      43.702  23.590  24.845  1.00  0.00     0.010 A 
ATOM     37  C   UNL A   1      44.959  22.919  26.683  1.00  0.00     0.010 A 
ATOM     38  C   UNL A   1      44.305  23.948  26.051  1.00  0.00    -0.014 A 
BRANCH  38  39
ATOM     39  C   UNL A   1      44.030  25.138  26.899  1.00  0.00     0.031 A 
ATOM     40  C   UNL A   1      44.880  26.268  26.476  1.00  0.00     0.074 A 
ATOM     41  C   UNL A   1      42.983  25.397  27.749  1.00  0.00     0.049 A 
ATOM     42  N   UNL A   1      45.900  26.677  27.145  1.00  0.00    -0.248 NA
ATOM     43  C   UNL A   1      44.747  26.887  25.149  1.00  0.00     0.031 C 
ATOM     44  C   UNL A   1      41.891  24.514  28.191  1.00  0.00     0.029 A 
ATOM     45  N   UNL A   1      42.569  26.606  28.291  1.00  0.00    -0.354 N 
ATOM     46  C   UNL A   1      46.385  27.773  26.461  1.00  0.00     0.074 A 
ATOM     47  C   UNL A   1      45.806  27.704  25.145  1.00  0.00     0.031 C 
ATOM     48  C   UNL A   1      40.833  25.244  28.644  1.00  0.00     0.029 A 
ATOM     49  C   UNL A   1      41.240  26.633  28.769  1.00  0.00     0.049 A 
ATOM     50  H   UNL A   1      43.161  27.390  28.340  1.00  0.00     0.167 HD
ATOM     51  C   UNL A   1      46.962  28.782  27.165  1.00  0.00     0.037 A 
ATOM     52  C   UNL A   1      40.565  27.663  29.367  1.00  0.00     0.037 A 
ATOM     53  C   UNL A   1      47.167  28.374  28.546  1.00  0.00     0.049 A 
ATOM     54  C   UNL A   1      41.607  28.471  30.024  1.00  0.00     0.074 A 
ATOM     55  C   UNL A   1      47.856  27.362  29.186  1.00  0.00     0.029 A 
ATOM     56  N   UNL A   1      46.229  28.822  29.441  1.00  0.00    -0.354 N 
ATOM     57  N   UNL A   1      42.320  28.037  31.023  1.00  0.00    -0.248 NA
ATOM     58  C   UNL A   1      42.127  29.636  29.331  1.00  0.00     0.031 C 
ATOM     59  C   UNL A   1      47.050  26.997  30.312  1.00  0.00     0.029 A 
ATOM     60  C   UNL A   1      45.947  27.846  30.360  1.00  0.00     0.049 A 
ATOM     61  H   UNL A   1      45.817  29.717  29.425  1.00  0.00     0.167 HD
ATOM     62  C   UNL A   1      43.584  28.523  30.753  1.00  0.00     0.074 A 
ATOM     63  C   UNL A   1      43.366  29.636  29.830  1.00  0.00     0.031 C 
ATOM     64  C   UNL A   1      44.678  27.761  31.049  1.00  0.00     0.037 A 
BRANCH  51  65
ATOM     65  C   UNL A   1      46.910  30.244  26.782  1.00  0.00     0.064 A 
ATOM     66  C   UNL A   1      48.103  30.992  26.866  1.00  0.00     0.173 A 
ATOM     67  C   UNL A   1      45.729  31.003  26.644  1.00  0.00     0.173 A 
ATOM     68  F   UNL A   1      49.286  30.374  27.009  1.00  0.00    -0.203 F 
ATOM     69  C   UNL A   1      48.100  32.387  26.915  1.00  0.00     0.198 A 
ATOM     70  C   UNL A   1      45.735  32.397  26.637  1.00  0.00     0.198 A 
ATOM     71  F   UNL A   1      44.512  30.449  26.632  1.00  0.00    -0.203 F 
ATOM     72  F   UNL A   1      49.244  33.045  27.143  1.00  0.00    -0.200 F 
ATOM     73  C   UNL A   1      46.915  33.089  26.809  1.00  0.00     0.200 A 
ATOM     74  F   UNL A   1      44.573  33.059  26.556  1.00  0.00    -0.200 F 
ATOM     75  F   UNL A   1      46.900  34.423  26.925  1.00  0.00    -0.200 F 
ENDBRANCH  51  65
BRANCH  52  76
ATOM     76  C   UNL A   1      39.146  28.152  29.358  1.00  0.00     0.064 A 
ATOM     77  C   UNL A   1      38.375  28.295  30.530  1.00  0.00     0.173 A 
ATOM     78  C   UNL A   1      38.657  28.847  28.247  1.00  0.00     0.173 A 
ATOM     79  F   UNL A   1      38.762  27.698  31.666  1.00  0.00    -0.203 F 
ATOM     80  C   UNL A   1      37.232  29.116  30.586  1.00  0.00     0.198 A 
ATOM     81  C   UNL A   1      37.547  29.701  28.308  1.00  0.00     0.198 A 
ATOM     82  F   UNL A   1      39.311  28.756  27.093  1.00  0.00    -0.203 F 
ATOM     83  F   UNL A   1      36.560  29.260  31.738  1.00  0.00    -0.200 F 
ATOM     84  C   UNL A   1      36.835  29.840  29.480  1.00  0.00     0.200 A 
ATOM     85  F   UNL A   1      37.200  30.443  27.248  1.00  0.00    -0.200 F 
ATOM     86  F   UNL A   1      35.801  30.691  29.546  1.00  0.00    -0.200 F 
ENDBRANCH  52  76
BRANCH  64  87
ATOM     87  C   UNL A   1      44.473  26.628  32.026  1.00  0.00     0.064 A 
ATOM     88  C   UNL A   1      44.341  25.276  31.668  1.00  0.00     0.173 A 
ATOM     89  C   UNL A   1      44.462  26.915  33.394  1.00  0.00     0.173 A 
ATOM     90  F   UNL A   1      44.432  24.893  30.399  1.00  0.00    -0.203 F 
ATOM     91  C   UNL A   1      44.145  24.272  32.614  1.00  0.00     0.198 A 
ATOM     92  C   UNL A   1      44.301  25.909  34.346  1.00  0.00     0.198 A 
ATOM     93  F   UNL A   1      44.633  28.178  33.812  1.00  0.00    -0.203 F 
ATOM     94  F   UNL A   1      43.998  22.997  32.221  1.00  0.00    -0.200 F 
ATOM     95  C   UNL A   1      44.126  24.590  33.956  1.00  0.00     0.200 A 
ATOM     96  F   UNL A   1      44.328  26.218  35.649  1.00  0.00    -0.200 F 
ATOM     97  F   UNL A   1      43.961  23.627  34.874  1.00  0.00    -0.200 F 
ENDBRANCH  64  87
ENDBRANCH  38  39
ENDBRANCH  30  33
ENDBRANCH  28  29
ENDBRANCH  27  28
ENDBRANCH   1  27
TORSDOF 15
ENDMDL
