MODEL 1
REMARK VINA RESULT:     -12.3      0.000      0.000
REMARK SMILES COC(=O)[C@H]1CCN(C(=O)N2C[C@@H](C)[C@@H](C(=O)NCCCCNC(=O)c3ccc(-c4c5nc(c(-c6c(F)c(F)c(F)c(F)c6F)c6ccc([nH]6)c(-c6c(F)c(F)c(F)c(F)c6F)c6nc(c(-c7c(F)c(F)c(F)c(F)c7F)c7ccc4[nH]7)C=C6)C=C5)cc3)C2)C1
REMARK SMILES IDX 19 1 18 2 16 3 17 4 15 6 11 7 12 8 89 9 13 10 14 11 9 12
REMARK SMILES IDX 10 13 8 14 5 15 6 16 90 17 7 18 3 19 4 20 2 21 1 22 20 23
REMARK SMILES IDX 21 24 22 25 23 26 24 27 25 29 26 30 27 31 88 32 28 33 87 34
REMARK SMILES IDX 29 35 30 36 31 37 81 38 32 39 86 40 80 41 82 42 33 43 85 44
REMARK SMILES IDX 79 45 78 46 34 48 66 49 46 50 65 51 47 52 50 53 64 54 83 55
REMARK SMILES IDX 48 56 49 57 63 59 84 60 51 61 35 62 36 63 44 64 37 65 38 66
REMARK SMILES IDX 42 67 45 68 39 69 40 70 43 71 41 72 67 73 68 74 76 75 69 76
REMARK SMILES IDX 70 77 74 78 77 79 71 80 72 81 75 82 73 83 52 84 53 85 61 86
REMARK SMILES IDX 54 87 55 88 59 89 62 90 56 91 57 92 60 93 58 94
REMARK H PARENT 18 5 23 28 82 47 50 58
REMARK Flexibility Score: inf
ROOT
ATOM      1  C   UNL A   1      32.411  29.684  26.956  1.00  0.00     0.116 C 
ENDROOT
BRANCH   1   2
ATOM      2  N   UNL A   1      31.629  28.482  27.185  1.00  0.00    -0.356 N 
ATOM      3  C   UNL A   1      31.721  27.245  26.614  1.00  0.00     0.225 C 
ATOM      4  O   UNL A   1      30.952  26.371  27.013  1.00  0.00    -0.275 OA
ATOM      5  H   UNL A   1      30.919  28.572  27.862  1.00  0.00     0.163 HD
BRANCH   3   6
ATOM      6  C   UNL A   1      32.702  27.016  25.478  1.00  0.00     0.102 C 
ATOM      7  N   UNL A   1      33.189  24.987  24.372  1.00  0.00    -0.324 N 
ATOM      8  C   UNL A   1      31.924  25.436  23.840  1.00  0.00     0.125 C 
ATOM      9  C   UNL A   1      33.444  25.668  25.623  1.00  0.00     0.135 C 
ATOM     10  C   UNL A   1      32.024  26.935  24.080  1.00  0.00     0.020 C 
ATOM     11  C   UNL A   1      30.701  27.642  23.863  1.00  0.00     0.010 C 
BRANCH   7  12
ATOM     12  C   UNL A   1      33.964  23.957  23.917  1.00  0.00     0.320 C 
ATOM     13  O   UNL A   1      34.765  24.110  22.995  1.00  0.00    -0.248 OA
BRANCH  12  14
ATOM     14  N   UNL A   1      33.742  22.724  24.489  1.00  0.00    -0.324 N 
ATOM     15  C   UNL A   1      32.509  20.743  24.961  1.00  0.00     0.120 C 
ATOM     16  C   UNL A   1      33.628  20.942  25.985  1.00  0.00     0.039 C 
ATOM     17  C   UNL A   1      32.859  21.746  23.859  1.00  0.00     0.136 C 
ATOM     18  C   UNL A   1      33.891  22.427  25.902  1.00  0.00     0.122 C 
BRANCH  15  19
ATOM     19  C   UNL A   1      32.427  19.327  24.456  1.00  0.00     0.310 C 
ATOM     20  O   UNL A   1      32.415  19.005  23.270  1.00  0.00    -0.252 OA
BRANCH  19  21
ATOM     21  O   UNL A   1      32.288  18.459  25.496  1.00  0.00    -0.469 OA
ATOM     22  C   UNL A   1      32.713  17.123  25.229  1.00  0.00     0.282 C 
ENDBRANCH  19  21
ENDBRANCH  15  19
ENDBRANCH  12  14
ENDBRANCH   7  12
ENDBRANCH   3   6
ENDBRANCH   1   2
BRANCH   1  23
ATOM     23  C   UNL A   1      31.705  30.683  26.039  1.00  0.00     0.023 C 
BRANCH  23  24
ATOM     24  C   UNL A   1      31.423  32.054  26.649  1.00  0.00     0.023 C 
BRANCH  24  25
ATOM     25  C   UNL A   1      32.618  32.732  27.304  1.00  0.00     0.116 C 
BRANCH  25  26
ATOM     26  N   UNL A   1      32.366  34.125  27.641  1.00  0.00    -0.352 N 
ATOM     27  C   UNL A   1      32.985  34.930  28.566  1.00  0.00     0.251 C 
ATOM     28  H   UNL A   1      31.644  34.555  27.128  1.00  0.00     0.163 HD
ATOM     29  O   UNL A   1      32.541  36.050  28.797  1.00  0.00    -0.269 OA
BRANCH  27  30
ATOM     30  C   UNL A   1      34.166  34.438  29.310  1.00  0.00     0.039 A 
ATOM     31  C   UNL A   1      33.972  33.839  30.558  1.00  0.00     0.014 A 
ATOM     32  C   UNL A   1      35.456  34.559  28.786  1.00  0.00     0.014 A 
ATOM     33  C   UNL A   1      35.060  33.295  31.244  1.00  0.00     0.010 A 
ATOM     34  C   UNL A   1      36.527  33.949  29.432  1.00  0.00     0.010 A 
ATOM     35  C   UNL A   1      36.340  33.310  30.667  1.00  0.00    -0.014 A 
BRANCH  35  36
ATOM     36  C   UNL A   1      37.495  32.656  31.334  1.00  0.00     0.031 A 
ATOM     37  C   UNL A   1      38.207  31.514  30.668  1.00  0.00     0.074 A 
ATOM     38  C   UNL A   1      37.854  33.042  32.573  1.00  0.00     0.049 A 
ATOM     39  N   UNL A   1      39.186  30.770  31.120  1.00  0.00    -0.248 NA
ATOM     40  C   UNL A   1      37.738  31.137  29.326  1.00  0.00     0.031 C 
ATOM     41  C   UNL A   1      37.211  34.106  33.347  1.00  0.00     0.029 A 
ATOM     42  N   UNL A   1      38.841  32.575  33.406  1.00  0.00    -0.354 N 
ATOM     43  C   UNL A   1      39.435  29.830  30.129  1.00  0.00     0.074 A 
ATOM     44  C   UNL A   1      38.472  30.063  29.075  1.00  0.00     0.031 C 
ATOM     45  C   UNL A   1      37.835  34.228  34.529  1.00  0.00     0.029 A 
ATOM     46  C   UNL A   1      38.896  33.228  34.612  1.00  0.00     0.049 A 
ATOM     47  H   UNL A   1      39.451  31.843  33.160  1.00  0.00     0.167 HD
ATOM     48  C   UNL A   1      40.394  28.874  30.093  1.00  0.00     0.037 A 
ATOM     49  C   UNL A   1      39.707  33.038  35.670  1.00  0.00     0.037 A 
ATOM     50  C   UNL A   1      41.367  28.661  31.132  1.00  0.00     0.049 A 
ATOM     51  C   UNL A   1      40.760  31.965  35.608  1.00  0.00     0.074 A 
ATOM     52  C   UNL A   1      42.424  27.768  31.155  1.00  0.00     0.029 A 
ATOM     53  N   UNL A   1      41.398  29.348  32.337  1.00  0.00    -0.354 N 
ATOM     54  N   UNL A   1      41.035  31.131  34.636  1.00  0.00    -0.248 NA
ATOM     55  C   UNL A   1      41.616  31.811  36.792  1.00  0.00     0.031 C 
ATOM     56  C   UNL A   1      43.064  27.880  32.394  1.00  0.00     0.029 A 
ATOM     57  C   UNL A   1      42.439  28.880  33.123  1.00  0.00     0.049 A 
ATOM     58  H   UNL A   1      40.772  30.063  32.595  1.00  0.00     0.167 HD
ATOM     59  C   UNL A   1      42.111  30.373  35.076  1.00  0.00     0.074 A 
ATOM     60  C   UNL A   1      42.446  30.855  36.401  1.00  0.00     0.031 C 
ATOM     61  C   UNL A   1      42.764  29.370  34.438  1.00  0.00     0.037 A 
BRANCH  48  62
ATOM     62  C   UNL A   1      40.431  27.981  28.885  1.00  0.00     0.064 A 
ATOM     63  C   UNL A   1      41.177  28.314  27.744  1.00  0.00     0.173 A 
ATOM     64  C   UNL A   1      39.724  26.770  28.874  1.00  0.00     0.173 A 
ATOM     65  F   UNL A   1      41.864  29.467  27.697  1.00  0.00    -0.203 F 
ATOM     66  C   UNL A   1      41.181  27.488  26.623  1.00  0.00     0.198 A 
ATOM     67  C   UNL A   1      39.756  25.930  27.763  1.00  0.00     0.198 A 
ATOM     68  F   UNL A   1      38.999  26.399  29.941  1.00  0.00    -0.203 F 
ATOM     69  F   UNL A   1      41.852  27.858  25.523  1.00  0.00    -0.200 F 
ATOM     70  C   UNL A   1      40.475  26.295  26.636  1.00  0.00     0.200 A 
ATOM     71  F   UNL A   1      39.083  24.772  27.781  1.00  0.00    -0.200 F 
ATOM     72  F   UNL A   1      40.480  25.501  25.556  1.00  0.00    -0.200 F 
ENDBRANCH  48  62
BRANCH  49  73
ATOM     73  C   UNL A   1      39.577  33.911  36.865  1.00  0.00     0.064 A 
ATOM     74  C   UNL A   1      40.224  35.153  36.915  1.00  0.00     0.173 A 
ATOM     75  C   UNL A   1      38.798  33.534  37.968  1.00  0.00     0.173 A 
ATOM     76  F   UNL A   1      40.996  35.548  35.892  1.00  0.00    -0.203 F 
ATOM     77  C   UNL A   1      40.105  35.982  38.029  1.00  0.00     0.198 A 
ATOM     78  C   UNL A   1      38.660  34.374  39.071  1.00  0.00     0.198 A 
ATOM     79  F   UNL A   1      38.156  32.356  37.966  1.00  0.00    -0.203 F 
ATOM     80  F   UNL A   1      40.762  37.149  38.066  1.00  0.00    -0.200 F 
ATOM     81  C   UNL A   1      39.319  35.595  39.102  1.00  0.00     0.200 A 
ATOM     82  F   UNL A   1      37.887  34.003  40.101  1.00  0.00    -0.200 F 
ATOM     83  F   UNL A   1      39.197  36.396  40.171  1.00  0.00    -0.200 F 
ENDBRANCH  49  73
BRANCH  61  84
ATOM     84  C   UNL A   1      43.927  28.745  35.151  1.00  0.00     0.064 A 
ATOM     85  C   UNL A   1      43.771  27.621  35.975  1.00  0.00     0.173 A 
ATOM     86  C   UNL A   1      45.223  29.256  34.976  1.00  0.00     0.173 A 
ATOM     87  F   UNL A   1      42.550  27.105  36.187  1.00  0.00    -0.203 F 
ATOM     88  C   UNL A   1      44.865  27.045  36.616  1.00  0.00     0.198 A 
ATOM     89  C   UNL A   1      46.318  28.660  35.594  1.00  0.00     0.198 A 
ATOM     90  F   UNL A   1      45.429  30.327  34.195  1.00  0.00    -0.203 F 
ATOM     91  F   UNL A   1      44.685  26.000  37.436  1.00  0.00    -0.200 F 
ATOM     92  C   UNL A   1      46.138  27.559  36.420  1.00  0.00     0.200 A 
ATOM     93  F   UNL A   1      47.549  29.151  35.394  1.00  0.00    -0.200 F 
ATOM     94  F   UNL A   1      47.190  27.000  37.032  1.00  0.00    -0.200 F 
ENDBRANCH  61  84
ENDBRANCH  35  36
ENDBRANCH  27  30
ENDBRANCH  25  26
ENDBRANCH  24  25
ENDBRANCH  23  24
ENDBRANCH   1  23
TORSDOF 15
ENDMDL
MODEL 2
REMARK VINA RESULT:     -12.3      5.454     11.186
REMARK SMILES COC(=O)[C@H]1CCN(C(=O)N2C[C@@H](C)[C@@H](C(=O)NCCCCNC(=O)c3ccc(-c4c5nc(c(-c6c(F)c(F)c(F)c(F)c6F)c6ccc([nH]6)c(-c6c(F)c(F)c(F)c(F)c6F)c6nc(c(-c7c(F)c(F)c(F)c(F)c7F)c7ccc4[nH]7)C=C6)C=C5)cc3)C2)C1
REMARK SMILES IDX 19 1 18 2 16 3 17 4 15 6 11 7 12 8 89 9 13 10 14 11 9 12
REMARK SMILES IDX 10 13 8 14 5 15 6 16 90 17 7 18 3 19 4 20 2 21 1 22 20 23
REMARK SMILES IDX 21 24 22 25 23 26 24 27 25 29 26 30 27 31 88 32 28 33 87 34
REMARK SMILES IDX 29 35 30 36 31 37 81 38 32 39 86 40 80 41 82 42 33 43 85 44
REMARK SMILES IDX 79 45 78 46 34 48 66 49 46 50 65 51 47 52 50 53 64 54 83 55
REMARK SMILES IDX 48 56 49 57 63 59 84 60 51 61 35 62 36 63 44 64 37 65 38 66
REMARK SMILES IDX 42 67 45 68 39 69 40 70 43 71 41 72 67 73 68 74 76 75 69 76
REMARK SMILES IDX 70 77 74 78 77 79 71 80 72 81 75 82 73 83 52 84 53 85 61 86
REMARK SMILES IDX 54 87 55 88 59 89 62 90 56 91 57 92 60 93 58 94
REMARK H PARENT 18 5 23 28 82 47 50 58
REMARK Flexibility Score: inf
ROOT
ATOM      1  C   UNL A   1      37.078  22.213  24.502  1.00  0.00     0.116 C 
ENDROOT
BRANCH   1   2
ATOM      2  N   UNL A   1      36.212  22.677  23.432  1.00  0.00    -0.356 N 
ATOM      3  C   UNL A   1      34.965  23.232  23.481  1.00  0.00     0.225 C 
ATOM      4  O   UNL A   1      34.451  23.578  22.419  1.00  0.00    -0.275 OA
ATOM      5  H   UNL A   1      36.583  22.575  22.525  1.00  0.00     0.163 HD
BRANCH   3   6
ATOM      6  C   UNL A   1      34.244  23.334  24.813  1.00  0.00     0.102 C 
ATOM      7  N   UNL A   1      32.194  24.416  25.270  1.00  0.00    -0.324 N 
ATOM      8  C   UNL A   1      31.851  23.170  24.625  1.00  0.00     0.125 C 
ATOM      9  C   UNL A   1      33.584  24.719  25.003  1.00  0.00     0.135 C 
ATOM     10  C   UNL A   1      33.069  22.324  24.961  1.00  0.00     0.020 C 
ATOM     11  C   UNL A   1      33.109  21.031  24.171  1.00  0.00     0.010 C 
BRANCH   7  12
ATOM     12  C   UNL A   1      31.346  25.298  25.878  1.00  0.00     0.320 C 
ATOM     13  O   UNL A   1      30.748  25.010  26.914  1.00  0.00    -0.248 OA
BRANCH  12  14
ATOM     14  N   UNL A   1      31.134  26.493  25.226  1.00  0.00    -0.324 N 
ATOM     15  C   UNL A   1      30.774  27.900  23.340  1.00  0.00     0.120 C 
ATOM     16  C   UNL A   1      31.249  28.717  24.543  1.00  0.00     0.039 C 
ATOM     17  C   UNL A   1      30.417  26.544  23.955  1.00  0.00     0.136 C 
ATOM     18  C   UNL A   1      31.952  27.681  25.389  1.00  0.00     0.122 C 
BRANCH  15  19
ATOM     19  C   UNL A   1      29.613  28.539  22.624  1.00  0.00     0.310 C 
ATOM     20  O   UNL A   1      29.714  29.324  21.685  1.00  0.00    -0.252 OA
BRANCH  19  21
ATOM     21  O   UNL A   1      28.438  28.185  23.216  1.00  0.00    -0.469 OA
ATOM     22  C   UNL A   1      27.327  29.023  22.899  1.00  0.00     0.282 C 
ENDBRANCH  19  21
ENDBRANCH  15  19
ENDBRANCH  12  14
ENDBRANCH   7  12
ENDBRANCH   3   6
ENDBRANCH   1   2
BRANCH   1  23
ATOM     23  C   UNL A   1      36.782  20.773  24.921  1.00  0.00     0.023 C 
BRANCH  23  24
ATOM     24  C   UNL A   1      37.969  19.814  24.873  1.00  0.00     0.023 C 
BRANCH  24  25
ATOM     25  C   UNL A   1      39.166  20.217  25.724  1.00  0.00     0.116 C 
BRANCH  25  26
ATOM     26  N   UNL A   1      40.160  19.163  25.841  1.00  0.00    -0.352 N 
ATOM     27  C   UNL A   1      41.507  19.252  26.095  1.00  0.00     0.251 C 
ATOM     28  H   UNL A   1      39.817  18.248  25.721  1.00  0.00     0.163 HD
ATOM     29  O   UNL A   1      42.211  18.249  26.026  1.00  0.00    -0.269 OA
BRANCH  27  30
ATOM     30  C   UNL A   1      42.121  20.560  26.416  1.00  0.00     0.039 A 
ATOM     31  C   UNL A   1      42.553  21.375  25.367  1.00  0.00     0.014 A 
ATOM     32  C   UNL A   1      42.266  20.987  27.739  1.00  0.00     0.014 A 
ATOM     33  C   UNL A   1      43.061  22.647  25.639  1.00  0.00     0.010 A 
ATOM     34  C   UNL A   1      42.699  22.283  28.005  1.00  0.00     0.010 A 
ATOM     35  C   UNL A   1      43.100  23.126  26.958  1.00  0.00    -0.014 A 
BRANCH  35  36
ATOM     36  C   UNL A   1      43.548  24.509  27.264  1.00  0.00     0.031 A 
ATOM     37  C   UNL A   1      42.573  25.523  27.790  1.00  0.00     0.074 A 
ATOM     38  C   UNL A   1      44.818  24.872  26.997  1.00  0.00     0.049 A 
ATOM     39  N   UNL A   1      42.756  26.794  28.047  1.00  0.00    -0.248 NA
ATOM     40  C   UNL A   1      41.201  25.053  28.032  1.00  0.00     0.031 C 
ATOM     41  C   UNL A   1      45.848  23.994  26.440  1.00  0.00     0.029 A 
ATOM     42  N   UNL A   1      45.454  26.079  27.147  1.00  0.00    -0.354 N 
ATOM     43  C   UNL A   1      41.522  27.277  28.461  1.00  0.00     0.074 A 
ATOM     44  C   UNL A   1      40.586  26.177  28.372  1.00  0.00     0.031 C 
ATOM     45  C   UNL A   1      46.993  24.683  26.319  1.00  0.00     0.029 A 
ATOM     46  C   UNL A   1      46.769  26.059  26.753  1.00  0.00     0.049 A 
ATOM     47  H   UNL A   1      45.010  26.881  27.503  1.00  0.00     0.167 HD
ATOM     48  C   UNL A   1      41.203  28.520  28.898  1.00  0.00     0.037 A 
ATOM     49  C   UNL A   1      47.690  27.042  26.738  1.00  0.00     0.037 A 
ATOM     50  C   UNL A   1      42.142  29.605  29.010  1.00  0.00     0.049 A 
ATOM     51  C   UNL A   1      47.310  28.415  27.221  1.00  0.00     0.074 A 
ATOM     52  C   UNL A   1      41.933  30.878  29.510  1.00  0.00     0.029 A 
ATOM     53  N   UNL A   1      43.469  29.545  28.610  1.00  0.00    -0.354 N 
ATOM     54  N   UNL A   1      46.160  28.841  27.681  1.00  0.00    -0.248 NA
ATOM     55  C   UNL A   1      48.360  29.441  27.185  1.00  0.00     0.031 C 
ATOM     56  C   UNL A   1      43.121  31.604  29.367  1.00  0.00     0.029 A 
ATOM     57  C   UNL A   1      44.085  30.768  28.826  1.00  0.00     0.049 A 
ATOM     58  H   UNL A   1      43.909  28.751  28.228  1.00  0.00     0.167 HD
ATOM     59  C   UNL A   1      46.352  30.175  28.014  1.00  0.00     0.074 A 
ATOM     60  C   UNL A   1      47.735  30.484  27.715  1.00  0.00     0.031 C 
ATOM     61  C   UNL A   1      45.463  31.062  28.526  1.00  0.00     0.037 A 
BRANCH  48  62
ATOM     62  C   UNL A   1      39.773  28.768  29.282  1.00  0.00     0.064 A 
ATOM     63  C   UNL A   1      38.827  29.226  28.351  1.00  0.00     0.173 A 
ATOM     64  C   UNL A   1      39.337  28.532  30.594  1.00  0.00     0.173 A 
ATOM     65  F   UNL A   1      39.193  29.478  27.084  1.00  0.00    -0.203 F 
ATOM     66  C   UNL A   1      37.510  29.475  28.729  1.00  0.00     0.198 A 
ATOM     67  C   UNL A   1      38.011  28.751  30.961  1.00  0.00     0.198 A 
ATOM     68  F   UNL A   1      40.197  28.088  31.524  1.00  0.00    -0.203 F 
ATOM     69  F   UNL A   1      36.641  29.969  27.836  1.00  0.00    -0.200 F 
ATOM     70  C   UNL A   1      37.103  29.233  30.031  1.00  0.00     0.200 A 
ATOM     71  F   UNL A   1      37.616  28.505  32.217  1.00  0.00    -0.200 F 
ATOM     72  F   UNL A   1      35.835  29.473  30.393  1.00  0.00    -0.200 F 
ENDBRANCH  48  62
BRANCH  49  73
ATOM     73  C   UNL A   1      49.073  26.749  26.283  1.00  0.00     0.064 A 
ATOM     74  C   UNL A   1      50.022  26.227  27.172  1.00  0.00     0.173 A 
ATOM     75  C   UNL A   1      49.470  26.967  24.957  1.00  0.00     0.173 A 
ATOM     76  F   UNL A   1      49.694  26.020  28.456  1.00  0.00    -0.203 F 
ATOM     77  C   UNL A   1      51.321  25.945  26.755  1.00  0.00     0.198 A 
ATOM     78  C   UNL A   1      50.762  26.662  24.533  1.00  0.00     0.198 A 
ATOM     79  F   UNL A   1      48.597  27.462  24.066  1.00  0.00    -0.203 F 
ATOM     80  F   UNL A   1      52.219  25.480  27.633  1.00  0.00    -0.200 F 
ATOM     81  C   UNL A   1      51.688  26.156  25.435  1.00  0.00     0.200 A 
ATOM     82  F   UNL A   1      51.110  26.853  23.253  1.00  0.00    -0.200 F 
ATOM     83  F   UNL A   1      52.935  25.876  25.030  1.00  0.00    -0.200 F 
ENDBRANCH  49  73
BRANCH  61  84
ATOM     84  C   UNL A   1      45.966  32.444  28.824  1.00  0.00     0.064 A 
ATOM     85  C   UNL A   1      45.849  33.488  27.894  1.00  0.00     0.173 A 
ATOM     86  C   UNL A   1      46.538  32.737  30.072  1.00  0.00     0.173 A 
ATOM     87  F   UNL A   1      45.324  33.255  26.681  1.00  0.00    -0.203 F 
ATOM     88  C   UNL A   1      46.306  34.768  28.194  1.00  0.00     0.198 A 
ATOM     89  C   UNL A   1      46.967  34.025  30.379  1.00  0.00     0.198 A 
ATOM     90  F   UNL A   1      46.668  31.776  30.999  1.00  0.00    -0.203 F 
ATOM     91  F   UNL A   1      46.227  35.739  27.273  1.00  0.00    -0.200 F 
ATOM     92  C   UNL A   1      46.858  35.038  29.438  1.00  0.00     0.200 A 
ATOM     93  F   UNL A   1      47.488  34.286  31.586  1.00  0.00    -0.200 F 
ATOM     94  F   UNL A   1      47.292  36.272  29.727  1.00  0.00    -0.200 F 
ENDBRANCH  61  84
ENDBRANCH  35  36
ENDBRANCH  27  30
ENDBRANCH  25  26
ENDBRANCH  24  25
ENDBRANCH  23  24
ENDBRANCH   1  23
TORSDOF 15
ENDMDL
MODEL 3
REMARK VINA RESULT:     -12.1      0.695      7.299
REMARK SMILES COC(=O)[C@H]1CCN(C(=O)N2C[C@@H](C)[C@@H](C(=O)NCCCCNC(=O)c3ccc(-c4c5nc(c(-c6c(F)c(F)c(F)c(F)c6F)c6ccc([nH]6)c(-c6c(F)c(F)c(F)c(F)c6F)c6nc(c(-c7c(F)c(F)c(F)c(F)c7F)c7ccc4[nH]7)C=C6)C=C5)cc3)C2)C1
REMARK SMILES IDX 19 1 18 2 16 3 17 4 15 6 11 7 12 8 89 9 13 10 14 11 9 12
REMARK SMILES IDX 10 13 8 14 5 15 6 16 90 17 7 18 3 19 4 20 2 21 1 22 20 23
REMARK SMILES IDX 21 24 22 25 23 26 24 27 25 29 26 30 27 31 88 32 28 33 87 34
REMARK SMILES IDX 29 35 30 36 31 37 81 38 32 39 86 40 80 41 82 42 33 43 85 44
REMARK SMILES IDX 79 45 78 46 34 48 66 49 46 50 65 51 47 52 50 53 64 54 83 55
REMARK SMILES IDX 48 56 49 57 63 59 84 60 51 61 35 62 36 63 44 64 37 65 38 66
REMARK SMILES IDX 42 67 45 68 39 69 40 70 43 71 41 72 67 73 68 74 76 75 69 76
REMARK SMILES IDX 70 77 74 78 77 79 71 80 72 81 75 82 73 83 52 84 53 85 61 86
REMARK SMILES IDX 54 87 55 88 59 89 62 90 56 91 57 92 60 93 58 94
REMARK H PARENT 18 5 23 28 82 47 50 58
REMARK Flexibility Score: inf
ROOT
ATOM      1  C   UNL A   1      32.345  29.793  26.431  1.00  0.00     0.116 C 
ENDROOT
BRANCH   1   2
ATOM      2  N   UNL A   1      31.657  28.560  26.772  1.00  0.00    -0.356 N 
ATOM      3  C   UNL A   1      31.549  27.387  26.081  1.00  0.00     0.225 C 
ATOM      4  O   UNL A   1      30.930  26.465  26.611  1.00  0.00    -0.275 OA
ATOM      5  H   UNL A   1      31.193  28.571  27.641  1.00  0.00     0.163 HD
BRANCH   3   6
ATOM      6  C   UNL A   1      32.125  27.288  24.680  1.00  0.00     0.102 C 
ATOM      7  N   UNL A   1      32.515  25.336  23.409  1.00  0.00    -0.324 N 
ATOM      8  C   UNL A   1      31.094  25.581  23.335  1.00  0.00     0.125 C 
ATOM      9  C   UNL A   1      33.064  26.070  24.530  1.00  0.00     0.135 C 
ATOM     10  C   UNL A   1      31.046  27.081  23.578  1.00  0.00     0.020 C 
ATOM     11  C   UNL A   1      29.635  27.579  23.829  1.00  0.00     0.010 C 
BRANCH   7  12
ATOM     12  C   UNL A   1      33.241  24.426  22.692  1.00  0.00     0.320 C 
ATOM     13  O   UNL A   1      33.610  24.657  21.542  1.00  0.00    -0.248 OA
BRANCH  12  14
ATOM     14  N   UNL A   1      33.464  23.208  23.295  1.00  0.00    -0.324 N 
ATOM     15  C   UNL A   1      32.871  21.247  24.508  1.00  0.00     0.120 C 
ATOM     16  C   UNL A   1      34.385  21.463  24.533  1.00  0.00     0.039 C 
ATOM     17  C   UNL A   1      32.396  22.222  23.427  1.00  0.00     0.136 C 
ATOM     18  C   UNL A   1      34.512  22.944  24.265  1.00  0.00     0.122 C 
BRANCH  15  19
ATOM     19  C   UNL A   1      32.491  19.820  24.213  1.00  0.00     0.310 C 
ATOM     20  O   UNL A   1      32.270  19.370  23.092  1.00  0.00    -0.252 OA
BRANCH  19  21
ATOM     21  O   UNL A   1      32.348  19.119  25.372  1.00  0.00    -0.469 OA
ATOM     22  C   UNL A   1      32.438  17.701  25.234  1.00  0.00     0.282 C 
ENDBRANCH  19  21
ENDBRANCH  15  19
ENDBRANCH  12  14
ENDBRANCH   7  12
ENDBRANCH   3   6
ENDBRANCH   1   2
BRANCH   1  23
ATOM     23  C   UNL A   1      31.406  30.860  25.870  1.00  0.00     0.023 C 
BRANCH  23  24
ATOM     24  C   UNL A   1      31.231  32.106  26.735  1.00  0.00     0.023 C 
BRANCH  24  25
ATOM     25  C   UNL A   1      32.524  32.768  27.192  1.00  0.00     0.116 C 
BRANCH  25  26
ATOM     26  N   UNL A   1      32.339  34.150  27.602  1.00  0.00    -0.352 N 
ATOM     27  C   UNL A   1      32.995  34.873  28.569  1.00  0.00     0.251 C 
ATOM     28  H   UNL A   1      31.641  34.643  27.113  1.00  0.00     0.163 HD
ATOM     29  O   UNL A   1      32.605  36.000  28.861  1.00  0.00    -0.269 OA
BRANCH  27  30
ATOM     30  C   UNL A   1      34.148  34.285  29.286  1.00  0.00     0.039 A 
ATOM     31  C   UNL A   1      33.903  33.427  30.362  1.00  0.00     0.014 A 
ATOM     32  C   UNL A   1      35.461  34.570  28.904  1.00  0.00     0.014 A 
ATOM     33  C   UNL A   1      34.971  32.796  31.003  1.00  0.00     0.010 A 
ATOM     34  C   UNL A   1      36.519  33.882  29.492  1.00  0.00     0.010 A 
ATOM     35  C   UNL A   1      36.285  32.988  30.547  1.00  0.00    -0.014 A 
BRANCH  35  36
ATOM     36  C   UNL A   1      37.427  32.256  31.153  1.00  0.00     0.031 A 
ATOM     37  C   UNL A   1      37.935  32.637  32.513  1.00  0.00     0.074 A 
ATOM     38  C   UNL A   1      38.054  31.297  30.444  1.00  0.00     0.049 A 
ATOM     39  N   UNL A   1      38.963  32.167  33.176  1.00  0.00    -0.248 NA
ATOM     40  C   UNL A   1      37.212  33.711  33.210  1.00  0.00     0.031 C 
ATOM     41  C   UNL A   1      37.687  30.867  29.094  1.00  0.00     0.029 A 
ATOM     42  N   UNL A   1      39.139  30.517  30.758  1.00  0.00    -0.354 N 
ATOM     43  C   UNL A   1      39.018  32.899  34.355  1.00  0.00     0.074 A 
ATOM     44  C   UNL A   1      37.954  33.878  34.294  1.00  0.00     0.031 C 
ATOM     45  C   UNL A   1      38.515  29.885  28.705  1.00  0.00     0.029 A 
ATOM     46  C   UNL A   1      39.494  29.643  29.761  1.00  0.00     0.049 A 
ATOM     47  H   UNL A   1      39.617  30.580  31.616  1.00  0.00     0.167 HD
ATOM     48  C   UNL A   1      39.865  32.752  35.403  1.00  0.00     0.037 A 
ATOM     49  C   UNL A   1      40.499  28.749  29.703  1.00  0.00     0.037 A 
ATOM     50  C   UNL A   1      40.905  31.760  35.471  1.00  0.00     0.049 A 
ATOM     51  C   UNL A   1      41.431  28.609  30.876  1.00  0.00     0.074 A 
ATOM     52  C   UNL A   1      41.766  31.483  36.518  1.00  0.00     0.029 A 
ATOM     53  N   UNL A   1      41.229  30.884  34.445  1.00  0.00    -0.354 N 
ATOM     54  N   UNL A   1      41.428  29.254  32.016  1.00  0.00    -0.248 NA
ATOM     55  C   UNL A   1      42.504  27.613  30.752  1.00  0.00     0.031 C 
ATOM     56  C   UNL A   1      42.644  30.473  36.108  1.00  0.00     0.029 A 
ATOM     57  C   UNL A   1      42.296  30.084  34.824  1.00  0.00     0.049 A 
ATOM     58  H   UNL A   1      40.769  30.838  33.576  1.00  0.00     0.167 HD
ATOM     59  C   UNL A   1      42.476  28.726  32.756  1.00  0.00     0.074 A 
ATOM     60  C   UNL A   1      43.087  27.698  31.939  1.00  0.00     0.031 C 
ATOM     61  C   UNL A   1      42.893  29.062  34.003  1.00  0.00     0.037 A 
BRANCH  48  62
ATOM     62  C   UNL A   1      39.698  33.695  36.560  1.00  0.00     0.064 A 
ATOM     63  C   UNL A   1      40.337  34.944  36.591  1.00  0.00     0.173 A 
ATOM     64  C   UNL A   1      38.878  33.353  37.645  1.00  0.00     0.173 A 
ATOM     65  F   UNL A   1      41.142  35.317  35.583  1.00  0.00    -0.203 F 
ATOM     66  C   UNL A   1      40.193  35.798  37.682  1.00  0.00     0.198 A 
ATOM     67  C   UNL A   1      38.710  34.223  38.720  1.00  0.00     0.198 A 
ATOM     68  F   UNL A   1      38.238  32.174  37.664  1.00  0.00    -0.203 F 
ATOM     69  F   UNL A   1      40.861  36.959  37.715  1.00  0.00    -0.200 F 
ATOM     70  C   UNL A   1      39.376  35.438  38.742  1.00  0.00     0.200 A 
ATOM     71  F   UNL A   1      37.910  33.879  39.738  1.00  0.00    -0.200 F 
ATOM     72  F   UNL A   1      39.237  36.261  39.792  1.00  0.00    -0.200 F 
ENDBRANCH  48  62
BRANCH  49  73
ATOM     73  C   UNL A   1      40.652  27.889  28.501  1.00  0.00     0.064 A 
ATOM     74  C   UNL A   1      40.026  26.637  28.434  1.00  0.00     0.173 A 
ATOM     75  C   UNL A   1      41.409  28.302  27.395  1.00  0.00     0.173 A 
ATOM     76  F   UNL A   1      39.307  26.192  29.475  1.00  0.00    -0.203 F 
ATOM     77  C   UNL A   1      40.158  25.825  27.309  1.00  0.00     0.198 A 
ATOM     78  C   UNL A   1      41.522  27.499  26.261  1.00  0.00     0.198 A 
ATOM     79  F   UNL A   1      42.025  29.493  27.409  1.00  0.00    -0.203 F 
ATOM     80  F   UNL A   1      39.578  24.618  27.285  1.00  0.00    -0.200 F 
ATOM     81  C   UNL A   1      40.901  26.259  26.222  1.00  0.00     0.200 A 
ATOM     82  F   UNL A   1      42.227  27.928  25.206  1.00  0.00    -0.200 F 
ATOM     83  F   UNL A   1      41.022  25.482  25.137  1.00  0.00    -0.200 F 
ENDBRANCH  49  73
BRANCH  61  84
ATOM     84  C   UNL A   1      44.046  28.289  34.573  1.00  0.00     0.064 A 
ATOM     85  C   UNL A   1      43.856  27.087  35.269  1.00  0.00     0.173 A 
ATOM     86  C   UNL A   1      45.363  28.739  34.386  1.00  0.00     0.173 A 
ATOM     87  F   UNL A   1      42.616  26.623  35.488  1.00  0.00    -0.203 F 
ATOM     88  C   UNL A   1      44.940  26.375  35.777  1.00  0.00     0.198 A 
ATOM     89  C   UNL A   1      46.444  28.010  34.870  1.00  0.00     0.198 A 
ATOM     90  F   UNL A   1      45.600  29.881  33.723  1.00  0.00    -0.203 F 
ATOM     91  F   UNL A   1      44.731  25.252  36.480  1.00  0.00    -0.200 F 
ATOM     92  C   UNL A   1      46.233  26.832  35.571  1.00  0.00     0.200 A 
ATOM     93  F   UNL A   1      47.694  28.447  34.659  1.00  0.00    -0.200 F 
ATOM     94  F   UNL A   1      47.274  26.142  36.055  1.00  0.00    -0.200 F 
ENDBRANCH  61  84
ENDBRANCH  35  36
ENDBRANCH  27  30
ENDBRANCH  25  26
ENDBRANCH  24  25
ENDBRANCH  23  24
ENDBRANCH   1  23
TORSDOF 15
ENDMDL
