MODEL 1
REMARK VINA RESULT:     -12.3      0.000      0.000
REMARK SMILES C[C@@H]1C[N@@H+](Cc2cccc(C(=O)NCCCCNC(=O)c3ccc(-c4c5nc(c(-c6c(F)c(F)c(F)c(F)c6F)c6ccc([nH]6)c(-c6c(F)c(F)c(F)c(F)c6F)c6nc(c(-c7c(F)c(F)c(F)c(F)c7F)c7ccc4[nH]7)C=C6)C=C5)cc3)c2)CCN1C(=O)OC(C)(C)C
REMARK SMILES IDX 14 1 13 2 11 3 12 4 10 6 6 7 7 8 84 9 8 10 9 11 5 12 4 13
REMARK SMILES IDX 1 14 2 15 3 16 87 17 86 18 85 19 88 21 89 22 90 23 91 24
REMARK SMILES IDX 92 25 93 26 94 27 15 28 16 29 17 30 18 31 19 32 20 34 21 35
REMARK SMILES IDX 22 36 83 37 23 38 82 39 24 40 25 41 26 42 76 43 27 44 81 45
REMARK SMILES IDX 75 46 77 47 28 48 80 49 74 50 73 51 29 53 61 54 41 55 60 56
REMARK SMILES IDX 42 57 45 58 59 59 78 60 43 61 44 62 58 64 79 65 46 66 30 67
REMARK SMILES IDX 31 68 39 69 32 70 33 71 37 72 40 73 34 74 35 75 38 76 36 77
REMARK SMILES IDX 62 78 63 79 71 80 64 81 65 82 69 83 72 84 66 85 67 86 70 87
REMARK SMILES IDX 68 88 47 89 48 90 56 91 49 92 50 93 54 94 57 95 51 96 52 97
REMARK SMILES IDX 55 98 53 99
REMARK H PARENT 13 5 4 20 18 33 77 52 45 63
REMARK Flexibility Score: inf
ROOT
ATOM      1  C   UNL A   1      35.627  20.570  25.174  1.00  0.00     0.116 C 
ENDROOT
BRANCH   1   2
ATOM      2  N   UNL A   1      34.594  19.598  25.456  1.00  0.00    -0.352 N 
ATOM      3  C   UNL A   1      33.248  19.578  25.183  1.00  0.00     0.251 C 
ATOM      4  O   UNL A   1      32.635  18.546  25.463  1.00  0.00    -0.269 OA
ATOM      5  H   UNL A   1      34.917  18.798  25.933  1.00  0.00     0.163 HD
BRANCH   3   6
ATOM      6  C   UNL A   1      32.513  20.696  24.513  1.00  0.00     0.040 A 
ATOM      7  C   UNL A   1      31.449  22.900  24.459  1.00  0.00     0.007 A 
ATOM      8  C   UNL A   1      31.355  22.814  23.065  1.00  0.00     0.009 A 
ATOM      9  C   UNL A   1      31.939  21.787  25.173  1.00  0.00     0.023 A 
ATOM     10  C   UNL A   1      31.808  21.677  22.399  1.00  0.00     0.001 A 
ATOM     11  C   UNL A   1      32.411  20.641  23.116  1.00  0.00     0.014 A 
BRANCH   7  12
ATOM     12  C   UNL A   1      31.099  24.197  25.176  1.00  0.00     0.299 C 
BRANCH  12  13
ATOM     13  N   UNL A   1      31.270  25.450  24.401  1.00  0.00    -0.328 N 
ATOM     14  C   UNL A   1      32.929  27.179  22.290  1.00  0.00     0.037 C 
ATOM     15  C   UNL A   1      32.767  27.426  23.797  1.00  0.00     0.140 C 
ATOM     16  C   UNL A   1      32.592  26.092  24.598  1.00  0.00     0.287 C 
ATOM     17  N   UNL A   1      31.625  28.322  24.073  1.00  0.00    -0.294 N 
ATOM     18  C   UNL A   1      30.313  27.717  23.851  1.00  0.00     0.185 C 
ATOM     19  C   UNL A   1      30.201  26.429  24.673  1.00  0.00     0.284 C 
ATOM     20  H   UNL A   1      31.208  25.157  23.427  1.00  0.00     0.348 HD
BRANCH  17  21
ATOM     21  C   UNL A   1      31.702  29.526  24.750  1.00  0.00     0.410 C 
ATOM     22  O   UNL A   1      30.767  30.316  24.813  1.00  0.00    -0.224 OA
BRANCH  21  23
ATOM     23  O   UNL A   1      32.915  29.736  25.329  1.00  0.00    -0.444 OA
BRANCH  23  24
ATOM     24  C   UNL A   1      33.090  29.535  26.760  1.00  0.00     0.106 C 
ATOM     25  C   UNL A   1      33.437  30.847  27.477  1.00  0.00     0.056 C 
ATOM     26  C   UNL A   1      31.870  28.851  27.389  1.00  0.00     0.056 C 
ATOM     27  C   UNL A   1      34.294  28.587  26.886  1.00  0.00     0.056 C 
ENDBRANCH  23  24
ENDBRANCH  21  23
ENDBRANCH  17  21
ENDBRANCH  12  13
ENDBRANCH   7  12
ENDBRANCH   3   6
ENDBRANCH   1   2
BRANCH   1  28
ATOM     28  C   UNL A   1      36.986  19.899  24.973  1.00  0.00     0.023 C 
BRANCH  28  29
ATOM     29  C   UNL A   1      38.149  20.890  24.944  1.00  0.00     0.023 C 
BRANCH  29  30
ATOM     30  C   UNL A   1      39.163  20.711  26.071  1.00  0.00     0.116 C 
BRANCH  30  31
ATOM     31  N   UNL A   1      39.977  19.511  25.935  1.00  0.00    -0.352 N 
ATOM     32  C   UNL A   1      41.344  19.391  26.035  1.00  0.00     0.251 C 
ATOM     33  H   UNL A   1      39.486  18.678  25.747  1.00  0.00     0.163 HD
ATOM     34  O   UNL A   1      41.901  18.326  25.797  1.00  0.00    -0.269 OA
BRANCH  32  35
ATOM     35  C   UNL A   1      42.137  20.589  26.376  1.00  0.00     0.039 A 
ATOM     36  C   UNL A   1      42.621  21.391  25.341  1.00  0.00     0.014 A 
ATOM     37  C   UNL A   1      42.309  20.968  27.710  1.00  0.00     0.014 A 
ATOM     38  C   UNL A   1      43.186  22.630  25.642  1.00  0.00     0.010 A 
ATOM     39  C   UNL A   1      42.804  22.236  28.003  1.00  0.00     0.010 A 
ATOM     40  C   UNL A   1      43.225  23.087  26.970  1.00  0.00    -0.014 A 
BRANCH  40  41
ATOM     41  C   UNL A   1      43.641  24.478  27.289  1.00  0.00     0.031 A 
ATOM     42  C   UNL A   1      42.630  25.491  27.743  1.00  0.00     0.074 A 
ATOM     43  C   UNL A   1      44.925  24.843  27.090  1.00  0.00     0.049 A 
ATOM     44  N   UNL A   1      42.797  26.764  28.000  1.00  0.00    -0.248 NA
ATOM     45  C   UNL A   1      41.247  25.022  27.909  1.00  0.00     0.031 C 
ATOM     46  C   UNL A   1      45.989  23.964  26.598  1.00  0.00     0.029 A 
ATOM     47  N   UNL A   1      45.553  26.052  27.264  1.00  0.00    -0.354 N 
ATOM     48  C   UNL A   1      41.542  27.247  28.347  1.00  0.00     0.074 A 
ATOM     49  C   UNL A   1      40.615  26.143  28.224  1.00  0.00     0.031 C 
ATOM     50  C   UNL A   1      47.137  24.655  26.530  1.00  0.00     0.029 A 
ATOM     51  C   UNL A   1      46.886  26.036  26.928  1.00  0.00     0.049 A 
ATOM     52  H   UNL A   1      45.092  26.854  27.600  1.00  0.00     0.167 HD
ATOM     53  C   UNL A   1      41.202  28.494  28.750  1.00  0.00     0.037 A 
ATOM     54  C   UNL A   1      47.798  27.027  26.923  1.00  0.00     0.037 A 
ATOM     55  C   UNL A   1      42.132  29.582  28.895  1.00  0.00     0.049 A 
ATOM     56  C   UNL A   1      47.381  28.407  27.356  1.00  0.00     0.074 A 
ATOM     57  C   UNL A   1      41.897  30.858  29.376  1.00  0.00     0.029 A 
ATOM     58  N   UNL A   1      43.475  29.526  28.550  1.00  0.00    -0.354 N 
ATOM     59  N   UNL A   1      46.211  28.826  27.775  1.00  0.00    -0.248 NA
ATOM     60  C   UNL A   1      48.412  29.454  27.318  1.00  0.00     0.031 C 
ATOM     61  C   UNL A   1      43.080  31.594  29.265  1.00  0.00     0.029 A 
ATOM     62  C   UNL A   1      44.068  30.759  28.771  1.00  0.00     0.049 A 
ATOM     63  H   UNL A   1      43.936  28.731  28.201  1.00  0.00     0.167 HD
ATOM     64  C   UNL A   1      46.372  30.173  28.072  1.00  0.00     0.074 A 
ATOM     65  C   UNL A   1      47.758  30.495  27.811  1.00  0.00     0.031 C 
ATOM     66  C   UNL A   1      45.452  31.065  28.512  1.00  0.00     0.037 A 
BRANCH  53  67
ATOM     67  C   UNL A   1      39.761  28.760  29.075  1.00  0.00     0.064 A 
ATOM     68  C   UNL A   1      39.245  28.543  30.360  1.00  0.00     0.173 A 
ATOM     69  C   UNL A   1      38.910  29.323  28.111  1.00  0.00     0.173 A 
ATOM     70  F   UNL A   1      40.015  28.000  31.315  1.00  0.00    -0.203 F 
ATOM     71  C   UNL A   1      37.926  28.868  30.666  1.00  0.00     0.198 A 
ATOM     72  C   UNL A   1      37.600  29.673  28.428  1.00  0.00     0.198 A 
ATOM     73  F   UNL A   1      39.356  29.555  26.867  1.00  0.00    -0.203 F 
ATOM     74  F   UNL A   1      37.445  28.626  31.894  1.00  0.00    -0.200 F 
ATOM     75  C   UNL A   1      37.109  29.443  29.704  1.00  0.00     0.200 A 
ATOM     76  F   UNL A   1      36.817  30.241  27.501  1.00  0.00    -0.200 F 
ATOM     77  F   UNL A   1      35.846  29.776  30.007  1.00  0.00    -0.200 F 
ENDBRANCH  53  67
BRANCH  54  78
ATOM     78  C   UNL A   1      49.197  26.764  26.487  1.00  0.00     0.064 A 
ATOM     79  C   UNL A   1      49.586  26.955  25.153  1.00  0.00     0.173 A 
ATOM     80  C   UNL A   1      50.160  26.272  27.380  1.00  0.00     0.173 A 
ATOM     81  F   UNL A   1      48.697  27.403  24.254  1.00  0.00    -0.203 F 
ATOM     82  C   UNL A   1      50.871  26.630  24.722  1.00  0.00     0.198 A 
ATOM     83  C   UNL A   1      51.455  25.981  26.956  1.00  0.00     0.198 A 
ATOM     84  F   UNL A   1      49.844  26.073  28.668  1.00  0.00    -0.203 F 
ATOM     85  F   UNL A   1      51.194  26.759  23.429  1.00  0.00    -0.200 F 
ATOM     86  C   UNL A   1      51.806  26.147  25.625  1.00  0.00     0.200 A 
ATOM     87  F   UNL A   1      52.360  25.528  27.835  1.00  0.00    -0.200 F 
ATOM     88  F   UNL A   1      53.040  25.829  25.210  1.00  0.00    -0.200 F 
ENDBRANCH  54  78
BRANCH  66  89
ATOM     89  C   UNL A   1      45.920  32.470  28.762  1.00  0.00     0.064 A 
ATOM     90  C   UNL A   1      45.826  33.462  27.775  1.00  0.00     0.173 A 
ATOM     91  C   UNL A   1      46.434  32.836  30.015  1.00  0.00     0.173 A 
ATOM     92  F   UNL A   1      45.356  33.159  26.556  1.00  0.00    -0.203 F 
ATOM     93  C   UNL A   1      46.255  34.763  28.024  1.00  0.00     0.198 A 
ATOM     94  C   UNL A   1      46.830  34.146  30.272  1.00  0.00     0.198 A 
ATOM     95  F   UNL A   1      46.538  31.928  30.997  1.00  0.00    -0.203 F 
ATOM     96  F   UNL A   1      46.206  35.681  27.049  1.00  0.00    -0.200 F 
ATOM     97  C   UNL A   1      46.749  35.105  29.274  1.00  0.00     0.200 A 
ATOM     98  F   UNL A   1      47.291  34.479  31.485  1.00  0.00    -0.200 F 
ATOM     99  F   UNL A   1      47.153  36.360  29.515  1.00  0.00    -0.200 F 
ENDBRANCH  66  89
ENDBRANCH  40  41
ENDBRANCH  32  35
ENDBRANCH  30  31
ENDBRANCH  29  30
ENDBRANCH  28  29
ENDBRANCH   1  28
TORSDOF 16
ENDMDL
MODEL 2
REMARK VINA RESULT:     -12.3      5.023      9.588
REMARK SMILES C[C@@H]1C[N@@H+](Cc2cccc(C(=O)NCCCCNC(=O)c3ccc(-c4c5nc(c(-c6c(F)c(F)c(F)c(F)c6F)c6ccc([nH]6)c(-c6c(F)c(F)c(F)c(F)c6F)c6nc(c(-c7c(F)c(F)c(F)c(F)c7F)c7ccc4[nH]7)C=C6)C=C5)cc3)c2)CCN1C(=O)OC(C)(C)C
REMARK SMILES IDX 14 1 13 2 11 3 12 4 10 6 6 7 7 8 84 9 8 10 9 11 5 12 4 13
REMARK SMILES IDX 1 14 2 15 3 16 87 17 86 18 85 19 88 21 89 22 90 23 91 24
REMARK SMILES IDX 92 25 93 26 94 27 15 28 16 29 17 30 18 31 19 32 20 34 21 35
REMARK SMILES IDX 22 36 83 37 23 38 82 39 24 40 25 41 26 42 76 43 27 44 81 45
REMARK SMILES IDX 75 46 77 47 28 48 80 49 74 50 73 51 29 53 61 54 41 55 60 56
REMARK SMILES IDX 42 57 45 58 59 59 78 60 43 61 44 62 58 64 79 65 46 66 30 67
REMARK SMILES IDX 31 68 39 69 32 70 33 71 37 72 40 73 34 74 35 75 38 76 36 77
REMARK SMILES IDX 62 78 63 79 71 80 64 81 65 82 69 83 72 84 66 85 67 86 70 87
REMARK SMILES IDX 68 88 47 89 48 90 56 91 49 92 50 93 54 94 57 95 51 96 52 97
REMARK SMILES IDX 55 98 53 99
REMARK H PARENT 13 5 4 20 18 33 77 52 45 63
REMARK Flexibility Score: inf
ROOT
ATOM      1  C   UNL A   1      34.245  29.072  27.102  1.00  0.00     0.116 C 
ENDROOT
BRANCH   1   2
ATOM      2  N   UNL A   1      33.047  28.668  27.804  1.00  0.00    -0.352 N 
ATOM      3  C   UNL A   1      31.844  28.170  27.363  1.00  0.00     0.251 C 
ATOM      4  O   UNL A   1      31.037  27.815  28.223  1.00  0.00    -0.269 OA
ATOM      5  H   UNL A   1      33.104  28.767  28.782  1.00  0.00     0.163 HD
BRANCH   3   6
ATOM      6  C   UNL A   1      31.497  27.976  25.920  1.00  0.00     0.040 A 
ATOM      7  C   UNL A   1      30.699  26.665  24.014  1.00  0.00     0.007 A 
ATOM      8  C   UNL A   1      30.653  27.831  23.239  1.00  0.00     0.009 A 
ATOM      9  C   UNL A   1      31.221  26.744  25.321  1.00  0.00     0.023 A 
ATOM     10  C   UNL A   1      31.046  29.052  23.783  1.00  0.00     0.001 A 
ATOM     11  C   UNL A   1      31.434  29.127  25.123  1.00  0.00     0.014 A 
BRANCH   7  12
ATOM     12  C   UNL A   1      30.127  25.361  23.476  1.00  0.00     0.299 C 
BRANCH  12  13
ATOM     13  N   UNL A   1      31.103  24.372  22.957  1.00  0.00    -0.328 N 
ATOM     14  C   UNL A   1      31.906  21.334  22.388  1.00  0.00     0.037 C 
ATOM     15  C   UNL A   1      32.523  22.300  23.409  1.00  0.00     0.140 C 
ATOM     16  C   UNL A   1      31.478  23.335  23.948  1.00  0.00     0.287 C 
ATOM     17  N   UNL A   1      33.679  23.020  22.836  1.00  0.00    -0.294 N 
ATOM     18  C   UNL A   1      33.331  24.022  21.831  1.00  0.00     0.185 C 
ATOM     19  C   UNL A   1      32.321  25.009  22.425  1.00  0.00     0.284 C 
ATOM     20  H   UNL A   1      30.613  23.908  22.192  1.00  0.00     0.348 HD
BRANCH  17  21
ATOM     21  C   UNL A   1      34.963  23.005  23.352  1.00  0.00     0.410 C 
ATOM     22  O   UNL A   1      35.949  23.312  22.693  1.00  0.00    -0.224 OA
BRANCH  21  23
ATOM     23  O   UNL A   1      35.009  22.618  24.655  1.00  0.00    -0.444 OA
BRANCH  23  24
ATOM     24  C   UNL A   1      35.239  23.598  25.706  1.00  0.00     0.106 C 
ATOM     25  C   UNL A   1      36.734  23.760  26.012  1.00  0.00     0.056 C 
ATOM     26  C   UNL A   1      34.579  24.944  25.378  1.00  0.00     0.056 C 
ATOM     27  C   UNL A   1      34.555  23.015  26.952  1.00  0.00     0.056 C 
ENDBRANCH  23  24
ENDBRANCH  21  23
ENDBRANCH  17  21
ENDBRANCH  12  13
ENDBRANCH   7  12
ENDBRANCH   3   6
ENDBRANCH   1   2
BRANCH   1  28
ATOM     28  C   UNL A   1      34.712  30.459  27.547  1.00  0.00     0.023 C 
BRANCH  28  29
ATOM     29  C   UNL A   1      33.914  31.596  26.911  1.00  0.00     0.023 C 
BRANCH  29  30
ATOM     30  C   UNL A   1      32.693  32.038  27.713  1.00  0.00     0.116 C 
BRANCH  30  31
ATOM     31  N   UNL A   1      32.484  33.481  27.705  1.00  0.00    -0.352 N 
ATOM     32  C   UNL A   1      33.178  34.447  28.396  1.00  0.00     0.251 C 
ATOM     33  H   UNL A   1      31.753  33.805  27.131  1.00  0.00     0.163 HD
ATOM     34  O   UNL A   1      32.823  35.619  28.365  1.00  0.00    -0.269 OA
BRANCH  32  35
ATOM     35  C   UNL A   1      34.328  34.036  29.227  1.00  0.00     0.039 A 
ATOM     36  C   UNL A   1      34.091  33.265  30.366  1.00  0.00     0.014 A 
ATOM     37  C   UNL A   1      35.634  34.324  28.821  1.00  0.00     0.014 A 
ATOM     38  C   UNL A   1      35.169  32.692  31.042  1.00  0.00     0.010 A 
ATOM     39  C   UNL A   1      36.702  33.692  29.451  1.00  0.00     0.010 A 
ATOM     40  C   UNL A   1      36.477  32.851  30.552  1.00  0.00    -0.014 A 
BRANCH  40  41
ATOM     41  C   UNL A   1      37.611  32.092  31.142  1.00  0.00     0.031 A 
ATOM     42  C   UNL A   1      38.126  32.435  32.511  1.00  0.00     0.074 A 
ATOM     43  C   UNL A   1      38.223  31.144  30.404  1.00  0.00     0.049 A 
ATOM     44  N   UNL A   1      39.146  31.929  33.157  1.00  0.00    -0.248 NA
ATOM     45  C   UNL A   1      37.421  33.499  33.240  1.00  0.00     0.031 C 
ATOM     46  C   UNL A   1      37.850  30.760  29.040  1.00  0.00     0.029 A 
ATOM     47  N   UNL A   1      39.298  30.338  30.689  1.00  0.00    -0.354 N 
ATOM     48  C   UNL A   1      39.209  32.618  34.361  1.00  0.00     0.074 A 
ATOM     49  C   UNL A   1      38.156  33.609  34.338  1.00  0.00     0.031 C 
ATOM     50  C   UNL A   1      38.667  29.782  28.617  1.00  0.00     0.029 A 
ATOM     51  C   UNL A   1      39.650  29.500  29.658  1.00  0.00     0.049 A 
ATOM     52  H   UNL A   1      39.771  30.358  31.552  1.00  0.00     0.167 HD
ATOM     53  C   UNL A   1      40.059  32.425  35.397  1.00  0.00     0.037 A 
ATOM     54  C   UNL A   1      40.661  28.617  29.555  1.00  0.00     0.037 A 
ATOM     55  C   UNL A   1      41.090  31.421  35.426  1.00  0.00     0.049 A 
ATOM     56  C   UNL A   1      41.602  28.443  30.718  1.00  0.00     0.074 A 
ATOM     57  C   UNL A   1      41.945  31.095  36.464  1.00  0.00     0.029 A 
ATOM     58  N   UNL A   1      41.412  30.588  34.365  1.00  0.00    -0.354 N 
ATOM     59  N   UNL A   1      41.590  29.033  31.889  1.00  0.00    -0.248 NA
ATOM     60  C   UNL A   1      42.697  27.477  30.547  1.00  0.00     0.031 C 
ATOM     61  C   UNL A   1      42.826  30.108  36.012  1.00  0.00     0.029 A 
ATOM     62  C   UNL A   1      42.481  29.776  34.713  1.00  0.00     0.049 A 
ATOM     63  H   UNL A   1      40.951  30.574  33.496  1.00  0.00     0.167 HD
ATOM     64  C   UNL A   1      42.655  28.496  32.598  1.00  0.00     0.074 A 
ATOM     65  C   UNL A   1      43.275  27.512  31.738  1.00  0.00     0.031 C 
ATOM     66  C   UNL A   1      43.085  28.797  33.848  1.00  0.00     0.037 A 
BRANCH  53  67
ATOM     67  C   UNL A   1      39.914  33.311  36.600  1.00  0.00     0.064 A 
ATOM     68  C   UNL A   1      40.629  34.512  36.719  1.00  0.00     0.173 A 
ATOM     69  C   UNL A   1      38.984  32.997  37.603  1.00  0.00     0.173 A 
ATOM     70  F   UNL A   1      41.535  34.854  35.792  1.00  0.00    -0.203 F 
ATOM     71  C   UNL A   1      40.426  35.361  37.804  1.00  0.00     0.198 A 
ATOM     72  C   UNL A   1      38.764  33.862  38.672  1.00  0.00     0.198 A 
ATOM     73  F   UNL A   1      38.272  31.862  37.534  1.00  0.00    -0.203 F 
ATOM     74  F   UNL A   1      41.140  36.490  37.912  1.00  0.00    -0.200 F 
ATOM     75  C   UNL A   1      39.486  35.041  38.772  1.00  0.00     0.200 A 
ATOM     76  F   UNL A   1      37.845  33.558  39.599  1.00  0.00    -0.200 F 
ATOM     77  F   UNL A   1      39.276  35.870  39.805  1.00  0.00    -0.200 F 
ENDBRANCH  53  67
BRANCH  54  78
ATOM     78  C   UNL A   1      40.854  27.830  28.306  1.00  0.00     0.064 A 
ATOM     79  C   UNL A   1      40.277  26.561  28.154  1.00  0.00     0.173 A 
ATOM     80  C   UNL A   1      41.656  28.308  27.258  1.00  0.00     0.173 A 
ATOM     81  F   UNL A   1      39.520  26.049  29.136  1.00  0.00    -0.203 F 
ATOM     82  C   UNL A   1      40.523  25.786  27.023  1.00  0.00     0.198 A 
ATOM     83  C   UNL A   1      41.873  27.548  26.111  1.00  0.00     0.198 A 
ATOM     84  F   UNL A   1      42.230  29.517  27.348  1.00  0.00    -0.203 F 
ATOM     85  F   UNL A   1      40.014  24.551  26.936  1.00  0.00    -0.200 F 
ATOM     86  C   UNL A   1      41.318  26.282  26.000  1.00  0.00     0.200 A 
ATOM     87  F   UNL A   1      42.629  28.037  25.119  1.00  0.00    -0.200 F 
ATOM     88  F   UNL A   1      41.560  25.535  24.914  1.00  0.00    -0.200 F 
ENDBRANCH  54  78
BRANCH  66  89
ATOM     89  C   UNL A   1      44.271  28.035  34.369  1.00  0.00     0.064 A 
ATOM     90  C   UNL A   1      45.576  28.535  34.245  1.00  0.00     0.173 A 
ATOM     91  C   UNL A   1      44.097  26.811  35.030  1.00  0.00     0.173 A 
ATOM     92  F   UNL A   1      45.798  29.694  33.607  1.00  0.00    -0.203 F 
ATOM     93  C   UNL A   1      46.665  27.824  34.741  1.00  0.00     0.198 A 
ATOM     94  C   UNL A   1      45.184  26.119  35.556  1.00  0.00     0.198 A 
ATOM     95  F   UNL A   1      42.869  26.292  35.182  1.00  0.00    -0.203 F 
ATOM     96  F   UNL A   1      47.907  28.294  34.564  1.00  0.00    -0.200 F 
ATOM     97  C   UNL A   1      46.467  26.621  35.402  1.00  0.00     0.200 A 
ATOM     98  F   UNL A   1      44.990  24.965  36.209  1.00  0.00    -0.200 F 
ATOM     99  F   UNL A   1      47.516  25.942  35.887  1.00  0.00    -0.200 F 
ENDBRANCH  66  89
ENDBRANCH  40  41
ENDBRANCH  32  35
ENDBRANCH  30  31
ENDBRANCH  29  30
ENDBRANCH  28  29
ENDBRANCH   1  28
TORSDOF 16
ENDMDL
MODEL 3
REMARK VINA RESULT:     -12.1      3.547      8.532
REMARK SMILES C[C@@H]1C[N@@H+](Cc2cccc(C(=O)NCCCCNC(=O)c3ccc(-c4c5nc(c(-c6c(F)c(F)c(F)c(F)c6F)c6ccc([nH]6)c(-c6c(F)c(F)c(F)c(F)c6F)c6nc(c(-c7c(F)c(F)c(F)c(F)c7F)c7ccc4[nH]7)C=C6)C=C5)cc3)c2)CCN1C(=O)OC(C)(C)C
REMARK SMILES IDX 14 1 13 2 11 3 12 4 10 6 6 7 7 8 84 9 8 10 9 11 5 12 4 13
REMARK SMILES IDX 1 14 2 15 3 16 87 17 86 18 85 19 88 21 89 22 90 23 91 24
REMARK SMILES IDX 92 25 93 26 94 27 15 28 16 29 17 30 18 31 19 32 20 34 21 35
REMARK SMILES IDX 22 36 83 37 23 38 82 39 24 40 25 41 26 42 76 43 27 44 81 45
REMARK SMILES IDX 75 46 77 47 28 48 80 49 74 50 73 51 29 53 61 54 41 55 60 56
REMARK SMILES IDX 42 57 45 58 59 59 78 60 43 61 44 62 58 64 79 65 46 66 30 67
REMARK SMILES IDX 31 68 39 69 32 70 33 71 37 72 40 73 34 74 35 75 38 76 36 77
REMARK SMILES IDX 62 78 63 79 71 80 64 81 65 82 69 83 72 84 66 85 67 86 70 87
REMARK SMILES IDX 68 88 47 89 48 90 56 91 49 92 50 93 54 94 57 95 51 96 52 97
REMARK SMILES IDX 55 98 53 99
REMARK H PARENT 13 5 4 20 18 33 77 52 45 63
REMARK Flexibility Score: inf
ROOT
ATOM      1  C   UNL A   1      34.213  21.831  26.913  1.00  0.00     0.116 C 
ENDROOT
BRANCH   1   2
ATOM      2  N   UNL A   1      33.613  20.524  26.762  1.00  0.00    -0.352 N 
ATOM      3  C   UNL A   1      32.957  19.926  25.712  1.00  0.00     0.251 C 
ATOM      4  O   UNL A   1      32.642  18.743  25.851  1.00  0.00    -0.269 OA
ATOM      5  H   UNL A   1      33.688  19.954  27.562  1.00  0.00     0.163 HD
BRANCH   3   6
ATOM      6  C   UNL A   1      32.672  20.604  24.408  1.00  0.00     0.040 A 
ATOM      7  C   UNL A   1      32.778  22.484  22.844  1.00  0.00     0.007 A 
ATOM      8  C   UNL A   1      32.281  21.658  21.828  1.00  0.00     0.009 A 
ATOM      9  C   UNL A   1      32.871  21.964  24.152  1.00  0.00     0.023 A 
ATOM     10  C   UNL A   1      31.958  20.330  22.097  1.00  0.00     0.001 A 
ATOM     11  C   UNL A   1      32.183  19.800  23.370  1.00  0.00     0.014 A 
BRANCH   7  12
ATOM     12  C   UNL A   1      33.277  23.885  22.522  1.00  0.00     0.299 C 
BRANCH  12  13
ATOM     13  N   UNL A   1      32.564  25.010  23.174  1.00  0.00    -0.328 N 
ATOM     14  C   UNL A   1      30.092  26.078  24.891  1.00  0.00     0.037 C 
ATOM     15  C   UNL A   1      30.403  26.347  23.412  1.00  0.00     0.140 C 
ATOM     16  C   UNL A   1      31.153  25.148  22.739  1.00  0.00     0.287 C 
ATOM     17  N   UNL A   1      31.198  27.581  23.247  1.00  0.00    -0.294 N 
ATOM     18  C   UNL A   1      32.583  27.475  23.703  1.00  0.00     0.185 C 
ATOM     19  C   UNL A   1      33.262  26.297  22.998  1.00  0.00     0.284 C 
ATOM     20  H   UNL A   1      32.562  24.770  24.165  1.00  0.00     0.348 HD
BRANCH  17  21
ATOM     21  C   UNL A   1      30.826  28.675  22.485  1.00  0.00     0.410 C 
ATOM     22  O   UNL A   1      31.594  29.588  22.210  1.00  0.00    -0.224 OA
BRANCH  21  23
ATOM     23  O   UNL A   1      29.528  28.625  22.080  1.00  0.00    -0.444 OA
BRANCH  23  24
ATOM     24  C   UNL A   1      28.594  29.668  22.476  1.00  0.00     0.106 C 
ATOM     25  C   UNL A   1      29.167  30.547  23.596  1.00  0.00     0.056 C 
ATOM     26  C   UNL A   1      28.140  30.506  21.274  1.00  0.00     0.056 C 
ATOM     27  C   UNL A   1      27.371  28.919  23.031  1.00  0.00     0.056 C 
ENDBRANCH  23  24
ENDBRANCH  21  23
ENDBRANCH  17  21
ENDBRANCH  12  13
ENDBRANCH   7  12
ENDBRANCH   3   6
ENDBRANCH   1   2
BRANCH   1  28
ATOM     28  C   UNL A   1      35.571  21.907  26.214  1.00  0.00     0.023 C 
BRANCH  28  29
ATOM     29  C   UNL A   1      36.166  23.314  26.205  1.00  0.00     0.023 C 
BRANCH  29  30
ATOM     30  C   UNL A   1      37.330  23.504  25.235  1.00  0.00     0.116 C 
BRANCH  30  31
ATOM     31  N   UNL A   1      38.498  22.697  25.565  1.00  0.00    -0.352 N 
ATOM     32  C   UNL A   1      39.609  23.062  26.290  1.00  0.00     0.251 C 
ATOM     33  H   UNL A   1      38.491  21.773  25.227  1.00  0.00     0.163 HD
ATOM     34  O   UNL A   1      40.563  22.302  26.404  1.00  0.00    -0.269 OA
BRANCH  32  35
ATOM     35  C   UNL A   1      39.658  24.415  26.882  1.00  0.00     0.039 A 
ATOM     36  C   UNL A   1      39.168  24.599  28.175  1.00  0.00     0.014 A 
ATOM     37  C   UNL A   1      40.278  25.464  26.198  1.00  0.00     0.014 A 
ATOM     38  C   UNL A   1      39.395  25.812  28.827  1.00  0.00     0.010 A 
ATOM     39  C   UNL A   1      40.568  26.645  26.875  1.00  0.00     0.010 A 
ATOM     40  C   UNL A   1      40.150  26.820  28.204  1.00  0.00    -0.014 A 
BRANCH  40  41
ATOM     41  C   UNL A   1      40.567  28.036  28.951  1.00  0.00     0.031 A 
ATOM     42  C   UNL A   1      41.948  28.136  29.533  1.00  0.00     0.074 A 
ATOM     43  C   UNL A   1      39.666  29.016  29.169  1.00  0.00     0.049 A 
ATOM     44  N   UNL A   1      42.465  29.086  30.270  1.00  0.00    -0.248 NA
ATOM     45  C   UNL A   1      42.862  27.014  29.273  1.00  0.00     0.031 C 
ATOM     46  C   UNL A   1      38.277  29.008  28.704  1.00  0.00     0.029 A 
ATOM     47  N   UNL A   1      39.778  30.204  29.850  1.00  0.00    -0.354 N 
ATOM     48  C   UNL A   1      43.756  28.673  30.569  1.00  0.00     0.074 A 
ATOM     49  C   UNL A   1      43.931  27.366  29.973  1.00  0.00     0.031 C 
ATOM     50  C   UNL A   1      37.674  30.142  29.094  1.00  0.00     0.029 A 
ATOM     51  C   UNL A   1      38.616  30.938  29.875  1.00  0.00     0.049 A 
ATOM     52  H   UNL A   1      40.612  30.502  30.279  1.00  0.00     0.167 HD
ATOM     53  C   UNL A   1      44.713  29.335  31.261  1.00  0.00     0.037 A 
ATOM     54  C   UNL A   1      38.335  32.110  30.475  1.00  0.00     0.037 A 
ATOM     55  C   UNL A   1      44.543  30.646  31.830  1.00  0.00     0.049 A 
ATOM     56  C   UNL A   1      39.416  32.809  31.256  1.00  0.00     0.074 A 
ATOM     57  C   UNL A   1      45.481  31.432  32.477  1.00  0.00     0.029 A 
ATOM     58  N   UNL A   1      43.354  31.360  31.830  1.00  0.00    -0.354 N 
ATOM     59  N   UNL A   1      40.663  32.452  31.448  1.00  0.00    -0.248 NA
ATOM     60  C   UNL A   1      39.052  34.079  31.902  1.00  0.00     0.031 C 
ATOM     61  C   UNL A   1      44.845  32.594  32.923  1.00  0.00     0.029 A 
ATOM     62  C   UNL A   1      43.527  32.560  32.501  1.00  0.00     0.049 A 
ATOM     63  H   UNL A   1      42.514  31.059  31.415  1.00  0.00     0.167 HD
ATOM     64  C   UNL A   1      41.235  33.458  32.214  1.00  0.00     0.074 A 
ATOM     65  C   UNL A   1      40.208  34.455  32.428  1.00  0.00     0.031 C 
ATOM     66  C   UNL A   1      42.496  33.546  32.703  1.00  0.00     0.037 A 
BRANCH  53  67
ATOM     67  C   UNL A   1      46.043  28.663  31.442  1.00  0.00     0.064 A 
ATOM     68  C   UNL A   1      46.301  27.828  32.539  1.00  0.00     0.173 A 
ATOM     69  C   UNL A   1      47.039  28.786  30.461  1.00  0.00     0.173 A 
ATOM     70  F   UNL A   1      45.386  27.683  33.508  1.00  0.00    -0.203 F 
ATOM     71  C   UNL A   1      47.512  27.151  32.653  1.00  0.00     0.198 A 
ATOM     72  C   UNL A   1      48.237  28.085  30.564  1.00  0.00     0.198 A 
ATOM     73  F   UNL A   1      46.839  29.568  29.389  1.00  0.00    -0.203 F 
ATOM     74  F   UNL A   1      47.749  26.380  33.724  1.00  0.00    -0.200 F 
ATOM     75  C   UNL A   1      48.473  27.270  31.661  1.00  0.00     0.200 A 
ATOM     76  F   UNL A   1      49.159  28.191  29.597  1.00  0.00    -0.200 F 
ATOM     77  F   UNL A   1      49.630  26.600  31.761  1.00  0.00    -0.200 F 
ENDBRANCH  53  67
BRANCH  54  78
ATOM     78  C   UNL A   1      36.973  32.702  30.376  1.00  0.00     0.064 A 
ATOM     79  C   UNL A   1      36.619  33.528  29.299  1.00  0.00     0.173 A 
ATOM     80  C   UNL A   1      36.012  32.495  31.378  1.00  0.00     0.173 A 
ATOM     81  F   UNL A   1      37.509  33.775  28.327  1.00  0.00    -0.203 F 
ATOM     82  C   UNL A   1      35.375  34.152  29.246  1.00  0.00     0.198 A 
ATOM     83  C   UNL A   1      34.755  33.091  31.306  1.00  0.00     0.198 A 
ATOM     84  F   UNL A   1      36.295  31.712  32.430  1.00  0.00    -0.203 F 
ATOM     85  F   UNL A   1      35.090  34.989  28.240  1.00  0.00    -0.200 F 
ATOM     86  C   UNL A   1      34.442  33.930  30.247  1.00  0.00     0.200 A 
ATOM     87  F   UNL A   1      33.852  32.862  32.269  1.00  0.00    -0.200 F 
ATOM     88  F   UNL A   1      33.247  34.535  30.200  1.00  0.00    -0.200 F 
ENDBRANCH  54  78
BRANCH  66  89
ATOM     89  C   UNL A   1      42.842  34.772  33.499  1.00  0.00     0.064 A 
ATOM     90  C   UNL A   1      42.758  34.786  34.899  1.00  0.00     0.173 A 
ATOM     91  C   UNL A   1      43.298  35.932  32.856  1.00  0.00     0.173 A 
ATOM     92  F   UNL A   1      42.313  33.707  35.560  1.00  0.00    -0.203 F 
ATOM     93  C   UNL A   1      43.091  35.927  35.624  1.00  0.00     0.198 A 
ATOM     94  C   UNL A   1      43.663  37.060  33.586  1.00  0.00     0.198 A 
ATOM     95  F   UNL A   1      43.404  35.969  31.519  1.00  0.00    -0.203 F 
ATOM     96  F   UNL A   1      42.952  35.935  36.957  1.00  0.00    -0.200 F 
ATOM     97  C   UNL A   1      43.551  37.059  34.968  1.00  0.00     0.200 A 
ATOM     98  F   UNL A   1      44.123  38.147  32.952  1.00  0.00    -0.200 F 
ATOM     99  F   UNL A   1      43.879  38.153  35.669  1.00  0.00    -0.200 F 
ENDBRANCH  66  89
ENDBRANCH  40  41
ENDBRANCH  32  35
ENDBRANCH  30  31
ENDBRANCH  29  30
ENDBRANCH  28  29
ENDBRANCH   1  28
TORSDOF 16
ENDMDL
