MODEL 1
REMARK VINA RESULT:     -13.0      0.000      0.000
REMARK SMILES O=C(NCCCCNC(=O)[C@@]1([C@@H]2CCO[C@@]3(CCOC3)C2)CCOC1)c1ccc(-c2c3nc(c(-c4c(F)c(F)c(F)c(F)c4F)c4ccc([nH]4)c(-c4c(F)c(F)c(F)c(F)c4F)c4nc(c(-c5c(F)c(F)c(F)c(F)c5F)c5ccc2[nH]5)C=C4)C=C3)cc1
REMARK SMILES IDX 5 1 4 2 3 3 1 4 2 5 26 7 27 8 88 9 28 10 87 11 29 12 30 13
REMARK SMILES IDX 31 14 81 15 32 16 86 17 80 18 82 19 33 20 85 21 79 22 78 23
REMARK SMILES IDX 34 25 66 26 46 27 65 28 47 29 50 30 64 31 83 32 48 33 49 34
REMARK SMILES IDX 63 36 84 37 51 38 35 39 36 40 44 41 37 42 38 43 42 44 45 45
REMARK SMILES IDX 39 46 40 47 43 48 41 49 67 50 68 51 76 52 69 53 70 54 74 55
REMARK SMILES IDX 77 56 71 57 72 58 75 59 73 60 52 61 53 62 61 63 54 64 55 65
REMARK SMILES IDX 59 66 62 67 56 68 57 69 60 70 58 71 6 72 7 73 8 74 9 75
REMARK SMILES IDX 10 77 11 78 22 79 25 80 23 81 24 82 12 83 13 84 21 85 14 86
REMARK SMILES IDX 16 87 15 88 17 89 20 90 18 91 19 92
REMARK H PARENT 3 6 82 24 50 35 8 76
REMARK Flexibility Score: inf
ROOT
ATOM      1  C   UNL A   1      31.420  32.218  26.500  1.00  0.00     0.023 C 
ENDROOT
BRANCH   1   2
ATOM      2  C   UNL A   1      32.655  32.862  27.123  1.00  0.00     0.116 C 
BRANCH   2   3
ATOM      3  N   UNL A   1      32.410  34.203  27.627  1.00  0.00    -0.352 N 
ATOM      4  O   UNL A   1      32.643  35.964  29.022  1.00  0.00    -0.269 OA
ATOM      5  C   UNL A   1      33.050  34.869  28.645  1.00  0.00     0.251 C 
ATOM      6  H   UNL A   1      31.689  34.702  27.179  1.00  0.00     0.163 HD
BRANCH   5   7
ATOM      7  C   UNL A   1      34.213  34.243  29.307  1.00  0.00     0.039 A 
ATOM      8  C   UNL A   1      35.512  34.529  28.882  1.00  0.00     0.014 A 
ATOM      9  C   UNL A   1      33.995  33.353  30.362  1.00  0.00     0.014 A 
ATOM     10  C   UNL A   1      36.583  33.827  29.422  1.00  0.00     0.010 A 
ATOM     11  C   UNL A   1      35.081  32.705  30.958  1.00  0.00     0.010 A 
ATOM     12  C   UNL A   1      36.381  32.917  30.473  1.00  0.00    -0.014 A 
BRANCH  12  13
ATOM     13  C   UNL A   1      37.553  32.248  31.089  1.00  0.00     0.031 A 
ATOM     14  C   UNL A   1      38.012  32.601  32.475  1.00  0.00     0.074 A 
ATOM     15  C   UNL A   1      38.190  31.292  30.387  1.00  0.00     0.049 A 
ATOM     16  N   UNL A   1      39.009  32.105  33.165  1.00  0.00    -0.248 NA
ATOM     17  C   UNL A   1      37.261  33.650  33.179  1.00  0.00     0.031 C 
ATOM     18  C   UNL A   1      37.838  30.874  29.027  1.00  0.00     0.029 A 
ATOM     19  N   UNL A   1      39.252  30.490  30.716  1.00  0.00    -0.354 N 
ATOM     20  C   UNL A   1      39.015  32.789  34.373  1.00  0.00     0.074 A 
ATOM     21  C   UNL A   1      37.938  33.755  34.314  1.00  0.00     0.031 C 
ATOM     22  C   UNL A   1      38.639  29.864  28.656  1.00  0.00     0.029 A 
ATOM     23  C   UNL A   1      39.599  29.608  29.722  1.00  0.00     0.049 A 
ATOM     24  H   UNL A   1      39.720  30.540  31.581  1.00  0.00     0.167 HD
ATOM     25  C   UNL A   1      39.839  32.616  35.434  1.00  0.00     0.037 A 
ATOM     26  C   UNL A   1      40.595  28.705  29.667  1.00  0.00     0.037 A 
ATOM     27  C   UNL A   1      40.902  31.644  35.487  1.00  0.00     0.049 A 
ATOM     28  C   UNL A   1      41.512  28.560  30.846  1.00  0.00     0.074 A 
ATOM     29  C   UNL A   1      41.769  31.368  36.531  1.00  0.00     0.029 A 
ATOM     30  N   UNL A   1      41.245  30.789  34.449  1.00  0.00    -0.354 N 
ATOM     31  N   UNL A   1      41.485  29.187  31.996  1.00  0.00    -0.248 NA
ATOM     32  C   UNL A   1      42.601  27.582  30.719  1.00  0.00     0.031 C 
ATOM     33  C   UNL A   1      42.669  30.384  36.107  1.00  0.00     0.029 A 
ATOM     34  C   UNL A   1      42.328  30.005  34.818  1.00  0.00     0.049 A 
ATOM     35  H   UNL A   1      40.787  30.746  33.578  1.00  0.00     0.167 HD
ATOM     36  C   UNL A   1      42.538  28.671  32.737  1.00  0.00     0.074 A 
ATOM     37  C   UNL A   1      43.172  27.662  31.912  1.00  0.00     0.031 C 
ATOM     38  C   UNL A   1      42.947  29.005  33.985  1.00  0.00     0.037 A 
BRANCH  25  39
ATOM     39  C   UNL A   1      39.642  33.509  36.627  1.00  0.00     0.064 A 
ATOM     40  C   UNL A   1      40.252  34.770  36.714  1.00  0.00     0.173 A 
ATOM     41  C   UNL A   1      38.786  33.122  37.670  1.00  0.00     0.173 A 
ATOM     42  F   UNL A   1      41.086  35.185  35.749  1.00  0.00    -0.203 F 
ATOM     43  C   UNL A   1      40.028  35.600  37.810  1.00  0.00     0.198 A 
ATOM     44  C   UNL A   1      38.543  33.967  38.751  1.00  0.00     0.198 A 
ATOM     45  F   UNL A   1      38.171  31.931  37.634  1.00  0.00    -0.203 F 
ATOM     46  F   UNL A   1      40.653  36.783  37.890  1.00  0.00    -0.200 F 
ATOM     47  C   UNL A   1      39.169  35.202  38.823  1.00  0.00     0.200 A 
ATOM     48  F   UNL A   1      37.702  33.586  39.722  1.00  0.00    -0.200 F 
ATOM     49  F   UNL A   1      38.948  36.007  39.872  1.00  0.00    -0.200 F 
ENDBRANCH  25  39
BRANCH  26  50
ATOM     50  C   UNL A   1      40.770  27.876  28.447  1.00  0.00     0.064 A 
ATOM     51  C   UNL A   1      40.134  26.634  28.322  1.00  0.00     0.173 A 
ATOM     52  C   UNL A   1      41.564  28.315  27.377  1.00  0.00     0.173 A 
ATOM     53  F   UNL A   1      39.379  26.164  29.326  1.00  0.00    -0.203 F 
ATOM     54  C   UNL A   1      40.297  25.856  27.177  1.00  0.00     0.198 A 
ATOM     55  C   UNL A   1      41.700  27.551  26.222  1.00  0.00     0.198 A 
ATOM     56  F   UNL A   1      42.189  29.500  27.446  1.00  0.00    -0.203 F 
ATOM     57  F   UNL A   1      39.710  24.654  27.099  1.00  0.00    -0.200 F 
ATOM     58  C   UNL A   1      41.074  26.318  26.125  1.00  0.00     0.200 A 
ATOM     59  F   UNL A   1      42.436  28.011  25.201  1.00  0.00    -0.200 F 
ATOM     60  F   UNL A   1      41.222  25.574  25.021  1.00  0.00    -0.200 F 
ENDBRANCH  26  50
BRANCH  38  61
ATOM     61  C   UNL A   1      44.116  28.249  34.544  1.00  0.00     0.064 A 
ATOM     62  C   UNL A   1      45.429  28.726  34.415  1.00  0.00     0.173 A 
ATOM     63  C   UNL A   1      43.918  27.046  35.238  1.00  0.00     0.173 A 
ATOM     64  F   UNL A   1      45.672  29.863  33.746  1.00  0.00    -0.203 F 
ATOM     65  C   UNL A   1      46.504  28.011  34.936  1.00  0.00     0.198 A 
ATOM     66  C   UNL A   1      44.992  26.349  35.783  1.00  0.00     0.198 A 
ATOM     67  F   UNL A   1      42.682  26.550  35.393  1.00  0.00    -0.203 F 
ATOM     68  F   UNL A   1      47.754  28.457  34.755  1.00  0.00    -0.200 F 
ATOM     69  C   UNL A   1      46.284  26.827  35.624  1.00  0.00     0.200 A 
ATOM     70  F   UNL A   1      44.777  25.212  36.459  1.00  0.00    -0.200 F 
ATOM     71  F   UNL A   1      47.320  26.141  36.128  1.00  0.00    -0.200 F 
ENDBRANCH  38  61
ENDBRANCH  12  13
ENDBRANCH   5   7
ENDBRANCH   2   3
ENDBRANCH   1   2
BRANCH   1  72
ATOM     72  C   UNL A   1      31.375  30.686  26.578  1.00  0.00     0.023 C 
BRANCH  72  73
ATOM     73  C   UNL A   1      32.629  29.994  26.034  1.00  0.00     0.116 C 
BRANCH  73  74
ATOM     74  N   UNL A   1      32.527  29.817  24.597  1.00  0.00    -0.356 N 
ATOM     75  C   UNL A   1      31.987  28.886  23.781  1.00  0.00     0.228 C 
ATOM     76  H   UNL A   1      32.953  30.552  24.098  1.00  0.00     0.163 HD
ATOM     77  O   UNL A   1      32.365  28.959  22.602  1.00  0.00    -0.274 OA
BRANCH  75  78
ATOM     78  C   UNL A   1      30.922  27.839  24.156  1.00  0.00     0.078 C 
ATOM     79  C   UNL A   1      31.203  26.594  23.299  1.00  0.00     0.048 C 
ATOM     80  C   UNL A   1      31.028  27.159  25.511  1.00  0.00     0.177 C 
ATOM     81  C   UNL A   1      30.509  25.466  24.037  1.00  0.00     0.161 C 
ATOM     82  O   UNL A   1      30.316  25.918  25.386  1.00  0.00    -0.380 OA
BRANCH  78  83
ATOM     83  C   UNL A   1      29.516  28.535  23.889  1.00  0.00     0.012 C 
ATOM     84  C   UNL A   1      28.496  27.808  23.002  1.00  0.00     0.033 C 
ATOM     85  C   UNL A   1      29.596  30.002  23.388  1.00  0.00     0.043 C 
ATOM     86  C   UNL A   1      27.116  28.468  23.127  1.00  0.00     0.161 C 
ATOM     87  C   UNL A   1      28.211  30.592  23.016  1.00  0.00     0.094 C 
ATOM     88  O   UNL A   1      27.169  29.815  23.598  1.00  0.00    -0.372 OA
ATOM     89  C   UNL A   1      28.090  32.037  23.480  1.00  0.00     0.066 C 
ATOM     90  C   UNL A   1      28.028  30.791  21.502  1.00  0.00     0.195 C 
ATOM     91  C   UNL A   1      28.779  32.808  22.375  1.00  0.00     0.163 C 
ATOM     92  O   UNL A   1      28.559  32.081  21.160  1.00  0.00    -0.378 OA
ENDBRANCH  78  83
ENDBRANCH  75  78
ENDBRANCH  73  74
ENDBRANCH  72  73
ENDBRANCH   1  72
TORSDOF 12
ENDMDL
MODEL 2
REMARK VINA RESULT:     -13.0      0.382      7.536
REMARK SMILES O=C(NCCCCNC(=O)[C@@]1([C@@H]2CCO[C@@]3(CCOC3)C2)CCOC1)c1ccc(-c2c3nc(c(-c4c(F)c(F)c(F)c(F)c4F)c4ccc([nH]4)c(-c4c(F)c(F)c(F)c(F)c4F)c4nc(c(-c5c(F)c(F)c(F)c(F)c5F)c5ccc2[nH]5)C=C4)C=C3)cc1
REMARK SMILES IDX 5 1 4 2 3 3 1 4 2 5 26 7 27 8 88 9 28 10 87 11 29 12 30 13
REMARK SMILES IDX 31 14 81 15 32 16 86 17 80 18 82 19 33 20 85 21 79 22 78 23
REMARK SMILES IDX 34 25 66 26 46 27 65 28 47 29 50 30 64 31 83 32 48 33 49 34
REMARK SMILES IDX 63 36 84 37 51 38 35 39 36 40 44 41 37 42 38 43 42 44 45 45
REMARK SMILES IDX 39 46 40 47 43 48 41 49 67 50 68 51 76 52 69 53 70 54 74 55
REMARK SMILES IDX 77 56 71 57 72 58 75 59 73 60 52 61 53 62 61 63 54 64 55 65
REMARK SMILES IDX 59 66 62 67 56 68 57 69 60 70 58 71 6 72 7 73 8 74 9 75
REMARK SMILES IDX 10 77 11 78 22 79 25 80 23 81 24 82 12 83 13 84 21 85 14 86
REMARK SMILES IDX 16 87 15 88 17 89 20 90 18 91 19 92
REMARK H PARENT 3 6 82 24 50 35 8 76
REMARK Flexibility Score: inf
ROOT
ATOM      1  C   UNL A   1      31.379  32.191  26.534  1.00  0.00     0.023 C 
ENDROOT
BRANCH   1   2
ATOM      2  C   UNL A   1      32.613  32.839  27.154  1.00  0.00     0.116 C 
BRANCH   2   3
ATOM      3  N   UNL A   1      32.381  34.203  27.603  1.00  0.00    -0.352 N 
ATOM      4  O   UNL A   1      32.624  36.012  28.932  1.00  0.00    -0.269 OA
ATOM      5  C   UNL A   1      33.020  34.898  28.601  1.00  0.00     0.251 C 
ATOM      6  H   UNL A   1      31.671  34.693  27.130  1.00  0.00     0.163 HD
BRANCH   5   7
ATOM      7  C   UNL A   1      34.169  34.284  29.298  1.00  0.00     0.039 A 
ATOM      8  C   UNL A   1      35.475  34.538  28.877  1.00  0.00     0.014 A 
ATOM      9  C   UNL A   1      33.929  33.436  30.383  1.00  0.00     0.014 A 
ATOM     10  C   UNL A   1      36.532  33.843  29.453  1.00  0.00     0.010 A 
ATOM     11  C   UNL A   1      35.001  32.799  31.014  1.00  0.00     0.010 A 
ATOM     12  C   UNL A   1      36.308  32.976  30.535  1.00  0.00    -0.014 A 
BRANCH  12  13
ATOM     13  C   UNL A   1      37.465  32.316  31.188  1.00  0.00     0.031 A 
ATOM     14  C   UNL A   1      38.242  31.237  30.490  1.00  0.00     0.074 A 
ATOM     15  C   UNL A   1      37.827  32.725  32.420  1.00  0.00     0.049 A 
ATOM     16  N   UNL A   1      39.285  30.567  30.914  1.00  0.00    -0.248 NA
ATOM     17  C   UNL A   1      37.789  30.852  29.146  1.00  0.00     0.031 C 
ATOM     18  C   UNL A   1      37.138  33.759  33.197  1.00  0.00     0.029 A 
ATOM     19  N   UNL A   1      38.863  32.335  33.229  1.00  0.00    -0.354 N 
ATOM     20  C   UNL A   1      39.603  29.674  29.899  1.00  0.00     0.074 A 
ATOM     21  C   UNL A   1      38.627  29.868  28.848  1.00  0.00     0.031 C 
ATOM     22  C   UNL A   1      37.796  33.953  34.349  1.00  0.00     0.029 A 
ATOM     23  C   UNL A   1      38.909  33.016  34.421  1.00  0.00     0.049 A 
ATOM     24  H   UNL A   1      39.510  31.637  32.980  1.00  0.00     0.167 HD
ATOM     25  C   UNL A   1      40.623  28.784  29.850  1.00  0.00     0.037 A 
ATOM     26  C   UNL A   1      39.747  32.886  35.465  1.00  0.00     0.037 A 
ATOM     27  C   UNL A   1      41.597  28.606  30.898  1.00  0.00     0.049 A 
ATOM     28  C   UNL A   1      40.847  31.867  35.395  1.00  0.00     0.074 A 
ATOM     29  C   UNL A   1      42.688  27.754  30.927  1.00  0.00     0.029 A 
ATOM     30  N   UNL A   1      41.594  29.290  32.106  1.00  0.00    -0.354 N 
ATOM     31  N   UNL A   1      41.159  31.054  34.415  1.00  0.00    -0.248 NA
ATOM     32  C   UNL A   1      41.710  31.746  36.577  1.00  0.00     0.031 C 
ATOM     33  C   UNL A   1      43.315  27.885  32.172  1.00  0.00     0.029 A 
ATOM     34  C   UNL A   1      42.649  28.860  32.897  1.00  0.00     0.049 A 
ATOM     35  H   UNL A   1      40.940  29.979  32.362  1.00  0.00     0.167 HD
ATOM     36  C   UNL A   1      42.263  30.338  34.852  1.00  0.00     0.074 A 
ATOM     37  C   UNL A   1      42.579  30.828  36.179  1.00  0.00     0.031 C 
ATOM     38  C   UNL A   1      42.950  29.359  34.215  1.00  0.00     0.037 A 
BRANCH  25  39
ATOM     39  C   UNL A   1      40.735  27.914  28.630  1.00  0.00     0.064 A 
ATOM     40  C   UNL A   1      40.055  26.690  28.531  1.00  0.00     0.173 A 
ATOM     41  C   UNL A   1      41.487  28.336  27.523  1.00  0.00     0.173 A 
ATOM     42  F   UNL A   1      39.330  26.235  29.564  1.00  0.00    -0.203 F 
ATOM     43  C   UNL A   1      40.140  25.914  27.378  1.00  0.00     0.198 A 
ATOM     44  C   UNL A   1      41.548  27.570  26.360  1.00  0.00     0.198 A 
ATOM     45  F   UNL A   1      42.150  29.501  27.560  1.00  0.00    -0.203 F 
ATOM     46  F   UNL A   1      39.514  24.730  27.322  1.00  0.00    -0.200 F 
ATOM     47  C   UNL A   1      40.879  26.358  26.292  1.00  0.00     0.200 A 
ATOM     48  F   UNL A   1      42.250  28.008  25.307  1.00  0.00    -0.200 F 
ATOM     49  F   UNL A   1      40.952  25.613  25.179  1.00  0.00    -0.200 F 
ENDBRANCH  25  39
BRANCH  26  50
ATOM     50  C   UNL A   1      39.567  33.744  36.664  1.00  0.00     0.064 A 
ATOM     51  C   UNL A   1      40.145  35.018  36.733  1.00  0.00     0.173 A 
ATOM     52  C   UNL A   1      38.800  33.314  37.758  1.00  0.00     0.173 A 
ATOM     53  F   UNL A   1      40.901  35.466  35.720  1.00  0.00    -0.203 F 
ATOM     54  C   UNL A   1      39.975  35.824  37.857  1.00  0.00     0.198 A 
ATOM     55  C   UNL A   1      38.605  34.133  38.867  1.00  0.00     0.198 A 
ATOM     56  F   UNL A   1      38.220  32.105  37.738  1.00  0.00    -0.203 F 
ATOM     57  F   UNL A   1      40.572  37.022  37.914  1.00  0.00    -0.200 F 
ATOM     58  C   UNL A   1      39.200  35.384  38.920  1.00  0.00     0.200 A 
ATOM     59  F   UNL A   1      37.840  33.710  39.882  1.00  0.00    -0.200 F 
ATOM     60  F   UNL A   1      39.029  36.164  39.995  1.00  0.00    -0.200 F 
ENDBRANCH  26  50
BRANCH  38  61
ATOM     61  C   UNL A   1      44.131  28.776  34.935  1.00  0.00     0.064 A 
ATOM     62  C   UNL A   1      44.008  27.644  35.753  1.00  0.00     0.173 A 
ATOM     63  C   UNL A   1      45.405  29.344  34.784  1.00  0.00     0.173 A 
ATOM     64  F   UNL A   1      42.807  27.075  35.943  1.00  0.00    -0.203 F 
ATOM     65  C   UNL A   1      45.112  27.118  36.417  1.00  0.00     0.198 A 
ATOM     66  C   UNL A   1      46.513  28.797  35.426  1.00  0.00     0.198 A 
ATOM     67  F   UNL A   1      45.577  30.424  34.008  1.00  0.00    -0.203 F 
ATOM     68  F   UNL A   1      44.962  26.068  37.236  1.00  0.00    -0.200 F 
ATOM     69  C   UNL A   1      46.364  27.690  36.248  1.00  0.00     0.200 A 
ATOM     70  F   UNL A   1      47.723  29.344  35.251  1.00  0.00    -0.200 F 
ATOM     71  F   UNL A   1      47.427  27.181  36.886  1.00  0.00    -0.200 F 
ENDBRANCH  38  61
ENDBRANCH  12  13
ENDBRANCH   5   7
ENDBRANCH   2   3
ENDBRANCH   1   2
BRANCH   1  72
ATOM     72  C   UNL A   1      31.383  30.657  26.527  1.00  0.00     0.023 C 
BRANCH  72  73
ATOM     73  C   UNL A   1      32.669  30.037  25.972  1.00  0.00     0.116 C 
BRANCH  73  74
ATOM     74  N   UNL A   1      32.551  29.818  24.543  1.00  0.00    -0.356 N 
ATOM     75  C   UNL A   1      31.995  28.867  23.761  1.00  0.00     0.228 C 
ATOM     76  H   UNL A   1      32.979  30.532  24.018  1.00  0.00     0.163 HD
ATOM     77  O   UNL A   1      32.361  28.901  22.577  1.00  0.00    -0.274 OA
BRANCH  75  78
ATOM     78  C   UNL A   1      30.924  27.843  24.178  1.00  0.00     0.078 C 
ATOM     79  C   UNL A   1      31.178  26.574  23.348  1.00  0.00     0.048 C 
ATOM     80  C   UNL A   1      31.044  27.195  25.548  1.00  0.00     0.177 C 
ATOM     81  C   UNL A   1      30.483  25.472  24.125  1.00  0.00     0.161 C 
ATOM     82  O   UNL A   1      30.316  25.960  25.465  1.00  0.00    -0.380 OA
BRANCH  78  83
ATOM     83  C   UNL A   1      29.522  28.547  23.916  1.00  0.00     0.012 C 
ATOM     84  C   UNL A   1      28.465  27.793  23.097  1.00  0.00     0.033 C 
ATOM     85  C   UNL A   1      29.611  29.985  23.335  1.00  0.00     0.043 C 
ATOM     86  C   UNL A   1      27.099  28.482  23.227  1.00  0.00     0.161 C 
ATOM     87  C   UNL A   1      28.225  30.579  22.972  1.00  0.00     0.094 C 
ATOM     88  O   UNL A   1      27.188  29.851  23.625  1.00  0.00    -0.372 OA
ATOM     89  C   UNL A   1      28.140  32.048  23.362  1.00  0.00     0.066 C 
ATOM     90  C   UNL A   1      28.000  30.701  21.456  1.00  0.00     0.195 C 
ATOM     91  C   UNL A   1      28.808  32.747  22.199  1.00  0.00     0.163 C 
ATOM     92  O   UNL A   1      28.541  31.962  21.031  1.00  0.00    -0.378 OA
ENDBRANCH  78  83
ENDBRANCH  75  78
ENDBRANCH  73  74
ENDBRANCH  72  73
ENDBRANCH   1  72
TORSDOF 12
ENDMDL
MODEL 3
REMARK VINA RESULT:     -13.0      0.121      1.606
REMARK SMILES O=C(NCCCCNC(=O)[C@@]1([C@@H]2CCO[C@@]3(CCOC3)C2)CCOC1)c1ccc(-c2c3nc(c(-c4c(F)c(F)c(F)c(F)c4F)c4ccc([nH]4)c(-c4c(F)c(F)c(F)c(F)c4F)c4nc(c(-c5c(F)c(F)c(F)c(F)c5F)c5ccc2[nH]5)C=C4)C=C3)cc1
REMARK SMILES IDX 5 1 4 2 3 3 1 4 2 5 26 7 27 8 88 9 28 10 87 11 29 12 30 13
REMARK SMILES IDX 31 14 81 15 32 16 86 17 80 18 82 19 33 20 85 21 79 22 78 23
REMARK SMILES IDX 34 25 66 26 46 27 65 28 47 29 50 30 64 31 83 32 48 33 49 34
REMARK SMILES IDX 63 36 84 37 51 38 35 39 36 40 44 41 37 42 38 43 42 44 45 45
REMARK SMILES IDX 39 46 40 47 43 48 41 49 67 50 68 51 76 52 69 53 70 54 74 55
REMARK SMILES IDX 77 56 71 57 72 58 75 59 73 60 52 61 53 62 61 63 54 64 55 65
REMARK SMILES IDX 59 66 62 67 56 68 57 69 60 70 58 71 6 72 7 73 8 74 9 75
REMARK SMILES IDX 10 77 11 78 22 79 25 80 23 81 24 82 12 83 13 84 21 85 14 86
REMARK SMILES IDX 16 87 15 88 17 89 20 90 18 91 19 92
REMARK H PARENT 3 6 82 24 50 35 8 76
REMARK Flexibility Score: inf
ROOT
ATOM      1  C   UNL A   1      31.403  32.283  26.501  1.00  0.00     0.023 C 
ENDROOT
BRANCH   1   2
ATOM      2  C   UNL A   1      32.622  32.881  27.197  1.00  0.00     0.116 C 
BRANCH   2   3
ATOM      3  N   UNL A   1      32.409  34.243  27.659  1.00  0.00    -0.352 N 
ATOM      4  O   UNL A   1      32.691  36.043  28.993  1.00  0.00    -0.269 OA
ATOM      5  C   UNL A   1      33.072  34.928  28.648  1.00  0.00     0.251 C 
ATOM      6  H   UNL A   1      31.695  34.742  27.201  1.00  0.00     0.163 HD
BRANCH   5   7
ATOM      7  C   UNL A   1      34.228  34.300  29.321  1.00  0.00     0.039 A 
ATOM      8  C   UNL A   1      35.528  34.535  28.869  1.00  0.00     0.014 A 
ATOM      9  C   UNL A   1      34.002  33.459  30.415  1.00  0.00     0.014 A 
ATOM     10  C   UNL A   1      36.588  33.828  29.423  1.00  0.00     0.010 A 
ATOM     11  C   UNL A   1      35.080  32.809  31.023  1.00  0.00     0.010 A 
ATOM     12  C   UNL A   1      36.377  32.967  30.513  1.00  0.00    -0.014 A 
BRANCH  12  13
ATOM     13  C   UNL A   1      37.541  32.294  31.141  1.00  0.00     0.031 A 
ATOM     14  C   UNL A   1      37.986  32.645  32.532  1.00  0.00     0.074 A 
ATOM     15  C   UNL A   1      38.182  31.336  30.445  1.00  0.00     0.049 A 
ATOM     16  N   UNL A   1      38.974  32.146  33.232  1.00  0.00    -0.248 NA
ATOM     17  C   UNL A   1      37.231  33.697  33.228  1.00  0.00     0.031 C 
ATOM     18  C   UNL A   1      37.843  30.919  29.082  1.00  0.00     0.029 A 
ATOM     19  N   UNL A   1      39.238  30.530  30.786  1.00  0.00    -0.354 N 
ATOM     20  C   UNL A   1      38.969  32.829  34.441  1.00  0.00     0.074 A 
ATOM     21  C   UNL A   1      37.897  33.798  34.371  1.00  0.00     0.031 C 
ATOM     22  C   UNL A   1      38.644  29.908  28.719  1.00  0.00     0.029 A 
ATOM     23  C   UNL A   1      39.593  29.648  29.795  1.00  0.00     0.049 A 
ATOM     24  H   UNL A   1      39.696  30.579  31.655  1.00  0.00     0.167 HD
ATOM     25  C   UNL A   1      39.782  32.652  35.511  1.00  0.00     0.037 A 
ATOM     26  C   UNL A   1      40.585  28.741  29.750  1.00  0.00     0.037 A 
ATOM     27  C   UNL A   1      40.841  31.677  35.575  1.00  0.00     0.049 A 
ATOM     28  C   UNL A   1      41.490  28.593  30.939  1.00  0.00     0.074 A 
ATOM     29  C   UNL A   1      41.696  31.398  36.627  1.00  0.00     0.029 A 
ATOM     30  N   UNL A   1      41.192  30.821  34.539  1.00  0.00    -0.354 N 
ATOM     31  N   UNL A   1      41.452  29.220  32.089  1.00  0.00    -0.248 NA
ATOM     32  C   UNL A   1      42.576  27.611  30.823  1.00  0.00     0.031 C 
ATOM     33  C   UNL A   1      42.597  30.411  36.212  1.00  0.00     0.029 A 
ATOM     34  C   UNL A   1      42.269  30.034  34.920  1.00  0.00     0.049 A 
ATOM     35  H   UNL A   1      40.743  30.781  33.664  1.00  0.00     0.167 HD
ATOM     36  C   UNL A   1      42.496  28.699  32.840  1.00  0.00     0.074 A 
ATOM     37  C   UNL A   1      43.135  27.689  32.022  1.00  0.00     0.031 C 
ATOM     38  C   UNL A   1      42.892  29.032  34.093  1.00  0.00     0.037 A 
BRANCH  25  39
ATOM     39  C   UNL A   1      39.575  33.546  36.701  1.00  0.00     0.064 A 
ATOM     40  C   UNL A   1      38.752  33.169  37.774  1.00  0.00     0.173 A 
ATOM     41  C   UNL A   1      40.253  34.771  36.796  1.00  0.00     0.173 A 
ATOM     42  F   UNL A   1      38.074  32.012  37.730  1.00  0.00    -0.203 F 
ATOM     43  C   UNL A   1      38.601  33.993  38.886  1.00  0.00     0.198 A 
ATOM     44  C   UNL A   1      40.121  35.581  37.922  1.00  0.00     0.198 A 
ATOM     45  F   UNL A   1      41.058  35.178  35.803  1.00  0.00    -0.203 F 
ATOM     46  F   UNL A   1      37.778  33.630  39.880  1.00  0.00    -0.200 F 
ATOM     47  C   UNL A   1      39.291  35.194  38.963  1.00  0.00     0.200 A 
ATOM     48  F   UNL A   1      40.799  36.734  38.001  1.00  0.00    -0.200 F 
ATOM     49  F   UNL A   1      39.151  35.982  40.039  1.00  0.00    -0.200 F 
ENDBRANCH  25  39
BRANCH  26  50
ATOM     50  C   UNL A   1      40.770  27.912  28.532  1.00  0.00     0.064 A 
ATOM     51  C   UNL A   1      41.583  28.350  27.478  1.00  0.00     0.173 A 
ATOM     52  C   UNL A   1      40.153  26.658  28.404  1.00  0.00     0.173 A 
ATOM     53  F   UNL A   1      42.180  29.549  27.547  1.00  0.00    -0.203 F 
ATOM     54  C   UNL A   1      41.758  27.573  26.335  1.00  0.00     0.198 A 
ATOM     55  C   UNL A   1      40.354  25.869  27.276  1.00  0.00     0.198 A 
ATOM     56  F   UNL A   1      39.371  26.191  29.388  1.00  0.00    -0.203 F 
ATOM     57  F   UNL A   1      42.507  28.033  25.324  1.00  0.00    -0.200 F 
ATOM     58  C   UNL A   1      41.149  26.330  26.238  1.00  0.00     0.200 A 
ATOM     59  F   UNL A   1      39.779  24.661  27.195  1.00  0.00    -0.200 F 
ATOM     60  F   UNL A   1      41.327  25.578  25.143  1.00  0.00    -0.200 F 
ENDBRANCH  26  50
BRANCH  38  61
ATOM     61  C   UNL A   1      44.053  28.272  34.664  1.00  0.00     0.064 A 
ATOM     62  C   UNL A   1      45.370  28.740  34.543  1.00  0.00     0.173 A 
ATOM     63  C   UNL A   1      43.843  27.072  35.361  1.00  0.00     0.173 A 
ATOM     64  F   UNL A   1      45.624  29.873  33.871  1.00  0.00    -0.203 F 
ATOM     65  C   UNL A   1      46.437  28.021  35.075  1.00  0.00     0.198 A 
ATOM     66  C   UNL A   1      44.909  26.371  35.918  1.00  0.00     0.198 A 
ATOM     67  F   UNL A   1      42.603  26.584  35.509  1.00  0.00    -0.203 F 
ATOM     68  F   UNL A   1      47.691  28.460  34.902  1.00  0.00    -0.200 F 
ATOM     69  C   UNL A   1      46.205  26.842  35.767  1.00  0.00     0.200 A 
ATOM     70  F   UNL A   1      44.682  25.238  36.596  1.00  0.00    -0.200 F 
ATOM     71  F   UNL A   1      47.233  26.152  36.281  1.00  0.00    -0.200 F 
ENDBRANCH  38  61
ENDBRANCH  12  13
ENDBRANCH   5   7
ENDBRANCH   2   3
ENDBRANCH   1   2
BRANCH   1  72
ATOM     72  C   UNL A   1      31.337  30.751  26.506  1.00  0.00     0.023 C 
BRANCH  72  73
ATOM     73  C   UNL A   1      32.609  30.068  25.994  1.00  0.00     0.116 C 
BRANCH  73  74
ATOM     74  N   UNL A   1      32.521  29.838  24.564  1.00  0.00    -0.356 N 
ATOM     75  C   UNL A   1      31.993  28.876  23.777  1.00  0.00     0.228 C 
ATOM     76  H   UNL A   1      32.947  30.557  24.043  1.00  0.00     0.163 HD
ATOM     77  O   UNL A   1      32.381  28.909  22.600  1.00  0.00    -0.274 OA
BRANCH  75  78
ATOM     78  C   UNL A   1      30.931  27.837  24.180  1.00  0.00     0.078 C 
ATOM     79  C   UNL A   1      31.224  26.565  23.367  1.00  0.00     0.048 C 
ATOM     80  C   UNL A   1      31.030  27.203  25.557  1.00  0.00     0.177 C 
ATOM     81  C   UNL A   1      30.530  25.459  24.139  1.00  0.00     0.161 C 
ATOM     82  O   UNL A   1      30.326  25.955  25.470  1.00  0.00    -0.380 OA
BRANCH  78  83
ATOM     83  C   UNL A   1      29.523  28.516  23.880  1.00  0.00     0.012 C 
ATOM     84  C   UNL A   1      28.503  27.742  23.033  1.00  0.00     0.033 C 
ATOM     85  C   UNL A   1      29.601  29.955  23.302  1.00  0.00     0.043 C 
ATOM     86  C   UNL A   1      27.122  28.406  23.126  1.00  0.00     0.161 C 
ATOM     87  C   UNL A   1      28.214  30.523  22.902  1.00  0.00     0.094 C 
ATOM     88  O   UNL A   1      27.174  29.776  23.526  1.00  0.00    -0.372 OA
ATOM     89  C   UNL A   1      28.092  31.990  23.290  1.00  0.00     0.066 C 
ATOM     90  C   UNL A   1      28.028  30.643  21.381  1.00  0.00     0.195 C 
ATOM     91  C   UNL A   1      28.778  32.703  22.146  1.00  0.00     0.163 C 
ATOM     92  O   UNL A   1      28.557  31.913  20.971  1.00  0.00    -0.378 OA
ENDBRANCH  78  83
ENDBRANCH  75  78
ENDBRANCH  73  74
ENDBRANCH  72  73
ENDBRANCH   1  72
TORSDOF 12
ENDMDL
