MODEL 1
REMARK VINA RESULT:     -12.5      0.000      0.000
REMARK SMILES CSc1cccc(N2C[C@@H](C(=O)NCCCCNC(=O)c3ccc(-c4c5nc(c(-c6c(F)c(F)c(F)c(F)c6F)c6ccc([nH]6)c(-c6c(F)c(F)c(F)c(F)c6F)c6nc(c(-c7c(F)c(F)c(F)c(F)c7F)c7ccc4[nH]7)C=C6)C=C5)cc3)CC2=O)c1
REMARK SMILES IDX 15 1 14 2 13 3 11 4 12 5 10 7 8 8 9 9 85 10 84 11 86 12 7 13
REMARK SMILES IDX 3 14 4 15 87 16 5 17 6 18 2 19 1 20 16 21 17 22 18 23 19 24
REMARK SMILES IDX 20 26 21 27 22 28 83 29 23 30 82 31 24 32 25 33 26 34 76 35
REMARK SMILES IDX 27 36 81 37 75 38 77 39 28 40 80 41 74 42 73 43 29 45 61 46
REMARK SMILES IDX 41 47 60 48 42 49 45 50 59 51 78 52 43 53 44 54 58 56 79 57
REMARK SMILES IDX 46 58 30 59 31 60 39 61 32 62 33 63 37 64 40 65 34 66 35 67
REMARK SMILES IDX 38 68 36 69 62 70 63 71 71 72 64 73 65 74 69 75 72 76 66 77
REMARK SMILES IDX 67 78 70 79 68 80 47 81 48 82 56 83 49 84 50 85 54 86 57 87
REMARK SMILES IDX 51 88 52 89 55 90 53 91
REMARK H PARENT 13 6 18 25 77 44 45 55
REMARK Flexibility Score: inf
ROOT
ATOM      1  C   UNL A   1      31.739  30.640  26.276  1.00  0.00     0.023 C 
ENDROOT
BRANCH   1   2
ATOM      2  C   UNL A   1      33.217  30.265  26.172  1.00  0.00     0.116 C 
BRANCH   2   3
ATOM      3  N   UNL A   1      33.489  29.437  25.012  1.00  0.00    -0.356 N 
ATOM      4  C   UNL A   1      33.578  28.090  24.867  1.00  0.00     0.225 C 
ATOM      5  O   UNL A   1      33.803  27.658  23.734  1.00  0.00    -0.275 OA
ATOM      6  H   UNL A   1      33.635  29.942  24.179  1.00  0.00     0.163 HD
BRANCH   4   7
ATOM      7  C   UNL A   1      33.388  27.120  26.016  1.00  0.00     0.107 C 
ATOM      8  N   UNL A   1      32.992  24.794  26.133  1.00  0.00    -0.312 N 
ATOM      9  C   UNL A   1      33.999  25.756  25.752  1.00  0.00     0.139 C 
ATOM     10  C   UNL A   1      31.776  25.392  26.458  1.00  0.00     0.227 C 
ATOM     11  C   UNL A   1      31.941  26.887  26.419  1.00  0.00     0.116 C 
ATOM     12  O   UNL A   1      30.724  24.855  26.773  1.00  0.00    -0.274 OA
BRANCH   8  13
ATOM     13  C   UNL A   1      33.232  23.397  26.126  1.00  0.00     0.045 A 
ATOM     14  C   UNL A   1      33.047  21.209  25.048  1.00  0.00     0.009 A 
ATOM     15  C   UNL A   1      33.621  20.612  26.171  1.00  0.00     0.015 A 
ATOM     16  C   UNL A   1      32.827  22.595  25.050  1.00  0.00     0.041 A 
ATOM     17  C   UNL A   1      34.029  21.394  27.251  1.00  0.00     0.003 A 
ATOM     18  C   UNL A   1      33.861  22.781  27.216  1.00  0.00     0.026 A 
BRANCH  14  19
ATOM     19  S   UNL A   1      32.525  20.259  23.626  1.00  0.00    -0.130 SA
ATOM     20  C   UNL A   1      32.932  18.571  24.155  1.00  0.00     0.091 C 
ENDBRANCH  14  19
ENDBRANCH   8  13
ENDBRANCH   4   7
ENDBRANCH   2   3
ENDBRANCH   1   2
BRANCH   1  21
ATOM     21  C   UNL A   1      31.469  32.065  26.762  1.00  0.00     0.023 C 
BRANCH  21  22
ATOM     22  C   UNL A   1      32.690  32.821  27.271  1.00  0.00     0.116 C 
BRANCH  22  23
ATOM     23  N   UNL A   1      32.399  34.202  27.625  1.00  0.00    -0.352 N 
ATOM     24  C   UNL A   1      32.981  34.993  28.587  1.00  0.00     0.251 C 
ATOM     25  H   UNL A   1      31.684  34.630  27.103  1.00  0.00     0.163 HD
ATOM     26  O   UNL A   1      32.517  36.099  28.842  1.00  0.00    -0.269 OA
BRANCH  24  27
ATOM     27  C   UNL A   1      34.149  34.491  29.341  1.00  0.00     0.039 A 
ATOM     28  C   UNL A   1      33.944  33.917  30.597  1.00  0.00     0.014 A 
ATOM     29  C   UNL A   1      35.436  34.568  28.803  1.00  0.00     0.014 A 
ATOM     30  C   UNL A   1      35.022  33.352  31.282  1.00  0.00     0.010 A 
ATOM     31  C   UNL A   1      36.492  33.932  29.448  1.00  0.00     0.010 A 
ATOM     32  C   UNL A   1      36.298  33.316  30.694  1.00  0.00    -0.014 A 
BRANCH  32  33
ATOM     33  C   UNL A   1      37.436  32.636  31.365  1.00  0.00     0.031 A 
ATOM     34  C   UNL A   1      38.126  31.481  30.694  1.00  0.00     0.074 A 
ATOM     35  C   UNL A   1      37.809  33.021  32.601  1.00  0.00     0.049 A 
ATOM     36  N   UNL A   1      39.089  30.716  31.147  1.00  0.00    -0.248 NA
ATOM     37  C   UNL A   1      37.657  31.118  29.347  1.00  0.00     0.031 C 
ATOM     38  C   UNL A   1      37.190  34.100  33.375  1.00  0.00     0.029 A 
ATOM     39  N   UNL A   1      38.792  32.542  33.431  1.00  0.00    -0.354 N 
ATOM     40  C   UNL A   1      39.332  29.784  30.145  1.00  0.00     0.074 A 
ATOM     41  C   UNL A   1      38.377  30.038  29.089  1.00  0.00     0.031 C 
ATOM     42  C   UNL A   1      37.823  34.216  34.552  1.00  0.00     0.029 A 
ATOM     43  C   UNL A   1      38.862  33.195  34.639  1.00  0.00     0.049 A 
ATOM     44  H   UNL A   1      39.391  31.801  33.184  1.00  0.00     0.167 HD
ATOM     45  C   UNL A   1      40.284  28.821  30.100  1.00  0.00     0.037 A 
ATOM     46  C   UNL A   1      39.663  32.983  35.700  1.00  0.00     0.037 A 
ATOM     47  C   UNL A   1      41.244  28.583  31.147  1.00  0.00     0.049 A 
ATOM     48  C   UNL A   1      40.692  31.884  35.633  1.00  0.00     0.074 A 
ATOM     49  C   UNL A   1      42.275  27.661  31.176  1.00  0.00     0.029 A 
ATOM     50  N   UNL A   1      41.287  29.269  32.351  1.00  0.00    -0.354 N 
ATOM     51  N   UNL A   1      40.956  31.055  34.654  1.00  0.00    -0.248 NA
ATOM     52  C   UNL A   1      41.538  31.698  36.820  1.00  0.00     0.031 C 
ATOM     53  C   UNL A   1      42.909  27.752  32.419  1.00  0.00     0.029 A 
ATOM     54  C   UNL A   1      42.313  28.774  33.140  1.00  0.00     0.049 A 
ATOM     55  H   UNL A   1      40.679  30.000  32.608  1.00  0.00     0.167 HD
ATOM     56  C   UNL A   1      42.020  30.275  35.091  1.00  0.00     0.074 A 
ATOM     57  C   UNL A   1      42.363  30.742  36.416  1.00  0.00     0.031 C 
ATOM     58  C   UNL A   1      42.655  29.262  34.451  1.00  0.00     0.037 A 
BRANCH  45  59
ATOM     59  C   UNL A   1      40.344  27.955  28.875  1.00  0.00     0.064 A 
ATOM     60  C   UNL A   1      41.117  28.313  27.759  1.00  0.00     0.173 A 
ATOM     61  C   UNL A   1      39.667  26.727  28.836  1.00  0.00     0.173 A 
ATOM     62  F   UNL A   1      41.776  29.482  27.740  1.00  0.00    -0.203 F 
ATOM     63  C   UNL A   1      41.190  27.485  26.642  1.00  0.00     0.198 A 
ATOM     64  C   UNL A   1      39.769  25.887  27.729  1.00  0.00     0.198 A 
ATOM     65  F   UNL A   1      38.918  26.334  29.877  1.00  0.00    -0.203 F 
ATOM     66  F   UNL A   1      41.897  27.871  25.571  1.00  0.00    -0.200 F 
ATOM     67  C   UNL A   1      40.524  26.270  26.631  1.00  0.00     0.200 A 
ATOM     68  F   UNL A   1      39.138  24.705  27.728  1.00  0.00    -0.200 F 
ATOM     69  F   UNL A   1      40.607  25.467  25.561  1.00  0.00    -0.200 F 
ENDBRANCH  45  59
BRANCH  46  70
ATOM     70  C   UNL A   1      39.541  33.830  36.918  1.00  0.00     0.064 A 
ATOM     71  C   UNL A   1      38.781  33.406  38.018  1.00  0.00     0.173 A 
ATOM     72  C   UNL A   1      40.147  35.093  36.995  1.00  0.00     0.173 A 
ATOM     73  F   UNL A   1      38.165  32.216  37.988  1.00  0.00    -0.203 F 
ATOM     74  C   UNL A   1      38.602  34.228  39.130  1.00  0.00     0.198 A 
ATOM     75  C   UNL A   1      39.996  35.898  38.122  1.00  0.00     0.198 A 
ATOM     76  F   UNL A   1      40.890  35.545  35.974  1.00  0.00    -0.203 F 
ATOM     77  F   UNL A   1      37.816  33.825  40.137  1.00  0.00    -0.200 F 
ATOM     78  C   UNL A   1      39.213  35.471  39.183  1.00  0.00     0.200 A 
ATOM     79  F   UNL A   1      40.602  37.092  38.175  1.00  0.00    -0.200 F 
ATOM     80  F   UNL A   1      39.037  36.262  40.250  1.00  0.00    -0.200 F 
ENDBRANCH  46  70
BRANCH  58  81
ATOM     81  C   UNL A   1      43.820  28.623  35.154  1.00  0.00     0.064 A 
ATOM     82  C   UNL A   1      45.132  29.091  34.989  1.00  0.00     0.173 A 
ATOM     83  C   UNL A   1      43.611  27.552  36.036  1.00  0.00     0.173 A 
ATOM     84  F   UNL A   1      45.387  30.104  34.147  1.00  0.00    -0.203 F 
ATOM     85  C   UNL A   1      46.195  28.489  35.657  1.00  0.00     0.198 A 
ATOM     86  C   UNL A   1      44.672  26.976  36.729  1.00  0.00     0.198 A 
ATOM     87  F   UNL A   1      42.375  27.071  36.237  1.00  0.00    -0.203 F 
ATOM     88  F   UNL A   1      47.447  28.917  35.441  1.00  0.00    -0.200 F 
ATOM     89  C   UNL A   1      45.964  27.438  36.532  1.00  0.00     0.200 A 
ATOM     90  F   UNL A   1      44.444  25.973  37.588  1.00  0.00    -0.200 F 
ATOM     91  F   UNL A   1      46.987  26.866  37.180  1.00  0.00    -0.200 F 
ENDBRANCH  58  81
ENDBRANCH  32  33
ENDBRANCH  24  27
ENDBRANCH  22  23
ENDBRANCH  21  22
ENDBRANCH   1  21
TORSDOF 13
ENDMDL
MODEL 2
REMARK VINA RESULT:     -12.4      0.444      7.496
REMARK SMILES CSc1cccc(N2C[C@@H](C(=O)NCCCCNC(=O)c3ccc(-c4c5nc(c(-c6c(F)c(F)c(F)c(F)c6F)c6ccc([nH]6)c(-c6c(F)c(F)c(F)c(F)c6F)c6nc(c(-c7c(F)c(F)c(F)c(F)c7F)c7ccc4[nH]7)C=C6)C=C5)cc3)CC2=O)c1
REMARK SMILES IDX 15 1 14 2 13 3 11 4 12 5 10 7 8 8 9 9 85 10 84 11 86 12 7 13
REMARK SMILES IDX 3 14 4 15 87 16 5 17 6 18 2 19 1 20 16 21 17 22 18 23 19 24
REMARK SMILES IDX 20 26 21 27 22 28 83 29 23 30 82 31 24 32 25 33 26 34 76 35
REMARK SMILES IDX 27 36 81 37 75 38 77 39 28 40 80 41 74 42 73 43 29 45 61 46
REMARK SMILES IDX 41 47 60 48 42 49 45 50 59 51 78 52 43 53 44 54 58 56 79 57
REMARK SMILES IDX 46 58 30 59 31 60 39 61 32 62 33 63 37 64 40 65 34 66 35 67
REMARK SMILES IDX 38 68 36 69 62 70 63 71 71 72 64 73 65 74 69 75 72 76 66 77
REMARK SMILES IDX 67 78 70 79 68 80 47 81 48 82 56 83 49 84 50 85 54 86 57 87
REMARK SMILES IDX 51 88 52 89 55 90 53 91
REMARK H PARENT 13 6 18 25 77 44 45 55
REMARK Flexibility Score: inf
ROOT
ATOM      1  C   UNL A   1      31.577  30.826  26.152  1.00  0.00     0.023 C 
ENDROOT
BRANCH   1   2
ATOM      2  C   UNL A   1      33.015  30.310  26.201  1.00  0.00     0.116 C 
BRANCH   2   3
ATOM      3  N   UNL A   1      33.343  29.499  25.043  1.00  0.00    -0.356 N 
ATOM      4  C   UNL A   1      33.483  28.157  24.892  1.00  0.00     0.225 C 
ATOM      5  O   UNL A   1      33.749  27.741  23.762  1.00  0.00    -0.275 OA
ATOM      6  H   UNL A   1      33.491  30.015  24.218  1.00  0.00     0.163 HD
BRANCH   4   7
ATOM      7  C   UNL A   1      33.299  27.173  26.031  1.00  0.00     0.107 C 
ATOM      8  N   UNL A   1      32.900  24.847  26.122  1.00  0.00    -0.312 N 
ATOM      9  C   UNL A   1      33.905  25.812  25.745  1.00  0.00     0.139 C 
ATOM     10  C   UNL A   1      31.687  25.443  26.462  1.00  0.00     0.227 C 
ATOM     11  C   UNL A   1      31.855  26.938  26.441  1.00  0.00     0.116 C 
ATOM     12  O   UNL A   1      30.636  24.903  26.779  1.00  0.00    -0.274 OA
BRANCH   8  13
ATOM     13  C   UNL A   1      33.138  23.449  26.096  1.00  0.00     0.045 A 
ATOM     14  C   UNL A   1      32.953  21.277  24.986  1.00  0.00     0.009 A 
ATOM     15  C   UNL A   1      33.522  20.663  26.102  1.00  0.00     0.015 A 
ATOM     16  C   UNL A   1      32.734  22.663  25.007  1.00  0.00     0.041 A 
ATOM     17  C   UNL A   1      33.928  21.430  27.194  1.00  0.00     0.003 A 
ATOM     18  C   UNL A   1      33.763  22.817  27.178  1.00  0.00     0.026 A 
BRANCH  14  19
ATOM     19  S   UNL A   1      32.433  20.349  23.549  1.00  0.00    -0.130 SA
ATOM     20  C   UNL A   1      32.750  18.645  24.091  1.00  0.00     0.091 C 
ENDBRANCH  14  19
ENDBRANCH   8  13
ENDBRANCH   4   7
ENDBRANCH   2   3
ENDBRANCH   1   2
BRANCH   1  21
ATOM     21  C   UNL A   1      31.405  32.292  26.552  1.00  0.00     0.023 C 
BRANCH  21  22
ATOM     22  C   UNL A   1      32.616  32.930  27.223  1.00  0.00     0.116 C 
BRANCH  22  23
ATOM     23  N   UNL A   1      32.372  34.296  27.658  1.00  0.00    -0.352 N 
ATOM     24  C   UNL A   1      32.989  35.013  28.656  1.00  0.00     0.251 C 
ATOM     25  H   UNL A   1      31.666  34.775  27.169  1.00  0.00     0.163 HD
ATOM     26  O   UNL A   1      32.563  36.117  28.978  1.00  0.00    -0.269 OA
BRANCH  24  27
ATOM     27  C   UNL A   1      34.148  34.433  29.367  1.00  0.00     0.039 A 
ATOM     28  C   UNL A   1      33.923  33.683  30.523  1.00  0.00     0.014 A 
ATOM     29  C   UNL A   1      35.447  34.609  28.883  1.00  0.00     0.014 A 
ATOM     30  C   UNL A   1      34.995  33.048  31.154  1.00  0.00     0.010 A 
ATOM     31  C   UNL A   1      36.500  33.910  29.464  1.00  0.00     0.010 A 
ATOM     32  C   UNL A   1      36.287  33.122  30.604  1.00  0.00    -0.014 A 
BRANCH  32  33
ATOM     33  C   UNL A   1      37.423  32.376  31.207  1.00  0.00     0.031 A 
ATOM     34  C   UNL A   1      37.935  32.754  32.569  1.00  0.00     0.074 A 
ATOM     35  C   UNL A   1      38.030  31.400  30.503  1.00  0.00     0.049 A 
ATOM     36  N   UNL A   1      38.957  32.272  33.233  1.00  0.00    -0.248 NA
ATOM     37  C   UNL A   1      37.222  33.833  33.271  1.00  0.00     0.031 C 
ATOM     38  C   UNL A   1      37.654  30.971  29.155  1.00  0.00     0.029 A 
ATOM     39  N   UNL A   1      39.098  30.599  30.819  1.00  0.00    -0.354 N 
ATOM     40  C   UNL A   1      39.009  32.991  34.420  1.00  0.00     0.074 A 
ATOM     41  C   UNL A   1      37.958  33.983  34.361  1.00  0.00     0.031 C 
ATOM     42  C   UNL A   1      38.462  29.969  28.771  1.00  0.00     0.029 A 
ATOM     43  C   UNL A   1      39.440  29.715  29.824  1.00  0.00     0.049 A 
ATOM     44  H   UNL A   1      39.575  30.652  31.680  1.00  0.00     0.167 HD
ATOM     45  C   UNL A   1      39.842  32.822  35.475  1.00  0.00     0.037 A 
ATOM     46  C   UNL A   1      40.437  28.812  29.762  1.00  0.00     0.037 A 
ATOM     47  C   UNL A   1      40.876  31.822  35.537  1.00  0.00     0.049 A 
ATOM     48  C   UNL A   1      41.367  28.668  30.939  1.00  0.00     0.074 A 
ATOM     49  C   UNL A   1      41.742  31.542  36.579  1.00  0.00     0.029 A 
ATOM     50  N   UNL A   1      41.186  30.941  34.512  1.00  0.00    -0.354 N 
ATOM     51  N   UNL A   1      41.364  29.308  32.082  1.00  0.00    -0.248 NA
ATOM     52  C   UNL A   1      42.438  27.668  30.816  1.00  0.00     0.031 C 
ATOM     53  C   UNL A   1      42.612  30.528  36.165  1.00  0.00     0.029 A 
ATOM     54  C   UNL A   1      42.246  30.132  34.888  1.00  0.00     0.049 A 
ATOM     55  H   UNL A   1      40.721  30.896  33.644  1.00  0.00     0.167 HD
ATOM     56  C   UNL A   1      42.404  28.766  32.827  1.00  0.00     0.074 A 
ATOM     57  C   UNL A   1      43.004  27.731  32.012  1.00  0.00     0.031 C 
ATOM     58  C   UNL A   1      42.823  29.094  34.073  1.00  0.00     0.037 A 
BRANCH  45  59
ATOM     59  C   UNL A   1      39.667  33.731  36.656  1.00  0.00     0.064 A 
ATOM     60  C   UNL A   1      40.265  35.000  36.703  1.00  0.00     0.173 A 
ATOM     61  C   UNL A   1      38.846  33.355  37.731  1.00  0.00     0.173 A 
ATOM     62  F   UNL A   1      41.069  35.405  35.707  1.00  0.00    -0.203 F 
ATOM     63  C   UNL A   1      40.068  35.847  37.790  1.00  0.00     0.198 A 
ATOM     64  C   UNL A   1      38.624  34.219  38.801  1.00  0.00     0.198 A 
ATOM     65  F   UNL A   1      38.245  32.156  37.736  1.00  0.00    -0.203 F 
ATOM     66  F   UNL A   1      40.688  37.035  37.832  1.00  0.00    -0.200 F 
ATOM     67  C   UNL A   1      39.241  35.461  38.833  1.00  0.00     0.200 A 
ATOM     68  F   UNL A   1      37.812  33.850  39.801  1.00  0.00    -0.200 F 
ATOM     69  F   UNL A   1      39.041  36.283  39.872  1.00  0.00    -0.200 F 
ENDBRANCH  45  59
BRANCH  46  70
ATOM     70  C   UNL A   1      40.611  27.962  28.553  1.00  0.00     0.064 A 
ATOM     71  C   UNL A   1      41.396  28.394  27.474  1.00  0.00     0.173 A 
ATOM     72  C   UNL A   1      39.969  26.720  28.433  1.00  0.00     0.173 A 
ATOM     73  F   UNL A   1      42.014  29.582  27.530  1.00  0.00    -0.203 F 
ATOM     74  C   UNL A   1      41.501  27.636  26.309  1.00  0.00     0.198 A 
ATOM     75  C   UNL A   1      40.104  25.947  27.282  1.00  0.00     0.198 A 
ATOM     76  F   UNL A   1      39.211  26.255  29.438  1.00  0.00    -0.203 F 
ATOM     77  F   UNL A   1      42.202  28.105  25.269  1.00  0.00    -0.200 F 
ATOM     78  C   UNL A   1      40.858  26.411  26.216  1.00  0.00     0.200 A 
ATOM     79  F   UNL A   1      39.494  24.756  27.203  1.00  0.00    -0.200 F 
ATOM     80  F   UNL A   1      40.956  25.684  25.094  1.00  0.00    -0.200 F 
ENDBRANCH  46  70
BRANCH  58  81
ATOM     81  C   UNL A   1      43.955  28.294  34.655  1.00  0.00     0.064 A 
ATOM     82  C   UNL A   1      43.741  27.061  35.289  1.00  0.00     0.173 A 
ATOM     83  C   UNL A   1      45.276  28.753  34.541  1.00  0.00     0.173 A 
ATOM     84  F   UNL A   1      42.496  26.584  35.437  1.00  0.00    -0.203 F 
ATOM     85  C   UNL A   1      44.805  26.333  35.815  1.00  0.00     0.198 A 
ATOM     86  C   UNL A   1      46.341  28.006  35.035  1.00  0.00     0.198 A 
ATOM     87  F   UNL A   1      45.536  29.922  33.936  1.00  0.00    -0.203 F 
ATOM     88  F   UNL A   1      44.572  25.185  36.465  1.00  0.00    -0.200 F 
ATOM     89  C   UNL A   1      46.104  26.801  35.680  1.00  0.00     0.200 A 
ATOM     90  F   UNL A   1      47.596  28.451  34.887  1.00  0.00    -0.200 F 
ATOM     91  F   UNL A   1      47.128  26.095  36.178  1.00  0.00    -0.200 F 
ENDBRANCH  58  81
ENDBRANCH  32  33
ENDBRANCH  24  27
ENDBRANCH  22  23
ENDBRANCH  21  22
ENDBRANCH   1  21
TORSDOF 13
ENDMDL
MODEL 3
REMARK VINA RESULT:     -12.4      0.360      7.493
REMARK SMILES CSc1cccc(N2C[C@@H](C(=O)NCCCCNC(=O)c3ccc(-c4c5nc(c(-c6c(F)c(F)c(F)c(F)c6F)c6ccc([nH]6)c(-c6c(F)c(F)c(F)c(F)c6F)c6nc(c(-c7c(F)c(F)c(F)c(F)c7F)c7ccc4[nH]7)C=C6)C=C5)cc3)CC2=O)c1
REMARK SMILES IDX 15 1 14 2 13 3 11 4 12 5 10 7 8 8 9 9 85 10 84 11 86 12 7 13
REMARK SMILES IDX 3 14 4 15 87 16 5 17 6 18 2 19 1 20 16 21 17 22 18 23 19 24
REMARK SMILES IDX 20 26 21 27 22 28 83 29 23 30 82 31 24 32 25 33 26 34 76 35
REMARK SMILES IDX 27 36 81 37 75 38 77 39 28 40 80 41 74 42 73 43 29 45 61 46
REMARK SMILES IDX 41 47 60 48 42 49 45 50 59 51 78 52 43 53 44 54 58 56 79 57
REMARK SMILES IDX 46 58 30 59 31 60 39 61 32 62 33 63 37 64 40 65 34 66 35 67
REMARK SMILES IDX 38 68 36 69 62 70 63 71 71 72 64 73 65 74 69 75 72 76 66 77
REMARK SMILES IDX 67 78 70 79 68 80 47 81 48 82 56 83 49 84 50 85 54 86 57 87
REMARK SMILES IDX 51 88 52 89 55 90 53 91
REMARK H PARENT 13 6 18 25 77 44 45 55
REMARK Flexibility Score: inf
ROOT
ATOM      1  C   UNL A   1      31.605  30.751  26.258  1.00  0.00     0.023 C 
ENDROOT
BRANCH   1   2
ATOM      2  C   UNL A   1      33.063  30.297  26.177  1.00  0.00     0.116 C 
BRANCH   2   3
ATOM      3  N   UNL A   1      33.312  29.471  25.011  1.00  0.00    -0.356 N 
ATOM      4  C   UNL A   1      33.393  28.124  24.861  1.00  0.00     0.225 C 
ATOM      5  O   UNL A   1      33.598  27.695  23.723  1.00  0.00    -0.275 OA
ATOM      6  H   UNL A   1      33.447  29.978  24.178  1.00  0.00     0.163 HD
BRANCH   4   7
ATOM      7  C   UNL A   1      33.216  27.152  26.010  1.00  0.00     0.107 C 
ATOM      8  N   UNL A   1      32.872  24.818  26.128  1.00  0.00    -0.312 N 
ATOM      9  C   UNL A   1      33.859  25.801  25.752  1.00  0.00     0.139 C 
ATOM     10  C   UNL A   1      31.640  25.389  26.444  1.00  0.00     0.227 C 
ATOM     11  C   UNL A   1      31.773  26.888  26.403  1.00  0.00     0.116 C 
ATOM     12  O   UNL A   1      30.598  24.829  26.753  1.00  0.00    -0.274 OA
BRANCH   8  13
ATOM     13  C   UNL A   1      33.142  23.426  26.125  1.00  0.00     0.045 A 
ATOM     14  C   UNL A   1      32.998  21.230  25.058  1.00  0.00     0.009 A 
ATOM     15  C   UNL A   1      33.594  20.651  26.178  1.00  0.00     0.015 A 
ATOM     16  C   UNL A   1      32.746  22.611  25.055  1.00  0.00     0.041 A 
ATOM     17  C   UNL A   1      33.992  21.447  27.251  1.00  0.00     0.003 A 
ATOM     18  C   UNL A   1      33.794  22.829  27.212  1.00  0.00     0.026 A 
BRANCH  14  19
ATOM     19  S   UNL A   1      32.485  20.263  23.644  1.00  0.00    -0.130 SA
ATOM     20  C   UNL A   1      32.528  18.582  24.327  1.00  0.00     0.091 C 
ENDBRANCH  14  19
ENDBRANCH   8  13
ENDBRANCH   4   7
ENDBRANCH   2   3
ENDBRANCH   1   2
BRANCH   1  21
ATOM     21  C   UNL A   1      31.407  32.216  26.647  1.00  0.00     0.023 C 
BRANCH  21  22
ATOM     22  C   UNL A   1      32.640  32.911  27.215  1.00  0.00     0.116 C 
BRANCH  22  23
ATOM     23  N   UNL A   1      32.377  34.275  27.646  1.00  0.00    -0.352 N 
ATOM     24  C   UNL A   1      32.982  35.002  28.643  1.00  0.00     0.251 C 
ATOM     25  H   UNL A   1      31.665  34.744  27.154  1.00  0.00     0.163 HD
ATOM     26  O   UNL A   1      32.541  36.102  28.961  1.00  0.00    -0.269 OA
BRANCH  24  27
ATOM     27  C   UNL A   1      34.147  34.440  29.357  1.00  0.00     0.039 A 
ATOM     28  C   UNL A   1      33.939  33.770  30.565  1.00  0.00     0.014 A 
ATOM     29  C   UNL A   1      35.436  34.554  28.829  1.00  0.00     0.014 A 
ATOM     30  C   UNL A   1      35.013  33.150  31.205  1.00  0.00     0.010 A 
ATOM     31  C   UNL A   1      36.489  33.866  29.424  1.00  0.00     0.010 A 
ATOM     32  C   UNL A   1      36.290  33.156  30.617  1.00  0.00    -0.014 A 
BRANCH  32  33
ATOM     33  C   UNL A   1      37.425  32.422  31.235  1.00  0.00     0.031 A 
ATOM     34  C   UNL A   1      37.918  32.808  32.602  1.00  0.00     0.074 A 
ATOM     35  C   UNL A   1      38.049  31.450  30.541  1.00  0.00     0.049 A 
ATOM     36  N   UNL A   1      38.937  32.337  33.279  1.00  0.00    -0.248 NA
ATOM     37  C   UNL A   1      37.188  33.883  33.293  1.00  0.00     0.031 C 
ATOM     38  C   UNL A   1      37.692  31.013  29.190  1.00  0.00     0.029 A 
ATOM     39  N   UNL A   1      39.120  30.658  30.872  1.00  0.00    -0.354 N 
ATOM     40  C   UNL A   1      38.969  33.060  34.464  1.00  0.00     0.074 A 
ATOM     41  C   UNL A   1      37.911  34.043  34.390  1.00  0.00     0.031 C 
ATOM     42  C   UNL A   1      38.512  30.017  28.819  1.00  0.00     0.029 A 
ATOM     43  C   UNL A   1      39.481  29.774  29.883  1.00  0.00     0.049 A 
ATOM     44  H   UNL A   1      39.587  30.718  31.738  1.00  0.00     0.167 HD
ATOM     45  C   UNL A   1      39.792  32.901  35.529  1.00  0.00     0.037 A 
ATOM     46  C   UNL A   1      40.486  28.880  29.836  1.00  0.00     0.037 A 
ATOM     47  C   UNL A   1      40.833  31.910  35.606  1.00  0.00     0.049 A 
ATOM     48  C   UNL A   1      41.404  28.747  31.023  1.00  0.00     0.074 A 
ATOM     49  C   UNL A   1      41.689  31.640  36.658  1.00  0.00     0.029 A 
ATOM     50  N   UNL A   1      41.162  31.028  34.587  1.00  0.00    -0.354 N 
ATOM     51  N   UNL A   1      41.382  29.390  32.164  1.00  0.00    -0.248 NA
ATOM     52  C   UNL A   1      42.484  27.756  30.915  1.00  0.00     0.031 C 
ATOM     53  C   UNL A   1      42.573  30.633  36.258  1.00  0.00     0.029 A 
ATOM     54  C   UNL A   1      42.225  30.230  34.978  1.00  0.00     0.049 A 
ATOM     55  H   UNL A   1      40.708  30.978  33.714  1.00  0.00     0.167 HD
ATOM     56  C   UNL A   1      42.418  28.859  32.923  1.00  0.00     0.074 A 
ATOM     57  C   UNL A   1      43.036  27.828  32.118  1.00  0.00     0.031 C 
ATOM     58  C   UNL A   1      42.820  29.195  34.173  1.00  0.00     0.037 A 
BRANCH  45  59
ATOM     59  C   UNL A   1      39.595  33.812  36.706  1.00  0.00     0.064 A 
ATOM     60  C   UNL A   1      38.807  33.434  37.805  1.00  0.00     0.173 A 
ATOM     61  C   UNL A   1      40.245  35.055  36.763  1.00  0.00     0.173 A 
ATOM     62  F   UNL A   1      38.155  32.262  37.797  1.00  0.00    -0.203 F 
ATOM     63  C   UNL A   1      38.659  34.276  38.904  1.00  0.00     0.198 A 
ATOM     64  C   UNL A   1      40.121  35.879  37.879  1.00  0.00     0.198 A 
ATOM     65  F   UNL A   1      41.014  35.463  35.743  1.00  0.00    -0.203 F 
ATOM     66  F   UNL A   1      37.865  33.912  39.921  1.00  0.00    -0.200 F 
ATOM     67  C   UNL A   1      39.323  35.492  38.945  1.00  0.00     0.200 A 
ATOM     68  F   UNL A   1      40.776  37.047  37.923  1.00  0.00    -0.200 F 
ATOM     69  F   UNL A   1      39.191  36.294  40.010  1.00  0.00    -0.200 F 
ENDBRANCH  45  59
BRANCH  46  70
ATOM     70  C   UNL A   1      40.681  28.028  28.631  1.00  0.00     0.064 A 
ATOM     71  C   UNL A   1      41.474  28.464  27.560  1.00  0.00     0.173 A 
ATOM     72  C   UNL A   1      40.051  26.780  28.508  1.00  0.00     0.173 A 
ATOM     73  F   UNL A   1      42.082  29.657  27.619  1.00  0.00    -0.203 F 
ATOM     74  C   UNL A   1      41.599  27.703  26.398  1.00  0.00     0.198 A 
ATOM     75  C   UNL A   1      40.206  26.005  27.361  1.00  0.00     0.198 A 
ATOM     76  F   UNL A   1      39.285  26.312  29.505  1.00  0.00    -0.203 F 
ATOM     77  F   UNL A   1      42.308  28.175  25.365  1.00  0.00    -0.200 F 
ATOM     78  C   UNL A   1      40.968  26.472  26.301  1.00  0.00     0.200 A 
ATOM     79  F   UNL A   1      39.607  24.808  27.278  1.00  0.00    -0.200 F 
ATOM     80  F   UNL A   1      41.085  25.744  25.183  1.00  0.00    -0.200 F 
ENDBRANCH  46  70
BRANCH  58  81
ATOM     81  C   UNL A   1      43.952  28.406  34.770  1.00  0.00     0.064 A 
ATOM     82  C   UNL A   1      45.288  28.811  34.636  1.00  0.00     0.173 A 
ATOM     83  C   UNL A   1      43.688  27.250  35.521  1.00  0.00     0.173 A 
ATOM     84  F   UNL A   1      45.595  29.901  33.917  1.00  0.00    -0.203 F 
ATOM     85  C   UNL A   1      46.320  28.070  35.205  1.00  0.00     0.198 A 
ATOM     86  C   UNL A   1      44.720  26.531  36.118  1.00  0.00     0.198 A 
ATOM     87  F   UNL A   1      42.427  26.824  35.687  1.00  0.00    -0.203 F 
ATOM     88  F   UNL A   1      47.593  28.444  35.017  1.00  0.00    -0.200 F 
ATOM     89  C   UNL A   1      46.035  26.936  35.952  1.00  0.00     0.200 A 
ATOM     90  F   UNL A   1      44.440  25.447  36.855  1.00  0.00    -0.200 F 
ATOM     91  F   UNL A   1      47.029  26.230  36.506  1.00  0.00    -0.200 F 
ENDBRANCH  58  81
ENDBRANCH  32  33
ENDBRANCH  24  27
ENDBRANCH  22  23
ENDBRANCH  21  22
ENDBRANCH   1  21
TORSDOF 13
ENDMDL
