MODEL 1
REMARK VINA RESULT:     -11.7      0.000      0.000
REMARK SMILES O=C(NCCCCNC(=O)c1ccc(-c2c3nc(c(-c4c(F)c(F)c(F)c(F)c4F)c4ccc([nH]4)c(-c4c(F)c(F)c(F)c(F)c4F)c4nc(c(-c5c(F)c(F)c(F)c(F)c5F)c5ccc2[nH]5)C=C4)C=C3)cc1)C1=C(C(=O)NCCC2=CCCCC2)CCCC1
REMARK SMILES IDX 4 1 3 2 1 3 2 4 74 6 75 7 90 8 87 9 89 10 88 11 76 12 77 13
REMARK SMILES IDX 78 14 79 16 80 17 81 18 82 19 86 20 83 21 85 22 84 23 5 24
REMARK SMILES IDX 6 25 7 26 8 27 9 28 10 30 11 31 12 32 73 33 13 34 72 35
REMARK SMILES IDX 14 36 15 37 16 38 66 39 17 40 71 41 65 42 67 43 18 44 70 45
REMARK SMILES IDX 64 46 63 47 19 49 51 50 31 51 50 52 32 53 35 54 49 55 68 56
REMARK SMILES IDX 33 57 34 58 48 60 69 61 36 62 20 63 21 64 29 65 22 66 23 67
REMARK SMILES IDX 27 68 30 69 24 70 25 71 28 72 26 73 52 74 53 75 61 76 54 77
REMARK SMILES IDX 55 78 59 79 62 80 56 81 57 82 60 83 58 84 37 85 38 86 46 87
REMARK SMILES IDX 39 88 40 89 44 90 47 91 41 92 42 93 45 94 43 95
REMARK H PARENT 3 5 78 15 8 29 67 48 35 59
REMARK Flexibility Score: inf
ROOT
ATOM      1  C   UNL A   1      31.479  30.177  25.155  1.00  0.00     0.116 C 
ENDROOT
BRANCH   1   2
ATOM      2  N   UNL A   1      32.728  29.695  24.595  1.00  0.00    -0.352 N 
ATOM      3  O   UNL A   1      34.280  28.235  23.923  1.00  0.00    -0.270 OA
ATOM      4  C   UNL A   1      33.142  28.426  24.349  1.00  0.00     0.247 C 
ATOM      5  H   UNL A   1      33.376  30.398  24.356  1.00  0.00     0.163 HD
BRANCH   4   6
ATOM      6  C   UNL A   1      32.262  27.271  24.655  1.00  0.00     0.026 C 
ATOM      7  C   UNL A   1      31.349  26.735  23.817  1.00  0.00     0.026 C 
ATOM      8  C   UNL A   1      32.546  26.702  26.031  1.00  0.00     0.042 C 
ATOM      9  C   UNL A   1      30.371  25.679  24.313  1.00  0.00     0.042 C 
ATOM     10  C   UNL A   1      31.781  25.419  26.356  1.00  0.00     0.005 C 
ATOM     11  C   UNL A   1      30.359  25.510  25.834  1.00  0.00     0.005 C 
BRANCH   7  12
ATOM     12  C   UNL A   1      31.075  27.136  22.401  1.00  0.00     0.247 C 
ATOM     13  O   UNL A   1      30.092  27.838  22.154  1.00  0.00    -0.270 OA
ATOM     14  N   UNL A   1      31.822  26.703  21.354  1.00  0.00    -0.352 N 
ATOM     15  H   UNL A   1      31.454  26.938  20.472  1.00  0.00     0.163 HD
BRANCH  14  16
ATOM     16  C   UNL A   1      33.066  25.956  21.299  1.00  0.00     0.120 C 
BRANCH  16  17
ATOM     17  C   UNL A   1      32.893  24.448  21.509  1.00  0.00     0.052 C 
BRANCH  17  18
ATOM     18  C   UNL A   1      33.334  23.913  22.862  1.00  0.00    -0.072 C 
ATOM     19  C   UNL A   1      34.360  24.481  23.524  1.00  0.00    -0.028 C 
ATOM     20  C   UNL A   1      32.636  22.680  23.396  1.00  0.00     0.031 C 
ATOM     21  C   UNL A   1      34.942  23.938  24.796  1.00  0.00     0.027 C 
ATOM     22  C   UNL A   1      33.015  22.332  24.841  1.00  0.00     0.005 C 
ATOM     23  C   UNL A   1      34.509  22.502  25.082  1.00  0.00     0.004 C 
ENDBRANCH  17  18
ENDBRANCH  16  17
ENDBRANCH  14  16
ENDBRANCH   7  12
ENDBRANCH   4   6
ENDBRANCH   1   2
BRANCH   1  24
ATOM     24  C   UNL A   1      31.630  30.603  26.614  1.00  0.00     0.023 C 
BRANCH  24  25
ATOM     25  C   UNL A   1      31.403  32.101  26.877  1.00  0.00     0.023 C 
BRANCH  25  26
ATOM     26  C   UNL A   1      32.661  32.969  26.880  1.00  0.00     0.116 C 
BRANCH  26  27
ATOM     27  N   UNL A   1      32.475  34.204  27.626  1.00  0.00    -0.352 N 
ATOM     28  C   UNL A   1      33.062  34.660  28.775  1.00  0.00     0.251 C 
ATOM     29  H   UNL A   1      31.812  34.818  27.235  1.00  0.00     0.163 HD
ATOM     30  O   UNL A   1      32.561  35.628  29.359  1.00  0.00    -0.269 OA
BRANCH  28  31
ATOM     31  C   UNL A   1      34.273  34.030  29.349  1.00  0.00     0.039 A 
ATOM     32  C   UNL A   1      34.112  33.039  30.323  1.00  0.00     0.014 A 
ATOM     33  C   UNL A   1      35.562  34.461  29.020  1.00  0.00     0.014 A 
ATOM     34  C   UNL A   1      35.230  32.452  30.923  1.00  0.00     0.010 A 
ATOM     35  C   UNL A   1      36.681  33.828  29.570  1.00  0.00     0.010 A 
ATOM     36  C   UNL A   1      36.527  32.821  30.532  1.00  0.00    -0.014 A 
BRANCH  36  37
ATOM     37  C   UNL A   1      37.711  32.137  31.121  1.00  0.00     0.031 A 
ATOM     38  C   UNL A   1      38.184  32.455  32.513  1.00  0.00     0.074 A 
ATOM     39  C   UNL A   1      38.380  31.230  30.383  1.00  0.00     0.049 A 
ATOM     40  N   UNL A   1      39.164  31.915  33.197  1.00  0.00    -0.248 NA
ATOM     41  C   UNL A   1      37.482  33.533  33.224  1.00  0.00     0.031 C 
ATOM     42  C   UNL A   1      38.064  30.872  29.000  1.00  0.00     0.029 A 
ATOM     43  N   UNL A   1      39.458  30.438  30.693  1.00  0.00    -0.354 N 
ATOM     44  C   UNL A   1      39.202  32.592  34.409  1.00  0.00     0.074 A 
ATOM     45  C   UNL A   1      38.178  33.615  34.349  1.00  0.00     0.031 C 
ATOM     46  C   UNL A   1      38.900  29.903  28.595  1.00  0.00     0.029 A 
ATOM     47  C   UNL A   1      39.825  29.588  29.680  1.00  0.00     0.049 A 
ATOM     48  H   UNL A   1      39.924  30.477  31.560  1.00  0.00     0.167 HD
ATOM     49  C   UNL A   1      40.003  32.371  35.481  1.00  0.00     0.037 A 
ATOM     50  C   UNL A   1      40.787  28.647  29.634  1.00  0.00     0.037 A 
ATOM     51  C   UNL A   1      41.004  31.337  35.553  1.00  0.00     0.049 A 
ATOM     52  C   UNL A   1      41.643  28.404  30.844  1.00  0.00     0.074 A 
ATOM     53  C   UNL A   1      41.808  30.985  36.624  1.00  0.00     0.029 A 
ATOM     54  N   UNL A   1      41.343  30.490  34.507  1.00  0.00    -0.354 N 
ATOM     55  N   UNL A   1      41.608  28.990  32.015  1.00  0.00    -0.248 NA
ATOM     56  C   UNL A   1      42.665  27.354  30.728  1.00  0.00     0.031 C 
ATOM     57  C   UNL A   1      42.663  29.955  36.214  1.00  0.00     0.029 A 
ATOM     58  C   UNL A   1      42.360  29.634  34.901  1.00  0.00     0.049 A 
ATOM     59  H   UNL A   1      40.923  30.496  33.617  1.00  0.00     0.167 HD
ATOM     60  C   UNL A   1      42.582  28.366  32.783  1.00  0.00     0.074 A 
ATOM     61  C   UNL A   1      43.178  27.342  31.950  1.00  0.00     0.031 C 
ATOM     62  C   UNL A   1      42.950  28.620  34.063  1.00  0.00     0.037 A 
BRANCH  49  63
ATOM     63  C   UNL A   1      39.831  33.269  36.672  1.00  0.00     0.064 A 
ATOM     64  C   UNL A   1      40.585  34.442  36.825  1.00  0.00     0.173 A 
ATOM     65  C   UNL A   1      38.874  32.972  37.655  1.00  0.00     0.173 A 
ATOM     66  F   UNL A   1      41.518  34.768  35.918  1.00  0.00    -0.203 F 
ATOM     67  C   UNL A   1      40.409  35.269  37.932  1.00  0.00     0.198 A 
ATOM     68  C   UNL A   1      38.682  33.816  38.747  1.00  0.00     0.198 A 
ATOM     69  F   UNL A   1      38.121  31.867  37.554  1.00  0.00    -0.203 F 
ATOM     70  F   UNL A   1      41.174  36.359  38.081  1.00  0.00    -0.200 F 
ATOM     71  C   UNL A   1      39.455  34.958  38.889  1.00  0.00     0.200 A 
ATOM     72  F   UNL A   1      37.750  33.520  39.664  1.00  0.00    -0.200 F 
ATOM     73  F   UNL A   1      39.284  35.756  39.952  1.00  0.00    -0.200 F 
ENDBRANCH  49  63
BRANCH  50  74
ATOM     74  C   UNL A   1      40.953  27.823  28.409  1.00  0.00     0.064 A 
ATOM     75  C   UNL A   1      40.251  26.619  28.260  1.00  0.00     0.173 A 
ATOM     76  C   UNL A   1      41.805  28.218  27.370  1.00  0.00     0.173 A 
ATOM     77  F   UNL A   1      39.440  26.191  29.239  1.00  0.00    -0.203 F 
ATOM     78  C   UNL A   1      40.407  25.833  27.121  1.00  0.00     0.198 A 
ATOM     79  C   UNL A   1      41.941  27.443  26.220  1.00  0.00     0.198 A 
ATOM     80  F   UNL A   1      42.495  29.364  27.465  1.00  0.00    -0.203 F 
ATOM     81  F   UNL A   1      39.754  24.666  27.020  1.00  0.00    -0.200 F 
ATOM     82  C   UNL A   1      41.247  26.248  26.100  1.00  0.00     0.200 A 
ATOM     83  F   UNL A   1      42.745  27.854  25.229  1.00  0.00    -0.200 F 
ATOM     84  F   UNL A   1      41.393  25.494  25.002  1.00  0.00    -0.200 F 
ENDBRANCH  50  74
BRANCH  62  85
ATOM     85  C   UNL A   1      44.032  27.757  34.645  1.00  0.00     0.064 A 
ATOM     86  C   UNL A   1      43.742  26.530  35.260  1.00  0.00     0.173 A 
ATOM     87  C   UNL A   1      45.374  28.162  34.588  1.00  0.00     0.173 A 
ATOM     88  F   UNL A   1      42.473  26.106  35.355  1.00  0.00    -0.203 F 
ATOM     89  C   UNL A   1      44.752  25.758  35.829  1.00  0.00     0.198 A 
ATOM     90  C   UNL A   1      46.384  27.374  35.131  1.00  0.00     0.198 A 
ATOM     91  F   UNL A   1      45.706  29.324  34.005  1.00  0.00    -0.203 F 
ATOM     92  F   UNL A   1      44.444  24.619  36.464  1.00  0.00    -0.200 F 
ATOM     93  C   UNL A   1      46.072  26.178  35.760  1.00  0.00     0.200 A 
ATOM     94  F   UNL A   1      47.660  27.777  35.056  1.00  0.00    -0.200 F 
ATOM     95  F   UNL A   1      47.042  25.437  36.313  1.00  0.00    -0.200 F 
ENDBRANCH  62  85
ENDBRANCH  36  37
ENDBRANCH  28  31
ENDBRANCH  26  27
ENDBRANCH  25  26
ENDBRANCH  24  25
ENDBRANCH   1  24
TORSDOF 15
ENDMDL
MODEL 2
REMARK VINA RESULT:     -11.6      0.317      1.966
REMARK SMILES O=C(NCCCCNC(=O)c1ccc(-c2c3nc(c(-c4c(F)c(F)c(F)c(F)c4F)c4ccc([nH]4)c(-c4c(F)c(F)c(F)c(F)c4F)c4nc(c(-c5c(F)c(F)c(F)c(F)c5F)c5ccc2[nH]5)C=C4)C=C3)cc1)C1=C(C(=O)NCCC2=CCCCC2)CCCC1
REMARK SMILES IDX 4 1 3 2 1 3 2 4 74 6 75 7 90 8 87 9 89 10 88 11 76 12 77 13
REMARK SMILES IDX 78 14 79 16 80 17 81 18 82 19 86 20 83 21 85 22 84 23 5 24
REMARK SMILES IDX 6 25 7 26 8 27 9 28 10 30 11 31 12 32 73 33 13 34 72 35
REMARK SMILES IDX 14 36 15 37 16 38 66 39 17 40 71 41 65 42 67 43 18 44 70 45
REMARK SMILES IDX 64 46 63 47 19 49 51 50 31 51 50 52 32 53 35 54 49 55 68 56
REMARK SMILES IDX 33 57 34 58 48 60 69 61 36 62 20 63 21 64 29 65 22 66 23 67
REMARK SMILES IDX 27 68 30 69 24 70 25 71 28 72 26 73 52 74 53 75 61 76 54 77
REMARK SMILES IDX 55 78 59 79 62 80 56 81 57 82 60 83 58 84 37 85 38 86 46 87
REMARK SMILES IDX 39 88 40 89 44 90 47 91 41 92 42 93 45 94 43 95
REMARK H PARENT 3 5 78 15 8 29 67 48 35 59
REMARK Flexibility Score: inf
ROOT
ATOM      1  C   UNL A   1      32.073  29.729  26.102  1.00  0.00     0.116 C 
ENDROOT
BRANCH   1   2
ATOM      2  N   UNL A   1      33.066  29.387  25.100  1.00  0.00    -0.352 N 
ATOM      3  O   UNL A   1      34.244  28.118  23.688  1.00  0.00    -0.270 OA
ATOM      4  C   UNL A   1      33.297  28.209  24.468  1.00  0.00     0.247 C 
ATOM      5  H   UNL A   1      33.664  30.124  24.838  1.00  0.00     0.163 HD
BRANCH   4   6
ATOM      6  C   UNL A   1      32.464  27.016  24.762  1.00  0.00     0.026 C 
ATOM      7  C   UNL A   1      31.475  26.535  23.979  1.00  0.00     0.026 C 
ATOM      8  C   UNL A   1      32.892  26.339  26.050  1.00  0.00     0.042 C 
ATOM      9  C   UNL A   1      30.564  25.424  24.480  1.00  0.00     0.042 C 
ATOM     10  C   UNL A   1      32.176  25.021  26.341  1.00  0.00     0.005 C 
ATOM     11  C   UNL A   1      30.708  25.129  25.974  1.00  0.00     0.005 C 
BRANCH   7  12
ATOM     12  C   UNL A   1      31.055  27.047  22.636  1.00  0.00     0.247 C 
ATOM     13  O   UNL A   1      30.059  27.769  22.554  1.00  0.00    -0.270 OA
ATOM     14  N   UNL A   1      31.680  26.696  21.484  1.00  0.00    -0.352 N 
ATOM     15  H   UNL A   1      31.221  27.000  20.668  1.00  0.00     0.163 HD
BRANCH  14  16
ATOM     16  C   UNL A   1      32.902  25.952  21.236  1.00  0.00     0.120 C 
BRANCH  16  17
ATOM     17  C   UNL A   1      32.730  24.432  21.326  1.00  0.00     0.052 C 
BRANCH  17  18
ATOM     18  C   UNL A   1      33.267  23.778  22.589  1.00  0.00    -0.072 C 
ATOM     19  C   UNL A   1      34.344  24.284  23.220  1.00  0.00    -0.028 C 
ATOM     20  C   UNL A   1      32.599  22.506  23.065  1.00  0.00     0.031 C 
ATOM     21  C   UNL A   1      35.015  23.629  24.391  1.00  0.00     0.027 C 
ATOM     22  C   UNL A   1      33.082  22.031  24.442  1.00  0.00     0.005 C 
ATOM     23  C   UNL A   1      34.591  22.175  24.583  1.00  0.00     0.004 C 
ENDBRANCH  17  18
ENDBRANCH  16  17
ENDBRANCH  14  16
ENDBRANCH   7  12
ENDBRANCH   4   6
ENDBRANCH   1   2
BRANCH   1  24
ATOM     24  C   UNL A   1      31.121  30.821  25.619  1.00  0.00     0.023 C 
BRANCH  24  25
ATOM     25  C   UNL A   1      31.085  32.082  26.498  1.00  0.00     0.023 C 
BRANCH  25  26
ATOM     26  C   UNL A   1      32.448  32.676  26.856  1.00  0.00     0.116 C 
BRANCH  26  27
ATOM     27  N   UNL A   1      32.332  34.003  27.440  1.00  0.00    -0.352 N 
ATOM     28  C   UNL A   1      32.977  34.580  28.501  1.00  0.00     0.251 C 
ATOM     29  H   UNL A   1      31.677  34.587  26.995  1.00  0.00     0.163 HD
ATOM     30  O   UNL A   1      32.532  35.634  28.970  1.00  0.00    -0.269 OA
BRANCH  28  31
ATOM     31  C   UNL A   1      34.185  33.982  29.113  1.00  0.00     0.039 A 
ATOM     32  C   UNL A   1      34.032  32.861  29.937  1.00  0.00     0.014 A 
ATOM     33  C   UNL A   1      35.452  34.557  28.971  1.00  0.00     0.014 A 
ATOM     34  C   UNL A   1      35.142  32.295  30.570  1.00  0.00     0.010 A 
ATOM     35  C   UNL A   1      36.572  33.952  29.549  1.00  0.00     0.010 A 
ATOM     36  C   UNL A   1      36.429  32.817  30.361  1.00  0.00    -0.014 A 
BRANCH  36  37
ATOM     37  C   UNL A   1      37.614  32.162  30.978  1.00  0.00     0.031 A 
ATOM     38  C   UNL A   1      38.065  32.514  32.369  1.00  0.00     0.074 A 
ATOM     39  C   UNL A   1      38.305  31.250  30.266  1.00  0.00     0.049 A 
ATOM     40  N   UNL A   1      39.043  32.001  33.076  1.00  0.00    -0.248 NA
ATOM     41  C   UNL A   1      37.339  33.596  33.049  1.00  0.00     0.031 C 
ATOM     42  C   UNL A   1      38.011  30.860  28.887  1.00  0.00     0.029 A 
ATOM     43  N   UNL A   1      39.389  30.479  30.606  1.00  0.00    -0.354 N 
ATOM     44  C   UNL A   1      39.057  32.703  34.275  1.00  0.00     0.074 A 
ATOM     45  C   UNL A   1      38.019  33.710  34.181  1.00  0.00     0.031 C 
ATOM     46  C   UNL A   1      38.865  29.895  28.512  1.00  0.00     0.029 A 
ATOM     47  C   UNL A   1      39.780  29.614  29.614  1.00  0.00     0.049 A 
ATOM     48  H   UNL A   1      39.843  30.542  31.478  1.00  0.00     0.167 HD
ATOM     49  C   UNL A   1      39.847  32.515  35.360  1.00  0.00     0.037 A 
ATOM     50  C   UNL A   1      40.756  28.686  29.599  1.00  0.00     0.037 A 
ATOM     51  C   UNL A   1      40.861  31.496  35.465  1.00  0.00     0.049 A 
ATOM     52  C   UNL A   1      41.599  28.479  30.825  1.00  0.00     0.074 A 
ATOM     53  C   UNL A   1      41.656  31.177  36.554  1.00  0.00     0.029 A 
ATOM     54  N   UNL A   1      41.224  30.633  34.442  1.00  0.00    -0.354 N 
ATOM     55  N   UNL A   1      41.542  29.088  31.983  1.00  0.00    -0.248 NA
ATOM     56  C   UNL A   1      42.637  27.441  30.743  1.00  0.00     0.031 C 
ATOM     57  C   UNL A   1      42.530  30.150  36.174  1.00  0.00     0.029 A 
ATOM     58  C   UNL A   1      42.248  29.799  34.865  1.00  0.00     0.049 A 
ATOM     59  H   UNL A   1      40.816  30.616  33.546  1.00  0.00     0.167 HD
ATOM     60  C   UNL A   1      42.514  28.493  32.776  1.00  0.00     0.074 A 
ATOM     61  C   UNL A   1      43.135  27.460  31.970  1.00  0.00     0.031 C 
ATOM     62  C   UNL A   1      42.862  28.778  34.055  1.00  0.00     0.037 A 
BRANCH  49  63
ATOM     63  C   UNL A   1      39.647  33.433  36.531  1.00  0.00     0.064 A 
ATOM     64  C   UNL A   1      38.790  33.101  37.591  1.00  0.00     0.173 A 
ATOM     65  C   UNL A   1      40.350  34.645  36.612  1.00  0.00     0.173 A 
ATOM     66  F   UNL A   1      38.089  31.958  37.558  1.00  0.00    -0.203 F 
ATOM     67  C   UNL A   1      38.621  33.960  38.674  1.00  0.00     0.198 A 
ATOM     68  C   UNL A   1      40.200  35.489  37.711  1.00  0.00     0.198 A 
ATOM     69  F   UNL A   1      41.188  35.008  35.630  1.00  0.00    -0.203 F 
ATOM     70  F   UNL A   1      37.761  33.643  39.651  1.00  0.00    -0.200 F 
ATOM     71  C   UNL A   1      39.330  35.150  38.736  1.00  0.00     0.200 A 
ATOM     72  F   UNL A   1      40.895  36.633  37.774  1.00  0.00    -0.200 F 
ATOM     73  F   UNL A   1      39.169  35.975  39.780  1.00  0.00    -0.200 F 
ENDBRANCH  49  63
BRANCH  50  74
ATOM     74  C   UNL A   1      40.949  27.840  28.394  1.00  0.00     0.064 A 
ATOM     75  C   UNL A   1      41.790  28.260  27.355  1.00  0.00     0.173 A 
ATOM     76  C   UNL A   1      40.306  26.603  28.257  1.00  0.00     0.173 A 
ATOM     77  F   UNL A   1      42.409  29.447  27.432  1.00  0.00    -0.203 F 
ATOM     78  C   UNL A   1      41.969  27.479  26.215  1.00  0.00     0.198 A 
ATOM     79  C   UNL A   1      40.506  25.811  27.129  1.00  0.00     0.198 A 
ATOM     80  F   UNL A   1      39.495  26.156  29.227  1.00  0.00    -0.203 F 
ATOM     81  F   UNL A   1      42.748  27.923  25.218  1.00  0.00    -0.200 F 
ATOM     82  C   UNL A   1      41.332  26.253  26.106  1.00  0.00     0.200 A 
ATOM     83  F   UNL A   1      39.899  24.620  27.031  1.00  0.00    -0.200 F 
ATOM     84  F   UNL A   1      41.509  25.500  25.012  1.00  0.00    -0.200 F 
ENDBRANCH  50  74
BRANCH  62  85
ATOM     85  C   UNL A   1      43.948  27.941  34.667  1.00  0.00     0.064 A 
ATOM     86  C   UNL A   1      45.299  28.312  34.580  1.00  0.00     0.173 A 
ATOM     87  C   UNL A   1      43.636  26.755  35.348  1.00  0.00     0.173 A 
ATOM     88  F   UNL A   1      45.652  29.428  33.925  1.00  0.00    -0.203 F 
ATOM     89  C   UNL A   1      46.299  27.506  35.120  1.00  0.00     0.198 A 
ATOM     90  C   UNL A   1      44.635  25.967  35.912  1.00  0.00     0.198 A 
ATOM     91  F   UNL A   1      42.359  26.358  35.465  1.00  0.00    -0.203 F 
ATOM     92  F   UNL A   1      47.585  27.850  34.972  1.00  0.00    -0.200 F 
ATOM     93  C   UNL A   1      45.966  26.338  35.789  1.00  0.00     0.200 A 
ATOM     94  F   UNL A   1      44.312  24.844  36.566  1.00  0.00    -0.200 F 
ATOM     95  F   UNL A   1      46.929  25.561  36.303  1.00  0.00    -0.200 F 
ENDBRANCH  62  85
ENDBRANCH  36  37
ENDBRANCH  28  31
ENDBRANCH  26  27
ENDBRANCH  25  26
ENDBRANCH  24  25
ENDBRANCH   1  24
TORSDOF 15
ENDMDL
MODEL 3
REMARK VINA RESULT:     -11.5      5.388     10.867
REMARK SMILES O=C(NCCCCNC(=O)c1ccc(-c2c3nc(c(-c4c(F)c(F)c(F)c(F)c4F)c4ccc([nH]4)c(-c4c(F)c(F)c(F)c(F)c4F)c4nc(c(-c5c(F)c(F)c(F)c(F)c5F)c5ccc2[nH]5)C=C4)C=C3)cc1)C1=C(C(=O)NCCC2=CCCCC2)CCCC1
REMARK SMILES IDX 4 1 3 2 1 3 2 4 74 6 75 7 90 8 87 9 89 10 88 11 76 12 77 13
REMARK SMILES IDX 78 14 79 16 80 17 81 18 82 19 86 20 83 21 85 22 84 23 5 24
REMARK SMILES IDX 6 25 7 26 8 27 9 28 10 30 11 31 12 32 73 33 13 34 72 35
REMARK SMILES IDX 14 36 15 37 16 38 66 39 17 40 71 41 65 42 67 43 18 44 70 45
REMARK SMILES IDX 64 46 63 47 19 49 51 50 31 51 50 52 32 53 35 54 49 55 68 56
REMARK SMILES IDX 33 57 34 58 48 60 69 61 36 62 20 63 21 64 29 65 22 66 23 67
REMARK SMILES IDX 27 68 30 69 24 70 25 71 28 72 26 73 52 74 53 75 61 76 54 77
REMARK SMILES IDX 55 78 59 79 62 80 56 81 57 82 60 83 58 84 37 85 38 86 46 87
REMARK SMILES IDX 39 88 40 89 44 90 47 91 41 92 42 93 45 94 43 95
REMARK H PARENT 3 5 78 15 8 29 67 48 35 59
REMARK Flexibility Score: inf
ROOT
ATOM      1  C   UNL A   1      35.930  20.476  25.003  1.00  0.00     0.116 C 
ENDROOT
BRANCH   1   2
ATOM      2  N   UNL A   1      35.564  21.359  26.096  1.00  0.00    -0.352 N 
ATOM      3  O   UNL A   1      34.604  23.083  27.144  1.00  0.00    -0.270 OA
ATOM      4  C   UNL A   1      34.724  22.425  26.111  1.00  0.00     0.247 C 
ATOM      5  H   UNL A   1      35.990  21.152  26.959  1.00  0.00     0.163 HD
BRANCH   4   6
ATOM      6  C   UNL A   1      34.009  22.842  24.880  1.00  0.00     0.026 C 
ATOM      7  C   UNL A   1      32.773  22.440  24.514  1.00  0.00     0.026 C 
ATOM      8  C   UNL A   1      34.815  23.845  24.078  1.00  0.00     0.042 C 
ATOM      9  C   UNL A   1      32.226  22.781  23.136  1.00  0.00     0.042 C 
ATOM     10  C   UNL A   1      34.078  24.432  22.874  1.00  0.00     0.005 C 
ATOM     11  C   UNL A   1      33.271  23.353  22.177  1.00  0.00     0.005 C 
BRANCH   7  12
ATOM     12  C   UNL A   1      31.844  21.555  25.287  1.00  0.00     0.247 C 
ATOM     13  O   UNL A   1      31.779  20.357  25.001  1.00  0.00    -0.270 OA
ATOM     14  N   UNL A   1      31.010  22.023  26.249  1.00  0.00    -0.352 N 
ATOM     15  H   UNL A   1      30.365  21.358  26.582  1.00  0.00     0.163 HD
BRANCH  14  16
ATOM     16  C   UNL A   1      30.894  23.328  26.876  1.00  0.00     0.120 C 
BRANCH  16  17
ATOM     17  C   UNL A   1      30.280  24.399  25.968  1.00  0.00     0.052 C 
BRANCH  17  18
ATOM     18  C   UNL A   1      31.195  25.554  25.595  1.00  0.00    -0.072 C 
ATOM     19  C   UNL A   1      30.952  26.296  24.498  1.00  0.00    -0.028 C 
ATOM     20  C   UNL A   1      32.421  25.790  26.452  1.00  0.00     0.031 C 
ATOM     21  C   UNL A   1      31.872  27.366  23.987  1.00  0.00     0.027 C 
ATOM     22  C   UNL A   1      33.171  27.085  26.115  1.00  0.00     0.005 C 
ATOM     23  C   UNL A   1      33.265  27.300  24.610  1.00  0.00     0.004 C 
ENDBRANCH  17  18
ENDBRANCH  16  17
ENDBRANCH  14  16
ENDBRANCH   7  12
ENDBRANCH   4   6
ENDBRANCH   1   2
BRANCH   1  24
ATOM     24  C   UNL A   1      37.382  20.668  24.570  1.00  0.00     0.023 C 
BRANCH  24  25
ATOM     25  C   UNL A   1      38.339  19.544  25.000  1.00  0.00     0.023 C 
BRANCH  25  26
ATOM     26  C   UNL A   1      39.311  19.898  26.126  1.00  0.00     0.116 C 
BRANCH  26  27
ATOM     27  N   UNL A   1      40.555  19.150  26.033  1.00  0.00    -0.352 N 
ATOM     28  C   UNL A   1      41.858  19.568  26.017  1.00  0.00     0.251 C 
ATOM     29  H   UNL A   1      40.439  18.175  25.972  1.00  0.00     0.163 HD
ATOM     30  O   UNL A   1      42.739  18.769  25.677  1.00  0.00    -0.269 OA
BRANCH  28  31
ATOM     31  C   UNL A   1      42.252  20.947  26.385  1.00  0.00     0.039 A 
ATOM     32  C   UNL A   1      42.306  21.918  25.378  1.00  0.00     0.014 A 
ATOM     33  C   UNL A   1      42.662  21.282  27.680  1.00  0.00     0.014 A 
ATOM     34  C   UNL A   1      42.718  23.220  25.677  1.00  0.00     0.010 A 
ATOM     35  C   UNL A   1      43.008  22.601  27.992  1.00  0.00     0.010 A 
ATOM     36  C   UNL A   1      43.046  23.583  26.993  1.00  0.00    -0.014 A 
BRANCH  36  37
ATOM     37  C   UNL A   1      43.409  24.990  27.314  1.00  0.00     0.031 A 
ATOM     38  C   UNL A   1      44.771  25.539  26.988  1.00  0.00     0.074 A 
ATOM     39  C   UNL A   1      42.505  25.778  27.927  1.00  0.00     0.049 A 
ATOM     40  N   UNL A   1      45.234  26.755  27.151  1.00  0.00    -0.248 NA
ATOM     41  C   UNL A   1      45.750  24.598  26.424  1.00  0.00     0.031 C 
ATOM     42  C   UNL A   1      41.170  25.354  28.353  1.00  0.00     0.029 A 
ATOM     43  N   UNL A   1      42.565  27.101  28.291  1.00  0.00    -0.354 N 
ATOM     44  C   UNL A   1      46.554  26.723  26.723  1.00  0.00     0.074 A 
ATOM     45  C   UNL A   1      46.835  25.355  26.336  1.00  0.00     0.031 C 
ATOM     46  C   UNL A   1      40.523  26.405  28.880  1.00  0.00     0.029 A 
ATOM     47  C   UNL A   1      41.403  27.570  28.852  1.00  0.00     0.049 A 
ATOM     48  H   UNL A   1      43.367  27.659  28.162  1.00  0.00     0.167 HD
ATOM     49  C   UNL A   1      47.446  27.740  26.641  1.00  0.00     0.037 A 
ATOM     50  C   UNL A   1      41.076  28.804  29.280  1.00  0.00     0.037 A 
ATOM     51  C   UNL A   1      47.161  29.107  27.000  1.00  0.00     0.049 A 
ATOM     52  C   UNL A   1      42.074  29.920  29.153  1.00  0.00     0.074 A 
ATOM     53  C   UNL A   1      47.975  30.221  26.876  1.00  0.00     0.029 A 
ATOM     54  N   UNL A   1      45.970  29.546  27.559  1.00  0.00    -0.354 N 
ATOM     55  N   UNL A   1      43.288  29.895  28.662  1.00  0.00    -0.248 NA
ATOM     56  C   UNL A   1      41.645  31.243  29.629  1.00  0.00     0.031 C 
ATOM     57  C   UNL A   1      47.291  31.325  27.400  1.00  0.00     0.029 A 
ATOM     58  C   UNL A   1      46.036  30.908  27.808  1.00  0.00     0.049 A 
ATOM     59  H   UNL A   1      45.191  28.974  27.751  1.00  0.00     0.167 HD
ATOM     60  C   UNL A   1      43.760  31.198  28.745  1.00  0.00     0.074 A 
ATOM     61  C   UNL A   1      42.692  31.993  29.317  1.00  0.00     0.031 C 
ATOM     62  C   UNL A   1      44.969  31.690  28.381  1.00  0.00     0.037 A 
BRANCH  49  63
ATOM     63  C   UNL A   1      48.825  27.417  26.141  1.00  0.00     0.064 A 
ATOM     64  C   UNL A   1      49.863  27.068  27.018  1.00  0.00     0.173 A 
ATOM     65  C   UNL A   1      49.102  27.419  24.766  1.00  0.00     0.173 A 
ATOM     66  F   UNL A   1      49.653  27.058  28.343  1.00  0.00    -0.203 F 
ATOM     67  C   UNL A   1      51.135  26.763  26.539  1.00  0.00     0.198 A 
ATOM     68  C   UNL A   1      50.368  27.086  24.289  1.00  0.00     0.198 A 
ATOM     69  F   UNL A   1      48.144  27.737  23.883  1.00  0.00    -0.203 F 
ATOM     70  F   UNL A   1      52.123  26.480  27.399  1.00  0.00    -0.200 F 
ATOM     71  C   UNL A   1      51.384  26.767  25.175  1.00  0.00     0.200 A 
ATOM     72  F   UNL A   1      50.604  27.079  22.969  1.00  0.00    -0.200 F 
ATOM     73  F   UNL A   1      52.607  26.470  24.715  1.00  0.00    -0.200 F 
ENDBRANCH  49  63
BRANCH  50  74
ATOM     74  C   UNL A   1      39.716  29.060  29.819  1.00  0.00     0.064 A 
ATOM     75  C   UNL A   1      38.685  29.492  28.974  1.00  0.00     0.173 A 
ATOM     76  C   UNL A   1      39.418  28.875  31.175  1.00  0.00     0.173 A 
ATOM     77  F   UNL A   1      38.929  29.703  27.673  1.00  0.00    -0.203 F 
ATOM     78  C   UNL A   1      37.408  29.745  29.471  1.00  0.00     0.198 A 
ATOM     79  C   UNL A   1      38.135  29.104  31.666  1.00  0.00     0.198 A 
ATOM     80  F   UNL A   1      40.372  28.458  32.022  1.00  0.00    -0.203 F 
ATOM     81  F   UNL A   1      36.449  30.196  28.649  1.00  0.00    -0.200 F 
ATOM     82  C   UNL A   1      37.133  29.546  30.815  1.00  0.00     0.200 A 
ATOM     83  F   UNL A   1      37.869  28.898  32.963  1.00  0.00    -0.200 F 
ATOM     84  F   UNL A   1      35.903  29.784  31.291  1.00  0.00    -0.200 F 
ENDBRANCH  50  74
BRANCH  62  85
ATOM     85  C   UNL A   1      45.190  33.163  28.570  1.00  0.00     0.064 A 
ATOM     86  C   UNL A   1      45.771  33.676  29.740  1.00  0.00     0.173 A 
ATOM     87  C   UNL A   1      44.814  34.073  27.571  1.00  0.00     0.173 A 
ATOM     88  F   UNL A   1      46.132  32.849  30.732  1.00  0.00    -0.203 F 
ATOM     89  C   UNL A   1      45.934  35.048  29.916  1.00  0.00     0.198 A 
ATOM     90  C   UNL A   1      45.005  35.442  27.738  1.00  0.00     0.198 A 
ATOM     91  F   UNL A   1      44.259  33.635  26.430  1.00  0.00    -0.203 F 
ATOM     92  F   UNL A   1      46.436  35.517  31.067  1.00  0.00    -0.200 F 
ATOM     93  C   UNL A   1      45.556  35.929  28.914  1.00  0.00     0.200 A 
ATOM     94  F   UNL A   1      44.648  36.291  26.765  1.00  0.00    -0.200 F 
ATOM     95  F   UNL A   1      45.708  37.249  29.089  1.00  0.00    -0.200 F 
ENDBRANCH  62  85
ENDBRANCH  36  37
ENDBRANCH  28  31
ENDBRANCH  26  27
ENDBRANCH  25  26
ENDBRANCH  24  25
ENDBRANCH   1  24
TORSDOF 15
ENDMDL
