MODEL 1
REMARK VINA RESULT:     -12.0      0.000      0.000
REMARK SMILES O=C(NCCCCNC(=O)[C@H]1SC=C[C@@H]1S(=O)(=O)NCCC1=c2ccccc2=NC1)c1ccc(-c2c3nc(c(-c4c(F)c(F)c(F)c(F)c4F)c4ccc([nH]4)c(-c4c(F)c(F)c(F)c(F)c4F)c4nc(c(-c5c(F)c(F)c(F)c(F)c5F)c5ccc2[nH]5)C=C4)C=C3)cc1
REMARK SMILES IDX 7 1 6 2 5 3 4 4 3 5 1 6 2 7 31 9 32 10 93 11 33 12 92 13
REMARK SMILES IDX 34 14 35 15 36 16 86 17 37 18 91 19 85 20 87 21 38 22 90 23
REMARK SMILES IDX 84 24 83 25 39 27 71 28 51 29 70 30 52 31 55 32 69 33 88 34
REMARK SMILES IDX 53 35 54 36 68 38 89 39 56 40 40 41 41 42 49 43 42 44 43 45
REMARK SMILES IDX 47 46 50 47 44 48 45 49 48 50 46 51 72 52 73 53 81 54 74 55
REMARK SMILES IDX 75 56 79 57 82 58 76 59 77 60 80 61 78 62 57 63 58 64 66 65
REMARK SMILES IDX 59 66 60 67 64 68 67 69 61 70 62 71 65 72 63 73 8 74 9 75
REMARK SMILES IDX 10 77 11 78 12 79 15 80 13 81 14 82 16 83 17 84 18 85 19 86
REMARK SMILES IDX 20 88 21 89 22 90 23 91 30 92 24 93 28 94 29 95 25 96 27 97
REMARK SMILES IDX 26 98
REMARK H PARENT 3 8 87 26 55 37 8 76 19 87
REMARK Flexibility Score: inf
ROOT
ATOM      1  C   UNL A   1      35.797  20.959  25.055  1.00  0.00     0.116 C 
ENDROOT
BRANCH   1   2
ATOM      2  C   UNL A   1      37.263  21.105  24.682  1.00  0.00     0.023 C 
BRANCH   2   3
ATOM      3  C   UNL A   1      38.113  19.870  24.954  1.00  0.00     0.023 C 
BRANCH   3   4
ATOM      4  C   UNL A   1      39.164  20.042  26.040  1.00  0.00     0.116 C 
BRANCH   4   5
ATOM      5  N   UNL A   1      40.289  19.130  25.893  1.00  0.00    -0.352 N 
ATOM      6  O   UNL A   1      42.456  18.530  25.688  1.00  0.00    -0.269 OA
ATOM      7  C   UNL A   1      41.634  19.389  25.989  1.00  0.00     0.251 C 
ATOM      8  H   UNL A   1      40.052  18.196  25.697  1.00  0.00     0.163 HD
BRANCH   7   9
ATOM      9  C   UNL A   1      42.086  20.723  26.432  1.00  0.00     0.039 A 
ATOM     10  C   UNL A   1      42.317  21.711  25.474  1.00  0.00     0.014 A 
ATOM     11  C   UNL A   1      42.258  21.005  27.789  1.00  0.00     0.014 A 
ATOM     12  C   UNL A   1      42.671  22.997  25.886  1.00  0.00     0.010 A 
ATOM     13  C   UNL A   1      42.491  22.310  28.201  1.00  0.00     0.010 A 
ATOM     14  C   UNL A   1      42.733  23.315  27.253  1.00  0.00    -0.014 A 
BRANCH  14  15
ATOM     15  C   UNL A   1      43.120  24.676  27.705  1.00  0.00     0.031 A 
ATOM     16  C   UNL A   1      44.577  25.057  27.755  1.00  0.00     0.074 A 
ATOM     17  C   UNL A   1      42.173  25.560  28.076  1.00  0.00     0.049 A 
ATOM     18  N   UNL A   1      45.121  26.191  28.117  1.00  0.00    -0.248 NA
ATOM     19  C   UNL A   1      45.558  24.023  27.380  1.00  0.00     0.031 C 
ATOM     20  C   UNL A   1      40.735  25.289  28.120  1.00  0.00     0.029 A 
ATOM     21  N   UNL A   1      42.274  26.870  28.474  1.00  0.00    -0.354 N 
ATOM     22  C   UNL A   1      46.493  26.000  28.018  1.00  0.00     0.074 A 
ATOM     23  C   UNL A   1      46.709  24.624  27.641  1.00  0.00     0.031 C 
ATOM     24  C   UNL A   1      40.085  26.412  28.468  1.00  0.00     0.029 A 
ATOM     25  C   UNL A   1      41.061  27.472  28.711  1.00  0.00     0.049 A 
ATOM     26  H   UNL A   1      43.135  27.336  28.581  1.00  0.00     0.167 HD
ATOM     27  C   UNL A   1      47.485  26.904  28.179  1.00  0.00     0.037 A 
ATOM     28  C   UNL A   1      40.770  28.738  29.072  1.00  0.00     0.037 A 
ATOM     29  C   UNL A   1      47.264  28.286  28.498  1.00  0.00     0.049 A 
ATOM     30  C   UNL A   1      41.895  29.724  29.250  1.00  0.00     0.074 A 
ATOM     31  C   UNL A   1      48.200  29.296  28.626  1.00  0.00     0.029 A 
ATOM     32  N   UNL A   1      46.021  28.854  28.727  1.00  0.00    -0.354 N 
ATOM     33  N   UNL A   1      43.183  29.545  29.082  1.00  0.00    -0.248 NA
ATOM     34  C   UNL A   1      41.532  31.086  29.665  1.00  0.00     0.031 C 
ATOM     35  C   UNL A   1      47.527  30.466  28.980  1.00  0.00     0.029 A 
ATOM     36  C   UNL A   1      46.168  30.198  29.017  1.00  0.00     0.049 A 
ATOM     37  H   UNL A   1      45.162  28.373  28.690  1.00  0.00     0.167 HD
ATOM     38  C   UNL A   1      43.777  30.773  29.337  1.00  0.00     0.074 A 
ATOM     39  C   UNL A   1      42.710  31.695  29.663  1.00  0.00     0.031 C 
ATOM     40  C   UNL A   1      45.088  31.106  29.305  1.00  0.00     0.037 A 
BRANCH  27  41
ATOM     41  C   UNL A   1      48.899  26.451  27.970  1.00  0.00     0.064 A 
ATOM     42  C   UNL A   1      49.453  26.365  26.685  1.00  0.00     0.173 A 
ATOM     43  C   UNL A   1      49.738  26.204  29.066  1.00  0.00     0.173 A 
ATOM     44  F   UNL A   1      48.688  26.580  25.604  1.00  0.00    -0.203 F 
ATOM     45  C   UNL A   1      50.794  26.041  26.503  1.00  0.00     0.198 A 
ATOM     46  C   UNL A   1      51.086  25.910  28.884  1.00  0.00     0.198 A 
ATOM     47  F   UNL A   1      49.258  26.278  30.316  1.00  0.00    -0.203 F 
ATOM     48  F   UNL A   1      51.296  25.940  25.265  1.00  0.00    -0.200 F 
ATOM     49  C   UNL A   1      51.613  25.829  27.603  1.00  0.00     0.200 A 
ATOM     50  F   UNL A   1      51.879  25.722  29.946  1.00  0.00    -0.200 F 
ATOM     51  F   UNL A   1      52.911  25.547  27.428  1.00  0.00    -0.200 F 
ENDBRANCH  27  41
BRANCH  28  52
ATOM     52  C   UNL A   1      39.353  29.156  29.241  1.00  0.00     0.064 A 
ATOM     53  C   UNL A   1      38.593  29.590  28.145  1.00  0.00     0.173 A 
ATOM     54  C   UNL A   1      38.725  29.132  30.496  1.00  0.00     0.173 A 
ATOM     55  F   UNL A   1      39.151  29.649  26.926  1.00  0.00    -0.203 F 
ATOM     56  C   UNL A   1      37.269  29.998  28.297  1.00  0.00     0.198 A 
ATOM     57  C   UNL A   1      37.392  29.511  30.643  1.00  0.00     0.198 A 
ATOM     58  F   UNL A   1      39.402  28.722  31.578  1.00  0.00    -0.203 F 
ATOM     59  F   UNL A   1      36.582  30.448  27.239  1.00  0.00    -0.200 F 
ATOM     60  C   UNL A   1      36.667  29.952  29.546  1.00  0.00     0.200 A 
ATOM     61  F   UNL A   1      36.809  29.450  31.848  1.00  0.00    -0.200 F 
ATOM     62  F   UNL A   1      35.392  30.338  29.692  1.00  0.00    -0.200 F 
ENDBRANCH  28  52
BRANCH  40  63
ATOM     63  C   UNL A   1      45.469  32.528  29.592  1.00  0.00     0.064 A 
ATOM     64  C   UNL A   1      45.464  33.501  28.585  1.00  0.00     0.173 A 
ATOM     65  C   UNL A   1      45.691  32.943  30.915  1.00  0.00     0.173 A 
ATOM     66  F   UNL A   1      45.263  33.149  27.307  1.00  0.00    -0.203 F 
ATOM     67  C   UNL A   1      45.662  34.845  28.893  1.00  0.00     0.198 A 
ATOM     68  C   UNL A   1      45.861  34.289  31.221  1.00  0.00     0.198 A 
ATOM     69  F   UNL A   1      45.691  32.048  31.914  1.00  0.00    -0.203 F 
ATOM     70  F   UNL A   1      45.662  35.760  27.914  1.00  0.00    -0.200 F 
ATOM     71  C   UNL A   1      45.844  35.239  30.210  1.00  0.00     0.200 A 
ATOM     72  F   UNL A   1      46.013  34.671  32.498  1.00  0.00    -0.200 F 
ATOM     73  F   UNL A   1      45.996  36.536  30.508  1.00  0.00    -0.200 F 
ENDBRANCH  40  63
ENDBRANCH  14  15
ENDBRANCH   7   9
ENDBRANCH   4   5
ENDBRANCH   3   4
ENDBRANCH   2   3
ENDBRANCH   1   2
BRANCH   1  74
ATOM     74  N   UNL A   1      35.492  21.448  26.388  1.00  0.00    -0.355 N 
ATOM     75  C   UNL A   1      34.356  22.110  26.777  1.00  0.00     0.235 C 
ATOM     76  H   UNL A   1      36.169  21.286  27.084  1.00  0.00     0.163 HD
ATOM     77  O   UNL A   1      34.196  22.345  27.974  1.00  0.00    -0.274 OA
BRANCH  75  78
ATOM     78  C   UNL A   1      33.390  22.568  25.696  1.00  0.00     0.163 C 
ATOM     79  S   UNL A   1      31.689  22.717  26.408  1.00  0.00    -0.119 SA
ATOM     80  C   UNL A   1      33.729  23.964  25.183  1.00  0.00     0.170 C 
ATOM     81  C   UNL A   1      31.791  24.434  26.530  1.00  0.00     0.038 C 
ATOM     82  C   UNL A   1      32.838  24.953  25.887  1.00  0.00     0.002 C 
BRANCH  80  83
ATOM     83  S   UNL A   1      33.525  24.012  23.382  1.00  0.00     0.219 S 
ATOM     84  O   UNL A   1      34.840  23.954  22.783  1.00  0.00    -0.212 OA
ATOM     85  O   UNL A   1      32.521  23.048  22.978  1.00  0.00    -0.212 OA
BRANCH  83  86
ATOM     86  N   UNL A   1      32.828  25.472  22.991  1.00  0.00    -0.214 NA
ATOM     87  H   UNL A   1      32.851  26.029  23.845  1.00  0.00     0.141 HD
BRANCH  86  88
ATOM     88  C   UNL A   1      33.324  26.351  21.932  1.00  0.00     0.103 C 
BRANCH  88  89
ATOM     89  C   UNL A   1      33.734  27.753  22.388  1.00  0.00     0.050 C 
BRANCH  89  90
ATOM     90  C   UNL A   1      32.877  28.409  23.428  1.00  0.00    -0.038 C 
ATOM     91  C   UNL A   1      33.063  28.607  24.732  1.00  0.00     0.001 A 
ATOM     92  C   UNL A   1      31.512  28.884  23.021  1.00  0.00     0.174 C 
ATOM     93  C   UNL A   1      34.078  28.317  25.692  1.00  0.00     0.010 A 
ATOM     94  C   UNL A   1      31.821  29.292  25.137  1.00  0.00     0.065 A 
ATOM     95  N   UNL A   1      30.909  29.478  24.232  1.00  0.00    -0.280 NA
ATOM     96  C   UNL A   1      33.942  28.754  26.954  1.00  0.00     0.001 A 
ATOM     97  C   UNL A   1      31.730  29.727  26.548  1.00  0.00     0.028 A 
ATOM     98  C   UNL A   1      32.759  29.481  27.375  1.00  0.00     0.002 A 
ENDBRANCH  89  90
ENDBRANCH  88  89
ENDBRANCH  86  88
ENDBRANCH  83  86
ENDBRANCH  80  83
ENDBRANCH  75  78
ENDBRANCH   1  74
TORSDOF 16
ENDMDL
MODEL 2
REMARK VINA RESULT:     -11.9      0.463      7.258
REMARK SMILES O=C(NCCCCNC(=O)[C@H]1SC=C[C@@H]1S(=O)(=O)NCCC1=c2ccccc2=NC1)c1ccc(-c2c3nc(c(-c4c(F)c(F)c(F)c(F)c4F)c4ccc([nH]4)c(-c4c(F)c(F)c(F)c(F)c4F)c4nc(c(-c5c(F)c(F)c(F)c(F)c5F)c5ccc2[nH]5)C=C4)C=C3)cc1
REMARK SMILES IDX 7 1 6 2 5 3 4 4 3 5 1 6 2 7 31 9 32 10 93 11 33 12 92 13
REMARK SMILES IDX 34 14 35 15 36 16 86 17 37 18 91 19 85 20 87 21 38 22 90 23
REMARK SMILES IDX 84 24 83 25 39 27 71 28 51 29 70 30 52 31 55 32 69 33 88 34
REMARK SMILES IDX 53 35 54 36 68 38 89 39 56 40 40 41 41 42 49 43 42 44 43 45
REMARK SMILES IDX 47 46 50 47 44 48 45 49 48 50 46 51 72 52 73 53 81 54 74 55
REMARK SMILES IDX 75 56 79 57 82 58 76 59 77 60 80 61 78 62 57 63 58 64 66 65
REMARK SMILES IDX 59 66 60 67 64 68 67 69 61 70 62 71 65 72 63 73 8 74 9 75
REMARK SMILES IDX 10 77 11 78 12 79 15 80 13 81 14 82 16 83 17 84 18 85 19 86
REMARK SMILES IDX 20 88 21 89 22 90 23 91 30 92 24 93 28 94 29 95 25 96 27 97
REMARK SMILES IDX 26 98
REMARK H PARENT 3 8 87 26 55 37 8 76 19 87
REMARK Flexibility Score: inf
ROOT
ATOM      1  C   UNL A   1      35.800  20.932  25.062  1.00  0.00     0.116 C 
ENDROOT
BRANCH   1   2
ATOM      2  C   UNL A   1      37.252  21.073  24.637  1.00  0.00     0.023 C 
BRANCH   2   3
ATOM      3  C   UNL A   1      38.127  19.867  24.955  1.00  0.00     0.023 C 
BRANCH   3   4
ATOM      4  C   UNL A   1      39.197  20.111  26.008  1.00  0.00     0.116 C 
BRANCH   4   5
ATOM      5  N   UNL A   1      40.283  19.145  25.951  1.00  0.00    -0.352 N 
ATOM      6  O   UNL A   1      42.425  18.440  25.846  1.00  0.00    -0.269 OA
ATOM      7  C   UNL A   1      41.636  19.351  26.070  1.00  0.00     0.251 C 
ATOM      8  H   UNL A   1      40.010  18.211  25.807  1.00  0.00     0.163 HD
BRANCH   7   9
ATOM      9  C   UNL A   1      42.136  20.691  26.440  1.00  0.00     0.039 A 
ATOM     10  C   UNL A   1      42.457  21.596  25.428  1.00  0.00     0.014 A 
ATOM     11  C   UNL A   1      42.262  21.059  27.781  1.00  0.00     0.014 A 
ATOM     12  C   UNL A   1      42.858  22.889  25.767  1.00  0.00     0.010 A 
ATOM     13  C   UNL A   1      42.544  22.378  28.112  1.00  0.00     0.010 A 
ATOM     14  C   UNL A   1      42.877  23.300  27.110  1.00  0.00    -0.014 A 
BRANCH  14  15
ATOM     15  C   UNL A   1      43.313  24.670  27.484  1.00  0.00     0.031 A 
ATOM     16  C   UNL A   1      42.282  25.705  27.851  1.00  0.00     0.074 A 
ATOM     17  C   UNL A   1      44.623  24.985  27.485  1.00  0.00     0.049 A 
ATOM     18  N   UNL A   1      42.455  26.952  28.208  1.00  0.00    -0.248 NA
ATOM     19  C   UNL A   1      40.866  25.300  27.782  1.00  0.00     0.031 C 
ATOM     20  C   UNL A   1      45.710  24.085  27.097  1.00  0.00     0.029 A 
ATOM     21  N   UNL A   1      45.267  26.147  27.835  1.00  0.00    -0.354 N 
ATOM     22  C   UNL A   1      41.181  27.471  28.395  1.00  0.00     0.074 A 
ATOM     23  C   UNL A   1      40.239  26.438  28.039  1.00  0.00     0.031 C 
ATOM     24  C   UNL A   1      46.886  24.707  27.283  1.00  0.00     0.029 A 
ATOM     25  C   UNL A   1      46.637  26.063  27.766  1.00  0.00     0.049 A 
ATOM     26  H   UNL A   1      44.791  26.964  28.111  1.00  0.00     0.167 HD
ATOM     27  C   UNL A   1      40.826  28.686  28.869  1.00  0.00     0.037 A 
ATOM     28  C   UNL A   1      47.584  26.974  28.068  1.00  0.00     0.037 A 
ATOM     29  C   UNL A   1      41.766  29.692  29.276  1.00  0.00     0.049 A 
ATOM     30  C   UNL A   1      47.161  28.323  28.589  1.00  0.00     0.074 A 
ATOM     31  C   UNL A   1      41.506  30.935  29.824  1.00  0.00     0.029 A 
ATOM     32  N   UNL A   1      43.143  29.566  29.191  1.00  0.00    -0.354 N 
ATOM     33  N   UNL A   1      45.953  28.773  28.828  1.00  0.00    -0.248 NA
ATOM     34  C   UNL A   1      48.227  29.291  28.885  1.00  0.00     0.031 C 
ATOM     35  C   UNL A   1      42.727  31.581  30.027  1.00  0.00     0.029 A 
ATOM     36  C   UNL A   1      43.747  30.719  29.658  1.00  0.00     0.049 A 
ATOM     37  H   UNL A   1      43.620  28.774  28.849  1.00  0.00     0.167 HD
ATOM     38  C   UNL A   1      46.115  30.056  29.331  1.00  0.00     0.074 A 
ATOM     39  C   UNL A   1      47.538  30.314  29.372  1.00  0.00     0.031 C 
ATOM     40  C   UNL A   1      45.168  30.941  29.722  1.00  0.00     0.037 A 
BRANCH  27  41
ATOM     41  C   UNL A   1      39.366  28.990  29.021  1.00  0.00     0.064 A 
ATOM     42  C   UNL A   1      38.727  28.891  30.267  1.00  0.00     0.173 A 
ATOM     43  C   UNL A   1      38.623  29.485  27.939  1.00  0.00     0.173 A 
ATOM     44  F   UNL A   1      39.390  28.411  31.329  1.00  0.00    -0.203 F 
ATOM     45  C   UNL A   1      37.397  29.270  30.422  1.00  0.00     0.198 A 
ATOM     46  C   UNL A   1      37.303  29.892  28.104  1.00  0.00     0.198 A 
ATOM     47  F   UNL A   1      39.189  29.605  26.729  1.00  0.00    -0.203 F 
ATOM     48  F   UNL A   1      36.800  29.144  31.614  1.00  0.00    -0.200 F 
ATOM     49  C   UNL A   1      36.691  29.785  29.344  1.00  0.00     0.200 A 
ATOM     50  F   UNL A   1      36.626  30.405  27.067  1.00  0.00    -0.200 F 
ATOM     51  F   UNL A   1      35.420  30.178  29.502  1.00  0.00    -0.200 F 
ENDBRANCH  27  41
BRANCH  28  52
ATOM     52  C   UNL A   1      49.023  26.625  27.931  1.00  0.00     0.064 A 
ATOM     53  C   UNL A   1      49.649  26.627  26.676  1.00  0.00     0.173 A 
ATOM     54  C   UNL A   1      49.806  26.284  29.045  1.00  0.00     0.173 A 
ATOM     55  F   UNL A   1      48.941  26.928  25.576  1.00  0.00    -0.203 F 
ATOM     56  C   UNL A   1      50.993  26.286  26.536  1.00  0.00     0.198 A 
ATOM     57  C   UNL A   1      51.157  25.972  28.909  1.00  0.00     0.198 A 
ATOM     58  F   UNL A   1      49.261  26.270  30.270  1.00  0.00    -0.203 F 
ATOM     59  F   UNL A   1      51.552  26.254  25.319  1.00  0.00    -0.200 F 
ATOM     60  C   UNL A   1      51.748  25.965  27.654  1.00  0.00     0.200 A 
ATOM     61  F   UNL A   1      51.888  25.679  29.994  1.00  0.00    -0.200 F 
ATOM     62  F   UNL A   1      53.042  25.643  27.522  1.00  0.00    -0.200 F 
ENDBRANCH  28  52
BRANCH  40  63
ATOM     63  C   UNL A   1      45.614  32.266  30.265  1.00  0.00     0.064 A 
ATOM     64  C   UNL A   1      45.945  32.426  31.617  1.00  0.00     0.173 A 
ATOM     65  C   UNL A   1      45.854  33.339  29.393  1.00  0.00     0.173 A 
ATOM     66  F   UNL A   1      45.726  31.429  32.488  1.00  0.00    -0.203 F 
ATOM     67  C   UNL A   1      46.509  33.612  32.076  1.00  0.00     0.198 A 
ATOM     68  C   UNL A   1      46.443  34.513  29.851  1.00  0.00     0.198 A 
ATOM     69  F   UNL A   1      45.565  33.227  28.087  1.00  0.00    -0.203 F 
ATOM     70  F   UNL A   1      46.811  33.749  33.375  1.00  0.00    -0.200 F 
ATOM     71  C   UNL A   1      46.772  34.648  31.191  1.00  0.00     0.200 A 
ATOM     72  F   UNL A   1      46.718  35.504  28.990  1.00  0.00    -0.200 F 
ATOM     73  F   UNL A   1      47.350  35.775  31.629  1.00  0.00    -0.200 F 
ENDBRANCH  40  63
ENDBRANCH  14  15
ENDBRANCH   7   9
ENDBRANCH   4   5
ENDBRANCH   3   4
ENDBRANCH   2   3
ENDBRANCH   1   2
BRANCH   1  74
ATOM     74  N   UNL A   1      35.526  21.504  26.369  1.00  0.00    -0.355 N 
ATOM     75  C   UNL A   1      34.401  22.193  26.740  1.00  0.00     0.235 C 
ATOM     76  H   UNL A   1      36.218  21.382  27.058  1.00  0.00     0.163 HD
ATOM     77  O   UNL A   1      34.267  22.502  27.924  1.00  0.00    -0.274 OA
BRANCH  75  78
ATOM     78  C   UNL A   1      33.412  22.587  25.654  1.00  0.00     0.163 C 
ATOM     79  S   UNL A   1      31.710  22.685  26.373  1.00  0.00    -0.119 SA
ATOM     80  C   UNL A   1      33.693  23.983  25.108  1.00  0.00     0.170 C 
ATOM     81  C   UNL A   1      31.744  24.406  26.455  1.00  0.00     0.038 C 
ATOM     82  C   UNL A   1      32.766  24.952  25.794  1.00  0.00     0.002 C 
BRANCH  80  83
ATOM     83  S   UNL A   1      33.478  23.982  23.307  1.00  0.00     0.219 S 
ATOM     84  O   UNL A   1      34.793  23.960  22.703  1.00  0.00    -0.212 OA
ATOM     85  O   UNL A   1      32.510  22.971  22.932  1.00  0.00    -0.212 OA
BRANCH  83  86
ATOM     86  N   UNL A   1      32.725  25.405  22.887  1.00  0.00    -0.214 NA
ATOM     87  H   UNL A   1      32.700  25.968  23.737  1.00  0.00     0.141 HD
BRANCH  86  88
ATOM     88  C   UNL A   1      33.206  26.298  21.833  1.00  0.00     0.103 C 
BRANCH  88  89
ATOM     89  C   UNL A   1      33.673  27.676  22.309  1.00  0.00     0.050 C 
BRANCH  89  90
ATOM     90  C   UNL A   1      32.824  28.365  23.334  1.00  0.00    -0.038 C 
ATOM     91  C   UNL A   1      33.009  28.582  24.636  1.00  0.00     0.001 A 
ATOM     92  C   UNL A   1      31.469  28.858  22.914  1.00  0.00     0.174 C 
ATOM     93  C   UNL A   1      34.014  28.291  25.604  1.00  0.00     0.010 A 
ATOM     94  C   UNL A   1      31.778  29.297  25.023  1.00  0.00     0.065 A 
ATOM     95  N   UNL A   1      30.873  29.484  24.112  1.00  0.00    -0.280 NA
ATOM     96  C   UNL A   1      33.882  28.752  26.858  1.00  0.00     0.001 A 
ATOM     97  C   UNL A   1      31.690  29.758  26.426  1.00  0.00     0.028 A 
ATOM     98  C   UNL A   1      32.711  29.508  27.262  1.00  0.00     0.002 A 
ENDBRANCH  89  90
ENDBRANCH  88  89
ENDBRANCH  86  88
ENDBRANCH  83  86
ENDBRANCH  80  83
ENDBRANCH  75  78
ENDBRANCH   1  74
TORSDOF 16
ENDMDL
MODEL 3
REMARK VINA RESULT:     -11.7      5.093     10.557
REMARK SMILES O=C(NCCCCNC(=O)[C@H]1SC=C[C@@H]1S(=O)(=O)NCCC1=c2ccccc2=NC1)c1ccc(-c2c3nc(c(-c4c(F)c(F)c(F)c(F)c4F)c4ccc([nH]4)c(-c4c(F)c(F)c(F)c(F)c4F)c4nc(c(-c5c(F)c(F)c(F)c(F)c5F)c5ccc2[nH]5)C=C4)C=C3)cc1
REMARK SMILES IDX 7 1 6 2 5 3 4 4 3 5 1 6 2 7 31 9 32 10 93 11 33 12 92 13
REMARK SMILES IDX 34 14 35 15 36 16 86 17 37 18 91 19 85 20 87 21 38 22 90 23
REMARK SMILES IDX 84 24 83 25 39 27 71 28 51 29 70 30 52 31 55 32 69 33 88 34
REMARK SMILES IDX 53 35 54 36 68 38 89 39 56 40 40 41 41 42 49 43 42 44 43 45
REMARK SMILES IDX 47 46 50 47 44 48 45 49 48 50 46 51 72 52 73 53 81 54 74 55
REMARK SMILES IDX 75 56 79 57 82 58 76 59 77 60 80 61 78 62 57 63 58 64 66 65
REMARK SMILES IDX 59 66 60 67 64 68 67 69 61 70 62 71 65 72 63 73 8 74 9 75
REMARK SMILES IDX 10 77 11 78 12 79 15 80 13 81 14 82 16 83 17 84 18 85 19 86
REMARK SMILES IDX 20 88 21 89 22 90 23 91 30 92 24 93 28 94 29 95 25 96 27 97
REMARK SMILES IDX 26 98
REMARK H PARENT 3 8 87 26 55 37 8 76 19 87
REMARK Flexibility Score: inf
ROOT
ATOM      1  C   UNL A   1      32.701  30.230  26.581  1.00  0.00     0.116 C 
ENDROOT
BRANCH   1   2
ATOM      2  C   UNL A   1      31.363  30.917  26.360  1.00  0.00     0.023 C 
BRANCH   2   3
ATOM      3  C   UNL A   1      31.398  32.435  26.490  1.00  0.00     0.023 C 
BRANCH   3   4
ATOM      4  C   UNL A   1      32.601  32.987  27.241  1.00  0.00     0.116 C 
BRANCH   4   5
ATOM      5  N   UNL A   1      32.386  34.333  27.748  1.00  0.00    -0.352 N 
ATOM      6  O   UNL A   1      32.623  36.077  29.162  1.00  0.00    -0.269 OA
ATOM      7  C   UNL A   1      33.033  34.992  28.764  1.00  0.00     0.251 C 
ATOM      8  H   UNL A   1      31.676  34.845  27.298  1.00  0.00     0.163 HD
BRANCH   7   9
ATOM      9  C   UNL A   1      34.213  34.368  29.397  1.00  0.00     0.039 A 
ATOM     10  C   UNL A   1      34.028  33.540  30.504  1.00  0.00     0.014 A 
ATOM     11  C   UNL A   1      35.494  34.581  28.883  1.00  0.00     0.014 A 
ATOM     12  C   UNL A   1      35.127  32.886  31.063  1.00  0.00     0.010 A 
ATOM     13  C   UNL A   1      36.564  33.838  29.363  1.00  0.00     0.010 A 
ATOM     14  C   UNL A   1      36.399  33.006  30.480  1.00  0.00    -0.014 A 
BRANCH  14  15
ATOM     15  C   UNL A   1      37.579  32.325  31.072  1.00  0.00     0.031 A 
ATOM     16  C   UNL A   1      38.038  32.700  32.457  1.00  0.00     0.074 A 
ATOM     17  C   UNL A   1      38.239  31.384  30.368  1.00  0.00     0.049 A 
ATOM     18  N   UNL A   1      39.040  32.225  33.151  1.00  0.00    -0.248 NA
ATOM     19  C   UNL A   1      37.296  33.771  33.146  1.00  0.00     0.031 C 
ATOM     20  C   UNL A   1      37.921  30.973  29.000  1.00  0.00     0.029 A 
ATOM     21  N   UNL A   1      39.306  30.590  30.711  1.00  0.00    -0.354 N 
ATOM     22  C   UNL A   1      39.047  32.940  34.341  1.00  0.00     0.074 A 
ATOM     23  C   UNL A   1      38.006  33.935  34.252  1.00  0.00     0.031 C 
ATOM     24  C   UNL A   1      38.737  29.969  28.640  1.00  0.00     0.029 A 
ATOM     25  C   UNL A   1      39.662  29.690  29.736  1.00  0.00     0.049 A 
ATOM     26  H   UNL A   1      39.774  30.660  31.575  1.00  0.00     0.167 HD
ATOM     27  C   UNL A   1      39.821  32.751  35.434  1.00  0.00     0.037 A 
ATOM     28  C   UNL A   1      40.619  28.739  29.732  1.00  0.00     0.037 A 
ATOM     29  C   UNL A   1      40.818  31.724  35.542  1.00  0.00     0.049 A 
ATOM     30  C   UNL A   1      41.471  28.556  30.960  1.00  0.00     0.074 A 
ATOM     31  C   UNL A   1      41.615  31.415  36.628  1.00  0.00     0.029 A 
ATOM     32  N   UNL A   1      41.144  30.833  34.532  1.00  0.00    -0.354 N 
ATOM     33  N   UNL A   1      41.417  29.192  32.105  1.00  0.00    -0.248 NA
ATOM     34  C   UNL A   1      42.515  27.522  30.902  1.00  0.00     0.031 C 
ATOM     35  C   UNL A   1      42.459  30.366  36.260  1.00  0.00     0.029 A 
ATOM     36  C   UNL A   1      42.148  29.985  34.965  1.00  0.00     0.049 A 
ATOM     37  H   UNL A   1      40.726  30.807  33.641  1.00  0.00     0.167 HD
ATOM     38  C   UNL A   1      42.390  28.618  32.910  1.00  0.00     0.074 A 
ATOM     39  C   UNL A   1      43.018  27.574  32.128  1.00  0.00     0.031 C 
ATOM     40  C   UNL A   1      42.734  28.929  34.181  1.00  0.00     0.037 A 
BRANCH  27  41
ATOM     41  C   UNL A   1      39.599  33.639  36.622  1.00  0.00     0.064 A 
ATOM     42  C   UNL A   1      38.755  33.251  37.673  1.00  0.00     0.173 A 
ATOM     43  C   UNL A   1      40.316  34.836  36.762  1.00  0.00     0.173 A 
ATOM     44  F   UNL A   1      38.038  32.121  37.581  1.00  0.00    -0.203 F 
ATOM     45  C   UNL A   1      38.631  34.032  38.818  1.00  0.00     0.198 A 
ATOM     46  C   UNL A   1      40.214  35.600  37.921  1.00  0.00     0.198 A 
ATOM     47  F   UNL A   1      41.141  35.249  35.788  1.00  0.00    -0.203 F 
ATOM     48  F   UNL A   1      37.799  33.655  39.798  1.00  0.00    -0.200 F 
ATOM     49  C   UNL A   1      39.372  35.198  38.947  1.00  0.00     0.200 A 
ATOM     50  F   UNL A   1      40.942  36.717  38.053  1.00  0.00    -0.200 F 
ATOM     51  F   UNL A   1      39.274  35.933  40.063  1.00  0.00    -0.200 F 
ENDBRANCH  27  41
BRANCH  28  52
ATOM     52  C   UNL A   1      40.789  27.860  28.544  1.00  0.00     0.064 A 
ATOM     53  C   UNL A   1      40.110  26.636  28.451  1.00  0.00     0.173 A 
ATOM     54  C   UNL A   1      41.627  28.219  27.479  1.00  0.00     0.173 A 
ATOM     55  F   UNL A   1      39.310  26.236  29.452  1.00  0.00    -0.203 F 
ATOM     56  C   UNL A   1      40.276  25.799  27.349  1.00  0.00     0.198 A 
ATOM     57  C   UNL A   1      41.769  27.396  26.363  1.00  0.00     0.198 A 
ATOM     58  F   UNL A   1      42.297  29.381  27.513  1.00  0.00    -0.203 F 
ATOM     59  F   UNL A   1      39.649  24.616  27.308  1.00  0.00    -0.200 F 
ATOM     60  C   UNL A   1      41.100  26.183  26.302  1.00  0.00     0.200 A 
ATOM     61  F   UNL A   1      42.554  27.779  25.346  1.00  0.00    -0.200 F 
ATOM     62  F   UNL A   1      41.255  25.382  25.239  1.00  0.00    -0.200 F 
ENDBRANCH  28  52
BRANCH  40  63
ATOM     63  C   UNL A   1      43.812  28.124  34.844  1.00  0.00     0.064 A 
ATOM     64  C   UNL A   1      43.522  26.926  35.510  1.00  0.00     0.173 A 
ATOM     65  C   UNL A   1      45.160  28.481  34.678  1.00  0.00     0.173 A 
ATOM     66  F   UNL A   1      42.249  26.549  35.697  1.00  0.00    -0.203 F 
ATOM     67  C   UNL A   1      44.545  26.108  35.981  1.00  0.00     0.198 A 
ATOM     68  C   UNL A   1      46.179  27.647  35.126  1.00  0.00     0.198 A 
ATOM     69  F   UNL A   1      45.486  29.613  34.036  1.00  0.00    -0.203 F 
ATOM     70  F   UNL A   1      44.247  24.970  36.622  1.00  0.00    -0.200 F 
ATOM     71  C   UNL A   1      45.871  26.461  35.775  1.00  0.00     0.200 A 
ATOM     72  F   UNL A   1      47.460  27.978  34.906  1.00  0.00    -0.200 F 
ATOM     73  F   UNL A   1      46.854  25.653  36.195  1.00  0.00    -0.200 F 
ENDBRANCH  40  63
ENDBRANCH  14  15
ENDBRANCH   7   9
ENDBRANCH   4   5
ENDBRANCH   3   4
ENDBRANCH   2   3
ENDBRANCH   1   2
BRANCH   1  74
ATOM     74  N   UNL A   1      33.396  29.915  25.345  1.00  0.00    -0.355 N 
ATOM     75  C   UNL A   1      32.940  29.110  24.333  1.00  0.00     0.235 C 
ATOM     76  H   UNL A   1      34.284  30.322  25.221  1.00  0.00     0.163 HD
ATOM     77  O   UNL A   1      33.597  29.046  23.294  1.00  0.00    -0.274 OA
BRANCH  75  78
ATOM     78  C   UNL A   1      31.679  28.297  24.579  1.00  0.00     0.163 C 
ATOM     79  S   UNL A   1      30.387  28.770  23.342  1.00  0.00    -0.119 SA
ATOM     80  C   UNL A   1      31.912  26.806  24.360  1.00  0.00     0.170 C 
ATOM     81  C   UNL A   1      30.664  27.367  22.380  1.00  0.00     0.038 C 
ATOM     82  C   UNL A   1      31.431  26.453  22.977  1.00  0.00     0.002 C 
BRANCH  80  83
ATOM     83  S   UNL A   1      31.053  25.864  25.649  1.00  0.00     0.219 S 
ATOM     84  O   UNL A   1      31.290  26.523  26.915  1.00  0.00    -0.212 OA
ATOM     85  O   UNL A   1      29.690  25.599  25.234  1.00  0.00    -0.212 OA
BRANCH  83  86
ATOM     86  N   UNL A   1      31.734  24.346  25.706  1.00  0.00    -0.214 NA
ATOM     87  H   UNL A   1      32.090  24.237  26.655  1.00  0.00     0.141 HD
BRANCH  86  88
ATOM     88  C   UNL A   1      31.000  23.115  25.412  1.00  0.00     0.103 C 
BRANCH  88  89
ATOM     89  C   UNL A   1      31.822  22.013  24.739  1.00  0.00     0.050 C 
BRANCH  89  90
ATOM     90  C   UNL A   1      33.100  22.426  24.074  1.00  0.00    -0.038 C 
ATOM     91  C   UNL A   1      34.373  22.298  24.447  1.00  0.00     0.001 A 
ATOM     92  C   UNL A   1      33.011  23.199  22.791  1.00  0.00     0.174 C 
ATOM     93  C   UNL A   1      35.080  21.754  25.561  1.00  0.00     0.010 A 
ATOM     94  C   UNL A   1      35.102  22.936  23.334  1.00  0.00     0.065 A 
ATOM     95  N   UNL A   1      34.404  23.462  22.375  1.00  0.00    -0.280 NA
ATOM     96  C   UNL A   1      36.422  21.741  25.552  1.00  0.00     0.001 A 
ATOM     97  C   UNL A   1      36.579  22.902  23.401  1.00  0.00     0.028 A 
ATOM     98  C   UNL A   1      37.173  22.308  24.449  1.00  0.00     0.002 A 
ENDBRANCH  89  90
ENDBRANCH  88  89
ENDBRANCH  86  88
ENDBRANCH  83  86
ENDBRANCH  80  83
ENDBRANCH  75  78
ENDBRANCH   1  74
TORSDOF 16
ENDMDL
