MODEL 1
REMARK VINA RESULT:     -12.8      0.000      0.000
REMARK SMILES O=C(NCCCCNC(=O)[C@@H]1CCC[C@@H](C(=O)N2CCN3C(=O)NC[C@@H]3C2)C1)c1ccc(-c2c3nc(c(-c4c(F)c(F)c(F)c(F)c4F)c4ccc([nH]4)c(-c4c(F)c(F)c(F)c(F)c4F)c4nc(c(-c5c(F)c(F)c(F)c(F)c5F)c5ccc2[nH]5)C=C4)C=C3)cc1
REMARK SMILES IDX 5 1 4 2 3 3 1 4 2 5 29 7 30 8 91 9 31 10 90 11 32 12 33 13
REMARK SMILES IDX 34 14 84 15 35 16 89 17 83 18 85 19 36 20 88 21 82 22 81 23
REMARK SMILES IDX 37 25 69 26 49 27 68 28 50 29 53 30 67 31 86 32 51 33 52 34
REMARK SMILES IDX 66 36 87 37 54 38 38 39 39 40 47 41 40 42 41 43 45 44 48 45
REMARK SMILES IDX 42 46 43 47 46 48 44 49 70 50 71 51 79 52 72 53 73 54 77 55
REMARK SMILES IDX 80 56 74 57 75 58 78 59 76 60 55 61 56 62 64 63 57 64 58 65
REMARK SMILES IDX 62 66 65 67 59 68 60 69 63 70 61 71 6 72 7 73 8 74 9 75
REMARK SMILES IDX 10 77 11 78 12 79 28 80 13 81 15 82 14 83 16 84 17 85 18 86
REMARK SMILES IDX 19 87 27 88 20 89 26 90 21 91 25 92 22 93 24 94 23 95
REMARK H PARENT 3 6 85 24 53 35 8 76 24 96
REMARK Flexibility Score: inf
ROOT
ATOM      1  C   UNL A   1      31.259  32.135  26.603  1.00  0.00     0.023 C 
ENDROOT
BRANCH   1   2
ATOM      2  C   UNL A   1      32.501  32.942  26.940  1.00  0.00     0.116 C 
BRANCH   2   3
ATOM      3  N   UNL A   1      32.228  34.203  27.625  1.00  0.00    -0.352 N 
ATOM      4  O   UNL A   1      32.599  35.784  29.220  1.00  0.00    -0.269 OA
ATOM      5  C   UNL A   1      32.955  34.758  28.656  1.00  0.00     0.251 C 
ATOM      6  H   UNL A   1      31.442  34.709  27.318  1.00  0.00     0.163 HD
BRANCH   5   7
ATOM      7  C   UNL A   1      34.169  34.037  29.077  1.00  0.00     0.039 A 
ATOM      8  C   UNL A   1      34.028  32.965  29.955  1.00  0.00     0.014 A 
ATOM      9  C   UNL A   1      35.427  34.545  28.750  1.00  0.00     0.014 A 
ATOM     10  C   UNL A   1      35.132  32.534  30.666  1.00  0.00     0.010 A 
ATOM     11  C   UNL A   1      36.559  34.001  29.362  1.00  0.00     0.010 A 
ATOM     12  C   UNL A   1      36.417  33.014  30.351  1.00  0.00    -0.014 A 
BRANCH  12  13
ATOM     13  C   UNL A   1      37.578  32.371  31.013  1.00  0.00     0.031 A 
ATOM     14  C   UNL A   1      37.999  32.718  32.412  1.00  0.00     0.074 A 
ATOM     15  C   UNL A   1      38.210  31.395  30.330  1.00  0.00     0.049 A 
ATOM     16  N   UNL A   1      38.964  32.197  33.129  1.00  0.00    -0.248 NA
ATOM     17  C   UNL A   1      37.259  33.788  33.096  1.00  0.00     0.031 C 
ATOM     18  C   UNL A   1      37.893  30.994  28.955  1.00  0.00     0.029 A 
ATOM     19  N   UNL A   1      39.213  30.539  30.697  1.00  0.00    -0.354 N 
ATOM     20  C   UNL A   1      38.956  32.878  34.339  1.00  0.00     0.074 A 
ATOM     21  C   UNL A   1      37.910  33.876  34.250  1.00  0.00     0.031 C 
ATOM     22  C   UNL A   1      38.624  29.924  28.625  1.00  0.00     0.029 A 
ATOM     23  C   UNL A   1      39.538  29.631  29.720  1.00  0.00     0.049 A 
ATOM     24  H   UNL A   1      39.657  30.571  31.576  1.00  0.00     0.167 HD
ATOM     25  C   UNL A   1      39.744  32.677  35.423  1.00  0.00     0.037 A 
ATOM     26  C   UNL A   1      40.490  28.685  29.688  1.00  0.00     0.037 A 
ATOM     27  C   UNL A   1      40.783  31.677  35.494  1.00  0.00     0.049 A 
ATOM     28  C   UNL A   1      41.367  28.513  30.892  1.00  0.00     0.074 A 
ATOM     29  C   UNL A   1      41.634  31.389  36.548  1.00  0.00     0.029 A 
ATOM     30  N   UNL A   1      41.114  30.802  34.468  1.00  0.00    -0.354 N 
ATOM     31  N   UNL A   1      41.333  29.152  32.036  1.00  0.00    -0.248 NA
ATOM     32  C   UNL A   1      42.413  27.490  30.801  1.00  0.00     0.031 C 
ATOM     33  C   UNL A   1      42.512  30.379  36.141  1.00  0.00     0.029 A 
ATOM     34  C   UNL A   1      42.168  29.988  34.858  1.00  0.00     0.049 A 
ATOM     35  H   UNL A   1      40.665  30.763  33.592  1.00  0.00     0.167 HD
ATOM     36  C   UNL A   1      42.347  28.605  32.805  1.00  0.00     0.074 A 
ATOM     37  C   UNL A   1      42.946  27.550  32.011  1.00  0.00     0.031 C 
ATOM     38  C   UNL A   1      42.757  28.949  34.050  1.00  0.00     0.037 A 
BRANCH  25  39
ATOM     39  C   UNL A   1      39.532  33.557  36.624  1.00  0.00     0.064 A 
ATOM     40  C   UNL A   1      38.716  33.158  37.693  1.00  0.00     0.173 A 
ATOM     41  C   UNL A   1      40.215  34.778  36.744  1.00  0.00     0.173 A 
ATOM     42  F   UNL A   1      38.033  32.005  37.629  1.00  0.00    -0.203 F 
ATOM     43  C   UNL A   1      38.579  33.955  38.828  1.00  0.00     0.198 A 
ATOM     44  C   UNL A   1      40.099  35.558  37.893  1.00  0.00     0.198 A 
ATOM     45  F   UNL A   1      41.015  35.205  35.756  1.00  0.00    -0.203 F 
ATOM     46  F   UNL A   1      37.766  33.569  39.822  1.00  0.00    -0.200 F 
ATOM     47  C   UNL A   1      39.278  35.148  38.932  1.00  0.00     0.200 A 
ATOM     48  F   UNL A   1      40.789  36.702  37.997  1.00  0.00    -0.200 F 
ATOM     49  F   UNL A   1      39.158  35.904  40.032  1.00  0.00    -0.200 F 
ENDBRANCH  25  39
BRANCH  26  50
ATOM     50  C   UNL A   1      40.686  27.870  28.460  1.00  0.00     0.064 A 
ATOM     51  C   UNL A   1      41.496  28.318  27.408  1.00  0.00     0.173 A 
ATOM     52  C   UNL A   1      40.055  26.624  28.312  1.00  0.00     0.173 A 
ATOM     53  F   UNL A   1      42.111  29.507  27.496  1.00  0.00    -0.203 F 
ATOM     54  C   UNL A   1      41.639  27.567  26.243  1.00  0.00     0.198 A 
ATOM     55  C   UNL A   1      40.236  25.855  27.166  1.00  0.00     0.198 A 
ATOM     56  F   UNL A   1      39.280  26.142  29.295  1.00  0.00    -0.203 F 
ATOM     57  F   UNL A   1      42.367  28.050  25.227  1.00  0.00    -0.200 F 
ATOM     58  C   UNL A   1      41.015  26.336  26.126  1.00  0.00     0.200 A 
ATOM     59  F   UNL A   1      39.653  24.653  27.072  1.00  0.00    -0.200 F 
ATOM     60  F   UNL A   1      41.157  25.613  25.007  1.00  0.00    -0.200 F 
ENDBRANCH  26  50
BRANCH  38  61
ATOM     61  C   UNL A   1      43.890  28.152  34.629  1.00  0.00     0.064 A 
ATOM     62  C   UNL A   1      43.667  26.970  35.352  1.00  0.00     0.173 A 
ATOM     63  C   UNL A   1      45.216  28.585  34.473  1.00  0.00     0.173 A 
ATOM     64  F   UNL A   1      42.416  26.522  35.545  1.00  0.00    -0.203 F 
ATOM     65  C   UNL A   1      44.723  26.279  35.939  1.00  0.00     0.198 A 
ATOM     66  C   UNL A   1      46.273  27.869  35.028  1.00  0.00     0.198 A 
ATOM     67  F   UNL A   1      45.486  29.704  33.786  1.00  0.00    -0.203 F 
ATOM     68  F   UNL A   1      44.476  25.198  36.692  1.00  0.00    -0.200 F 
ATOM     69  C   UNL A   1      46.024  26.726  35.773  1.00  0.00     0.200 A 
ATOM     70  F   UNL A   1      47.531  28.295  34.853  1.00  0.00    -0.200 F 
ATOM     71  F   UNL A   1      47.040  26.063  36.343  1.00  0.00    -0.200 F 
ENDBRANCH  38  61
ENDBRANCH  12  13
ENDBRANCH   5   7
ENDBRANCH   2   3
ENDBRANCH   1   2
BRANCH   1  72
ATOM     72  C   UNL A   1      31.547  30.716  26.121  1.00  0.00     0.023 C 
BRANCH  72  73
ATOM     73  C   UNL A   1      31.815  29.724  27.251  1.00  0.00     0.116 C 
BRANCH  73  74
ATOM     74  N   UNL A   1      33.230  29.532  27.490  1.00  0.00    -0.356 N 
ATOM     75  C   UNL A   1      34.182  28.796  26.874  1.00  0.00     0.223 C 
ATOM     76  H   UNL A   1      33.568  30.043  28.260  1.00  0.00     0.163 HD
ATOM     77  O   UNL A   1      35.344  28.994  27.252  1.00  0.00    -0.275 OA
BRANCH  75  78
ATOM     78  C   UNL A   1      33.915  27.708  25.833  1.00  0.00     0.079 C 
ATOM     79  C   UNL A   1      33.636  28.279  24.441  1.00  0.00     0.013 C 
ATOM     80  C   UNL A   1      32.982  26.554  26.173  1.00  0.00     0.027 C 
ATOM     81  C   UNL A   1      33.654  27.165  23.391  1.00  0.00     0.002 C 
ATOM     82  C   UNL A   1      32.915  25.440  25.140  1.00  0.00     0.079 C 
ATOM     83  C   UNL A   1      32.696  26.026  23.735  1.00  0.00     0.013 C 
BRANCH  82  84
ATOM     84  C   UNL A   1      33.973  24.325  25.135  1.00  0.00     0.225 C 
ATOM     85  O   UNL A   1      35.162  24.649  25.012  1.00  0.00    -0.275 OA
BRANCH  84  86
ATOM     86  N   UNL A   1      33.654  23.049  25.539  1.00  0.00    -0.339 N 
ATOM     87  C   UNL A   1      32.295  22.498  25.748  1.00  0.00     0.141 C 
ATOM     88  C   UNL A   1      34.741  22.068  25.570  1.00  0.00     0.146 C 
ATOM     89  C   UNL A   1      31.988  21.237  24.920  1.00  0.00     0.143 C 
ATOM     90  C   UNL A   1      34.454  20.860  24.683  1.00  0.00     0.125 C 
ATOM     91  N   UNL A   1      33.122  20.340  24.927  1.00  0.00    -0.317 N 
ATOM     92  C   UNL A   1      35.351  19.662  24.983  1.00  0.00     0.144 C 
ATOM     93  C   UNL A   1      33.115  18.965  25.041  1.00  0.00     0.317 C 
ATOM     94  N   UNL A   1      34.437  18.547  25.001  1.00  0.00    -0.336 N 
ATOM     95  O   UNL A   1      32.153  18.238  25.169  1.00  0.00    -0.249 OA
ATOM     96  H   UNL A   1      34.718  17.603  24.987  1.00  0.00     0.165 HD
ENDBRANCH  84  86
ENDBRANCH  82  84
ENDBRANCH  75  78
ENDBRANCH  73  74
ENDBRANCH  72  73
ENDBRANCH   1  72
TORSDOF 13
ENDMDL
MODEL 2
REMARK VINA RESULT:     -12.8      2.200      3.497
REMARK SMILES O=C(NCCCCNC(=O)[C@@H]1CCC[C@@H](C(=O)N2CCN3C(=O)NC[C@@H]3C2)C1)c1ccc(-c2c3nc(c(-c4c(F)c(F)c(F)c(F)c4F)c4ccc([nH]4)c(-c4c(F)c(F)c(F)c(F)c4F)c4nc(c(-c5c(F)c(F)c(F)c(F)c5F)c5ccc2[nH]5)C=C4)C=C3)cc1
REMARK SMILES IDX 5 1 4 2 3 3 1 4 2 5 29 7 30 8 91 9 31 10 90 11 32 12 33 13
REMARK SMILES IDX 34 14 84 15 35 16 89 17 83 18 85 19 36 20 88 21 82 22 81 23
REMARK SMILES IDX 37 25 69 26 49 27 68 28 50 29 53 30 67 31 86 32 51 33 52 34
REMARK SMILES IDX 66 36 87 37 54 38 38 39 39 40 47 41 40 42 41 43 45 44 48 45
REMARK SMILES IDX 42 46 43 47 46 48 44 49 70 50 71 51 79 52 72 53 73 54 77 55
REMARK SMILES IDX 80 56 74 57 75 58 78 59 76 60 55 61 56 62 64 63 57 64 58 65
REMARK SMILES IDX 62 66 65 67 59 68 60 69 63 70 61 71 6 72 7 73 8 74 9 75
REMARK SMILES IDX 10 77 11 78 12 79 28 80 13 81 15 82 14 83 16 84 17 85 18 86
REMARK SMILES IDX 19 87 27 88 20 89 26 90 21 91 25 92 22 93 24 94 23 95
REMARK H PARENT 3 6 85 24 53 35 8 76 24 96
REMARK Flexibility Score: inf
ROOT
ATOM      1  C   UNL A   1      32.845  27.657  25.173  1.00  0.00     0.023 C 
ENDROOT
BRANCH   1   2
ATOM      2  C   UNL A   1      33.673  28.922  25.320  1.00  0.00     0.116 C 
BRANCH   2   3
ATOM      3  N   UNL A   1      32.932  30.064  25.852  1.00  0.00    -0.352 N 
ATOM      4  O   UNL A   1      32.597  31.785  27.302  1.00  0.00    -0.269 OA
ATOM      5  C   UNL A   1      33.325  30.900  26.874  1.00  0.00     0.251 C 
ATOM      6  H   UNL A   1      32.062  30.255  25.435  1.00  0.00     0.163 HD
BRANCH   5   7
ATOM      7  C   UNL A   1      34.655  30.658  27.458  1.00  0.00     0.039 A 
ATOM      8  C   UNL A   1      34.920  29.400  27.998  1.00  0.00     0.014 A 
ATOM      9  C   UNL A   1      35.544  31.720  27.629  1.00  0.00     0.014 A 
ATOM     10  C   UNL A   1      35.971  29.262  28.884  1.00  0.00     0.010 A 
ATOM     11  C   UNL A   1      36.689  31.530  28.406  1.00  0.00     0.010 A 
ATOM     12  C   UNL A   1      36.894  30.309  29.068  1.00  0.00    -0.014 A 
BRANCH  12  13
ATOM     13  C   UNL A   1      38.105  30.030  29.878  1.00  0.00     0.031 A 
ATOM     14  C   UNL A   1      38.266  30.537  31.282  1.00  0.00     0.074 A 
ATOM     15  C   UNL A   1      39.042  29.233  29.327  1.00  0.00     0.049 A 
ATOM     16  N   UNL A   1      39.251  30.326  32.121  1.00  0.00    -0.248 NA
ATOM     17  C   UNL A   1      37.201  31.396  31.818  1.00  0.00     0.031 C 
ATOM     18  C   UNL A   1      38.992  28.704  27.959  1.00  0.00     0.029 A 
ATOM     19  N   UNL A   1      40.189  28.694  29.844  1.00  0.00    -0.354 N 
ATOM     20  C   UNL A   1      38.933  31.030  33.274  1.00  0.00     0.074 A 
ATOM     21  C   UNL A   1      37.677  31.705  33.019  1.00  0.00     0.031 C 
ATOM     22  C   UNL A   1      40.010  27.857  27.774  1.00  0.00     0.029 A 
ATOM     23  C   UNL A   1      40.845  27.867  28.966  1.00  0.00     0.049 A 
ATOM     24  H   UNL A   1      40.512  28.882  30.755  1.00  0.00     0.167 HD
ATOM     25  C   UNL A   1      39.625  31.095  34.437  1.00  0.00     0.037 A 
ATOM     26  C   UNL A   1      42.011  27.212  29.089  1.00  0.00     0.037 A 
ATOM     27  C   UNL A   1      40.876  30.415  34.675  1.00  0.00     0.049 A 
ATOM     28  C   UNL A   1      42.766  27.333  30.378  1.00  0.00     0.074 A 
ATOM     29  C   UNL A   1      41.654  30.411  35.820  1.00  0.00     0.029 A 
ATOM     30  N   UNL A   1      41.535  29.618  33.747  1.00  0.00    -0.354 N 
ATOM     31  N   UNL A   1      42.442  27.988  31.467  1.00  0.00    -0.248 NA
ATOM     32  C   UNL A   1      44.048  26.627  30.456  1.00  0.00     0.031 C 
ATOM     33  C   UNL A   1      42.805  29.658  35.568  1.00  0.00     0.029 A 
ATOM     34  C   UNL A   1      42.718  29.135  34.288  1.00  0.00     0.049 A 
ATOM     35  H   UNL A   1      41.209  29.423  32.838  1.00  0.00     0.167 HD
ATOM     36  C   UNL A   1      43.475  27.766  32.363  1.00  0.00     0.074 A 
ATOM     37  C   UNL A   1      44.412  26.879  31.703  1.00  0.00     0.031 C 
ATOM     38  C   UNL A   1      43.642  28.260  33.614  1.00  0.00     0.037 A 
BRANCH  25  39
ATOM     39  C   UNL A   1      39.060  31.935  35.549  1.00  0.00     0.064 A 
ATOM     40  C   UNL A   1      38.271  31.377  36.567  1.00  0.00     0.173 A 
ATOM     41  C   UNL A   1      39.376  33.299  35.644  1.00  0.00     0.173 A 
ATOM     42  F   UNL A   1      37.931  30.079  36.523  1.00  0.00    -0.203 F 
ATOM     43  C   UNL A   1      37.807  32.154  37.626  1.00  0.00     0.198 A 
ATOM     44  C   UNL A   1      38.936  34.068  36.720  1.00  0.00     0.198 A 
ATOM     45  F   UNL A   1      40.133  33.886  34.705  1.00  0.00    -0.203 F 
ATOM     46  F   UNL A   1      37.026  31.605  38.566  1.00  0.00    -0.200 F 
ATOM     47  C   UNL A   1      38.148  33.496  37.707  1.00  0.00     0.200 A 
ATOM     48  F   UNL A   1      39.281  35.360  36.805  1.00  0.00    -0.200 F 
ATOM     49  F   UNL A   1      37.716  34.238  38.736  1.00  0.00    -0.200 F 
ENDBRANCH  25  39
BRANCH  26  50
ATOM     50  C   UNL A   1      42.546  26.428  27.944  1.00  0.00     0.064 A 
ATOM     51  C   UNL A   1      42.298  25.055  27.820  1.00  0.00     0.173 A 
ATOM     52  C   UNL A   1      43.327  27.042  26.951  1.00  0.00     0.173 A 
ATOM     53  F   UNL A   1      41.567  24.419  28.748  1.00  0.00    -0.203 F 
ATOM     54  C   UNL A   1      42.839  24.321  26.767  1.00  0.00     0.198 A 
ATOM     55  C   UNL A   1      43.829  26.315  25.876  1.00  0.00     0.198 A 
ATOM     56  F   UNL A   1      43.583  28.357  27.015  1.00  0.00    -0.203 F 
ATOM     57  F   UNL A   1      42.641  22.997  26.708  1.00  0.00    -0.200 F 
ATOM     58  C   UNL A   1      43.598  24.952  25.794  1.00  0.00     0.200 A 
ATOM     59  F   UNL A   1      44.537  26.937  24.924  1.00  0.00    -0.200 F 
ATOM     60  F   UNL A   1      44.115  24.245  24.780  1.00  0.00    -0.200 F 
ENDBRANCH  26  50
BRANCH  38  61
ATOM     61  C   UNL A   1      44.877  27.822  34.349  1.00  0.00     0.064 A 
ATOM     62  C   UNL A   1      44.894  26.658  35.133  1.00  0.00     0.173 A 
ATOM     63  C   UNL A   1      46.052  28.586  34.283  1.00  0.00     0.173 A 
ATOM     64  F   UNL A   1      43.790  25.902  35.244  1.00  0.00    -0.203 F 
ATOM     65  C   UNL A   1      46.025  26.303  35.862  1.00  0.00     0.198 A 
ATOM     66  C   UNL A   1      47.194  28.205  34.982  1.00  0.00     0.198 A 
ATOM     67  F   UNL A   1      46.092  29.705  33.543  1.00  0.00    -0.203 F 
ATOM     68  F   UNL A   1      45.991  25.231  36.666  1.00  0.00    -0.200 F 
ATOM     69  C   UNL A   1      47.175  27.074  35.782  1.00  0.00     0.200 A 
ATOM     70  F   UNL A   1      48.308  28.944  34.891  1.00  0.00    -0.200 F 
ATOM     71  F   UNL A   1      48.261  26.733  36.489  1.00  0.00    -0.200 F 
ENDBRANCH  38  61
ENDBRANCH  12  13
ENDBRANCH   5   7
ENDBRANCH   2   3
ENDBRANCH   1   2
BRANCH   1  72
ATOM     72  C   UNL A   1      31.834  27.436  26.293  1.00  0.00     0.023 C 
BRANCH  72  73
ATOM     73  C   UNL A   1      30.656  26.550  25.895  1.00  0.00     0.116 C 
BRANCH  73  74
ATOM     74  N   UNL A   1      30.577  25.347  26.696  1.00  0.00    -0.356 N 
ATOM     75  C   UNL A   1      31.085  24.101  26.550  1.00  0.00     0.223 C 
ATOM     76  H   UNL A   1      30.044  25.458  27.516  1.00  0.00     0.163 HD
ATOM     77  O   UNL A   1      30.951  23.349  27.523  1.00  0.00    -0.275 OA
BRANCH  75  78
ATOM     78  C   UNL A   1      31.719  23.556  25.271  1.00  0.00     0.079 C 
ATOM     79  C   UNL A   1      30.859  23.808  24.031  1.00  0.00     0.013 C 
ATOM     80  C   UNL A   1      32.327  22.159  25.268  1.00  0.00     0.027 C 
ATOM     81  C   UNL A   1      31.652  23.502  22.757  1.00  0.00     0.002 C 
ATOM     82  C   UNL A   1      33.080  21.775  24.006  1.00  0.00     0.079 C 
ATOM     83  C   UNL A   1      32.234  22.090  22.761  1.00  0.00     0.013 C 
BRANCH  82  84
ATOM     84  C   UNL A   1      34.547  22.199  23.820  1.00  0.00     0.225 C 
ATOM     85  O   UNL A   1      34.810  23.012  22.924  1.00  0.00    -0.275 OA
BRANCH  84  86
ATOM     86  N   UNL A   1      35.488  21.920  24.785  1.00  0.00    -0.339 N 
ATOM     87  C   UNL A   1      36.184  20.631  24.999  1.00  0.00     0.141 C 
ATOM     88  C   UNL A   1      36.015  23.053  25.550  1.00  0.00     0.146 C 
ATOM     89  C   UNL A   1      37.719  20.724  24.951  1.00  0.00     0.143 C 
ATOM     90  C   UNL A   1      37.530  23.177  25.428  1.00  0.00     0.125 C 
ATOM     91  N   UNL A   1      38.177  21.900  25.659  1.00  0.00    -0.317 N 
ATOM     92  C   UNL A   1      38.152  24.074  26.495  1.00  0.00     0.144 C 
ATOM     93  C   UNL A   1      39.265  22.012  26.500  1.00  0.00     0.317 C 
ATOM     94  N   UNL A   1      39.299  23.326  26.944  1.00  0.00    -0.336 N 
ATOM     95  O   UNL A   1      40.049  21.143  26.818  1.00  0.00    -0.249 OA
ATOM     96  H   UNL A   1      40.020  23.703  27.500  1.00  0.00     0.165 HD
ENDBRANCH  84  86
ENDBRANCH  82  84
ENDBRANCH  75  78
ENDBRANCH  73  74
ENDBRANCH  72  73
ENDBRANCH   1  72
TORSDOF 13
ENDMDL
MODEL 3
REMARK VINA RESULT:     -12.8      1.348      2.365
REMARK SMILES O=C(NCCCCNC(=O)[C@@H]1CCC[C@@H](C(=O)N2CCN3C(=O)NC[C@@H]3C2)C1)c1ccc(-c2c3nc(c(-c4c(F)c(F)c(F)c(F)c4F)c4ccc([nH]4)c(-c4c(F)c(F)c(F)c(F)c4F)c4nc(c(-c5c(F)c(F)c(F)c(F)c5F)c5ccc2[nH]5)C=C4)C=C3)cc1
REMARK SMILES IDX 5 1 4 2 3 3 1 4 2 5 29 7 30 8 91 9 31 10 90 11 32 12 33 13
REMARK SMILES IDX 34 14 84 15 35 16 89 17 83 18 85 19 36 20 88 21 82 22 81 23
REMARK SMILES IDX 37 25 69 26 49 27 68 28 50 29 53 30 67 31 86 32 51 33 52 34
REMARK SMILES IDX 66 36 87 37 54 38 38 39 39 40 47 41 40 42 41 43 45 44 48 45
REMARK SMILES IDX 42 46 43 47 46 48 44 49 70 50 71 51 79 52 72 53 73 54 77 55
REMARK SMILES IDX 80 56 74 57 75 58 78 59 76 60 55 61 56 62 64 63 57 64 58 65
REMARK SMILES IDX 62 66 65 67 59 68 60 69 63 70 61 71 6 72 7 73 8 74 9 75
REMARK SMILES IDX 10 77 11 78 12 79 28 80 13 81 15 82 14 83 16 84 17 85 18 86
REMARK SMILES IDX 19 87 27 88 20 89 26 90 21 91 25 92 22 93 24 94 23 95
REMARK H PARENT 3 6 85 24 53 35 8 76 24 96
REMARK Flexibility Score: inf
ROOT
ATOM      1  C   UNL A   1      31.873  31.837  26.875  1.00  0.00     0.023 C 
ENDROOT
BRANCH   1   2
ATOM      2  C   UNL A   1      32.953  32.753  27.424  1.00  0.00     0.116 C 
BRANCH   2   3
ATOM      3  N   UNL A   1      32.514  34.127  27.654  1.00  0.00    -0.352 N 
ATOM      4  O   UNL A   1      32.532  36.120  28.752  1.00  0.00    -0.269 OA
ATOM      5  C   UNL A   1      33.021  35.012  28.580  1.00  0.00     0.251 C 
ATOM      6  H   UNL A   1      31.780  34.454  27.087  1.00  0.00     0.163 HD
BRANCH   5   7
ATOM      7  C   UNL A   1      34.163  34.550  29.387  1.00  0.00     0.039 A 
ATOM      8  C   UNL A   1      35.438  34.621  28.828  1.00  0.00     0.014 A 
ATOM      9  C   UNL A   1      33.939  33.887  30.594  1.00  0.00     0.014 A 
ATOM     10  C   UNL A   1      36.449  33.853  29.371  1.00  0.00     0.010 A 
ATOM     11  C   UNL A   1      35.005  33.236  31.221  1.00  0.00     0.010 A 
ATOM     12  C   UNL A   1      36.261  33.185  30.596  1.00  0.00    -0.014 A 
BRANCH  12  13
ATOM     13  C   UNL A   1      37.441  32.542  31.223  1.00  0.00     0.031 A 
ATOM     14  C   UNL A   1      37.910  32.895  32.604  1.00  0.00     0.074 A 
ATOM     15  C   UNL A   1      38.048  31.560  30.525  1.00  0.00     0.049 A 
ATOM     16  N   UNL A   1      38.897  32.375  33.292  1.00  0.00    -0.248 NA
ATOM     17  C   UNL A   1      37.197  33.972  33.307  1.00  0.00     0.031 C 
ATOM     18  C   UNL A   1      37.683  31.152  29.163  1.00  0.00     0.029 A 
ATOM     19  N   UNL A   1      39.059  30.702  30.863  1.00  0.00    -0.354 N 
ATOM     20  C   UNL A   1      38.931  33.063  34.497  1.00  0.00     0.074 A 
ATOM     21  C   UNL A   1      37.886  34.064  34.438  1.00  0.00     0.031 C 
ATOM     22  C   UNL A   1      38.400  30.078  28.815  1.00  0.00     0.029 A 
ATOM     23  C   UNL A   1      39.348  29.788  29.881  1.00  0.00     0.049 A 
ATOM     24  H   UNL A   1      39.533  30.737  31.726  1.00  0.00     0.167 HD
ATOM     25  C   UNL A   1      39.754  32.865  35.556  1.00  0.00     0.037 A 
ATOM     26  C   UNL A   1      40.296  28.838  29.822  1.00  0.00     0.037 A 
ATOM     27  C   UNL A   1      40.792  31.861  35.599  1.00  0.00     0.049 A 
ATOM     28  C   UNL A   1      41.211  28.670  30.998  1.00  0.00     0.074 A 
ATOM     29  C   UNL A   1      41.677  31.576  36.625  1.00  0.00     0.029 A 
ATOM     30  N   UNL A   1      41.085  30.979  34.567  1.00  0.00    -0.354 N 
ATOM     31  N   UNL A   1      41.218  29.316  32.139  1.00  0.00    -0.248 NA
ATOM     32  C   UNL A   1      42.250  27.643  30.878  1.00  0.00     0.031 C 
ATOM     33  C   UNL A   1      42.537  30.561  36.195  1.00  0.00     0.029 A 
ATOM     34  C   UNL A   1      42.149  30.164  34.926  1.00  0.00     0.049 A 
ATOM     35  H   UNL A   1      40.607  30.937  33.707  1.00  0.00     0.167 HD
ATOM     36  C   UNL A   1      42.255  28.769  32.877  1.00  0.00     0.074 A 
ATOM     37  C   UNL A   1      42.824  27.708  32.069  1.00  0.00     0.031 C 
ATOM     38  C   UNL A   1      42.707  29.118  34.106  1.00  0.00     0.037 A 
BRANCH  25  39
ATOM     39  C   UNL A   1      39.585  33.752  36.758  1.00  0.00     0.064 A 
ATOM     40  C   UNL A   1      40.164  35.028  36.819  1.00  0.00     0.173 A 
ATOM     41  C   UNL A   1      38.768  33.355  37.829  1.00  0.00     0.173 A 
ATOM     42  F   UNL A   1      40.961  35.456  35.829  1.00  0.00    -0.203 F 
ATOM     43  C   UNL A   1      39.947  35.865  37.912  1.00  0.00     0.198 A 
ATOM     44  C   UNL A   1      38.528  34.206  38.906  1.00  0.00     0.198 A 
ATOM     45  F   UNL A   1      38.181  32.149  37.821  1.00  0.00    -0.203 F 
ATOM     46  F   UNL A   1      40.541  37.066  37.963  1.00  0.00    -0.200 F 
ATOM     47  C   UNL A   1      39.121  35.458  38.949  1.00  0.00     0.200 A 
ATOM     48  F   UNL A   1      37.716  33.816  39.898  1.00  0.00    -0.200 F 
ATOM     49  F   UNL A   1      38.899  36.271  39.990  1.00  0.00    -0.200 F 
ENDBRANCH  25  39
BRANCH  26  50
ATOM     50  C   UNL A   1      40.448  28.016  28.593  1.00  0.00     0.064 A 
ATOM     51  C   UNL A   1      39.843  26.758  28.477  1.00  0.00     0.173 A 
ATOM     52  C   UNL A   1      41.215  28.473  27.509  1.00  0.00     0.173 A 
ATOM     53  F   UNL A   1      39.109  26.271  29.490  1.00  0.00    -0.203 F 
ATOM     54  C   UNL A   1      40.026  25.976  27.339  1.00  0.00     0.198 A 
ATOM     55  C   UNL A   1      41.359  27.709  26.355  1.00  0.00     0.198 A 
ATOM     56  F   UNL A   1      41.805  29.676  27.563  1.00  0.00    -0.203 F 
ATOM     57  F   UNL A   1      39.489  24.749  27.281  1.00  0.00    -0.200 F 
ATOM     58  C   UNL A   1      40.778  26.454  26.278  1.00  0.00     0.200 A 
ATOM     59  F   UNL A   1      42.064  28.190  25.322  1.00  0.00    -0.200 F 
ATOM     60  F   UNL A   1      40.950  25.702  25.182  1.00  0.00    -0.200 F 
ENDBRANCH  26  50
BRANCH  38  61
ATOM     61  C   UNL A   1      43.856  28.321  34.650  1.00  0.00     0.064 A 
ATOM     62  C   UNL A   1      43.653  27.143  35.387  1.00  0.00     0.173 A 
ATOM     63  C   UNL A   1      45.177  28.748  34.449  1.00  0.00     0.173 A 
ATOM     64  F   UNL A   1      42.408  26.701  35.624  1.00  0.00    -0.203 F 
ATOM     65  C   UNL A   1      44.726  26.452  35.943  1.00  0.00     0.198 A 
ATOM     66  C   UNL A   1      46.250  28.031  34.973  1.00  0.00     0.198 A 
ATOM     67  F   UNL A   1      45.429  29.863  33.747  1.00  0.00    -0.203 F 
ATOM     68  F   UNL A   1      44.501  25.376  36.709  1.00  0.00    -0.200 F 
ATOM     69  C   UNL A   1      46.023  26.894  35.731  1.00  0.00     0.200 A 
ATOM     70  F   UNL A   1      47.503  28.452  34.754  1.00  0.00    -0.200 F 
ATOM     71  F   UNL A   1      47.054  26.230  36.271  1.00  0.00    -0.200 F 
ENDBRANCH  38  61
ENDBRANCH  12  13
ENDBRANCH   5   7
ENDBRANCH   2   3
ENDBRANCH   1   2
BRANCH   1  72
ATOM     72  C   UNL A   1      32.226  30.354  26.921  1.00  0.00     0.023 C 
BRANCH  72  73
ATOM     73  C   UNL A   1      32.541  29.753  25.553  1.00  0.00     0.116 C 
BRANCH  73  74
ATOM     74  N   UNL A   1      31.461  29.940  24.607  1.00  0.00    -0.356 N 
ATOM     75  C   UNL A   1      30.652  29.084  23.943  1.00  0.00     0.223 C 
ATOM     76  H   UNL A   1      31.278  30.886  24.407  1.00  0.00     0.163 HD
ATOM     77  O   UNL A   1      29.714  29.602  23.324  1.00  0.00    -0.275 OA
BRANCH  75  78
ATOM     78  C   UNL A   1      30.865  27.573  23.842  1.00  0.00     0.079 C 
ATOM     79  C   UNL A   1      31.069  27.101  22.402  1.00  0.00     0.013 C 
ATOM     80  C   UNL A   1      29.963  26.632  24.629  1.00  0.00     0.027 C 
ATOM     81  C   UNL A   1      31.553  25.648  22.377  1.00  0.00     0.002 C 
ATOM     82  C   UNL A   1      30.361  25.165  24.597  1.00  0.00     0.079 C 
ATOM     83  C   UNL A   1      30.624  24.714  23.150  1.00  0.00     0.013 C 
BRANCH  82  84
ATOM     84  C   UNL A   1      31.430  24.632  25.565  1.00  0.00     0.225 C 
ATOM     85  O   UNL A   1      31.183  24.658  26.778  1.00  0.00    -0.275 OA
BRANCH  84  86
ATOM     86  N   UNL A   1      32.494  23.892  25.101  1.00  0.00    -0.339 N 
ATOM     87  C   UNL A   1      33.888  24.357  24.924  1.00  0.00     0.141 C 
ATOM     88  C   UNL A   1      32.290  22.448  24.961  1.00  0.00     0.146 C 
ATOM     89  C   UNL A   1      34.935  23.528  25.688  1.00  0.00     0.143 C 
ATOM     90  C   UNL A   1      33.287  21.642  25.787  1.00  0.00     0.125 C 
ATOM     91  N   UNL A   1      34.641  22.116  25.576  1.00  0.00    -0.317 N 
ATOM     92  C   UNL A   1      33.369  20.175  25.375  1.00  0.00     0.144 C 
ATOM     93  C   UNL A   1      35.531  21.079  25.380  1.00  0.00     0.317 C 
ATOM     94  N   UNL A   1      34.785  19.909  25.334  1.00  0.00    -0.336 N 
ATOM     95  O   UNL A   1      36.734  21.148  25.255  1.00  0.00    -0.249 OA
ATOM     96  H   UNL A   1      35.176  19.007  25.278  1.00  0.00     0.165 HD
ENDBRANCH  84  86
ENDBRANCH  82  84
ENDBRANCH  75  78
ENDBRANCH  73  74
ENDBRANCH  72  73
ENDBRANCH   1  72
TORSDOF 13
ENDMDL
