MODEL 1
REMARK VINA RESULT:     -12.9      0.000      0.000
REMARK SMILES CS(=O)(=O)c1ccc(/C=C(/C(=O)NCCCCNC(=O)c2ccc(-c3c4nc(c(-c5c(F)c(F)c(F)c(F)c5F)c5ccc([nH]5)c(-c5c(F)c(F)c(F)c(F)c5F)c5nc(c(-c6c(F)c(F)c(F)c(F)c6F)c6ccc3[nH]6)C=C5)C=C4)cc2)c2ccc(F)cc2)cc1
REMARK SMILES IDX 15 1 14 2 13 3 11 4 12 5 10 7 9 8 8 9 5 10 6 11 92 12 7 13
REMARK SMILES IDX 91 14 2 15 1 16 3 17 4 18 84 19 85 20 90 21 86 22 89 23
REMARK SMILES IDX 87 24 88 25 16 26 17 27 18 28 19 29 20 31 21 32 22 33 83 34
REMARK SMILES IDX 23 35 82 36 24 37 25 38 26 39 76 40 27 41 81 42 75 43 77 44
REMARK SMILES IDX 28 45 80 46 74 47 73 48 29 50 61 51 41 52 60 53 42 54 45 55
REMARK SMILES IDX 59 56 78 57 43 58 44 59 58 61 79 62 46 63 30 64 31 65 39 66
REMARK SMILES IDX 32 67 33 68 37 69 40 70 34 71 35 72 38 73 36 74 62 75 63 76
REMARK SMILES IDX 71 77 64 78 65 79 69 80 72 81 66 82 67 83 70 84 68 85 47 86
REMARK SMILES IDX 48 87 56 88 49 89 50 90 54 91 57 92 51 93 52 94 55 95 53 96
REMARK H PARENT 13 6 18 30 77 49 45 60
REMARK Flexibility Score: inf
ROOT
ATOM      1  C   UNL A   1      32.496  26.941  26.397  1.00  0.00     0.023 C 
ENDROOT
BRANCH   1   2
ATOM      2  C   UNL A   1      31.808  25.699  25.821  1.00  0.00     0.116 C 
BRANCH   2   3
ATOM      3  N   UNL A   1      31.812  25.746  24.372  1.00  0.00    -0.352 N 
ATOM      4  C   UNL A   1      32.270  24.903  23.407  1.00  0.00     0.251 C 
ATOM      5  O   UNL A   1      32.135  25.294  22.244  1.00  0.00    -0.269 OA
ATOM      6  H   UNL A   1      31.394  26.559  24.010  1.00  0.00     0.163 HD
BRANCH   4   7
ATOM      7  C   UNL A   1      32.839  23.530  23.688  1.00  0.00     0.047 C 
ATOM      8  C   UNL A   1      32.064  22.424  23.750  1.00  0.00     0.022 C 
BRANCH   8   9
ATOM      9  C   UNL A   1      32.451  21.007  23.912  1.00  0.00    -0.025 A 
ATOM     10  C   UNL A   1      33.174  18.298  24.042  1.00  0.00     0.067 A 
ATOM     11  C   UNL A   1      33.425  19.137  25.128  1.00  0.00     0.021 A 
ATOM     12  C   UNL A   1      32.528  18.787  22.906  1.00  0.00     0.021 A 
ATOM     13  C   UNL A   1      33.050  20.485  25.065  1.00  0.00     0.009 A 
ATOM     14  C   UNL A   1      32.169  20.136  22.846  1.00  0.00     0.009 A 
BRANCH  10  15
ATOM     15  S   UNL A   1      33.666  16.592  24.097  1.00  0.00     0.175 S 
ATOM     16  C   UNL A   1      35.151  16.568  25.065  1.00  0.00     0.163 C 
ATOM     17  O   UNL A   1      34.029  16.202  22.750  1.00  0.00    -0.224 OA
ATOM     18  O   UNL A   1      32.630  15.885  24.830  1.00  0.00    -0.224 OA
ENDBRANCH  10  15
ENDBRANCH   8   9
BRANCH   7  19
ATOM     19  C   UNL A   1      34.273  23.462  24.066  1.00  0.00    -0.013 A 
ATOM     20  C   UNL A   1      34.634  23.749  25.397  1.00  0.00     0.012 A 
ATOM     21  C   UNL A   1      35.265  23.052  23.163  1.00  0.00     0.012 A 
ATOM     22  C   UNL A   1      35.952  23.603  25.824  1.00  0.00     0.040 A 
ATOM     23  C   UNL A   1      36.585  22.899  23.598  1.00  0.00     0.040 A 
ATOM     24  C   UNL A   1      36.913  23.169  24.923  1.00  0.00     0.123 A 
ATOM     25  F   UNL A   1      38.175  22.998  25.340  1.00  0.00    -0.207 F 
ENDBRANCH   7  19
ENDBRANCH   4   7
ENDBRANCH   2   3
ENDBRANCH   1   2
BRANCH   1  26
ATOM     26  C   UNL A   1      32.059  28.265  25.757  1.00  0.00     0.023 C 
BRANCH  26  27
ATOM     27  C   UNL A   1      33.166  29.300  25.585  1.00  0.00     0.116 C 
BRANCH  27  28
ATOM     28  N   UNL A   1      32.774  30.630  26.021  1.00  0.00    -0.352 N 
ATOM     29  C   UNL A   1      33.323  31.420  26.998  1.00  0.00     0.251 C 
ATOM     30  H   UNL A   1      32.005  31.020  25.546  1.00  0.00     0.163 HD
ATOM     31  O   UNL A   1      32.785  32.482  27.299  1.00  0.00    -0.269 OA
BRANCH  29  32
ATOM     32  C   UNL A   1      34.539  30.984  27.717  1.00  0.00     0.039 A 
ATOM     33  C   UNL A   1      35.580  31.903  27.877  1.00  0.00     0.014 A 
ATOM     34  C   UNL A   1      34.674  29.681  28.205  1.00  0.00     0.014 A 
ATOM     35  C   UNL A   1      36.737  31.531  28.562  1.00  0.00     0.010 A 
ATOM     36  C   UNL A   1      35.802  29.329  28.941  1.00  0.00     0.010 A 
ATOM     37  C   UNL A   1      36.849  30.246  29.117  1.00  0.00    -0.014 A 
BRANCH  37  38
ATOM     38  C   UNL A   1      38.067  29.847  29.862  1.00  0.00     0.031 A 
ATOM     39  C   UNL A   1      38.302  30.358  31.255  1.00  0.00     0.074 A 
ATOM     40  C   UNL A   1      38.981  29.056  29.268  1.00  0.00     0.049 A 
ATOM     41  N   UNL A   1      39.312  30.138  32.060  1.00  0.00    -0.248 NA
ATOM     42  C   UNL A   1      37.281  31.262  31.808  1.00  0.00     0.031 C 
ATOM     43  C   UNL A   1      38.893  28.543  27.901  1.00  0.00     0.029 A 
ATOM     44  N   UNL A   1      40.165  28.549  29.739  1.00  0.00    -0.354 N 
ATOM     45  C   UNL A   1      39.054  30.882  33.203  1.00  0.00     0.074 A 
ATOM     46  C   UNL A   1      37.820  31.601  32.970  1.00  0.00     0.031 C 
ATOM     47  C   UNL A   1      39.964  27.772  27.651  1.00  0.00     0.029 A 
ATOM     48  C   UNL A   1      40.823  27.756  28.831  1.00  0.00     0.049 A 
ATOM     49  H   UNL A   1      40.511  28.736  30.642  1.00  0.00     0.167 HD
ATOM     50  C   UNL A   1      39.768  30.942  34.353  1.00  0.00     0.037 A 
ATOM     51  C   UNL A   1      41.985  27.086  28.945  1.00  0.00     0.037 A 
ATOM     52  C   UNL A   1      40.978  30.202  34.594  1.00  0.00     0.049 A 
ATOM     53  C   UNL A   1      42.736  27.134  30.247  1.00  0.00     0.074 A 
ATOM     54  C   UNL A   1      41.750  30.155  35.741  1.00  0.00     0.029 A 
ATOM     55  N   UNL A   1      41.589  29.370  33.667  1.00  0.00    -0.354 N 
ATOM     56  N   UNL A   1      42.447  27.788  31.346  1.00  0.00    -0.248 NA
ATOM     57  C   UNL A   1      43.965  26.334  30.330  1.00  0.00     0.031 C 
ATOM     58  C   UNL A   1      42.846  29.318  35.497  1.00  0.00     0.029 A 
ATOM     59  C   UNL A   1      42.732  28.811  34.214  1.00  0.00     0.049 A 
ATOM     60  H   UNL A   1      41.260  29.202  32.755  1.00  0.00     0.167 HD
ATOM     61  C   UNL A   1      43.439  27.456  32.259  1.00  0.00     0.074 A 
ATOM     62  C   UNL A   1      44.329  26.530  31.590  1.00  0.00     0.031 C 
ATOM     63  C   UNL A   1      43.598  27.879  33.537  1.00  0.00     0.037 A 
BRANCH  50  64
ATOM     64  C   UNL A   1      39.248  31.834  35.442  1.00  0.00     0.064 A 
ATOM     65  C   UNL A   1      38.378  31.354  36.432  1.00  0.00     0.173 A 
ATOM     66  C   UNL A   1      39.642  33.179  35.512  1.00  0.00     0.173 A 
ATOM     67  F   UNL A   1      37.960  30.079  36.402  1.00  0.00    -0.203 F 
ATOM     68  C   UNL A   1      37.897  32.193  37.434  1.00  0.00     0.198 A 
ATOM     69  C   UNL A   1      39.182  34.009  36.531  1.00  0.00     0.198 A 
ATOM     70  F   UNL A   1      40.476  33.688  34.592  1.00  0.00    -0.203 F 
ATOM     71  F   UNL A   1      37.026  31.724  38.338  1.00  0.00    -0.200 F 
ATOM     72  C   UNL A   1      38.304  33.518  37.486  1.00  0.00     0.200 A 
ATOM     73  F   UNL A   1      39.584  35.286  36.587  1.00  0.00    -0.200 F 
ATOM     74  F   UNL A   1      37.843  34.324  38.452  1.00  0.00    -0.200 F 
ENDBRANCH  50  64
BRANCH  51  75
ATOM     75  C   UNL A   1      42.480  26.266  27.811  1.00  0.00     0.064 A 
ATOM     76  C   UNL A   1      43.449  26.769  26.932  1.00  0.00     0.173 A 
ATOM     77  C   UNL A   1      41.997  24.970  27.580  1.00  0.00     0.173 A 
ATOM     78  F   UNL A   1      43.927  28.010  27.102  1.00  0.00    -0.203 F 
ATOM     79  C   UNL A   1      43.901  26.015  25.851  1.00  0.00     0.198 A 
ATOM     80  C   UNL A   1      42.467  24.208  26.513  1.00  0.00     0.198 A 
ATOM     81  F   UNL A   1      41.074  24.442  28.398  1.00  0.00    -0.203 F 
ATOM     82  F   UNL A   1      44.794  26.536  25.000  1.00  0.00    -0.200 F 
ATOM     83  C   UNL A   1      43.413  24.734  25.645  1.00  0.00     0.200 A 
ATOM     84  F   UNL A   1      42.003  22.965  26.324  1.00  0.00    -0.200 F 
ATOM     85  F   UNL A   1      43.846  24.008  24.605  1.00  0.00    -0.200 F 
ENDBRANCH  51  75
BRANCH  63  86
ATOM     86  C   UNL A   1      44.751  27.308  34.307  1.00  0.00     0.064 A 
ATOM     87  C   UNL A   1      46.003  27.941  34.335  1.00  0.00     0.173 A 
ATOM     88  C   UNL A   1      44.595  26.124  35.041  1.00  0.00     0.173 A 
ATOM     89  F   UNL A   1      46.206  29.069  33.636  1.00  0.00    -0.203 F 
ATOM     90  C   UNL A   1      47.066  27.391  35.045  1.00  0.00     0.198 A 
ATOM     91  C   UNL A   1      45.653  25.591  35.773  1.00  0.00     0.198 A 
ATOM     92  F   UNL A   1      43.416  25.485  35.052  1.00  0.00    -0.203 F 
ATOM     93  F   UNL A   1      48.268  27.983  35.016  1.00  0.00    -0.200 F 
ATOM     94  C   UNL A   1      46.889  26.219  35.768  1.00  0.00     0.200 A 
ATOM     95  F   UNL A   1      45.477  24.465  36.479  1.00  0.00    -0.200 F 
ATOM     96  F   UNL A   1      47.913  25.691  36.451  1.00  0.00    -0.200 F 
ENDBRANCH  63  86
ENDBRANCH  37  38
ENDBRANCH  29  32
ENDBRANCH  27  28
ENDBRANCH  26  27
ENDBRANCH   1  26
TORSDOF 14
ENDMDL
MODEL 2
REMARK VINA RESULT:     -12.9      2.246      3.804
REMARK SMILES CS(=O)(=O)c1ccc(/C=C(/C(=O)NCCCCNC(=O)c2ccc(-c3c4nc(c(-c5c(F)c(F)c(F)c(F)c5F)c5ccc([nH]5)c(-c5c(F)c(F)c(F)c(F)c5F)c5nc(c(-c6c(F)c(F)c(F)c(F)c6F)c6ccc3[nH]6)C=C5)C=C4)cc2)c2ccc(F)cc2)cc1
REMARK SMILES IDX 15 1 14 2 13 3 11 4 12 5 10 7 9 8 8 9 5 10 6 11 92 12 7 13
REMARK SMILES IDX 91 14 2 15 1 16 3 17 4 18 84 19 85 20 90 21 86 22 89 23
REMARK SMILES IDX 87 24 88 25 16 26 17 27 18 28 19 29 20 31 21 32 22 33 83 34
REMARK SMILES IDX 23 35 82 36 24 37 25 38 26 39 76 40 27 41 81 42 75 43 77 44
REMARK SMILES IDX 28 45 80 46 74 47 73 48 29 50 61 51 41 52 60 53 42 54 45 55
REMARK SMILES IDX 59 56 78 57 43 58 44 59 58 61 79 62 46 63 30 64 31 65 39 66
REMARK SMILES IDX 32 67 33 68 37 69 40 70 34 71 35 72 38 73 36 74 62 75 63 76
REMARK SMILES IDX 71 77 64 78 65 79 69 80 72 81 66 82 67 83 70 84 68 85 47 86
REMARK SMILES IDX 48 87 56 88 49 89 50 90 54 91 57 92 51 93 52 94 55 95 53 96
REMARK H PARENT 13 6 18 30 77 49 45 60
REMARK Flexibility Score: inf
ROOT
ATOM      1  C   UNL A   1      31.431  30.513  25.738  1.00  0.00     0.023 C 
ENDROOT
BRANCH   1   2
ATOM      2  C   UNL A   1      32.722  29.700  25.872  1.00  0.00     0.116 C 
BRANCH   2   3
ATOM      3  N   UNL A   1      33.416  29.642  24.601  1.00  0.00    -0.352 N 
ATOM      4  C   UNL A   1      33.701  28.634  23.732  1.00  0.00     0.251 C 
ATOM      5  O   UNL A   1      34.361  28.950  22.740  1.00  0.00    -0.269 OA
ATOM      6  H   UNL A   1      33.752  30.517  24.302  1.00  0.00     0.163 HD
BRANCH   4   7
ATOM      7  C   UNL A   1      33.191  27.218  23.888  1.00  0.00     0.047 C 
ATOM      8  C   UNL A   1      33.987  26.139  23.725  1.00  0.00     0.022 C 
BRANCH   8   9
ATOM      9  C   UNL A   1      33.692  24.705  23.932  1.00  0.00    -0.025 A 
ATOM     10  C   UNL A   1      33.093  21.973  24.149  1.00  0.00     0.067 A 
ATOM     11  C   UNL A   1      33.813  22.609  25.161  1.00  0.00     0.021 A 
ATOM     12  C   UNL A   1      32.632  22.695  23.048  1.00  0.00     0.021 A 
ATOM     13  C   UNL A   1      34.097  23.976  25.055  1.00  0.00     0.009 A 
ATOM     14  C   UNL A   1      32.931  24.056  22.944  1.00  0.00     0.009 A 
BRANCH  10  15
ATOM     15  S   UNL A   1      32.746  20.233  24.256  1.00  0.00     0.175 S 
ATOM     16  C   UNL A   1      34.274  19.485  24.754  1.00  0.00     0.163 C 
ATOM     17  O   UNL A   1      32.459  19.766  22.916  1.00  0.00    -0.224 OA
ATOM     18  O   UNL A   1      31.783  20.068  25.332  1.00  0.00    -0.224 OA
ENDBRANCH  10  15
ENDBRANCH   8   9
BRANCH   7  19
ATOM     19  C   UNL A   1      31.726  27.048  24.064  1.00  0.00    -0.013 A 
ATOM     20  C   UNL A   1      30.865  27.539  23.063  1.00  0.00     0.012 A 
ATOM     21  C   UNL A   1      31.180  26.354  25.154  1.00  0.00     0.012 A 
ATOM     22  C   UNL A   1      29.491  27.316  23.134  1.00  0.00     0.040 A 
ATOM     23  C   UNL A   1      29.802  26.126  25.217  1.00  0.00     0.040 A 
ATOM     24  C   UNL A   1      28.974  26.603  24.205  1.00  0.00     0.123 A 
ATOM     25  F   UNL A   1      27.657  26.361  24.259  1.00  0.00    -0.207 F 
ENDBRANCH   7  19
ENDBRANCH   4   7
ENDBRANCH   2   3
ENDBRANCH   1   2
BRANCH   1  26
ATOM     26  C   UNL A   1      31.329  31.710  26.693  1.00  0.00     0.023 C 
BRANCH  26  27
ATOM     27  C   UNL A   1      32.618  32.506  26.877  1.00  0.00     0.116 C 
BRANCH  27  28
ATOM     28  N   UNL A   1      32.392  33.836  27.419  1.00  0.00    -0.352 N 
ATOM     29  C   UNL A   1      33.063  34.491  28.419  1.00  0.00     0.251 C 
ATOM     30  H   UNL A   1      31.651  34.339  27.008  1.00  0.00     0.163 HD
ATOM     31  O   UNL A   1      32.657  35.580  28.814  1.00  0.00    -0.269 OA
BRANCH  29  32
ATOM     32  C   UNL A   1      34.252  33.877  29.048  1.00  0.00     0.039 A 
ATOM     33  C   UNL A   1      34.055  32.858  29.984  1.00  0.00     0.014 A 
ATOM     34  C   UNL A   1      35.546  34.312  28.747  1.00  0.00     0.014 A 
ATOM     35  C   UNL A   1      35.154  32.247  30.588  1.00  0.00     0.010 A 
ATOM     36  C   UNL A   1      36.644  33.660  29.303  1.00  0.00     0.010 A 
ATOM     37  C   UNL A   1      36.458  32.630  30.237  1.00  0.00    -0.014 A 
BRANCH  37  38
ATOM     38  C   UNL A   1      37.633  31.973  30.859  1.00  0.00     0.031 A 
ATOM     39  C   UNL A   1      38.078  32.369  32.238  1.00  0.00     0.074 A 
ATOM     40  C   UNL A   1      38.324  31.049  30.164  1.00  0.00     0.049 A 
ATOM     41  N   UNL A   1      39.089  31.924  32.942  1.00  0.00    -0.248 NA
ATOM     42  C   UNL A   1      37.301  33.425  32.905  1.00  0.00     0.031 C 
ATOM     43  C   UNL A   1      38.024  30.622  28.796  1.00  0.00     0.029 A 
ATOM     44  N   UNL A   1      39.422  30.305  30.512  1.00  0.00    -0.354 N 
ATOM     45  C   UNL A   1      39.076  32.653  34.124  1.00  0.00     0.074 A 
ATOM     46  C   UNL A   1      37.991  33.604  34.022  1.00  0.00     0.031 C 
ATOM     47  C   UNL A   1      38.901  29.673  28.431  1.00  0.00     0.029 A 
ATOM     48  C   UNL A   1      39.836  29.442  29.528  1.00  0.00     0.049 A 
ATOM     49  H   UNL A   1      39.871  30.383  31.385  1.00  0.00     0.167 HD
ATOM     50  C   UNL A   1      39.882  32.525  35.206  1.00  0.00     0.037 A 
ATOM     51  C   UNL A   1      40.851  28.557  29.518  1.00  0.00     0.037 A 
ATOM     52  C   UNL A   1      40.941  31.557  35.316  1.00  0.00     0.049 A 
ATOM     53  C   UNL A   1      41.703  28.404  30.748  1.00  0.00     0.074 A 
ATOM     54  C   UNL A   1      41.782  31.314  36.387  1.00  0.00     0.029 A 
ATOM     55  N   UNL A   1      41.299  30.665  34.316  1.00  0.00    -0.354 N 
ATOM     56  N   UNL A   1      41.638  29.052  31.886  1.00  0.00    -0.248 NA
ATOM     57  C   UNL A   1      42.756  27.381  30.699  1.00  0.00     0.031 C 
ATOM     58  C   UNL A   1      42.670  30.295  36.024  1.00  0.00     0.029 A 
ATOM     59  C   UNL A   1      42.354  29.875  34.743  1.00  0.00     0.049 A 
ATOM     60  H   UNL A   1      40.869  30.604  33.433  1.00  0.00     0.167 HD
ATOM     61  C   UNL A   1      42.619  28.497  32.697  1.00  0.00     0.074 A 
ATOM     62  C   UNL A   1      43.254  27.449  31.925  1.00  0.00     0.031 C 
ATOM     63  C   UNL A   1      42.963  28.826  33.966  1.00  0.00     0.037 A 
BRANCH  50  64
ATOM     64  C   UNL A   1      39.637  33.451  36.361  1.00  0.00     0.064 A 
ATOM     65  C   UNL A   1      40.232  34.721  36.422  1.00  0.00     0.173 A 
ATOM     66  C   UNL A   1      38.780  33.079  37.406  1.00  0.00     0.173 A 
ATOM     67  F   UNL A   1      41.072  35.119  35.454  1.00  0.00    -0.203 F 
ATOM     68  C   UNL A   1      40.004  35.569  37.502  1.00  0.00     0.198 A 
ATOM     69  C   UNL A   1      38.530  33.941  38.472  1.00  0.00     0.198 A 
ATOM     70  F   UNL A   1      38.181  31.878  37.395  1.00  0.00    -0.203 F 
ATOM     71  F   UNL A   1      40.624  36.755  37.563  1.00  0.00    -0.200 F 
ATOM     72  C   UNL A   1      39.148  35.181  38.522  1.00  0.00     0.200 A 
ATOM     73  F   UNL A   1      37.696  33.569  39.452  1.00  0.00    -0.200 F 
ATOM     74  F   UNL A   1      38.926  36.000  39.559  1.00  0.00    -0.200 F 
ENDBRANCH  50  64
BRANCH  51  75
ATOM     75  C   UNL A   1      41.081  27.708  28.322  1.00  0.00     0.064 A 
ATOM     76  C   UNL A   1      40.446  26.465  28.192  1.00  0.00     0.173 A 
ATOM     77  C   UNL A   1      41.939  28.116  27.292  1.00  0.00     0.173 A 
ATOM     78  F   UNL A   1      39.631  26.026  29.162  1.00  0.00    -0.203 F 
ATOM     79  C   UNL A   1      40.677  25.652  27.085  1.00  0.00     0.198 A 
ATOM     80  C   UNL A   1      42.150  27.312  26.173  1.00  0.00     0.198 A 
ATOM     81  F   UNL A   1      42.565  29.299  27.367  1.00  0.00    -0.203 F 
ATOM     82  F   UNL A   1      40.092  24.450  27.006  1.00  0.00    -0.200 F 
ATOM     83  C   UNL A   1      41.525  26.078  26.074  1.00  0.00     0.200 A 
ATOM     84  F   UNL A   1      42.961  27.733  25.192  1.00  0.00    -0.200 F 
ATOM     85  F   UNL A   1      41.747  25.296  25.009  1.00  0.00    -0.200 F 
ENDBRANCH  51  75
BRANCH  63  86
ATOM     86  C   UNL A   1      44.044  28.012  34.613  1.00  0.00     0.064 A 
ATOM     87  C   UNL A   1      43.760  26.817  35.291  1.00  0.00     0.173 A 
ATOM     88  C   UNL A   1      45.382  28.425  34.537  1.00  0.00     0.173 A 
ATOM     89  F   UNL A   1      42.494  26.389  35.405  1.00  0.00    -0.203 F 
ATOM     90  C   UNL A   1      44.775  26.081  35.897  1.00  0.00     0.198 A 
ATOM     91  C   UNL A   1      46.397  27.672  35.120  1.00  0.00     0.198 A 
ATOM     92  F   UNL A   1      45.705  29.557  33.894  1.00  0.00    -0.203 F 
ATOM     93  F   UNL A   1      44.477  24.970  36.584  1.00  0.00    -0.200 F 
ATOM     94  C   UNL A   1      46.093  26.507  35.806  1.00  0.00     0.200 A 
ATOM     95  F   UNL A   1      47.671  28.079  35.022  1.00  0.00    -0.200 F 
ATOM     96  F   UNL A   1      47.068  25.797  36.389  1.00  0.00    -0.200 F 
ENDBRANCH  63  86
ENDBRANCH  37  38
ENDBRANCH  29  32
ENDBRANCH  27  28
ENDBRANCH  26  27
ENDBRANCH   1  26
TORSDOF 14
ENDMDL
MODEL 3
REMARK VINA RESULT:     -12.9      4.648      9.455
REMARK SMILES CS(=O)(=O)c1ccc(/C=C(/C(=O)NCCCCNC(=O)c2ccc(-c3c4nc(c(-c5c(F)c(F)c(F)c(F)c5F)c5ccc([nH]5)c(-c5c(F)c(F)c(F)c(F)c5F)c5nc(c(-c6c(F)c(F)c(F)c(F)c6F)c6ccc3[nH]6)C=C5)C=C4)cc2)c2ccc(F)cc2)cc1
REMARK SMILES IDX 15 1 14 2 13 3 11 4 12 5 10 7 9 8 8 9 5 10 6 11 92 12 7 13
REMARK SMILES IDX 91 14 2 15 1 16 3 17 4 18 84 19 85 20 90 21 86 22 89 23
REMARK SMILES IDX 87 24 88 25 16 26 17 27 18 28 19 29 20 31 21 32 22 33 83 34
REMARK SMILES IDX 23 35 82 36 24 37 25 38 26 39 76 40 27 41 81 42 75 43 77 44
REMARK SMILES IDX 28 45 80 46 74 47 73 48 29 50 61 51 41 52 60 53 42 54 45 55
REMARK SMILES IDX 59 56 78 57 43 58 44 59 58 61 79 62 46 63 30 64 31 65 39 66
REMARK SMILES IDX 32 67 33 68 37 69 40 70 34 71 35 72 38 73 36 74 62 75 63 76
REMARK SMILES IDX 71 77 64 78 65 79 69 80 72 81 66 82 67 83 70 84 68 85 47 86
REMARK SMILES IDX 48 87 56 88 49 89 50 90 54 91 57 92 51 93 52 94 55 95 53 96
REMARK H PARENT 13 6 18 30 77 49 45 60
REMARK Flexibility Score: inf
ROOT
ATOM      1  C   UNL A   1      35.157  23.636  23.540  1.00  0.00     0.023 C 
ENDROOT
BRANCH   1   2
ATOM      2  C   UNL A   1      33.719  23.992  23.152  1.00  0.00     0.116 C 
BRANCH   2   3
ATOM      3  N   UNL A   1      32.799  23.583  24.195  1.00  0.00    -0.352 N 
ATOM      4  C   UNL A   1      31.842  24.234  24.910  1.00  0.00     0.251 C 
ATOM      5  O   UNL A   1      31.263  23.563  25.768  1.00  0.00    -0.269 OA
ATOM      6  H   UNL A   1      32.884  22.633  24.436  1.00  0.00     0.163 HD
BRANCH   4   7
ATOM      7  C   UNL A   1      31.422  25.664  24.650  1.00  0.00     0.047 C 
ATOM      8  C   UNL A   1      30.577  26.000  23.651  1.00  0.00     0.022 C 
BRANCH   8   9
ATOM      9  C   UNL A   1      29.986  27.312  23.314  1.00  0.00    -0.025 A 
ATOM     10  C   UNL A   1      28.719  29.757  22.771  1.00  0.00     0.067 A 
ATOM     11  C   UNL A   1      30.093  29.625  22.565  1.00  0.00     0.021 A 
ATOM     12  C   UNL A   1      27.962  28.669  23.206  1.00  0.00     0.021 A 
ATOM     13  C   UNL A   1      30.718  28.399  22.823  1.00  0.00     0.009 A 
ATOM     14  C   UNL A   1      28.596  27.453  23.474  1.00  0.00     0.009 A 
BRANCH  10  15
ATOM     15  S   UNL A   1      27.915  31.313  22.471  1.00  0.00     0.175 S 
ATOM     16  C   UNL A   1      29.185  32.535  22.661  1.00  0.00     0.163 C 
ATOM     17  O   UNL A   1      26.960  31.519  23.540  1.00  0.00    -0.224 OA
ATOM     18  O   UNL A   1      27.495  31.301  21.080  1.00  0.00    -0.224 OA
ENDBRANCH  10  15
ENDBRANCH   8   9
BRANCH   7  19
ATOM     19  C   UNL A   1      32.112  26.719  25.434  1.00  0.00    -0.013 A 
ATOM     20  C   UNL A   1      31.450  27.276  26.544  1.00  0.00     0.012 A 
ATOM     21  C   UNL A   1      33.425  27.124  25.149  1.00  0.00     0.012 A 
ATOM     22  C   UNL A   1      32.093  28.197  27.370  1.00  0.00     0.040 A 
ATOM     23  C   UNL A   1      34.070  28.041  25.984  1.00  0.00     0.040 A 
ATOM     24  C   UNL A   1      33.401  28.563  27.087  1.00  0.00     0.123 A 
ATOM     25  F   UNL A   1      34.032  29.424  27.897  1.00  0.00    -0.207 F 
ENDBRANCH   7  19
ENDBRANCH   4   7
ENDBRANCH   2   3
ENDBRANCH   1   2
BRANCH   1  26
ATOM     26  C   UNL A   1      35.320  23.113  24.974  1.00  0.00     0.023 C 
BRANCH  26  27
ATOM     27  C   UNL A   1      36.530  23.654  25.730  1.00  0.00     0.116 C 
BRANCH  27  28
ATOM     28  N   UNL A   1      37.599  22.680  25.864  1.00  0.00    -0.352 N 
ATOM     29  C   UNL A   1      38.879  22.854  26.325  1.00  0.00     0.251 C 
ATOM     30  H   UNL A   1      37.372  21.763  25.585  1.00  0.00     0.163 HD
ATOM     31  O   UNL A   1      39.680  21.925  26.266  1.00  0.00    -0.269 OA
BRANCH  29  32
ATOM     32  C   UNL A   1      39.309  24.163  26.861  1.00  0.00     0.039 A 
ATOM     33  C   UNL A   1      39.035  24.454  28.200  1.00  0.00     0.014 A 
ATOM     34  C   UNL A   1      39.950  25.109  26.055  1.00  0.00     0.014 A 
ATOM     35  C   UNL A   1      39.439  25.674  28.743  1.00  0.00     0.010 A 
ATOM     36  C   UNL A   1      40.407  26.300  26.613  1.00  0.00     0.010 A 
ATOM     37  C   UNL A   1      40.146  26.598  27.959  1.00  0.00    -0.014 A 
BRANCH  37  38
ATOM     38  C   UNL A   1      40.596  27.890  28.532  1.00  0.00     0.031 A 
ATOM     39  C   UNL A   1      42.045  28.107  28.859  1.00  0.00     0.074 A 
ATOM     40  C   UNL A   1      39.690  28.852  28.795  1.00  0.00     0.049 A 
ATOM     41  N   UNL A   1      42.629  29.158  29.380  1.00  0.00    -0.248 NA
ATOM     42  C   UNL A   1      42.959  26.986  28.591  1.00  0.00     0.031 C 
ATOM     43  C   UNL A   1      38.248  28.738  28.575  1.00  0.00     0.029 A 
ATOM     44  N   UNL A   1      39.851  30.113  29.309  1.00  0.00    -0.354 N 
ATOM     45  C   UNL A   1      43.969  28.818  29.514  1.00  0.00     0.074 A 
ATOM     46  C   UNL A   1      44.104  27.449  29.068  1.00  0.00     0.031 C 
ATOM     47  C   UNL A   1      37.658  29.892  28.928  1.00  0.00     0.029 A 
ATOM     48  C   UNL A   1      38.676  30.816  29.418  1.00  0.00     0.049 A 
ATOM     49  H   UNL A   1      40.725  30.480  29.575  1.00  0.00     0.167 HD
ATOM     50  C   UNL A   1      44.997  29.587  29.947  1.00  0.00     0.037 A 
ATOM     51  C   UNL A   1      38.450  32.069  29.856  1.00  0.00     0.037 A 
ATOM     52  C   UNL A   1      44.864  30.959  30.360  1.00  0.00     0.049 A 
ATOM     53  C   UNL A   1      39.615  32.916  30.290  1.00  0.00     0.074 A 
ATOM     54  C   UNL A   1      45.851  31.839  30.770  1.00  0.00     0.029 A 
ATOM     55  N   UNL A   1      43.664  31.653  30.411  1.00  0.00    -0.354 N 
ATOM     56  N   UNL A   1      40.887  32.606  30.348  1.00  0.00    -0.248 NA
ATOM     57  C   UNL A   1      39.312  34.293  30.700  1.00  0.00     0.031 C 
ATOM     58  C   UNL A   1      45.243  33.057  31.097  1.00  0.00     0.029 A 
ATOM     59  C   UNL A   1      43.884  32.948  30.850  1.00  0.00     0.049 A 
ATOM     60  H   UNL A   1      42.786  31.280  30.171  1.00  0.00     0.167 HD
ATOM     61  C   UNL A   1      41.540  33.756  30.770  1.00  0.00     0.074 A 
ATOM     62  C   UNL A   1      40.524  34.774  30.939  1.00  0.00     0.031 C 
ATOM     63  C   UNL A   1      42.862  33.952  30.998  1.00  0.00     0.037 A 
BRANCH  50  64
ATOM     64  C   UNL A   1      46.360  28.959  29.983  1.00  0.00     0.064 A 
ATOM     65  C   UNL A   1      46.838  28.309  31.132  1.00  0.00     0.173 A 
ATOM     66  C   UNL A   1      47.188  28.984  28.852  1.00  0.00     0.173 A 
ATOM     67  F   UNL A   1      46.090  28.271  32.245  1.00  0.00    -0.203 F 
ATOM     68  C   UNL A   1      48.106  27.736  31.156  1.00  0.00     0.198 A 
ATOM     69  C   UNL A   1      48.445  28.384  28.870  1.00  0.00     0.198 A 
ATOM     70  F   UNL A   1      46.778  29.588  27.726  1.00  0.00    -0.203 F 
ATOM     71  F   UNL A   1      48.560  27.167  32.281  1.00  0.00    -0.200 F 
ATOM     72  C   UNL A   1      48.906  27.768  30.024  1.00  0.00     0.200 A 
ATOM     73  F   UNL A   1      49.213  28.407  27.772  1.00  0.00    -0.200 F 
ATOM     74  F   UNL A   1      50.125  27.213  30.048  1.00  0.00    -0.200 F 
ENDBRANCH  50  64
BRANCH  51  75
ATOM     75  C   UNL A   1      37.070  32.617  29.852  1.00  0.00     0.064 A 
ATOM     76  C   UNL A   1      36.572  33.298  28.733  1.00  0.00     0.173 A 
ATOM     77  C   UNL A   1      36.226  32.476  30.962  1.00  0.00     0.173 A 
ATOM     78  F   UNL A   1      37.350  33.473  27.655  1.00  0.00    -0.203 F 
ATOM     79  C   UNL A   1      35.287  33.836  28.732  1.00  0.00     0.198 A 
ATOM     80  C   UNL A   1      34.932  32.994  30.950  1.00  0.00     0.198 A 
ATOM     81  F   UNL A   1      36.655  31.827  32.054  1.00  0.00    -0.203 F 
ATOM     82  F   UNL A   1      34.851  34.521  27.666  1.00  0.00    -0.200 F 
ATOM     83  C   UNL A   1      34.467  33.680  29.838  1.00  0.00     0.200 A 
ATOM     84  F   UNL A   1      34.137  32.830  32.017  1.00  0.00    -0.200 F 
ATOM     85  F   UNL A   1      33.231  34.198  29.837  1.00  0.00    -0.200 F 
ENDBRANCH  51  75
BRANCH  63  86
ATOM     86  C   UNL A   1      43.288  35.330  31.410  1.00  0.00     0.064 A 
ATOM     87  C   UNL A   1      43.697  36.286  30.469  1.00  0.00     0.173 A 
ATOM     88  C   UNL A   1      43.267  35.702  32.761  1.00  0.00     0.173 A 
ATOM     89  F   UNL A   1      43.749  35.972  29.165  1.00  0.00    -0.203 F 
ATOM     90  C   UNL A   1      44.101  37.557  30.870  1.00  0.00     0.198 A 
ATOM     91  C   UNL A   1      43.645  36.982  33.157  1.00  0.00     0.198 A 
ATOM     92  F   UNL A   1      42.876  34.826  33.699  1.00  0.00    -0.203 F 
ATOM     93  F   UNL A   1      44.538  38.437  29.960  1.00  0.00    -0.200 F 
ATOM     94  C   UNL A   1      44.069  37.905  32.213  1.00  0.00     0.200 A 
ATOM     95  F   UNL A   1      43.603  37.321  34.453  1.00  0.00    -0.200 F 
ATOM     96  F   UNL A   1      44.458  39.128  32.598  1.00  0.00    -0.200 F 
ENDBRANCH  63  86
ENDBRANCH  37  38
ENDBRANCH  29  32
ENDBRANCH  27  28
ENDBRANCH  26  27
ENDBRANCH   1  26
TORSDOF 14
ENDMDL
