MODEL 1
REMARK VINA RESULT:     -14.1      0.000      0.000
REMARK SMILES Cc1ccc(-c2cc(OCC(=O)NCCCCNC(=O)c3ccc(-c4c5nc(c(-c6c(F)c(F)c(F)c(F)c6F)c6ccc([nH]6)c(-c6c(F)c(F)c(F)c(F)c6F)c6nc(c(-c7c(F)c(F)c(F)c(F)c7F)c7ccc4[nH]7)C=C6)C=C5)cc3)nc(NCc3ccc4c(c3)OCO4)n2)cc1
REMARK SMILES IDX 14 1 13 2 11 3 12 4 10 6 9 7 8 8 6 9 7 10 97 11 85 12 84 13
REMARK SMILES IDX 5 14 1 15 2 16 3 17 99 18 4 19 98 20 86 21 87 23 88 24 89 25
REMARK SMILES IDX 93 26 90 27 92 28 91 29 94 30 96 31 95 32 15 33 16 34 17 35
REMARK SMILES IDX 18 36 19 37 20 39 21 40 22 41 83 42 23 43 82 44 24 45 25 46
REMARK SMILES IDX 26 47 76 48 27 49 81 50 75 51 77 52 28 53 80 54 74 55 73 56
REMARK SMILES IDX 29 58 61 59 41 60 60 61 42 62 45 63 59 64 78 65 43 66 44 67
REMARK SMILES IDX 58 69 79 70 46 71 30 72 31 73 39 74 32 75 33 76 37 77 40 78
REMARK SMILES IDX 34 79 35 80 38 81 36 82 62 83 63 84 71 85 64 86 65 87 69 88
REMARK SMILES IDX 72 89 66 90 67 91 70 92 68 93 47 94 48 95 56 96 49 97 50 98
REMARK SMILES IDX 54 99 57 100 51 101 52 102 55 103 53 104
REMARK H PARENT 13 5 86 22 18 38 77 57 45 68
REMARK Flexibility Score: inf
ROOT
ATOM      1  C   UNL A   1      31.421  29.471  24.711  1.00  0.00     0.116 C 
ENDROOT
BRANCH   1   2
ATOM      2  N   UNL A   1      32.605  29.395  23.873  1.00  0.00    -0.353 N 
ATOM      3  C   UNL A   1      33.331  28.298  23.511  1.00  0.00     0.258 C 
ATOM      4  O   UNL A   1      34.297  28.450  22.759  1.00  0.00    -0.271 OA
ATOM      5  H   UNL A   1      32.928  30.254  23.516  1.00  0.00     0.163 HD
BRANCH   3   6
ATOM      6  C   UNL A   1      32.934  26.910  24.023  1.00  0.00     0.331 C 
BRANCH   6   7
ATOM      7  O   UNL A   1      33.868  26.262  24.869  1.00  0.00    -0.467 OA
BRANCH   7   8
ATOM      8  C   UNL A   1      34.332  25.040  24.474  1.00  0.00     0.219 A 
ATOM      9  C   UNL A   1      35.737  23.182  24.440  1.00  0.00     0.080 A 
ATOM     10  C   UNL A   1      35.480  24.446  24.927  1.00  0.00     0.097 A 
ATOM     11  N   UNL A   1      34.950  22.575  23.530  1.00  0.00    -0.213 NA
ATOM     12  C   UNL A   1      33.855  23.234  23.144  1.00  0.00     0.226 A 
ATOM     13  N   UNL A   1      33.516  24.447  23.591  1.00  0.00    -0.177 NA
BRANCH   9  14
ATOM     14  C   UNL A   1      36.866  22.404  24.960  1.00  0.00     0.000 A 
ATOM     15  C   UNL A   1      40.345  20.218  26.314  1.00  0.00     0.044 C 
ATOM     16  C   UNL A   1      39.129  20.975  25.868  1.00  0.00    -0.051 A 
ATOM     17  C   UNL A   1      38.151  20.343  25.090  1.00  0.00     0.004 A 
ATOM     18  C   UNL A   1      38.965  22.322  26.201  1.00  0.00     0.004 A 
ATOM     19  C   UNL A   1      37.026  21.048  24.649  1.00  0.00     0.010 A 
ATOM     20  C   UNL A   1      37.847  23.027  25.751  1.00  0.00     0.010 A 
ENDBRANCH   9  14
BRANCH  12  21
ATOM     21  N   UNL A   1      32.962  22.674  22.270  1.00  0.00    -0.350 N 
ATOM     22  H   UNL A   1      33.103  22.783  21.302  1.00  0.00     0.164 HD
BRANCH  21  23
ATOM     23  C   UNL A   1      31.820  21.929  22.735  1.00  0.00     0.152 C 
BRANCH  23  24
ATOM     24  C   UNL A   1      32.194  20.608  23.384  1.00  0.00    -0.025 A 
ATOM     25  C   UNL A   1      32.331  20.565  24.794  1.00  0.00     0.009 A 
ATOM     26  C   UNL A   1      32.393  19.424  22.648  1.00  0.00     0.056 A 
ATOM     27  C   UNL A   1      32.704  19.388  25.455  1.00  0.00     0.051 A 
ATOM     28  C   UNL A   1      32.784  18.289  23.323  1.00  0.00     0.166 A 
ATOM     29  C   UNL A   1      32.943  18.272  24.687  1.00  0.00     0.165 A 
ATOM     30  O   UNL A   1      33.078  17.089  22.752  1.00  0.00    -0.454 OA
ATOM     31  O   UNL A   1      33.367  17.062  25.142  1.00  0.00    -0.454 OA
ATOM     32  C   UNL A   1      33.590  16.375  23.894  1.00  0.00     0.468 C 
ENDBRANCH  23  24
ENDBRANCH  21  23
ENDBRANCH  12  21
ENDBRANCH   7   8
ENDBRANCH   6   7
ENDBRANCH   3   6
ENDBRANCH   1   2
BRANCH   1  33
ATOM     33  C   UNL A   1      31.714  29.395  26.215  1.00  0.00     0.023 C 
BRANCH  33  34
ATOM     34  C   UNL A   1      32.475  30.580  26.816  1.00  0.00     0.023 C 
BRANCH  34  35
ATOM     35  C   UNL A   1      33.859  30.238  27.347  1.00  0.00     0.116 C 
BRANCH  35  36
ATOM     36  N   UNL A   1      34.477  31.260  28.180  1.00  0.00    -0.352 N 
ATOM     37  C   UNL A   1      35.623  31.196  28.962  1.00  0.00     0.251 C 
ATOM     38  H   UNL A   1      34.012  32.127  28.191  1.00  0.00     0.163 HD
ATOM     39  O   UNL A   1      35.918  32.130  29.687  1.00  0.00    -0.269 OA
BRANCH  37  40
ATOM     40  C   UNL A   1      36.564  30.052  28.811  1.00  0.00     0.039 A 
ATOM     41  C   UNL A   1      36.744  29.196  29.908  1.00  0.00     0.014 A 
ATOM     42  C   UNL A   1      37.395  29.936  27.704  1.00  0.00     0.014 A 
ATOM     43  C   UNL A   1      37.904  28.429  29.998  1.00  0.00     0.010 A 
ATOM     44  C   UNL A   1      38.598  29.279  27.842  1.00  0.00     0.010 A 
ATOM     45  C   UNL A   1      38.880  28.578  29.016  1.00  0.00    -0.014 A 
BRANCH  45  46
ATOM     46  C   UNL A   1      40.265  28.156  29.175  1.00  0.00     0.031 A 
ATOM     47  C   UNL A   1      40.733  26.871  28.620  1.00  0.00     0.074 A 
ATOM     48  C   UNL A   1      41.157  29.037  29.681  1.00  0.00     0.049 A 
ATOM     49  N   UNL A   1      41.793  26.258  29.025  1.00  0.00    -0.248 NA
ATOM     50  C   UNL A   1      40.030  26.162  27.557  1.00  0.00     0.031 C 
ATOM     51  C   UNL A   1      42.614  28.965  29.611  1.00  0.00     0.029 A 
ATOM     52  N   UNL A   1      40.905  30.123  30.536  1.00  0.00    -0.354 N 
ATOM     53  C   UNL A   1      42.073  25.266  28.114  1.00  0.00     0.074 A 
ATOM     54  C   UNL A   1      40.911  25.204  27.257  1.00  0.00     0.031 C 
ATOM     55  C   UNL A   1      43.135  29.728  30.584  1.00  0.00     0.029 A 
ATOM     56  C   UNL A   1      42.025  30.190  31.398  1.00  0.00     0.049 A 
ATOM     57  H   UNL A   1      40.116  30.712  30.535  1.00  0.00     0.167 HD
ATOM     58  C   UNL A   1      43.318  24.708  28.096  1.00  0.00     0.037 A 
ATOM     59  C   UNL A   1      41.902  29.980  32.741  1.00  0.00     0.037 A 
ATOM     60  C   UNL A   1      44.171  25.281  29.133  1.00  0.00     0.049 A 
ATOM     61  C   UNL A   1      42.745  28.839  33.257  1.00  0.00     0.074 A 
ATOM     62  C   UNL A   1      45.141  26.271  29.102  1.00  0.00     0.029 A 
ATOM     63  N   UNL A   1      43.862  25.077  30.473  1.00  0.00    -0.354 N 
ATOM     64  N   UNL A   1      43.194  27.872  32.507  1.00  0.00    -0.248 NA
ATOM     65  C   UNL A   1      43.136  28.688  34.654  1.00  0.00     0.031 C 
ATOM     66  C   UNL A   1      45.405  26.674  30.431  1.00  0.00     0.029 A 
ATOM     67  C   UNL A   1      44.603  25.924  31.272  1.00  0.00     0.049 A 
ATOM     68  H   UNL A   1      43.207  24.420  30.805  1.00  0.00     0.167 HD
ATOM     69  C   UNL A   1      43.916  26.991  33.272  1.00  0.00     0.074 A 
ATOM     70  C   UNL A   1      43.859  27.554  34.608  1.00  0.00     0.031 C 
ATOM     71  C   UNL A   1      44.496  25.880  32.723  1.00  0.00     0.037 A 
BRANCH  58  72
ATOM     72  C   UNL A   1      43.838  23.878  26.944  1.00  0.00     0.064 A 
ATOM     73  C   UNL A   1      43.468  22.523  26.793  1.00  0.00     0.173 A 
ATOM     74  C   UNL A   1      44.746  24.352  25.980  1.00  0.00     0.173 A 
ATOM     75  F   UNL A   1      42.526  21.961  27.560  1.00  0.00    -0.203 F 
ATOM     76  C   UNL A   1      44.057  21.685  25.843  1.00  0.00     0.198 A 
ATOM     77  C   UNL A   1      45.377  23.502  25.066  1.00  0.00     0.198 A 
ATOM     78  F   UNL A   1      45.015  25.660  25.870  1.00  0.00    -0.203 F 
ATOM     79  F   UNL A   1      43.674  20.404  25.760  1.00  0.00    -0.200 F 
ATOM     80  C   UNL A   1      45.043  22.165  25.007  1.00  0.00     0.200 A 
ATOM     81  F   UNL A   1      46.316  23.991  24.242  1.00  0.00    -0.200 F 
ATOM     82  F   UNL A   1      45.647  21.348  24.133  1.00  0.00    -0.200 F 
ENDBRANCH  58  72
BRANCH  59  83
ATOM     83  C   UNL A   1      40.570  30.378  33.267  1.00  0.00     0.064 A 
ATOM     84  C   UNL A   1      40.280  31.755  33.362  1.00  0.00     0.173 A 
ATOM     85  C   UNL A   1      39.489  29.488  33.274  1.00  0.00     0.173 A 
ATOM     86  F   UNL A   1      41.282  32.649  33.355  1.00  0.00    -0.203 F 
ATOM     87  C   UNL A   1      38.970  32.224  33.329  1.00  0.00     0.198 A 
ATOM     88  C   UNL A   1      38.175  29.963  33.259  1.00  0.00     0.198 A 
ATOM     89  F   UNL A   1      39.697  28.169  33.169  1.00  0.00    -0.203 F 
ATOM     90  F   UNL A   1      38.735  33.543  33.288  1.00  0.00    -0.200 F 
ATOM     91  C   UNL A   1      37.919  31.327  33.247  1.00  0.00     0.200 A 
ATOM     92  F   UNL A   1      37.156  29.099  33.153  1.00  0.00    -0.200 F 
ATOM     93  F   UNL A   1      36.664  31.776  33.112  1.00  0.00    -0.200 F 
ENDBRANCH  59  83
BRANCH  71  94
ATOM     94  C   UNL A   1      45.116  24.702  33.449  1.00  0.00     0.064 A 
ATOM     95  C   UNL A   1      44.455  23.494  33.720  1.00  0.00     0.173 A 
ATOM     96  C   UNL A   1      46.499  24.712  33.778  1.00  0.00     0.173 A 
ATOM     97  F   UNL A   1      43.183  23.293  33.356  1.00  0.00    -0.203 F 
ATOM     98  C   UNL A   1      45.103  22.410  34.325  1.00  0.00     0.198 A 
ATOM     99  C   UNL A   1      47.156  23.609  34.321  1.00  0.00     0.198 A 
ATOM    100  F   UNL A   1      47.272  25.785  33.557  1.00  0.00    -0.203 F 
ATOM    101  F   UNL A   1      44.411  21.296  34.600  1.00  0.00    -0.200 F 
ATOM    102  C   UNL A   1      46.454  22.461  34.611  1.00  0.00     0.200 A 
ATOM    103  F   UNL A   1      48.478  23.663  34.539  1.00  0.00    -0.200 F 
ATOM    104  F   UNL A   1      47.079  21.403  35.140  1.00  0.00    -0.200 F 
ENDBRANCH  71  94
ENDBRANCH  45  46
ENDBRANCH  37  40
ENDBRANCH  35  36
ENDBRANCH  34  35
ENDBRANCH  33  34
ENDBRANCH   1  33
TORSDOF 17
ENDMDL
MODEL 2
REMARK VINA RESULT:     -13.9      3.786     10.417
REMARK SMILES Cc1ccc(-c2cc(OCC(=O)NCCCCNC(=O)c3ccc(-c4c5nc(c(-c6c(F)c(F)c(F)c(F)c6F)c6ccc([nH]6)c(-c6c(F)c(F)c(F)c(F)c6F)c6nc(c(-c7c(F)c(F)c(F)c(F)c7F)c7ccc4[nH]7)C=C6)C=C5)cc3)nc(NCc3ccc4c(c3)OCO4)n2)cc1
REMARK SMILES IDX 14 1 13 2 11 3 12 4 10 6 9 7 8 8 6 9 7 10 97 11 85 12 84 13
REMARK SMILES IDX 5 14 1 15 2 16 3 17 99 18 4 19 98 20 86 21 87 23 88 24 89 25
REMARK SMILES IDX 93 26 90 27 92 28 91 29 94 30 96 31 95 32 15 33 16 34 17 35
REMARK SMILES IDX 18 36 19 37 20 39 21 40 22 41 83 42 23 43 82 44 24 45 25 46
REMARK SMILES IDX 26 47 76 48 27 49 81 50 75 51 77 52 28 53 80 54 74 55 73 56
REMARK SMILES IDX 29 58 61 59 41 60 60 61 42 62 45 63 59 64 78 65 43 66 44 67
REMARK SMILES IDX 58 69 79 70 46 71 30 72 31 73 39 74 32 75 33 76 37 77 40 78
REMARK SMILES IDX 34 79 35 80 38 81 36 82 62 83 63 84 71 85 64 86 65 87 69 88
REMARK SMILES IDX 72 89 66 90 67 91 70 92 68 93 47 94 48 95 56 96 49 97 50 98
REMARK SMILES IDX 54 99 57 100 51 101 52 102 55 103 53 104
REMARK H PARENT 13 5 86 22 18 38 77 57 45 68
REMARK Flexibility Score: inf
ROOT
ATOM      1  C   UNL A   1      35.294  21.566  25.564  1.00  0.00     0.116 C 
ENDROOT
BRANCH   1   2
ATOM      2  N   UNL A   1      34.102  20.745  25.446  1.00  0.00    -0.353 N 
ATOM      3  C   UNL A   1      32.821  21.126  25.171  1.00  0.00     0.258 C 
ATOM      4  O   UNL A   1      31.949  20.257  25.087  1.00  0.00    -0.271 OA
ATOM      5  H   UNL A   1      34.236  19.779  25.584  1.00  0.00     0.163 HD
BRANCH   3   6
ATOM      6  C   UNL A   1      32.488  22.607  24.958  1.00  0.00     0.331 C 
BRANCH   6   7
ATOM      7  O   UNL A   1      32.868  23.491  25.998  1.00  0.00    -0.467 OA
BRANCH   7   8
ATOM      8  C   UNL A   1      32.287  24.727  26.014  1.00  0.00     0.219 A 
ATOM      9  C   UNL A   1      32.141  27.029  26.342  1.00  0.00     0.080 A 
ATOM     10  C   UNL A   1      32.884  25.874  26.465  1.00  0.00     0.097 A 
ATOM     11  N   UNL A   1      30.881  27.040  25.864  1.00  0.00    -0.213 NA
ATOM     12  C   UNL A   1      30.381  25.871  25.454  1.00  0.00     0.226 A 
ATOM     13  N   UNL A   1      31.046  24.714  25.508  1.00  0.00    -0.177 NA
BRANCH   9  14
ATOM     14  C   UNL A   1      32.734  28.329  26.668  1.00  0.00     0.000 A 
ATOM     15  C   UNL A   1      34.512  32.084  27.874  1.00  0.00     0.044 C 
ATOM     16  C   UNL A   1      33.905  30.786  27.433  1.00  0.00    -0.051 A 
ATOM     17  C   UNL A   1      32.520  30.682  27.249  1.00  0.00     0.004 A 
ATOM     18  C   UNL A   1      34.703  29.660  27.220  1.00  0.00     0.004 A 
ATOM     19  C   UNL A   1      31.942  29.468  26.861  1.00  0.00     0.010 A 
ATOM     20  C   UNL A   1      34.124  28.447  26.843  1.00  0.00     0.010 A 
ENDBRANCH   9  14
BRANCH  12  21
ATOM     21  N   UNL A   1      29.133  25.791  24.896  1.00  0.00    -0.350 N 
ATOM     22  H   UNL A   1      28.370  25.527  25.460  1.00  0.00     0.164 HD
BRANCH  21  23
ATOM     23  C   UNL A   1      28.910  26.084  23.504  1.00  0.00     0.152 C 
BRANCH  23  24
ATOM     24  C   UNL A   1      28.915  27.571  23.199  1.00  0.00    -0.025 A 
ATOM     25  C   UNL A   1      30.088  28.142  22.644  1.00  0.00     0.009 A 
ATOM     26  C   UNL A   1      27.801  28.402  23.426  1.00  0.00     0.056 A 
ATOM     27  C   UNL A   1      30.173  29.512  22.368  1.00  0.00     0.051 A 
ATOM     28  C   UNL A   1      27.923  29.750  23.168  1.00  0.00     0.166 A 
ATOM     29  C   UNL A   1      29.078  30.292  22.661  1.00  0.00     0.165 A 
ATOM     30  O   UNL A   1      26.966  30.690  23.397  1.00  0.00    -0.454 OA
ATOM     31  O   UNL A   1      28.994  31.642  22.515  1.00  0.00    -0.454 OA
ATOM     32  C   UNL A   1      27.711  31.893  23.124  1.00  0.00     0.468 C 
ENDBRANCH  23  24
ENDBRANCH  21  23
ENDBRANCH  12  21
ENDBRANCH   7   8
ENDBRANCH   6   7
ENDBRANCH   3   6
ENDBRANCH   1   2
BRANCH   1  33
ATOM     33  C   UNL A   1      36.566  20.902  25.022  1.00  0.00     0.023 C 
BRANCH  33  34
ATOM     34  C   UNL A   1      37.749  21.833  24.742  1.00  0.00     0.023 C 
BRANCH  34  35
ATOM     35  C   UNL A   1      38.178  22.683  25.928  1.00  0.00     0.116 C 
BRANCH  35  36
ATOM     36  N   UNL A   1      39.579  22.562  26.307  1.00  0.00    -0.352 N 
ATOM     37  C   UNL A   1      40.478  23.539  26.714  1.00  0.00     0.251 C 
ATOM     38  H   UNL A   1      39.944  21.649  26.269  1.00  0.00     0.163 HD
ATOM     39  O   UNL A   1      41.651  23.257  26.878  1.00  0.00    -0.269 OA
BRANCH  37  40
ATOM     40  C   UNL A   1      39.984  24.895  27.085  1.00  0.00     0.039 A 
ATOM     41  C   UNL A   1      40.384  25.982  26.295  1.00  0.00     0.014 A 
ATOM     42  C   UNL A   1      39.320  25.123  28.284  1.00  0.00     0.014 A 
ATOM     43  C   UNL A   1      40.357  27.269  26.830  1.00  0.00     0.010 A 
ATOM     44  C   UNL A   1      39.405  26.369  28.865  1.00  0.00     0.010 A 
ATOM     45  C   UNL A   1      39.983  27.429  28.162  1.00  0.00    -0.014 A 
BRANCH  45  46
ATOM     46  C   UNL A   1      40.273  28.618  28.951  1.00  0.00     0.031 A 
ATOM     47  C   UNL A   1      39.243  29.652  29.167  1.00  0.00     0.074 A 
ATOM     48  C   UNL A   1      41.439  28.675  29.632  1.00  0.00     0.049 A 
ATOM     49  N   UNL A   1      39.507  30.868  29.508  1.00  0.00    -0.248 NA
ATOM     50  C   UNL A   1      37.816  29.398  29.005  1.00  0.00     0.031 C 
ATOM     51  C   UNL A   1      41.784  29.576  30.728  1.00  0.00     0.029 A 
ATOM     52  N   UNL A   1      42.643  28.015  29.336  1.00  0.00    -0.354 N 
ATOM     53  C   UNL A   1      38.325  31.459  29.890  1.00  0.00     0.074 A 
ATOM     54  C   UNL A   1      37.294  30.526  29.496  1.00  0.00     0.031 C 
ATOM     55  C   UNL A   1      43.121  29.653  30.824  1.00  0.00     0.029 A 
ATOM     56  C   UNL A   1      43.668  28.920  29.697  1.00  0.00     0.049 A 
ATOM     57  H   UNL A   1      42.750  27.112  28.957  1.00  0.00     0.167 HD
ATOM     58  C   UNL A   1      38.360  32.605  30.629  1.00  0.00     0.037 A 
ATOM     59  C   UNL A   1      44.516  29.443  28.764  1.00  0.00     0.037 A 
ATOM     60  C   UNL A   1      39.733  33.040  30.870  1.00  0.00     0.049 A 
ATOM     61  C   UNL A   1      44.488  30.952  28.695  1.00  0.00     0.074 A 
ATOM     62  C   UNL A   1      40.584  32.887  31.953  1.00  0.00     0.029 A 
ATOM     63  N   UNL A   1      40.526  33.447  29.802  1.00  0.00    -0.354 N 
ATOM     64  N   UNL A   1      43.492  31.678  29.120  1.00  0.00    -0.248 NA
ATOM     65  C   UNL A   1      45.567  31.757  28.134  1.00  0.00     0.031 C 
ATOM     66  C   UNL A   1      41.899  33.190  31.530  1.00  0.00     0.029 A 
ATOM     67  C   UNL A   1      41.847  33.536  30.191  1.00  0.00     0.049 A 
ATOM     68  H   UNL A   1      40.191  33.644  28.897  1.00  0.00     0.167 HD
ATOM     69  C   UNL A   1      43.768  33.006  28.910  1.00  0.00     0.074 A 
ATOM     70  C   UNL A   1      45.084  33.002  28.300  1.00  0.00     0.031 C 
ATOM     71  C   UNL A   1      42.878  33.982  29.266  1.00  0.00     0.037 A 
BRANCH  58  72
ATOM     72  C   UNL A   1      37.165  33.142  31.384  1.00  0.00     0.064 A 
ATOM     73  C   UNL A   1      37.027  32.940  32.776  1.00  0.00     0.173 A 
ATOM     74  C   UNL A   1      36.094  33.824  30.778  1.00  0.00     0.173 A 
ATOM     75  F   UNL A   1      38.011  32.411  33.511  1.00  0.00    -0.203 F 
ATOM     76  C   UNL A   1      35.861  33.273  33.471  1.00  0.00     0.198 A 
ATOM     77  C   UNL A   1      34.906  34.107  31.460  1.00  0.00     0.198 A 
ATOM     78  F   UNL A   1      36.185  34.273  29.519  1.00  0.00    -0.203 F 
ATOM     79  F   UNL A   1      35.786  33.042  34.788  1.00  0.00    -0.200 F 
ATOM     80  C   UNL A   1      34.785  33.818  32.804  1.00  0.00     0.200 A 
ATOM     81  F   UNL A   1      33.877  34.661  30.802  1.00  0.00    -0.200 F 
ATOM     82  F   UNL A   1      33.647  34.087  33.460  1.00  0.00    -0.200 F 
ENDBRANCH  58  72
BRANCH  59  83
ATOM     83  C   UNL A   1      44.742  28.529  27.613  1.00  0.00     0.064 A 
ATOM     84  C   UNL A   1      45.540  27.386  27.823  1.00  0.00     0.173 A 
ATOM     85  C   UNL A   1      43.894  28.530  26.500  1.00  0.00     0.173 A 
ATOM     86  F   UNL A   1      46.367  27.334  28.881  1.00  0.00    -0.203 F 
ATOM     87  C   UNL A   1      45.397  26.247  27.036  1.00  0.00     0.198 A 
ATOM     88  C   UNL A   1      43.767  27.391  25.700  1.00  0.00     0.198 A 
ATOM     89  F   UNL A   1      43.098  29.580  26.254  1.00  0.00    -0.203 F 
ATOM     90  F   UNL A   1      46.075  25.133  27.345  1.00  0.00    -0.200 F 
ATOM     91  C   UNL A   1      44.488  26.241  25.992  1.00  0.00     0.200 A 
ATOM     92  F   UNL A   1      42.868  27.373  24.706  1.00  0.00    -0.200 F 
ATOM     93  F   UNL A   1      44.273  25.116  25.297  1.00  0.00    -0.200 F 
ENDBRANCH  59  83
BRANCH  71  94
ATOM     94  C   UNL A   1      42.919  35.454  28.900  1.00  0.00     0.064 A 
ATOM     95  C   UNL A   1      42.323  36.007  27.757  1.00  0.00     0.173 A 
ATOM     96  C   UNL A   1      43.464  36.402  29.808  1.00  0.00     0.173 A 
ATOM     97  F   UNL A   1      41.664  35.249  26.871  1.00  0.00    -0.203 F 
ATOM     98  C   UNL A   1      42.324  37.386  27.509  1.00  0.00     0.198 A 
ATOM     99  C   UNL A   1      43.407  37.778  29.589  1.00  0.00     0.198 A 
ATOM    100  F   UNL A   1      44.046  36.030  30.957  1.00  0.00    -0.203 F 
ATOM    101  F   UNL A   1      41.778  37.855  26.379  1.00  0.00    -0.200 F 
ATOM    102  C   UNL A   1      42.852  38.270  28.430  1.00  0.00     0.200 A 
ATOM    103  F   UNL A   1      43.876  38.619  30.522  1.00  0.00    -0.200 F 
ATOM    104  F   UNL A   1      42.804  39.590  28.212  1.00  0.00    -0.200 F 
ENDBRANCH  71  94
ENDBRANCH  45  46
ENDBRANCH  37  40
ENDBRANCH  35  36
ENDBRANCH  34  35
ENDBRANCH  33  34
ENDBRANCH   1  33
TORSDOF 17
ENDMDL
MODEL 3
REMARK VINA RESULT:     -13.9      1.868      4.043
REMARK SMILES Cc1ccc(-c2cc(OCC(=O)NCCCCNC(=O)c3ccc(-c4c5nc(c(-c6c(F)c(F)c(F)c(F)c6F)c6ccc([nH]6)c(-c6c(F)c(F)c(F)c(F)c6F)c6nc(c(-c7c(F)c(F)c(F)c(F)c7F)c7ccc4[nH]7)C=C6)C=C5)cc3)nc(NCc3ccc4c(c3)OCO4)n2)cc1
REMARK SMILES IDX 14 1 13 2 11 3 12 4 10 6 9 7 8 8 6 9 7 10 97 11 85 12 84 13
REMARK SMILES IDX 5 14 1 15 2 16 3 17 99 18 4 19 98 20 86 21 87 23 88 24 89 25
REMARK SMILES IDX 93 26 90 27 92 28 91 29 94 30 96 31 95 32 15 33 16 34 17 35
REMARK SMILES IDX 18 36 19 37 20 39 21 40 22 41 83 42 23 43 82 44 24 45 25 46
REMARK SMILES IDX 26 47 76 48 27 49 81 50 75 51 77 52 28 53 80 54 74 55 73 56
REMARK SMILES IDX 29 58 61 59 41 60 60 61 42 62 45 63 59 64 78 65 43 66 44 67
REMARK SMILES IDX 58 69 79 70 46 71 30 72 31 73 39 74 32 75 33 76 37 77 40 78
REMARK SMILES IDX 34 79 35 80 38 81 36 82 62 83 63 84 71 85 64 86 65 87 69 88
REMARK SMILES IDX 72 89 66 90 67 91 70 92 68 93 47 94 48 95 56 96 49 97 50 98
REMARK SMILES IDX 54 99 57 100 51 101 52 102 55 103 53 104
REMARK H PARENT 13 5 86 22 18 38 77 57 45 68
REMARK Flexibility Score: inf
ROOT
ATOM      1  C   UNL A   1      31.631  29.724  25.439  1.00  0.00     0.116 C 
ENDROOT
BRANCH   1   2
ATOM      2  N   UNL A   1      32.739  29.615  24.506  1.00  0.00    -0.353 N 
ATOM      3  C   UNL A   1      33.585  28.565  24.296  1.00  0.00     0.258 C 
ATOM      4  O   UNL A   1      34.452  28.669  23.426  1.00  0.00    -0.271 OA
ATOM      5  H   UNL A   1      32.902  30.409  23.947  1.00  0.00     0.163 HD
BRANCH   3   6
ATOM      6  C   UNL A   1      33.439  27.284  25.124  1.00  0.00     0.331 C 
BRANCH   6   7
ATOM      7  O   UNL A   1      34.086  26.131  24.615  1.00  0.00    -0.467 OA
BRANCH   7   8
ATOM      8  C   UNL A   1      33.303  25.056  24.303  1.00  0.00     0.219 A 
ATOM      9  C   UNL A   1      32.755  22.813  23.995  1.00  0.00     0.080 A 
ATOM     10  C   UNL A   1      33.723  23.753  24.282  1.00  0.00     0.097 A 
ATOM     11  N   UNL A   1      31.484  23.141  23.693  1.00  0.00    -0.213 NA
ATOM     12  C   UNL A   1      31.170  24.439  23.734  1.00  0.00     0.226 A 
ATOM     13  N   UNL A   1      32.038  25.409  24.035  1.00  0.00    -0.177 NA
BRANCH   9  14
ATOM     14  C   UNL A   1      33.065  21.383  24.078  1.00  0.00     0.000 A 
ATOM     15  C   UNL A   1      34.164  17.199  24.146  1.00  0.00     0.044 C 
ATOM     16  C   UNL A   1      33.776  18.647  24.146  1.00  0.00    -0.051 A 
ATOM     17  C   UNL A   1      32.627  19.070  23.465  1.00  0.00     0.004 A 
ATOM     18  C   UNL A   1      34.561  19.597  24.804  1.00  0.00     0.004 A 
ATOM     19  C   UNL A   1      32.271  20.422  23.440  1.00  0.00     0.010 A 
ATOM     20  C   UNL A   1      34.210  20.948  24.770  1.00  0.00     0.010 A 
ENDBRANCH   9  14
BRANCH  12  21
ATOM     21  N   UNL A   1      29.889  24.866  23.503  1.00  0.00    -0.350 N 
ATOM     22  H   UNL A   1      29.409  24.538  22.709  1.00  0.00     0.164 HD
BRANCH  21  23
ATOM     23  C   UNL A   1      29.230  25.784  24.395  1.00  0.00     0.152 C 
BRANCH  23  24
ATOM     24  C   UNL A   1      28.823  27.083  23.721  1.00  0.00    -0.025 A 
ATOM     25  C   UNL A   1      27.467  27.488  23.802  1.00  0.00     0.009 A 
ATOM     26  C   UNL A   1      29.736  27.906  23.036  1.00  0.00     0.056 A 
ATOM     27  C   UNL A   1      27.017  28.658  23.177  1.00  0.00     0.051 A 
ATOM     28  C   UNL A   1      29.259  29.037  22.410  1.00  0.00     0.166 A 
ATOM     29  C   UNL A   1      27.936  29.400  22.472  1.00  0.00     0.165 A 
ATOM     30  O   UNL A   1      29.997  29.897  21.656  1.00  0.00    -0.454 OA
ATOM     31  O   UNL A   1      27.676  30.527  21.757  1.00  0.00    -0.454 OA
ATOM     32  C   UNL A   1      28.956  30.742  21.128  1.00  0.00     0.468 C 
ENDBRANCH  23  24
ENDBRANCH  21  23
ENDBRANCH  12  21
ENDBRANCH   7   8
ENDBRANCH   6   7
ENDBRANCH   3   6
ENDBRANCH   1   2
BRANCH   1  33
ATOM     33  C   UNL A   1      32.060  29.876  26.904  1.00  0.00     0.023 C 
BRANCH  33  34
ATOM     34  C   UNL A   1      32.950  31.079  27.227  1.00  0.00     0.023 C 
BRANCH  34  35
ATOM     35  C   UNL A   1      34.424  30.747  27.403  1.00  0.00     0.116 C 
BRANCH  35  36
ATOM     36  N   UNL A   1      35.160  31.630  28.297  1.00  0.00    -0.352 N 
ATOM     37  C   UNL A   1      36.270  31.370  29.088  1.00  0.00     0.251 C 
ATOM     38  H   UNL A   1      34.818  32.552  28.347  1.00  0.00     0.163 HD
ATOM     39  O   UNL A   1      36.677  32.216  29.865  1.00  0.00    -0.269 OA
BRANCH  37  40
ATOM     40  C   UNL A   1      37.048  30.115  28.889  1.00  0.00     0.039 A 
ATOM     41  C   UNL A   1      37.161  29.230  29.971  1.00  0.00     0.014 A 
ATOM     42  C   UNL A   1      37.811  29.907  27.746  1.00  0.00     0.014 A 
ATOM     43  C   UNL A   1      38.216  28.318  30.006  1.00  0.00     0.010 A 
ATOM     44  C   UNL A   1      38.924  29.098  27.828  1.00  0.00     0.010 A 
ATOM     45  C   UNL A   1      39.161  28.353  28.984  1.00  0.00    -0.014 A 
BRANCH  45  46
ATOM     46  C   UNL A   1      40.485  27.753  29.081  1.00  0.00     0.031 A 
ATOM     47  C   UNL A   1      40.713  26.353  28.676  1.00  0.00     0.074 A 
ATOM     48  C   UNL A   1      41.536  28.550  29.376  1.00  0.00     0.049 A 
ATOM     49  N   UNL A   1      41.717  25.646  29.071  1.00  0.00    -0.248 NA
ATOM     50  C   UNL A   1      39.811  25.625  27.790  1.00  0.00     0.031 C 
ATOM     51  C   UNL A   1      42.954  28.254  29.191  1.00  0.00     0.029 A 
ATOM     52  N   UNL A   1      41.527  29.762  30.087  1.00  0.00    -0.354 N 
ATOM     53  C   UNL A   1      41.761  24.514  28.290  1.00  0.00     0.074 A 
ATOM     54  C   UNL A   1      40.517  24.516  27.554  1.00  0.00     0.031 C 
ATOM     55  C   UNL A   1      43.674  29.049  29.997  1.00  0.00     0.029 A 
ATOM     56  C   UNL A   1      42.730  29.772  30.830  1.00  0.00     0.049 A 
ATOM     57  H   UNL A   1      40.829  30.457  30.070  1.00  0.00     0.167 HD
ATOM     58  C   UNL A   1      42.911  23.780  28.243  1.00  0.00     0.037 A 
ATOM     59  C   UNL A   1      42.723  29.757  32.195  1.00  0.00     0.037 A 
ATOM     60  C   UNL A   1      43.939  24.349  29.110  1.00  0.00     0.049 A 
ATOM     61  C   UNL A   1      43.454  28.579  32.793  1.00  0.00     0.074 A 
ATOM     62  C   UNL A   1      45.025  25.171  28.854  1.00  0.00     0.029 A 
ATOM     63  N   UNL A   1      43.749  24.367  30.487  1.00  0.00    -0.354 N 
ATOM     64  N   UNL A   1      43.686  27.468  32.152  1.00  0.00    -0.248 NA
ATOM     65  C   UNL A   1      43.968  28.553  34.158  1.00  0.00     0.031 C 
ATOM     66  C   UNL A   1      45.481  25.698  30.084  1.00  0.00     0.029 A 
ATOM     67  C   UNL A   1      44.679  25.190  31.090  1.00  0.00     0.049 A 
ATOM     68  H   UNL A   1      43.051  23.863  30.964  1.00  0.00     0.167 HD
ATOM     69  C   UNL A   1      44.359  26.595  32.969  1.00  0.00     0.074 A 
ATOM     70  C   UNL A   1      44.521  27.328  34.211  1.00  0.00     0.031 C 
ATOM     71  C   UNL A   1      44.721  25.350  32.536  1.00  0.00     0.037 A 
BRANCH  58  72
ATOM     72  C   UNL A   1      43.188  22.741  27.181  1.00  0.00     0.064 A 
ATOM     73  C   UNL A   1      42.502  21.506  27.168  1.00  0.00     0.173 A 
ATOM     74  C   UNL A   1      44.157  22.887  26.171  1.00  0.00     0.173 A 
ATOM     75  F   UNL A   1      41.475  21.263  27.991  1.00  0.00    -0.203 F 
ATOM     76  C   UNL A   1      42.850  20.462  26.308  1.00  0.00     0.198 A 
ATOM     77  C   UNL A   1      44.544  21.825  25.347  1.00  0.00     0.198 A 
ATOM     78  F   UNL A   1      44.727  24.075  25.928  1.00  0.00    -0.203 F 
ATOM     79  F   UNL A   1      42.172  19.307  26.356  1.00  0.00    -0.200 F 
ATOM     80  C   UNL A   1      43.899  20.607  25.425  1.00  0.00     0.200 A 
ATOM     81  F   UNL A   1      45.550  21.992  24.477  1.00  0.00    -0.200 F 
ATOM     82  F   UNL A   1      44.269  19.588  24.638  1.00  0.00    -0.200 F 
ENDBRANCH  58  72
BRANCH  59  83
ATOM     83  C   UNL A   1      41.521  30.413  32.772  1.00  0.00     0.064 A 
ATOM     84  C   UNL A   1      41.446  31.820  32.721  1.00  0.00     0.173 A 
ATOM     85  C   UNL A   1      40.328  29.709  32.974  1.00  0.00     0.173 A 
ATOM     86  F   UNL A   1      42.562  32.542  32.524  1.00  0.00    -0.203 F 
ATOM     87  C   UNL A   1      40.221  32.481  32.735  1.00  0.00     0.198 A 
ATOM     88  C   UNL A   1      39.102  30.379  33.006  1.00  0.00     0.198 A 
ATOM     89  F   UNL A   1      40.330  28.369  33.015  1.00  0.00    -0.203 F 
ATOM     90  F   UNL A   1      40.177  33.809  32.551  1.00  0.00    -0.200 F 
ATOM     91  C   UNL A   1      39.047  31.757  32.848  1.00  0.00     0.200 A 
ATOM     92  F   UNL A   1      37.962  29.677  33.088  1.00  0.00    -0.200 F 
ATOM     93  F   UNL A   1      37.864  32.378  32.759  1.00  0.00    -0.200 F 
ENDBRANCH  59  83
BRANCH  71  94
ATOM     94  C   UNL A   1      45.251  24.195  33.366  1.00  0.00     0.064 A 
ATOM     95  C   UNL A   1      44.534  23.023  33.649  1.00  0.00     0.173 A 
ATOM     96  C   UNL A   1      46.606  24.185  33.795  1.00  0.00     0.173 A 
ATOM     97  F   UNL A   1      43.285  22.838  33.203  1.00  0.00    -0.203 F 
ATOM     98  C   UNL A   1      45.102  21.955  34.355  1.00  0.00     0.198 A 
ATOM     99  C   UNL A   1      47.187  23.095  34.441  1.00  0.00     0.198 A 
ATOM    100  F   UNL A   1      47.426  25.223  33.576  1.00  0.00    -0.203 F 
ATOM    101  F   UNL A   1      44.356  20.877  34.636  1.00  0.00    -0.200 F 
ATOM    102  C   UNL A   1      46.429  21.984  34.737  1.00  0.00     0.200 A 
ATOM    103  F   UNL A   1      48.490  23.124  34.754  1.00  0.00    -0.200 F 
ATOM    104  F   UNL A   1      46.981  20.939  35.366  1.00  0.00    -0.200 F 
ENDBRANCH  71  94
ENDBRANCH  45  46
ENDBRANCH  37  40
ENDBRANCH  35  36
ENDBRANCH  34  35
ENDBRANCH  33  34
ENDBRANCH   1  33
TORSDOF 17
ENDMDL
