MODEL 1
REMARK VINA RESULT:     -10.9      0.000      0.000
REMARK SMILES CC(C)N(CC(F)(F)F)C(=O)N(CC(=O)NCCCCNC(=O)c1ccc(-c2c3nc(c(-c4c(F)c(F)c(F)c(F)c4F)c4ccc([nH]4)c(-c4c(F)c(F)c(F)c(F)c4F)c4nc(c(-c5c(F)c(F)c(F)c(F)c5F)c5ccc2[nH]5)C=C4)C=C3)cc1)C(C)(C)C
REMARK SMILES IDX 17 1 16 2 14 3 15 4 13 6 12 7 10 8 11 9 4 10 2 11 1 12 3 13
REMARK SMILES IDX 5 14 6 15 7 16 8 17 9 18 87 19 88 20 89 21 90 22 18 23 19 24
REMARK SMILES IDX 20 25 21 26 22 27 23 29 24 30 25 31 86 32 26 33 85 34 27 35
REMARK SMILES IDX 28 36 29 37 79 38 30 39 84 40 78 41 80 42 31 43 83 44 77 45
REMARK SMILES IDX 76 46 32 48 64 49 44 50 63 51 45 52 48 53 62 54 81 55 46 56
REMARK SMILES IDX 47 57 61 59 82 60 49 61 33 62 34 63 42 64 35 65 36 66 40 67
REMARK SMILES IDX 43 68 37 69 38 70 41 71 39 72 65 73 66 74 74 75 67 76 68 77
REMARK SMILES IDX 72 78 75 79 69 80 70 81 73 82 71 83 50 84 51 85 59 86 52 87
REMARK SMILES IDX 53 88 57 89 60 90 54 91 55 92 58 93 56 94
REMARK H PARENT 16 5 21 28 80 47 48 58
REMARK Flexibility Score: inf
ROOT
ATOM      1  C   UNL A   1      32.958  30.101  26.454  1.00  0.00     0.116 C 
ENDROOT
BRANCH   1   2
ATOM      2  N   UNL A   1      33.668  29.713  25.258  1.00  0.00    -0.355 N 
ATOM      3  C   UNL A   1      33.624  28.538  24.572  1.00  0.00     0.239 C 
ATOM      4  O   UNL A   1      34.040  28.550  23.408  1.00  0.00    -0.273 OA
ATOM      5  H   UNL A   1      34.272  30.395  24.885  1.00  0.00     0.163 HD
BRANCH   3   6
ATOM      6  C   UNL A   1      32.932  27.282  25.131  1.00  0.00     0.221 C 
BRANCH   6   7
ATOM      7  N   UNL A   1      32.600  26.176  24.218  1.00  0.00    -0.311 N 
BRANCH   7   8
ATOM      8  C   UNL A   1      33.467  25.194  23.733  1.00  0.00     0.321 C 
ATOM      9  O   UNL A   1      33.964  25.351  22.612  1.00  0.00    -0.248 OA
BRANCH   8  10
ATOM     10  N   UNL A   1      33.859  24.067  24.449  1.00  0.00    -0.313 N 
BRANCH  10  11
ATOM     11  C   UNL A   1      34.221  22.847  23.656  1.00  0.00     0.081 C 
ATOM     12  C   UNL A   1      35.369  22.052  24.287  1.00  0.00     0.031 C 
ATOM     13  C   UNL A   1      33.030  21.956  23.284  1.00  0.00     0.031 C 
ENDBRANCH  10  11
BRANCH  10  14
ATOM     14  C   UNL A   1      33.836  23.794  25.910  1.00  0.00     0.237 C 
BRANCH  14  15
ATOM     15  C   UNL A   1      32.437  23.631  26.543  1.00  0.00     0.406 C 
ATOM     16  F   UNL A   1      31.557  23.016  25.725  1.00  0.00    -0.169 F 
ATOM     17  F   UNL A   1      32.510  22.887  27.670  1.00  0.00    -0.169 F 
ATOM     18  F   UNL A   1      31.892  24.822  26.885  1.00  0.00    -0.169 F 
ENDBRANCH  14  15
ENDBRANCH  10  14
ENDBRANCH   8  10
ENDBRANCH   7   8
BRANCH   7  19
ATOM     19  C   UNL A   1      31.184  26.223  23.619  1.00  0.00     0.037 C 
ATOM     20  C   UNL A   1      30.691  24.819  23.208  1.00  0.00     0.034 C 
ATOM     21  C   UNL A   1      30.175  26.858  24.607  1.00  0.00     0.034 C 
ATOM     22  C   UNL A   1      31.061  27.084  22.328  1.00  0.00     0.034 C 
ENDBRANCH   7  19
ENDBRANCH   6   7
ENDBRANCH   3   6
ENDBRANCH   1   2
BRANCH   1  23
ATOM     23  C   UNL A   1      31.565  30.652  26.181  1.00  0.00     0.023 C 
BRANCH  23  24
ATOM     24  C   UNL A   1      31.412  32.125  26.527  1.00  0.00     0.023 C 
BRANCH  24  25
ATOM     25  C   UNL A   1      32.612  32.705  27.253  1.00  0.00     0.116 C 
BRANCH  25  26
ATOM     26  N   UNL A   1      32.407  34.095  27.638  1.00  0.00    -0.352 N 
ATOM     27  C   UNL A   1      33.038  34.809  28.626  1.00  0.00     0.251 C 
ATOM     28  H   UNL A   1      31.727  34.585  27.122  1.00  0.00     0.163 HD
ATOM     29  O   UNL A   1      32.631  35.909  28.967  1.00  0.00    -0.269 OA
BRANCH  27  30
ATOM     30  C   UNL A   1      34.213  34.208  29.286  1.00  0.00     0.039 A 
ATOM     31  C   UNL A   1      34.020  33.321  30.344  1.00  0.00     0.014 A 
ATOM     32  C   UNL A   1      35.499  34.489  28.815  1.00  0.00     0.014 A 
ATOM     33  C   UNL A   1      35.124  32.676  30.900  1.00  0.00     0.010 A 
ATOM     34  C   UNL A   1      36.579  33.765  29.295  1.00  0.00     0.010 A 
ATOM     35  C   UNL A   1      36.407  32.871  30.362  1.00  0.00    -0.014 A 
BRANCH  35  36
ATOM     36  C   UNL A   1      37.595  32.195  30.938  1.00  0.00     0.031 A 
ATOM     37  C   UNL A   1      38.088  32.600  32.302  1.00  0.00     0.074 A 
ATOM     38  C   UNL A   1      38.244  31.252  30.229  1.00  0.00     0.049 A 
ATOM     39  N   UNL A   1      39.130  32.171  32.968  1.00  0.00    -0.248 NA
ATOM     40  C   UNL A   1      37.326  33.651  32.998  1.00  0.00     0.031 C 
ATOM     41  C   UNL A   1      37.892  30.812  28.877  1.00  0.00     0.029 A 
ATOM     42  N   UNL A   1      39.342  30.495  30.548  1.00  0.00    -0.354 N 
ATOM     43  C   UNL A   1      39.144  32.898  34.151  1.00  0.00     0.074 A 
ATOM     44  C   UNL A   1      38.064  33.856  34.076  1.00  0.00     0.031 C 
ATOM     45  C   UNL A   1      38.736  29.839  28.498  1.00  0.00     0.029 A 
ATOM     46  C   UNL A   1      39.710  29.613  29.560  1.00  0.00     0.049 A 
ATOM     47  H   UNL A   1      39.821  30.574  31.405  1.00  0.00     0.167 HD
ATOM     48  C   UNL A   1      39.956  32.754  35.225  1.00  0.00     0.037 A 
ATOM     49  C   UNL A   1      40.722  28.726  29.524  1.00  0.00     0.037 A 
ATOM     50  C   UNL A   1      41.019  31.788  35.302  1.00  0.00     0.049 A 
ATOM     51  C   UNL A   1      41.623  28.600  30.724  1.00  0.00     0.074 A 
ATOM     52  C   UNL A   1      41.896  31.550  36.345  1.00  0.00     0.029 A 
ATOM     53  N   UNL A   1      41.346  30.896  34.290  1.00  0.00    -0.354 N 
ATOM     54  N   UNL A   1      41.592  29.255  31.861  1.00  0.00    -0.248 NA
ATOM     55  C   UNL A   1      42.694  27.597  30.642  1.00  0.00     0.031 C 
ATOM     56  C   UNL A   1      42.777  30.538  35.951  1.00  0.00     0.029 A 
ATOM     57  C   UNL A   1      42.413  30.106  34.685  1.00  0.00     0.049 A 
ATOM     58  H   UNL A   1      40.887  30.834  33.422  1.00  0.00     0.167 HD
ATOM     59  C   UNL A   1      42.602  28.711  32.643  1.00  0.00     0.074 A 
ATOM     60  C   UNL A   1      43.218  27.663  31.857  1.00  0.00     0.031 C 
ATOM     61  C   UNL A   1      42.990  29.048  33.898  1.00  0.00     0.037 A 
BRANCH  48  62
ATOM     62  C   UNL A   1      39.704  33.644  36.408  1.00  0.00     0.064 A 
ATOM     63  C   UNL A   1      40.281  34.921  36.496  1.00  0.00     0.173 A 
ATOM     64  C   UNL A   1      38.856  33.235  37.447  1.00  0.00     0.173 A 
ATOM     65  F   UNL A   1      41.113  35.355  35.537  1.00  0.00    -0.203 F 
ATOM     66  C   UNL A   1      40.042  35.742  37.594  1.00  0.00     0.198 A 
ATOM     67  C   UNL A   1      38.592  34.073  38.528  1.00  0.00     0.198 A 
ATOM     68  F   UNL A   1      38.277  32.026  37.413  1.00  0.00    -0.203 F 
ATOM     69  F   UNL A   1      40.648  36.934  37.682  1.00  0.00    -0.200 F 
ATOM     70  C   UNL A   1      39.190  35.322  38.604  1.00  0.00     0.200 A 
ATOM     71  F   UNL A   1      37.758  33.671  39.497  1.00  0.00    -0.200 F 
ATOM     72  F   UNL A   1      38.952  36.118  39.656  1.00  0.00    -0.200 F 
ENDBRANCH  48  62
BRANCH  49  73
ATOM     73  C   UNL A   1      40.928  27.863  28.328  1.00  0.00     0.064 A 
ATOM     74  C   UNL A   1      41.692  28.309  27.239  1.00  0.00     0.173 A 
ATOM     75  C   UNL A   1      40.327  26.600  28.227  1.00  0.00     0.173 A 
ATOM     76  F   UNL A   1      42.275  29.516  27.280  1.00  0.00    -0.203 F 
ATOM     77  C   UNL A   1      41.806  27.547  26.078  1.00  0.00     0.198 A 
ATOM     78  C   UNL A   1      40.472  25.824  27.079  1.00  0.00     0.198 A 
ATOM     79  F   UNL A   1      39.593  26.120  29.241  1.00  0.00    -0.203 F 
ATOM     80  F   UNL A   1      42.478  28.032  25.026  1.00  0.00    -0.200 F 
ATOM     81  C   UNL A   1      41.197  26.304  25.999  1.00  0.00     0.200 A 
ATOM     82  F   UNL A   1      39.896  24.615  27.013  1.00  0.00    -0.200 F 
ATOM     83  F   UNL A   1      41.297  25.576  24.879  1.00  0.00    -0.200 F 
ENDBRANCH  49  73
BRANCH  61  84
ATOM     84  C   UNL A   1      44.078  28.223  34.525  1.00  0.00     0.064 A 
ATOM     85  C   UNL A   1      43.806  27.036  35.221  1.00  0.00     0.173 A 
ATOM     86  C   UNL A   1      45.419  28.624  34.411  1.00  0.00     0.173 A 
ATOM     87  F   UNL A   1      42.542  26.614  35.368  1.00  0.00    -0.203 F 
ATOM     88  C   UNL A   1      44.830  26.307  35.819  1.00  0.00     0.198 A 
ATOM     89  C   UNL A   1      46.443  27.873  34.976  1.00  0.00     0.198 A 
ATOM     90  F   UNL A   1      45.735  29.745  33.744  1.00  0.00    -0.203 F 
ATOM     91  F   UNL A   1      44.540  25.215  36.539  1.00  0.00    -0.200 F 
ATOM     92  C   UNL A   1      46.148  26.723  35.692  1.00  0.00     0.200 A 
ATOM     93  F   UNL A   1      47.717  28.265  34.836  1.00  0.00    -0.200 F 
ATOM     94  F   UNL A   1      47.132  26.019  36.268  1.00  0.00    -0.200 F 
ENDBRANCH  61  84
ENDBRANCH  35  36
ENDBRANCH  27  30
ENDBRANCH  25  26
ENDBRANCH  24  25
ENDBRANCH  23  24
ENDBRANCH   1  23
TORSDOF 18
ENDMDL
MODEL 2
REMARK VINA RESULT:     -10.9      5.210      9.441
REMARK SMILES CC(C)N(CC(F)(F)F)C(=O)N(CC(=O)NCCCCNC(=O)c1ccc(-c2c3nc(c(-c4c(F)c(F)c(F)c(F)c4F)c4ccc([nH]4)c(-c4c(F)c(F)c(F)c(F)c4F)c4nc(c(-c5c(F)c(F)c(F)c(F)c5F)c5ccc2[nH]5)C=C4)C=C3)cc1)C(C)(C)C
REMARK SMILES IDX 17 1 16 2 14 3 15 4 13 6 12 7 10 8 11 9 4 10 2 11 1 12 3 13
REMARK SMILES IDX 5 14 6 15 7 16 8 17 9 18 87 19 88 20 89 21 90 22 18 23 19 24
REMARK SMILES IDX 20 25 21 26 22 27 23 29 24 30 25 31 86 32 26 33 85 34 27 35
REMARK SMILES IDX 28 36 29 37 79 38 30 39 84 40 78 41 80 42 31 43 83 44 77 45
REMARK SMILES IDX 76 46 32 48 64 49 44 50 63 51 45 52 48 53 62 54 81 55 46 56
REMARK SMILES IDX 47 57 61 59 82 60 49 61 33 62 34 63 42 64 35 65 36 66 40 67
REMARK SMILES IDX 43 68 37 69 38 70 41 71 39 72 65 73 66 74 74 75 67 76 68 77
REMARK SMILES IDX 72 78 75 79 69 80 70 81 73 82 71 83 50 84 51 85 59 86 52 87
REMARK SMILES IDX 53 88 57 89 60 90 54 91 55 92 58 93 56 94
REMARK H PARENT 16 5 21 28 80 47 48 58
REMARK Flexibility Score: inf
ROOT
ATOM      1  C   UNL A   1      37.063  22.101  25.449  1.00  0.00     0.116 C 
ENDROOT
BRANCH   1   2
ATOM      2  N   UNL A   1      36.214  22.439  26.568  1.00  0.00    -0.355 N 
ATOM      3  C   UNL A   1      35.019  23.088  26.577  1.00  0.00     0.239 C 
ATOM      4  O   UNL A   1      34.318  22.963  27.588  1.00  0.00    -0.273 OA
ATOM      5  H   UNL A   1      36.549  22.159  27.451  1.00  0.00     0.163 HD
BRANCH   3   6
ATOM      6  C   UNL A   1      34.460  23.807  25.336  1.00  0.00     0.221 C 
BRANCH   6   7
ATOM      7  N   UNL A   1      33.021  24.108  25.265  1.00  0.00    -0.311 N 
BRANCH   7   8
ATOM      8  C   UNL A   1      32.348  25.162  25.886  1.00  0.00     0.321 C 
ATOM      9  O   UNL A   1      31.610  24.906  26.844  1.00  0.00    -0.248 OA
BRANCH   8  10
ATOM     10  N   UNL A   1      32.492  26.502  25.538  1.00  0.00    -0.313 N 
BRANCH  10  11
ATOM     11  C   UNL A   1      32.858  27.457  26.634  1.00  0.00     0.081 C 
ATOM     12  C   UNL A   1      33.879  28.508  26.185  1.00  0.00     0.031 C 
ATOM     13  C   UNL A   1      31.659  28.081  27.357  1.00  0.00     0.031 C 
ENDBRANCH  10  11
BRANCH  10  14
ATOM     14  C   UNL A   1      32.189  27.207  24.265  1.00  0.00     0.237 C 
BRANCH  14  15
ATOM     15  C   UNL A   1      30.703  27.552  24.022  1.00  0.00     0.406 C 
ATOM     16  F   UNL A   1      30.318  27.347  22.745  1.00  0.00    -0.169 F 
ATOM     17  F   UNL A   1      29.906  26.785  24.800  1.00  0.00    -0.169 F 
ATOM     18  F   UNL A   1      30.427  28.843  24.315  1.00  0.00    -0.169 F 
ENDBRANCH  14  15
ENDBRANCH  10  14
ENDBRANCH   8  10
ENDBRANCH   7   8
BRANCH   7  19
ATOM     19  C   UNL A   1      32.162  23.043  24.561  1.00  0.00     0.037 C 
ATOM     20  C   UNL A   1      30.966  23.675  23.817  1.00  0.00     0.034 C 
ATOM     21  C   UNL A   1      33.005  22.204  23.569  1.00  0.00     0.034 C 
ATOM     22  C   UNL A   1      31.528  21.993  25.520  1.00  0.00     0.034 C 
ENDBRANCH   7  19
ENDBRANCH   6   7
ENDBRANCH   3   6
ENDBRANCH   1   2
BRANCH   1  23
ATOM     23  C   UNL A   1      36.847  20.687  24.928  1.00  0.00     0.023 C 
BRANCH  23  24
ATOM     24  C   UNL A   1      38.134  19.894  24.760  1.00  0.00     0.023 C 
BRANCH  24  25
ATOM     25  C   UNL A   1      39.195  20.237  25.789  1.00  0.00     0.116 C 
BRANCH  25  26
ATOM     26  N   UNL A   1      40.171  19.168  25.955  1.00  0.00    -0.352 N 
ATOM     27  C   UNL A   1      41.530  19.271  26.130  1.00  0.00     0.251 C 
ATOM     28  H   UNL A   1      39.809  18.253  25.937  1.00  0.00     0.163 HD
ATOM     29  O   UNL A   1      42.250  18.288  26.061  1.00  0.00    -0.269 OA
BRANCH  27  30
ATOM     30  C   UNL A   1      42.105  20.606  26.384  1.00  0.00     0.039 A 
ATOM     31  C   UNL A   1      42.394  21.439  25.305  1.00  0.00     0.014 A 
ATOM     32  C   UNL A   1      42.308  21.041  27.697  1.00  0.00     0.014 A 
ATOM     33  C   UNL A   1      42.842  22.737  25.549  1.00  0.00     0.010 A 
ATOM     34  C   UNL A   1      42.646  22.364  27.937  1.00  0.00     0.010 A 
ATOM     35  C   UNL A   1      42.944  23.218  26.865  1.00  0.00    -0.014 A 
BRANCH  35  36
ATOM     36  C   UNL A   1      43.420  24.594  27.147  1.00  0.00     0.031 A 
ATOM     37  C   UNL A   1      42.456  25.612  27.695  1.00  0.00     0.074 A 
ATOM     38  C   UNL A   1      44.695  24.934  26.881  1.00  0.00     0.049 A 
ATOM     39  N   UNL A   1      42.652  26.878  27.967  1.00  0.00    -0.248 NA
ATOM     40  C   UNL A   1      41.076  25.157  27.939  1.00  0.00     0.031 C 
ATOM     41  C   UNL A   1      45.707  24.049  26.302  1.00  0.00     0.029 A 
ATOM     42  N   UNL A   1      45.357  26.122  27.062  1.00  0.00    -0.354 N 
ATOM     43  C   UNL A   1      41.428  27.361  28.411  1.00  0.00     0.074 A 
ATOM     44  C   UNL A   1      40.474  26.282  28.288  1.00  0.00     0.031 C 
ATOM     45  C   UNL A   1      46.870  24.714  26.207  1.00  0.00     0.029 A 
ATOM     46  C   UNL A   1      46.677  26.081  26.681  1.00  0.00     0.049 A 
ATOM     47  H   UNL A   1      44.929  26.927  27.430  1.00  0.00     0.167 HD
ATOM     48  C   UNL A   1      41.131  28.580  28.917  1.00  0.00     0.037 A 
ATOM     49  C   UNL A   1      47.619  27.042  26.714  1.00  0.00     0.037 A 
ATOM     50  C   UNL A   1      42.087  29.647  29.052  1.00  0.00     0.049 A 
ATOM     51  C   UNL A   1      47.256  28.397  27.263  1.00  0.00     0.074 A 
ATOM     52  C   UNL A   1      41.897  30.919  29.561  1.00  0.00     0.029 A 
ATOM     53  N   UNL A   1      43.421  29.559  28.679  1.00  0.00    -0.354 N 
ATOM     54  N   UNL A   1      46.108  28.825  27.732  1.00  0.00    -0.248 NA
ATOM     55  C   UNL A   1      48.329  29.401  27.302  1.00  0.00     0.031 C 
ATOM     56  C   UNL A   1      43.106  31.614  29.461  1.00  0.00     0.029 A 
ATOM     57  C   UNL A   1      44.064  30.756  28.944  1.00  0.00     0.049 A 
ATOM     58  H   UNL A   1      43.845  28.764  28.283  1.00  0.00     0.167 HD
ATOM     59  C   UNL A   1      46.333  30.125  28.165  1.00  0.00     0.074 A 
ATOM     60  C   UNL A   1      47.730  30.410  27.916  1.00  0.00     0.031 C 
ATOM     61  C   UNL A   1      45.464  31.007  28.717  1.00  0.00     0.037 A 
BRANCH  48  62
ATOM     62  C   UNL A   1      39.723  28.812  29.384  1.00  0.00     0.064 A 
ATOM     63  C   UNL A   1      38.738  29.309  28.514  1.00  0.00     0.173 A 
ATOM     64  C   UNL A   1      39.343  28.508  30.699  1.00  0.00     0.173 A 
ATOM     65  F   UNL A   1      39.052  29.633  27.251  1.00  0.00    -0.203 F 
ATOM     66  C   UNL A   1      37.434  29.520  28.952  1.00  0.00     0.198 A 
ATOM     67  C   UNL A   1      38.028  28.688  31.124  1.00  0.00     0.198 A 
ATOM     68  F   UNL A   1      40.241  28.030  31.571  1.00  0.00    -0.203 F 
ATOM     69  F   UNL A   1      36.526  30.047  28.119  1.00  0.00    -0.200 F 
ATOM     70  C   UNL A   1      37.077  29.200  30.253  1.00  0.00     0.200 A 
ATOM     71  F   UNL A   1      37.681  28.366  32.378  1.00  0.00    -0.200 F 
ATOM     72  F   UNL A   1      35.819  29.393  30.671  1.00  0.00    -0.200 F 
ENDBRANCH  48  62
BRANCH  49  73
ATOM     73  C   UNL A   1      49.003  26.762  26.243  1.00  0.00     0.064 A 
ATOM     74  C   UNL A   1      49.374  27.000  24.911  1.00  0.00     0.173 A 
ATOM     75  C   UNL A   1      49.965  26.203  27.095  1.00  0.00     0.173 A 
ATOM     76  F   UNL A   1      48.485  27.519  24.051  1.00  0.00    -0.203 F 
ATOM     77  C   UNL A   1      50.638  26.647  24.440  1.00  0.00     0.198 A 
ATOM     78  C   UNL A   1      51.240  25.884  26.632  1.00  0.00     0.198 A 
ATOM     79  F   UNL A   1      49.668  25.962  28.380  1.00  0.00    -0.203 F 
ATOM     80  F   UNL A   1      50.938  26.817  23.145  1.00  0.00    -0.200 F 
ATOM     81  C   UNL A   1      51.570  26.090  25.301  1.00  0.00     0.200 A 
ATOM     82  F   UNL A   1      52.145  25.362  27.472  1.00  0.00    -0.200 F 
ATOM     83  F   UNL A   1      52.781  25.741  24.846  1.00  0.00    -0.200 F 
ENDBRANCH  49  73
BRANCH  61  84
ATOM     84  C   UNL A   1      46.018  32.332  29.159  1.00  0.00     0.064 A 
ATOM     85  C   UNL A   1      46.034  33.452  28.315  1.00  0.00     0.173 A 
ATOM     86  C   UNL A   1      46.526  32.483  30.459  1.00  0.00     0.173 A 
ATOM     87  F   UNL A   1      45.571  33.358  27.060  1.00  0.00    -0.203 F 
ATOM     88  C   UNL A   1      46.582  34.659  28.739  1.00  0.00     0.198 A 
ATOM     89  C   UNL A   1      47.036  33.701  30.894  1.00  0.00     0.198 A 
ATOM     90  F   UNL A   1      46.522  31.446  31.312  1.00  0.00    -0.203 F 
ATOM     91  F   UNL A   1      46.652  35.695  27.893  1.00  0.00    -0.200 F 
ATOM     92  C   UNL A   1      47.077  34.785  30.030  1.00  0.00     0.200 A 
ATOM     93  F   UNL A   1      47.497  33.826  32.145  1.00  0.00    -0.200 F 
ATOM     94  F   UNL A   1      47.603  35.948  30.436  1.00  0.00    -0.200 F 
ENDBRANCH  61  84
ENDBRANCH  35  36
ENDBRANCH  27  30
ENDBRANCH  25  26
ENDBRANCH  24  25
ENDBRANCH  23  24
ENDBRANCH   1  23
TORSDOF 18
ENDMDL
MODEL 3
REMARK VINA RESULT:     -10.8      1.130      2.470
REMARK SMILES CC(C)N(CC(F)(F)F)C(=O)N(CC(=O)NCCCCNC(=O)c1ccc(-c2c3nc(c(-c4c(F)c(F)c(F)c(F)c4F)c4ccc([nH]4)c(-c4c(F)c(F)c(F)c(F)c4F)c4nc(c(-c5c(F)c(F)c(F)c(F)c5F)c5ccc2[nH]5)C=C4)C=C3)cc1)C(C)(C)C
REMARK SMILES IDX 17 1 16 2 14 3 15 4 13 6 12 7 10 8 11 9 4 10 2 11 1 12 3 13
REMARK SMILES IDX 5 14 6 15 7 16 8 17 9 18 87 19 88 20 89 21 90 22 18 23 19 24
REMARK SMILES IDX 20 25 21 26 22 27 23 29 24 30 25 31 86 32 26 33 85 34 27 35
REMARK SMILES IDX 28 36 29 37 79 38 30 39 84 40 78 41 80 42 31 43 83 44 77 45
REMARK SMILES IDX 76 46 32 48 64 49 44 50 63 51 45 52 48 53 62 54 81 55 46 56
REMARK SMILES IDX 47 57 61 59 82 60 49 61 33 62 34 63 42 64 35 65 36 66 40 67
REMARK SMILES IDX 43 68 37 69 38 70 41 71 39 72 65 73 66 74 74 75 67 76 68 77
REMARK SMILES IDX 72 78 75 79 69 80 70 81 73 82 71 83 50 84 51 85 59 86 52 87
REMARK SMILES IDX 53 88 57 89 60 90 54 91 55 92 58 93 56 94
REMARK H PARENT 16 5 21 28 80 47 48 58
REMARK Flexibility Score: inf
ROOT
ATOM      1  C   UNL A   1      32.563  29.957  26.385  1.00  0.00     0.116 C 
ENDROOT
BRANCH   1   2
ATOM      2  N   UNL A   1      31.999  28.830  27.092  1.00  0.00    -0.355 N 
ATOM      3  C   UNL A   1      31.474  27.677  26.597  1.00  0.00     0.239 C 
ATOM      4  O   UNL A   1      31.371  26.724  27.378  1.00  0.00    -0.273 OA
ATOM      5  H   UNL A   1      31.993  28.908  28.074  1.00  0.00     0.163 HD
BRANCH   3   6
ATOM      6  C   UNL A   1      31.179  27.481  25.100  1.00  0.00     0.221 C 
BRANCH   6   7
ATOM      7  N   UNL A   1      32.166  26.790  24.255  1.00  0.00    -0.311 N 
BRANCH   7   8
ATOM      8  C   UNL A   1      33.047  25.778  24.642  1.00  0.00     0.321 C 
ATOM      9  O   UNL A   1      34.200  26.091  24.959  1.00  0.00    -0.248 OA
BRANCH   8  10
ATOM     10  N   UNL A   1      32.703  24.434  24.752  1.00  0.00    -0.313 N 
BRANCH  10  11
ATOM     11  C   UNL A   1      31.241  24.104  24.776  1.00  0.00     0.081 C 
ATOM     12  C   UNL A   1      30.696  23.734  23.392  1.00  0.00     0.031 C 
ATOM     13  C   UNL A   1      30.837  23.089  25.852  1.00  0.00     0.031 C 
ENDBRANCH  10  11
BRANCH  10  14
ATOM     14  C   UNL A   1      33.547  23.239  25.013  1.00  0.00     0.237 C 
BRANCH  14  15
ATOM     15  C   UNL A   1      34.067  22.495  23.764  1.00  0.00     0.406 C 
ATOM     16  F   UNL A   1      35.342  22.072  23.897  1.00  0.00    -0.169 F 
ATOM     17  F   UNL A   1      33.314  21.398  23.516  1.00  0.00    -0.169 F 
ATOM     18  F   UNL A   1      34.022  23.269  22.655  1.00  0.00    -0.169 F 
ENDBRANCH  14  15
ENDBRANCH  10  14
ENDBRANCH   8  10
ENDBRANCH   7   8
BRANCH   7  19
ATOM     19  C   UNL A   1      32.343  27.374  22.842  1.00  0.00     0.037 C 
ATOM     20  C   UNL A   1      32.928  26.333  21.863  1.00  0.00     0.034 C 
ATOM     21  C   UNL A   1      31.004  27.914  22.284  1.00  0.00     0.034 C 
ATOM     22  C   UNL A   1      33.316  28.587  22.765  1.00  0.00     0.034 C 
ENDBRANCH   7  19
ENDBRANCH   6   7
ENDBRANCH   3   6
ENDBRANCH   1   2
BRANCH   1  23
ATOM     23  C   UNL A   1      31.518  30.938  25.874  1.00  0.00     0.023 C 
BRANCH  23  24
ATOM     24  C   UNL A   1      31.315  32.142  26.780  1.00  0.00     0.023 C 
BRANCH  24  25
ATOM     25  C   UNL A   1      32.606  32.852  27.142  1.00  0.00     0.116 C 
BRANCH  25  26
ATOM     26  N   UNL A   1      32.380  34.222  27.581  1.00  0.00    -0.352 N 
ATOM     27  C   UNL A   1      32.992  34.903  28.605  1.00  0.00     0.251 C 
ATOM     28  H   UNL A   1      31.699  34.725  27.079  1.00  0.00     0.163 HD
ATOM     29  O   UNL A   1      32.567  35.983  28.987  1.00  0.00    -0.269 OA
BRANCH  27  30
ATOM     30  C   UNL A   1      34.168  34.289  29.252  1.00  0.00     0.039 A 
ATOM     31  C   UNL A   1      33.976  33.387  30.297  1.00  0.00     0.014 A 
ATOM     32  C   UNL A   1      35.453  34.576  28.782  1.00  0.00     0.014 A 
ATOM     33  C   UNL A   1      35.081  32.731  30.840  1.00  0.00     0.010 A 
ATOM     34  C   UNL A   1      36.533  33.842  29.247  1.00  0.00     0.010 A 
ATOM     35  C   UNL A   1      36.362  32.932  30.300  1.00  0.00    -0.014 A 
BRANCH  35  36
ATOM     36  C   UNL A   1      37.550  32.245  30.863  1.00  0.00     0.031 A 
ATOM     37  C   UNL A   1      38.059  32.641  32.223  1.00  0.00     0.074 A 
ATOM     38  C   UNL A   1      38.187  31.301  30.143  1.00  0.00     0.049 A 
ATOM     39  N   UNL A   1      39.104  32.202  32.878  1.00  0.00    -0.248 NA
ATOM     40  C   UNL A   1      37.312  33.694  32.931  1.00  0.00     0.031 C 
ATOM     41  C   UNL A   1      37.818  30.870  28.793  1.00  0.00     0.029 A 
ATOM     42  N   UNL A   1      39.282  30.534  30.449  1.00  0.00    -0.354 N 
ATOM     43  C   UNL A   1      39.135  32.923  34.064  1.00  0.00     0.074 A 
ATOM     44  C   UNL A   1      38.061  33.889  34.004  1.00  0.00     0.031 C 
ATOM     45  C   UNL A   1      38.652  29.893  28.402  1.00  0.00     0.029 A 
ATOM     46  C   UNL A   1      39.634  29.655  29.454  1.00  0.00     0.049 A 
ATOM     47  H   UNL A   1      39.769  30.606  31.301  1.00  0.00     0.167 HD
ATOM     48  C   UNL A   1      39.955  32.768  35.129  1.00  0.00     0.037 A 
ATOM     49  C   UNL A   1      40.639  28.760  29.404  1.00  0.00     0.037 A 
ATOM     50  C   UNL A   1      41.013  31.795  35.192  1.00  0.00     0.049 A 
ATOM     51  C   UNL A   1      41.551  28.623  30.595  1.00  0.00     0.074 A 
ATOM     52  C   UNL A   1      41.898  31.546  36.226  1.00  0.00     0.029 A 
ATOM     53  N   UNL A   1      41.323  30.905  34.174  1.00  0.00    -0.354 N 
ATOM     54  N   UNL A   1      41.535  29.273  31.735  1.00  0.00    -0.248 NA
ATOM     55  C   UNL A   1      42.614  27.612  30.499  1.00  0.00     0.031 C 
ATOM     56  C   UNL A   1      42.768  30.529  35.819  1.00  0.00     0.029 A 
ATOM     57  C   UNL A   1      42.388  30.106  34.555  1.00  0.00     0.049 A 
ATOM     58  H   UNL A   1      40.856  30.850  33.310  1.00  0.00     0.167 HD
ATOM     59  C   UNL A   1      42.549  28.718  32.505  1.00  0.00     0.074 A 
ATOM     60  C   UNL A   1      43.149  27.669  31.709  1.00  0.00     0.031 C 
ATOM     61  C   UNL A   1      42.950  29.047  33.758  1.00  0.00     0.037 A 
BRANCH  48  62
ATOM     62  C   UNL A   1      39.721  33.655  36.318  1.00  0.00     0.064 A 
ATOM     63  C   UNL A   1      38.874  33.260  37.368  1.00  0.00     0.173 A 
ATOM     64  C   UNL A   1      40.369  34.893  36.430  1.00  0.00     0.173 A 
ATOM     65  F   UNL A   1      38.216  32.093  37.303  1.00  0.00    -0.203 F 
ATOM     66  C   UNL A   1      38.662  34.086  38.468  1.00  0.00     0.198 A 
ATOM     67  C   UNL A   1      40.182  35.701  37.550  1.00  0.00     0.198 A 
ATOM     68  F   UNL A   1      41.190  35.318  35.459  1.00  0.00    -0.203 F 
ATOM     69  F   UNL A   1      37.807  33.712  39.429  1.00  0.00    -0.200 F 
ATOM     70  C   UNL A   1      39.324  35.301  38.563  1.00  0.00     0.200 A 
ATOM     71  F   UNL A   1      40.831  36.869  37.647  1.00  0.00    -0.200 F 
ATOM     72  F   UNL A   1      39.128  36.090  39.628  1.00  0.00    -0.200 F 
ENDBRANCH  48  62
BRANCH  49  73
ATOM     73  C   UNL A   1      40.828  27.901  28.203  1.00  0.00     0.064 A 
ATOM     74  C   UNL A   1      40.276  26.613  28.142  1.00  0.00     0.173 A 
ATOM     75  C   UNL A   1      41.606  28.327  27.116  1.00  0.00     0.173 A 
ATOM     76  F   UNL A   1      39.538  26.153  29.163  1.00  0.00    -0.203 F 
ATOM     77  C   UNL A   1      40.533  25.768  27.064  1.00  0.00     0.198 A 
ATOM     78  C   UNL A   1      41.832  27.495  26.022  1.00  0.00     0.198 A 
ATOM     79  F   UNL A   1      42.151  29.552  27.117  1.00  0.00    -0.203 F 
ATOM     80  F   UNL A   1      40.055  24.517  27.069  1.00  0.00    -0.200 F 
ATOM     81  C   UNL A   1      41.310  26.210  26.004  1.00  0.00     0.200 A 
ATOM     82  F   UNL A   1      42.569  27.931  24.992  1.00  0.00    -0.200 F 
ATOM     83  F   UNL A   1      41.566  25.394  24.972  1.00  0.00    -0.200 F 
ENDBRANCH  49  73
BRANCH  61  84
ATOM     84  C   UNL A   1      44.039  28.212  34.371  1.00  0.00     0.064 A 
ATOM     85  C   UNL A   1      45.391  28.575  34.290  1.00  0.00     0.173 A 
ATOM     86  C   UNL A   1      43.715  27.034  35.065  1.00  0.00     0.173 A 
ATOM     87  F   UNL A   1      45.754  29.684  33.630  1.00  0.00    -0.203 F 
ATOM     88  C   UNL A   1      46.382  27.767  34.841  1.00  0.00     0.198 A 
ATOM     89  C   UNL A   1      44.705  26.250  35.647  1.00  0.00     0.198 A 
ATOM     90  F   UNL A   1      42.436  26.648  35.182  1.00  0.00    -0.203 F 
ATOM     91  F   UNL A   1      47.672  28.097  34.691  1.00  0.00    -0.200 F 
ATOM     92  C   UNL A   1      46.039  26.608  35.523  1.00  0.00     0.200 A 
ATOM     93  F   UNL A   1      44.370  25.142  36.322  1.00  0.00    -0.200 F 
ATOM     94  F   UNL A   1      46.994  25.833  36.053  1.00  0.00    -0.200 F 
ENDBRANCH  61  84
ENDBRANCH  35  36
ENDBRANCH  27  30
ENDBRANCH  25  26
ENDBRANCH  24  25
ENDBRANCH  23  24
ENDBRANCH   1  23
TORSDOF 18
ENDMDL
