MODEL 1
REMARK VINA RESULT:     -13.4      0.000      0.000
REMARK SMILES CC(=O)NS(=O)(=O)c1ccc(-c2ccn(C(F)F)c(=O)c2)cc1C(=O)NCCCCNC(=O)c1ccc(-c2c3nc(c(-c4c(F)c(F)c(F)c(F)c4F)c4ccc([nH]4)c(-c4c(F)c(F)c(F)c(F)c4F)c4nc(c(-c5c(F)c(F)c(F)c(F)c5F)c5ccc2[nH]5)C=C4)C=C3)cc1
REMARK SMILES IDX 28 1 27 2 26 3 24 4 25 5 23 7 8 8 9 9 10 10 22 11 11 12 5 13
REMARK SMILES IDX 6 14 7 15 4 16 1 17 2 18 3 19 12 21 13 22 21 23 14 24 19 25
REMARK SMILES IDX 15 26 20 27 16 28 17 29 18 30 29 31 30 32 31 33 32 34 33 36
REMARK SMILES IDX 34 37 35 38 96 39 36 40 95 41 37 42 38 43 39 44 89 45 40 46
REMARK SMILES IDX 94 47 88 48 90 49 41 50 93 51 87 52 86 53 42 55 74 56 54 57
REMARK SMILES IDX 73 58 55 59 58 60 72 61 91 62 56 63 57 64 71 66 92 67 59 68
REMARK SMILES IDX 43 69 44 70 52 71 45 72 46 73 50 74 53 75 47 76 48 77 51 78
REMARK SMILES IDX 49 79 75 80 76 81 84 82 77 83 78 84 82 85 85 86 79 87 80 88
REMARK SMILES IDX 83 89 81 90 60 91 61 92 69 93 62 94 63 95 67 96 70 97 64 98
REMARK SMILES IDX 65 99 68 100 66 101
REMARK H PARENT 26 6 4 20 31 35 90 54 58 65
REMARK Flexibility Score: inf
ROOT
ATOM      1  C   UNL A   1      33.874  28.372  23.894  1.00  0.00     0.023 C 
ENDROOT
BRANCH   1   2
ATOM      2  C   UNL A   1      34.003  28.578  22.385  1.00  0.00     0.116 C 
BRANCH   2   3
ATOM      3  N   UNL A   1      33.603  27.382  21.697  1.00  0.00    -0.352 N 
ATOM      4  C   UNL A   1      33.389  26.074  21.990  1.00  0.00     0.252 C 
ATOM      5  O   UNL A   1      33.278  25.383  20.966  1.00  0.00    -0.269 OA
ATOM      6  H   UNL A   1      33.436  27.563  20.744  1.00  0.00     0.163 HD
BRANCH   4   7
ATOM      7  C   UNL A   1      33.148  25.364  23.296  1.00  0.00     0.060 A 
ATOM      8  C   UNL A   1      32.111  25.328  24.245  1.00  0.00     0.100 A 
ATOM      9  C   UNL A   1      32.346  24.760  25.529  1.00  0.00     0.024 A 
ATOM     10  C   UNL A   1      33.541  24.157  25.870  1.00  0.00     0.010 A 
ATOM     11  C   UNL A   1      34.343  24.672  23.671  1.00  0.00     0.024 A 
ATOM     12  C   UNL A   1      34.542  24.075  24.921  1.00  0.00    -0.017 A 
BRANCH   8  13
ATOM     13  S   UNL A   1      30.483  25.991  24.130  1.00  0.00     0.264 S 
ATOM     14  O   UNL A   1      30.141  26.484  25.438  1.00  0.00    -0.201 OA
ATOM     15  O   UNL A   1      29.618  25.005  23.511  1.00  0.00    -0.201 OA
BRANCH  13  16
ATOM     16  N   UNL A   1      30.499  27.245  23.056  1.00  0.00    -0.249 N 
ATOM     17  C   UNL A   1      28.169  28.201  23.184  1.00  0.00     0.115 C 
ATOM     18  C   UNL A   1      29.599  28.276  22.748  1.00  0.00     0.230 C 
ATOM     19  O   UNL A   1      29.986  29.166  22.001  1.00  0.00    -0.274 OA
ATOM     20  H   UNL A   1      31.321  27.278  22.515  1.00  0.00     0.183 HD
ENDBRANCH  13  16
ENDBRANCH   8  13
BRANCH  12  21
ATOM     21  C   UNL A   1      35.790  23.386  25.259  1.00  0.00    -0.011 A 
ATOM     22  C   UNL A   1      36.011  21.975  25.024  1.00  0.00     0.027 A 
ATOM     23  C   UNL A   1      36.782  24.140  25.759  1.00  0.00     0.080 A 
ATOM     24  C   UNL A   1      37.205  21.431  25.286  1.00  0.00     0.095 A 
ATOM     25  C   UNL A   1      38.109  23.550  26.058  1.00  0.00     0.255 A 
ATOM     26  N   UNL A   1      38.240  22.198  25.791  1.00  0.00    -0.258 N 
ATOM     27  O   UNL A   1      38.984  24.287  26.501  1.00  0.00    -0.269 OA
BRANCH  26  28
ATOM     28  C   UNL A   1      39.520  21.607  26.079  1.00  0.00     0.451 C 
ATOM     29  F   UNL A   1      39.819  21.714  27.397  1.00  0.00    -0.185 F 
ATOM     30  F   UNL A   1      39.527  20.292  25.751  1.00  0.00    -0.185 F 
ENDBRANCH  26  28
ENDBRANCH  12  21
ENDBRANCH   4   7
ENDBRANCH   2   3
ENDBRANCH   1   2
BRANCH   1  31
ATOM     31  C   UNL A   1      32.915  29.327  24.583  1.00  0.00     0.023 C 
BRANCH  31  32
ATOM     32  C   UNL A   1      33.206  29.488  26.062  1.00  0.00     0.116 C 
BRANCH  32  33
ATOM     33  N   UNL A   1      32.892  30.812  26.591  1.00  0.00    -0.352 N 
ATOM     34  C   UNL A   1      33.663  31.596  27.417  1.00  0.00     0.251 C 
ATOM     35  H   UNL A   1      32.022  31.190  26.324  1.00  0.00     0.163 HD
ATOM     36  O   UNL A   1      33.256  32.668  27.845  1.00  0.00    -0.269 OA
BRANCH  34  37
ATOM     37  C   UNL A   1      34.975  31.065  27.824  1.00  0.00     0.039 A 
ATOM     38  C   UNL A   1      36.035  31.954  28.001  1.00  0.00     0.014 A 
ATOM     39  C   UNL A   1      35.084  29.727  28.204  1.00  0.00     0.014 A 
ATOM     40  C   UNL A   1      37.188  31.512  28.646  1.00  0.00     0.010 A 
ATOM     41  C   UNL A   1      36.176  29.328  28.956  1.00  0.00     0.010 A 
ATOM     42  C   UNL A   1      37.245  30.212  29.175  1.00  0.00    -0.014 A 
BRANCH  42  43
ATOM     43  C   UNL A   1      38.429  29.732  29.929  1.00  0.00     0.031 A 
ATOM     44  C   UNL A   1      38.668  30.251  31.321  1.00  0.00     0.074 A 
ATOM     45  C   UNL A   1      39.310  28.894  29.350  1.00  0.00     0.049 A 
ATOM     46  N   UNL A   1      39.680  30.038  32.122  1.00  0.00    -0.248 NA
ATOM     47  C   UNL A   1      37.654  31.167  31.870  1.00  0.00     0.031 C 
ATOM     48  C   UNL A   1      39.214  28.366  27.987  1.00  0.00     0.029 A 
ATOM     49  N   UNL A   1      40.471  28.344  29.835  1.00  0.00    -0.354 N 
ATOM     50  C   UNL A   1      39.430  30.806  33.251  1.00  0.00     0.074 A 
ATOM     51  C   UNL A   1      38.218  31.551  33.003  1.00  0.00     0.031 C 
ATOM     52  C   UNL A   1      40.250  27.542  27.760  1.00  0.00     0.029 A 
ATOM     53  C   UNL A   1      41.109  27.519  28.940  1.00  0.00     0.049 A 
ATOM     54  H   UNL A   1      40.814  28.523  30.741  1.00  0.00     0.167 HD
ATOM     55  C   UNL A   1      40.127  30.856  34.409  1.00  0.00     0.037 A 
ATOM     56  C   UNL A   1      42.259  26.829  29.060  1.00  0.00     0.037 A 
ATOM     57  C   UNL A   1      41.312  30.083  34.662  1.00  0.00     0.049 A 
ATOM     58  C   UNL A   1      43.022  26.910  30.357  1.00  0.00     0.074 A 
ATOM     59  C   UNL A   1      42.065  30.016  35.819  1.00  0.00     0.029 A 
ATOM     60  N   UNL A   1      41.915  29.241  33.739  1.00  0.00    -0.354 N 
ATOM     61  N   UNL A   1      42.739  27.585  31.445  1.00  0.00    -0.248 NA
ATOM     62  C   UNL A   1      44.264  26.129  30.445  1.00  0.00     0.031 C 
ATOM     63  C   UNL A   1      43.156  29.177  35.579  1.00  0.00     0.029 A 
ATOM     64  C   UNL A   1      43.046  28.668  34.294  1.00  0.00     0.049 A 
ATOM     65  H   UNL A   1      41.588  29.077  32.825  1.00  0.00     0.167 HD
ATOM     66  C   UNL A   1      43.741  27.279  32.357  1.00  0.00     0.074 A 
ATOM     67  C   UNL A   1      44.633  26.349  31.698  1.00  0.00     0.031 C 
ATOM     68  C   UNL A   1      43.909  27.727  33.627  1.00  0.00     0.037 A 
BRANCH  55  69
ATOM     69  C   UNL A   1      39.618  31.767  35.487  1.00  0.00     0.064 A 
ATOM     70  C   UNL A   1      40.083  33.086  35.620  1.00  0.00     0.173 A 
ATOM     71  C   UNL A   1      38.633  31.327  36.383  1.00  0.00     0.173 A 
ATOM     72  F   UNL A   1      41.037  33.552  34.800  1.00  0.00    -0.203 F 
ATOM     73  C   UNL A   1      39.605  33.917  36.629  1.00  0.00     0.198 A 
ATOM     74  C   UNL A   1      38.130  32.174  37.368  1.00  0.00     0.198 A 
ATOM     75  F   UNL A   1      38.153  30.078  36.301  1.00  0.00    -0.203 F 
ATOM     76  F   UNL A   1      40.108  35.151  36.774  1.00  0.00    -0.200 F 
ATOM     77  C   UNL A   1      38.622  33.464  37.496  1.00  0.00     0.200 A 
ATOM     78  F   UNL A   1      37.170  31.739  38.196  1.00  0.00    -0.200 F 
ATOM     79  F   UNL A   1      38.155  34.268  38.461  1.00  0.00    -0.200 F 
ENDBRANCH  55  69
BRANCH  56  80
ATOM     80  C   UNL A   1      42.752  25.984  27.938  1.00  0.00     0.064 A 
ATOM     81  C   UNL A   1      42.381  24.635  27.835  1.00  0.00     0.173 A 
ATOM     82  C   UNL A   1      43.622  26.495  26.964  1.00  0.00     0.173 A 
ATOM     83  F   UNL A   1      41.566  24.091  28.751  1.00  0.00    -0.203 F 
ATOM     84  C   UNL A   1      42.886  23.823  26.821  1.00  0.00     0.198 A 
ATOM     85  C   UNL A   1      44.099  25.691  25.930  1.00  0.00     0.198 A 
ATOM     86  F   UNL A   1      44.004  27.779  27.011  1.00  0.00    -0.203 F 
ATOM     87  F   UNL A   1      42.563  22.523  26.781  1.00  0.00    -0.200 F 
ATOM     88  C   UNL A   1      43.742  24.352  25.867  1.00  0.00     0.200 A 
ATOM     89  F   UNL A   1      44.913  26.211  25.001  1.00  0.00    -0.200 F 
ATOM     90  F   UNL A   1      44.229  23.573  24.892  1.00  0.00    -0.200 F 
ENDBRANCH  56  80
BRANCH  68  91
ATOM     91  C   UNL A   1      45.067  27.177  34.408  1.00  0.00     0.064 A 
ATOM     92  C   UNL A   1      46.311  27.821  34.443  1.00  0.00     0.173 A 
ATOM     93  C   UNL A   1      44.905  26.014  35.179  1.00  0.00     0.173 A 
ATOM     94  F   UNL A   1      46.519  28.928  33.715  1.00  0.00    -0.203 F 
ATOM     95  C   UNL A   1      47.361  27.306  35.200  1.00  0.00     0.198 A 
ATOM     96  C   UNL A   1      45.946  25.523  35.962  1.00  0.00     0.198 A 
ATOM     97  F   UNL A   1      43.732  25.365  35.189  1.00  0.00    -0.203 F 
ATOM     98  F   UNL A   1      48.557  27.910  35.179  1.00  0.00    -0.200 F 
ATOM     99  C   UNL A   1      47.175  26.165  35.965  1.00  0.00     0.200 A 
ATOM    100  F   UNL A   1      45.757  24.432  36.717  1.00  0.00    -0.200 F 
ATOM    101  F   UNL A   1      48.183  25.680  36.703  1.00  0.00    -0.200 F 
ENDBRANCH  68  91
ENDBRANCH  42  43
ENDBRANCH  34  37
ENDBRANCH  32  33
ENDBRANCH  31  32
ENDBRANCH   1  31
TORSDOF 15
ENDMDL
MODEL 2
REMARK VINA RESULT:     -13.3      4.764      8.091
REMARK SMILES CC(=O)NS(=O)(=O)c1ccc(-c2ccn(C(F)F)c(=O)c2)cc1C(=O)NCCCCNC(=O)c1ccc(-c2c3nc(c(-c4c(F)c(F)c(F)c(F)c4F)c4ccc([nH]4)c(-c4c(F)c(F)c(F)c(F)c4F)c4nc(c(-c5c(F)c(F)c(F)c(F)c5F)c5ccc2[nH]5)C=C4)C=C3)cc1
REMARK SMILES IDX 28 1 27 2 26 3 24 4 25 5 23 7 8 8 9 9 10 10 22 11 11 12 5 13
REMARK SMILES IDX 6 14 7 15 4 16 1 17 2 18 3 19 12 21 13 22 21 23 14 24 19 25
REMARK SMILES IDX 15 26 20 27 16 28 17 29 18 30 29 31 30 32 31 33 32 34 33 36
REMARK SMILES IDX 34 37 35 38 96 39 36 40 95 41 37 42 38 43 39 44 89 45 40 46
REMARK SMILES IDX 94 47 88 48 90 49 41 50 93 51 87 52 86 53 42 55 74 56 54 57
REMARK SMILES IDX 73 58 55 59 58 60 72 61 91 62 56 63 57 64 71 66 92 67 59 68
REMARK SMILES IDX 43 69 44 70 52 71 45 72 46 73 50 74 53 75 47 76 48 77 51 78
REMARK SMILES IDX 49 79 75 80 76 81 84 82 77 83 78 84 82 85 85 86 79 87 80 88
REMARK SMILES IDX 83 89 81 90 60 91 61 92 69 93 62 94 63 95 67 96 70 97 64 98
REMARK SMILES IDX 65 99 68 100 66 101
REMARK H PARENT 26 6 4 20 31 35 90 54 58 65
REMARK Flexibility Score: inf
ROOT
ATOM      1  C   UNL A   1      37.089  21.832  25.597  1.00  0.00     0.023 C 
ENDROOT
BRANCH   1   2
ATOM      2  C   UNL A   1      37.259  23.255  25.063  1.00  0.00     0.116 C 
BRANCH   2   3
ATOM      3  N   UNL A   1      36.171  24.076  25.516  1.00  0.00    -0.352 N 
ATOM      4  C   UNL A   1      34.905  24.374  25.130  1.00  0.00     0.252 C 
ATOM      5  O   UNL A   1      34.450  25.349  25.750  1.00  0.00    -0.269 OA
ATOM      6  H   UNL A   1      36.413  24.558  26.339  1.00  0.00     0.163 HD
BRANCH   4   7
ATOM      7  C   UNL A   1      33.947  23.676  24.201  1.00  0.00     0.060 A 
ATOM      8  C   UNL A   1      33.015  24.080  23.228  1.00  0.00     0.100 A 
ATOM      9  C   UNL A   1      32.056  23.149  22.738  1.00  0.00     0.024 A 
ATOM     10  C   UNL A   1      32.044  21.821  23.118  1.00  0.00     0.010 A 
ATOM     11  C   UNL A   1      33.937  22.281  24.514  1.00  0.00     0.024 A 
ATOM     12  C   UNL A   1      33.017  21.367  23.987  1.00  0.00    -0.017 A 
BRANCH   8  13
ATOM     13  S   UNL A   1      32.769  25.678  22.529  1.00  0.00     0.264 S 
ATOM     14  O   UNL A   1      31.644  25.573  21.637  1.00  0.00    -0.201 OA
ATOM     15  O   UNL A   1      34.031  26.159  22.001  1.00  0.00    -0.201 OA
BRANCH  13  16
ATOM     16  N   UNL A   1      32.409  26.736  23.745  1.00  0.00    -0.249 N 
ATOM     17  C   UNL A   1      30.204  25.913  24.651  1.00  0.00     0.115 C 
ATOM     18  C   UNL A   1      31.424  26.775  24.743  1.00  0.00     0.230 C 
ATOM     19  O   UNL A   1      31.530  27.628  25.614  1.00  0.00    -0.274 OA
ATOM     20  H   UNL A   1      33.020  27.507  23.777  1.00  0.00     0.183 HD
ENDBRANCH  13  16
ENDBRANCH   8  13
BRANCH  12  21
ATOM     21  C   UNL A   1      33.043  19.947  24.348  1.00  0.00    -0.011 A 
ATOM     22  C   UNL A   1      32.861  19.465  25.699  1.00  0.00     0.027 A 
ATOM     23  C   UNL A   1      33.190  19.069  23.342  1.00  0.00     0.080 A 
ATOM     24  C   UNL A   1      32.819  18.149  25.941  1.00  0.00     0.095 A 
ATOM     25  C   UNL A   1      33.150  17.609  23.596  1.00  0.00     0.255 A 
ATOM     26  N   UNL A   1      32.958  17.232  24.914  1.00  0.00    -0.258 N 
ATOM     27  O   UNL A   1      33.276  16.851  22.639  1.00  0.00    -0.269 OA
BRANCH  26  28
ATOM     28  C   UNL A   1      32.921  15.819  25.180  1.00  0.00     0.451 C 
ATOM     29  F   UNL A   1      34.169  15.329  25.380  1.00  0.00    -0.185 F 
ATOM     30  F   UNL A   1      32.184  15.557  26.287  1.00  0.00    -0.185 F 
ENDBRANCH  26  28
ENDBRANCH  12  21
ENDBRANCH   4   7
ENDBRANCH   2   3
ENDBRANCH   1   2
BRANCH   1  31
ATOM     31  C   UNL A   1      38.163  20.857  25.151  1.00  0.00     0.023 C 
BRANCH  31  32
ATOM     32  C   UNL A   1      39.324  20.775  26.125  1.00  0.00     0.116 C 
BRANCH  32  33
ATOM     33  N   UNL A   1      40.099  19.542  26.025  1.00  0.00    -0.352 N 
ATOM     34  C   UNL A   1      41.462  19.391  26.130  1.00  0.00     0.251 C 
ATOM     35  H   UNL A   1      39.584  18.719  25.863  1.00  0.00     0.163 HD
ATOM     36  O   UNL A   1      42.001  18.306  25.962  1.00  0.00    -0.269 OA
BRANCH  34  37
ATOM     37  C   UNL A   1      42.260  20.603  26.386  1.00  0.00     0.039 A 
ATOM     38  C   UNL A   1      42.709  21.354  25.300  1.00  0.00     0.014 A 
ATOM     39  C   UNL A   1      42.391  21.073  27.693  1.00  0.00     0.014 A 
ATOM     40  C   UNL A   1      43.216  22.632  25.525  1.00  0.00     0.010 A 
ATOM     41  C   UNL A   1      42.774  22.388  27.899  1.00  0.00     0.010 A 
ATOM     42  C   UNL A   1      43.203  23.177  26.819  1.00  0.00    -0.014 A 
BRANCH  42  43
ATOM     43  C   UNL A   1      43.670  24.560  27.084  1.00  0.00     0.031 A 
ATOM     44  C   UNL A   1      42.689  25.575  27.605  1.00  0.00     0.074 A 
ATOM     45  C   UNL A   1      44.937  24.917  26.798  1.00  0.00     0.049 A 
ATOM     46  N   UNL A   1      42.856  26.855  27.820  1.00  0.00    -0.248 NA
ATOM     47  C   UNL A   1      41.325  25.096  27.884  1.00  0.00     0.031 C 
ATOM     48  C   UNL A   1      45.964  24.036  26.237  1.00  0.00     0.029 A 
ATOM     49  N   UNL A   1      45.577  26.124  26.933  1.00  0.00    -0.354 N 
ATOM     50  C   UNL A   1      41.619  27.328  28.235  1.00  0.00     0.074 A 
ATOM     51  C   UNL A   1      40.692  26.222  28.167  1.00  0.00     0.031 C 
ATOM     52  C   UNL A   1      47.112  24.721  26.111  1.00  0.00     0.029 A 
ATOM     53  C   UNL A   1      46.892  26.100  26.536  1.00  0.00     0.049 A 
ATOM     54  H   UNL A   1      45.135  26.932  27.283  1.00  0.00     0.167 HD
ATOM     55  C   UNL A   1      41.292  28.564  28.674  1.00  0.00     0.037 A 
ATOM     56  C   UNL A   1      47.812  27.084  26.513  1.00  0.00     0.037 A 
ATOM     57  C   UNL A   1      42.229  29.650  28.774  1.00  0.00     0.049 A 
ATOM     58  C   UNL A   1      47.420  28.456  26.998  1.00  0.00     0.074 A 
ATOM     59  C   UNL A   1      42.018  30.928  29.257  1.00  0.00     0.029 A 
ATOM     60  N   UNL A   1      43.559  29.581  28.384  1.00  0.00    -0.354 N 
ATOM     61  N   UNL A   1      46.265  28.875  27.456  1.00  0.00    -0.248 NA
ATOM     62  C   UNL A   1      48.461  29.492  26.967  1.00  0.00     0.031 C 
ATOM     63  C   UNL A   1      43.204  31.650  29.106  1.00  0.00     0.029 A 
ATOM     64  C   UNL A   1      44.174  30.803  28.593  1.00  0.00     0.049 A 
ATOM     65  H   UNL A   1      43.998  28.782  28.012  1.00  0.00     0.167 HD
ATOM     66  C   UNL A   1      46.451  30.206  27.803  1.00  0.00     0.074 A 
ATOM     67  C   UNL A   1      47.834  30.522  27.514  1.00  0.00     0.031 C 
ATOM     68  C   UNL A   1      45.558  31.090  28.317  1.00  0.00     0.037 A 
BRANCH  55  69
ATOM     69  C   UNL A   1      39.869  28.802  29.086  1.00  0.00     0.064 A 
ATOM     70  C   UNL A   1      38.900  29.244  28.171  1.00  0.00     0.173 A 
ATOM     71  C   UNL A   1      39.461  28.559  30.406  1.00  0.00     0.173 A 
ATOM     72  F   UNL A   1      39.239  29.508  26.901  1.00  0.00    -0.203 F 
ATOM     73  C   UNL A   1      37.584  29.465  28.571  1.00  0.00     0.198 A 
ATOM     74  C   UNL A   1      38.136  28.746  30.792  1.00  0.00     0.198 A 
ATOM     75  F   UNL A   1      40.345  28.135  31.320  1.00  0.00    -0.203 F 
ATOM     76  F   UNL A   1      36.691  29.945  27.694  1.00  0.00    -0.200 F 
ATOM     77  C   UNL A   1      37.201  29.206  29.878  1.00  0.00     0.200 A 
ATOM     78  F   UNL A   1      37.765  28.482  32.053  1.00  0.00    -0.200 F 
ATOM     79  F   UNL A   1      35.933  29.410  30.259  1.00  0.00    -0.200 F 
ENDBRANCH  55  69
BRANCH  56  80
ATOM     80  C   UNL A   1      49.197  26.811  26.040  1.00  0.00     0.064 A 
ATOM     81  C   UNL A   1      49.554  27.014  24.698  1.00  0.00     0.173 A 
ATOM     82  C   UNL A   1      50.183  26.318  26.906  1.00  0.00     0.173 A 
ATOM     83  F   UNL A   1      48.642  27.467  23.824  1.00  0.00    -0.203 F 
ATOM     84  C   UNL A   1      50.831  26.704  24.236  1.00  0.00     0.198 A 
ATOM     85  C   UNL A   1      51.471  26.041  26.450  1.00  0.00     0.198 A 
ATOM     86  F   UNL A   1      49.899  26.111  28.200  1.00  0.00    -0.203 F 
ATOM     87  F   UNL A   1      51.126  26.851  22.937  1.00  0.00    -0.200 F 
ATOM     88  C   UNL A   1      51.790  26.222  25.113  1.00  0.00     0.200 A 
ATOM     89  F   UNL A   1      52.399  25.590  27.305  1.00  0.00    -0.200 F 
ATOM     90  F   UNL A   1      53.018  25.922  24.669  1.00  0.00    -0.200 F 
ENDBRANCH  56  80
BRANCH  68  91
ATOM     91  C   UNL A   1      46.060  32.465  28.653  1.00  0.00     0.064 A 
ATOM     92  C   UNL A   1      46.627  32.764  29.899  1.00  0.00     0.173 A 
ATOM     93  C   UNL A   1      46.021  33.483  27.686  1.00  0.00     0.173 A 
ATOM     94  F   UNL A   1      46.677  31.830  30.860  1.00  0.00    -0.203 F 
ATOM     95  C   UNL A   1      47.111  34.040  30.176  1.00  0.00     0.198 A 
ATOM     96  C   UNL A   1      46.539  34.746  27.954  1.00  0.00     0.198 A 
ATOM     97  F   UNL A   1      45.498  33.246  26.474  1.00  0.00    -0.203 F 
ATOM     98  F   UNL A   1      47.603  34.317  31.391  1.00  0.00    -0.200 F 
ATOM     99  C   UNL A   1      47.076  35.026  29.201  1.00  0.00     0.200 A 
ATOM    100  F   UNL A   1      46.522  35.691  27.003  1.00  0.00    -0.200 F 
ATOM    101  F   UNL A   1      47.557  36.248  29.465  1.00  0.00    -0.200 F 
ENDBRANCH  68  91
ENDBRANCH  42  43
ENDBRANCH  34  37
ENDBRANCH  32  33
ENDBRANCH  31  32
ENDBRANCH   1  31
TORSDOF 15
ENDMDL
MODEL 3
REMARK VINA RESULT:     -13.2      4.756      8.028
REMARK SMILES CC(=O)NS(=O)(=O)c1ccc(-c2ccn(C(F)F)c(=O)c2)cc1C(=O)NCCCCNC(=O)c1ccc(-c2c3nc(c(-c4c(F)c(F)c(F)c(F)c4F)c4ccc([nH]4)c(-c4c(F)c(F)c(F)c(F)c4F)c4nc(c(-c5c(F)c(F)c(F)c(F)c5F)c5ccc2[nH]5)C=C4)C=C3)cc1
REMARK SMILES IDX 28 1 27 2 26 3 24 4 25 5 23 7 8 8 9 9 10 10 22 11 11 12 5 13
REMARK SMILES IDX 6 14 7 15 4 16 1 17 2 18 3 19 12 21 13 22 21 23 14 24 19 25
REMARK SMILES IDX 15 26 20 27 16 28 17 29 18 30 29 31 30 32 31 33 32 34 33 36
REMARK SMILES IDX 34 37 35 38 96 39 36 40 95 41 37 42 38 43 39 44 89 45 40 46
REMARK SMILES IDX 94 47 88 48 90 49 41 50 93 51 87 52 86 53 42 55 74 56 54 57
REMARK SMILES IDX 73 58 55 59 58 60 72 61 91 62 56 63 57 64 71 66 92 67 59 68
REMARK SMILES IDX 43 69 44 70 52 71 45 72 46 73 50 74 53 75 47 76 48 77 51 78
REMARK SMILES IDX 49 79 75 80 76 81 84 82 77 83 78 84 82 85 85 86 79 87 80 88
REMARK SMILES IDX 83 89 81 90 60 91 61 92 69 93 62 94 63 95 67 96 70 97 64 98
REMARK SMILES IDX 65 99 68 100 66 101
REMARK H PARENT 26 6 4 20 31 35 90 54 58 65
REMARK Flexibility Score: inf
ROOT
ATOM      1  C   UNL A   1      37.130  21.786  25.556  1.00  0.00     0.023 C 
ENDROOT
BRANCH   1   2
ATOM      2  C   UNL A   1      37.237  23.266  25.187  1.00  0.00     0.116 C 
BRANCH   2   3
ATOM      3  N   UNL A   1      36.076  23.968  25.658  1.00  0.00    -0.352 N 
ATOM      4  C   UNL A   1      34.797  24.184  25.257  1.00  0.00     0.252 C 
ATOM      5  O   UNL A   1      34.251  25.080  25.919  1.00  0.00    -0.269 OA
ATOM      6  H   UNL A   1      36.259  24.418  26.513  1.00  0.00     0.163 HD
BRANCH   4   7
ATOM      7  C   UNL A   1      33.920  23.467  24.265  1.00  0.00     0.060 A 
ATOM      8  C   UNL A   1      33.052  23.851  23.227  1.00  0.00     0.100 A 
ATOM      9  C   UNL A   1      32.147  22.903  22.674  1.00  0.00     0.024 A 
ATOM     10  C   UNL A   1      32.131  21.576  23.057  1.00  0.00     0.010 A 
ATOM     11  C   UNL A   1      33.913  22.072  24.581  1.00  0.00     0.024 A 
ATOM     12  C   UNL A   1      33.049  21.141  23.993  1.00  0.00    -0.017 A 
BRANCH   8  13
ATOM     13  S   UNL A   1      32.827  25.443  22.507  1.00  0.00     0.264 S 
ATOM     14  O   UNL A   1      31.702  25.341  21.615  1.00  0.00    -0.201 OA
ATOM     15  O   UNL A   1      34.096  25.902  21.975  1.00  0.00    -0.201 OA
BRANCH  13  16
ATOM     16  N   UNL A   1      32.479  26.521  23.709  1.00  0.00    -0.249 N 
ATOM     17  C   UNL A   1      30.236  25.771  24.584  1.00  0.00     0.115 C 
ATOM     18  C   UNL A   1      31.479  26.598  24.690  1.00  0.00     0.230 C 
ATOM     19  O   UNL A   1      31.597  27.455  25.557  1.00  0.00    -0.274 OA
ATOM     20  H   UNL A   1      33.112  27.274  23.746  1.00  0.00     0.183 HD
ENDBRANCH  13  16
ENDBRANCH   8  13
BRANCH  12  21
ATOM     21  C   UNL A   1      33.075  19.722  24.360  1.00  0.00    -0.011 A 
ATOM     22  C   UNL A   1      32.701  19.230  25.668  1.00  0.00     0.027 A 
ATOM     23  C   UNL A   1      33.415  18.854  23.394  1.00  0.00     0.080 A 
ATOM     24  C   UNL A   1      32.675  17.914  25.906  1.00  0.00     0.095 A 
ATOM     25  C   UNL A   1      33.394  17.392  23.645  1.00  0.00     0.255 A 
ATOM     26  N   UNL A   1      33.011  17.005  24.918  1.00  0.00    -0.258 N 
ATOM     27  O   UNL A   1      33.701  16.642  22.723  1.00  0.00    -0.269 OA
BRANCH  26  28
ATOM     28  C   UNL A   1      32.990  15.591  25.181  1.00  0.00     0.451 C 
ATOM     29  F   UNL A   1      34.243  15.114  25.379  1.00  0.00    -0.185 F 
ATOM     30  F   UNL A   1      32.256  15.319  26.287  1.00  0.00    -0.185 F 
ENDBRANCH  26  28
ENDBRANCH  12  21
ENDBRANCH   4   7
ENDBRANCH   2   3
ENDBRANCH   1   2
BRANCH   1  31
ATOM     31  C   UNL A   1      38.288  20.929  25.076  1.00  0.00     0.023 C 
BRANCH  31  32
ATOM     32  C   UNL A   1      39.380  20.780  26.117  1.00  0.00     0.116 C 
BRANCH  32  33
ATOM     33  N   UNL A   1      40.164  19.554  25.987  1.00  0.00    -0.352 N 
ATOM     34  C   UNL A   1      41.528  19.411  26.080  1.00  0.00     0.251 C 
ATOM     35  H   UNL A   1      39.653  18.731  25.811  1.00  0.00     0.163 HD
ATOM     36  O   UNL A   1      42.074  18.333  25.887  1.00  0.00    -0.269 OA
BRANCH  34  37
ATOM     37  C   UNL A   1      42.320  20.623  26.356  1.00  0.00     0.039 A 
ATOM     38  C   UNL A   1      42.700  21.435  25.288  1.00  0.00     0.014 A 
ATOM     39  C   UNL A   1      42.510  21.030  27.677  1.00  0.00     0.014 A 
ATOM     40  C   UNL A   1      43.198  22.710  25.552  1.00  0.00     0.010 A 
ATOM     41  C   UNL A   1      42.883  22.339  27.930  1.00  0.00     0.010 A 
ATOM     42  C   UNL A   1      43.244  23.189  26.871  1.00  0.00    -0.014 A 
BRANCH  42  43
ATOM     43  C   UNL A   1      43.701  24.565  27.182  1.00  0.00     0.031 A 
ATOM     44  C   UNL A   1      42.711  25.560  27.724  1.00  0.00     0.074 A 
ATOM     45  C   UNL A   1      44.969  24.935  26.920  1.00  0.00     0.049 A 
ATOM     46  N   UNL A   1      42.870  26.834  27.978  1.00  0.00    -0.248 NA
ATOM     47  C   UNL A   1      41.346  25.067  27.974  1.00  0.00     0.031 C 
ATOM     48  C   UNL A   1      46.006  24.076  26.343  1.00  0.00     0.029 A 
ATOM     49  N   UNL A   1      45.603  26.140  27.097  1.00  0.00    -0.354 N 
ATOM     50  C   UNL A   1      41.627  27.289  28.394  1.00  0.00     0.074 A 
ATOM     51  C   UNL A   1      40.706  26.182  28.284  1.00  0.00     0.031 C 
ATOM     52  C   UNL A   1      47.152  24.769  26.249  1.00  0.00     0.029 A 
ATOM     53  C   UNL A   1      46.923  26.134  26.713  1.00  0.00     0.049 A 
ATOM     54  H   UNL A   1      45.154  26.936  27.467  1.00  0.00     0.167 HD
ATOM     55  C   UNL A   1      41.291  28.511  28.867  1.00  0.00     0.037 A 
ATOM     56  C   UNL A   1      47.838  27.122  26.729  1.00  0.00     0.037 A 
ATOM     57  C   UNL A   1      42.222  29.596  29.009  1.00  0.00     0.049 A 
ATOM     58  C   UNL A   1      47.435  28.477  27.250  1.00  0.00     0.074 A 
ATOM     59  C   UNL A   1      42.000  30.859  29.527  1.00  0.00     0.029 A 
ATOM     60  N   UNL A   1      43.555  29.545  28.630  1.00  0.00    -0.354 N 
ATOM     61  N   UNL A   1      46.274  28.878  27.709  1.00  0.00    -0.248 NA
ATOM     62  C   UNL A   1      48.472  29.518  27.261  1.00  0.00     0.031 C 
ATOM     63  C   UNL A   1      43.185  31.590  29.410  1.00  0.00     0.029 A 
ATOM     64  C   UNL A   1      44.163  30.762  28.881  1.00  0.00     0.049 A 
ATOM     65  H   UNL A   1      44.002  28.759  28.239  1.00  0.00     0.167 HD
ATOM     66  C   UNL A   1      46.451  30.199  28.098  1.00  0.00     0.074 A 
ATOM     67  C   UNL A   1      47.835  30.529  27.832  1.00  0.00     0.031 C 
ATOM     68  C   UNL A   1      45.549  31.063  28.629  1.00  0.00     0.037 A 
BRANCH  55  69
ATOM     69  C   UNL A   1      39.862  28.730  29.272  1.00  0.00     0.064 A 
ATOM     70  C   UNL A   1      39.418  28.472  30.578  1.00  0.00     0.173 A 
ATOM     71  C   UNL A   1      38.931  29.231  28.351  1.00  0.00     0.173 A 
ATOM     72  F   UNL A   1      40.262  27.976  31.495  1.00  0.00    -0.203 F 
ATOM     73  C   UNL A   1      38.088  28.676  30.937  1.00  0.00     0.198 A 
ATOM     74  C   UNL A   1      37.610  29.468  28.723  1.00  0.00     0.198 A 
ATOM     75  F   UNL A   1      39.302  29.496  27.089  1.00  0.00    -0.203 F 
ATOM     76  F   UNL A   1      37.674  28.365  32.174  1.00  0.00    -0.200 F 
ATOM     77  C   UNL A   1      37.188  29.183  30.012  1.00  0.00     0.200 A 
ATOM     78  F   UNL A   1      36.745  29.972  27.832  1.00  0.00    -0.200 F 
ATOM     79  F   UNL A   1      35.911  29.388  30.361  1.00  0.00    -0.200 F 
ENDBRANCH  55  69
BRANCH  56  80
ATOM     80  C   UNL A   1      49.229  26.869  26.262  1.00  0.00     0.064 A 
ATOM     81  C   UNL A   1      49.593  27.095  24.925  1.00  0.00     0.173 A 
ATOM     82  C   UNL A   1      50.214  26.373  27.128  1.00  0.00     0.173 A 
ATOM     83  F   UNL A   1      48.684  27.551  24.051  1.00  0.00    -0.203 F 
ATOM     84  C   UNL A   1      50.877  26.803  24.468  1.00  0.00     0.198 A 
ATOM     85  C   UNL A   1      51.507  26.115  26.678  1.00  0.00     0.198 A 
ATOM     86  F   UNL A   1      49.922  26.145  28.417  1.00  0.00    -0.203 F 
ATOM     87  F   UNL A   1      51.179  26.971  23.174  1.00  0.00    -0.200 F 
ATOM     88  C   UNL A   1      51.834  26.317  25.345  1.00  0.00     0.200 A 
ATOM     89  F   UNL A   1      52.434  25.660  27.532  1.00  0.00    -0.200 F 
ATOM     90  F   UNL A   1      53.068  26.036  24.906  1.00  0.00    -0.200 F 
ENDBRANCH  56  80
BRANCH  68  91
ATOM     91  C   UNL A   1      46.041  32.429  29.010  1.00  0.00     0.064 A 
ATOM     92  C   UNL A   1      45.979  33.514  28.125  1.00  0.00     0.173 A 
ATOM     93  C   UNL A   1      46.529  32.664  30.306  1.00  0.00     0.173 A 
ATOM     94  F   UNL A   1      45.532  33.339  26.873  1.00  0.00    -0.203 F 
ATOM     95  C   UNL A   1      46.414  34.779  28.513  1.00  0.00     0.198 A 
ATOM     96  C   UNL A   1      46.930  33.937  30.701  1.00  0.00     0.198 A 
ATOM     97  F   UNL A   1      46.600  31.663  31.195  1.00  0.00    -0.203 F 
ATOM     98  F   UNL A   1      46.393  35.790  27.634  1.00  0.00    -0.200 F 
ATOM     99  C   UNL A   1      46.879  34.991  29.802  1.00  0.00     0.200 A 
ATOM    100  F   UNL A   1      47.359  34.143  31.954  1.00  0.00    -0.200 F 
ATOM    101  F   UNL A   1      47.284  36.212  30.177  1.00  0.00    -0.200 F 
ENDBRANCH  68  91
ENDBRANCH  42  43
ENDBRANCH  34  37
ENDBRANCH  32  33
ENDBRANCH  31  32
ENDBRANCH   1  31
TORSDOF 15
ENDMDL
