MODEL 1
REMARK VINA RESULT:     -11.7      0.000      0.000
REMARK SMILES O=C(NCCCCNC(=O)[C@H](CO)NC(=O)[C@H](Cc1ccc(O)cc1)NC(=O)c1ccc(F)cc1)c1ccc(-c2c3nc(c(-c4c(F)c(F)c(F)c(F)c4F)c4ccc([nH]4)c(-c4c(F)c(F)c(F)c(F)c4F)c4nc(c(-c5c(F)c(F)c(F)c(F)c5F)c5ccc2[nH]5)C=C4)C=C3)cc1
REMARK SMILES IDX 7 1 6 2 5 3 4 4 3 5 1 6 2 7 36 9 37 10 98 11 38 12 97 13
REMARK SMILES IDX 39 14 40 15 41 16 91 17 42 18 96 19 90 20 92 21 43 22 95 23
REMARK SMILES IDX 89 24 88 25 44 27 76 28 56 29 75 30 57 31 60 32 74 33 93 34
REMARK SMILES IDX 58 35 59 36 73 38 94 39 61 40 45 41 46 42 54 43 47 44 48 45
REMARK SMILES IDX 52 46 55 47 49 48 50 49 53 50 51 51 77 52 78 53 86 54 79 55
REMARK SMILES IDX 80 56 84 57 87 58 81 59 82 60 85 61 83 62 62 63 63 64 71 65
REMARK SMILES IDX 64 66 65 67 69 68 72 69 66 70 67 71 70 72 68 73 8 74 9 75
REMARK SMILES IDX 10 77 11 78 14 79 15 80 16 82 17 83 26 84 27 85 28 87 29 88
REMARK SMILES IDX 30 89 35 90 31 91 34 92 32 93 33 94 18 95 19 96 20 97 25 98
REMARK SMILES IDX 21 99 24 100 22 101 23 102 12 104 13 105
REMARK H PARENT 3 8 92 26 60 37 8 76 14 81 26 86 23 103 13 106
REMARK Flexibility Score: inf
ROOT
ATOM      1  C   UNL A   1      34.203  22.819  23.548  1.00  0.00     0.116 C 
ENDROOT
BRANCH   1   2
ATOM      2  C   UNL A   1      35.680  22.561  23.812  1.00  0.00     0.023 C 
BRANCH   2   3
ATOM      3  C   UNL A   1      36.372  23.669  24.600  1.00  0.00     0.023 C 
BRANCH   3   4
ATOM      4  C   UNL A   1      36.834  23.278  26.000  1.00  0.00     0.116 C 
BRANCH   4   5
ATOM      5  N   UNL A   1      38.049  22.478  26.013  1.00  0.00    -0.352 N 
ATOM      6  O   UNL A   1      40.275  22.116  26.256  1.00  0.00    -0.269 OA
ATOM      7  C   UNL A   1      39.318  22.860  26.391  1.00  0.00     0.251 C 
ATOM      8  H   UNL A   1      37.953  21.545  25.714  1.00  0.00     0.163 HD
BRANCH   7   9
ATOM      9  C   UNL A   1      39.506  24.224  26.928  1.00  0.00     0.039 A 
ATOM     10  C   UNL A   1      40.070  25.219  26.126  1.00  0.00     0.014 A 
ATOM     11  C   UNL A   1      39.188  24.478  28.264  1.00  0.00     0.014 A 
ATOM     12  C   UNL A   1      40.466  26.418  26.705  1.00  0.00     0.010 A 
ATOM     13  C   UNL A   1      39.518  25.714  28.824  1.00  0.00     0.010 A 
ATOM     14  C   UNL A   1      40.204  26.673  28.063  1.00  0.00    -0.014 A 
BRANCH  14  15
ATOM     15  C   UNL A   1      40.655  27.954  28.659  1.00  0.00     0.031 A 
ATOM     16  C   UNL A   1      42.114  28.221  28.906  1.00  0.00     0.074 A 
ATOM     17  C   UNL A   1      39.741  28.903  28.928  1.00  0.00     0.049 A 
ATOM     18  N   UNL A   1      42.687  29.299  29.382  1.00  0.00    -0.248 NA
ATOM     19  C   UNL A   1      43.055  27.138  28.582  1.00  0.00     0.031 C 
ATOM     20  C   UNL A   1      38.298  28.757  28.727  1.00  0.00     0.029 A 
ATOM     21  N   UNL A   1      39.886  30.181  29.403  1.00  0.00    -0.354 N 
ATOM     22  C   UNL A   1      44.046  29.021  29.429  1.00  0.00     0.074 A 
ATOM     23  C   UNL A   1      44.214  27.662  28.960  1.00  0.00     0.031 C 
ATOM     24  C   UNL A   1      37.696  29.917  29.027  1.00  0.00     0.029 A 
ATOM     25  C   UNL A   1      38.701  30.868  29.491  1.00  0.00     0.049 A 
ATOM     26  H   UNL A   1      40.755  30.568  29.657  1.00  0.00     0.167 HD
ATOM     27  C   UNL A   1      45.060  29.831  29.818  1.00  0.00     0.037 A 
ATOM     28  C   UNL A   1      38.449  32.124  29.904  1.00  0.00     0.037 A 
ATOM     29  C   UNL A   1      44.889  31.187  30.272  1.00  0.00     0.049 A 
ATOM     30  C   UNL A   1      39.587  32.995  30.345  1.00  0.00     0.074 A 
ATOM     31  C   UNL A   1      45.857  32.090  30.676  1.00  0.00     0.029 A 
ATOM     32  N   UNL A   1      43.668  31.837  30.379  1.00  0.00    -0.354 N 
ATOM     33  N   UNL A   1      40.868  32.723  30.377  1.00  0.00    -0.248 NA
ATOM     34  C   UNL A   1      39.246  34.347  30.808  1.00  0.00     0.031 C 
ATOM     35  C   UNL A   1      45.218  33.273  31.064  1.00  0.00     0.029 A 
ATOM     36  C   UNL A   1      43.857  33.125  30.855  1.00  0.00     0.049 A 
ATOM     37  H   UNL A   1      42.796  31.442  30.150  1.00  0.00     0.167 HD
ATOM     38  C   UNL A   1      41.490  33.870  30.849  1.00  0.00     0.074 A 
ATOM     39  C   UNL A   1      40.445  34.848  31.076  1.00  0.00     0.031 C 
ATOM     40  C   UNL A   1      42.808  34.089  31.074  1.00  0.00     0.037 A 
BRANCH  27  41
ATOM     41  C   UNL A   1      46.453  29.271  29.783  1.00  0.00     0.064 A 
ATOM     42  C   UNL A   1      47.000  28.653  30.917  1.00  0.00     0.173 A 
ATOM     43  C   UNL A   1      47.266  29.397  28.648  1.00  0.00     0.173 A 
ATOM     44  F   UNL A   1      46.267  28.514  32.032  1.00  0.00    -0.203 F 
ATOM     45  C   UNL A   1      48.314  28.189  30.918  1.00  0.00     0.198 A 
ATOM     46  C   UNL A   1      48.571  28.907  28.643  1.00  0.00     0.198 A 
ATOM     47  F   UNL A   1      46.787  29.968  27.532  1.00  0.00    -0.203 F 
ATOM     48  F   UNL A   1      48.823  27.624  32.023  1.00  0.00    -0.200 F 
ATOM     49  C   UNL A   1      49.095  28.311  29.780  1.00  0.00     0.200 A 
ATOM     50  F   UNL A   1      49.317  29.005  27.534  1.00  0.00    -0.200 F 
ATOM     51  F   UNL A   1      50.354  27.851  29.776  1.00  0.00    -0.200 F 
ENDBRANCH  27  41
BRANCH  28  52
ATOM     52  C   UNL A   1      37.052  32.622  29.879  1.00  0.00     0.064 A 
ATOM     53  C   UNL A   1      36.559  33.352  28.788  1.00  0.00     0.173 A 
ATOM     54  C   UNL A   1      36.206  32.436  30.980  1.00  0.00     0.173 A 
ATOM     55  F   UNL A   1      37.336  33.563  27.716  1.00  0.00    -0.203 F 
ATOM     56  C   UNL A   1      35.281  33.904  28.811  1.00  0.00     0.198 A 
ATOM     57  C   UNL A   1      34.918  32.968  30.993  1.00  0.00     0.198 A 
ATOM     58  F   UNL A   1      36.630  31.733  32.040  1.00  0.00    -0.203 F 
ATOM     59  F   UNL A   1      34.851  34.637  27.777  1.00  0.00    -0.200 F 
ATOM     60  C   UNL A   1      34.461  33.711  29.914  1.00  0.00     0.200 A 
ATOM     61  F   UNL A   1      34.123  32.766  32.052  1.00  0.00    -0.200 F 
ATOM     62  F   UNL A   1      33.232  34.244  29.937  1.00  0.00    -0.200 F 
ENDBRANCH  28  52
BRANCH  40  63
ATOM     63  C   UNL A   1      43.208  35.446  31.569  1.00  0.00     0.064 A 
ATOM     64  C   UNL A   1      43.648  36.429  30.669  1.00  0.00     0.173 A 
ATOM     65  C   UNL A   1      43.219  35.754  32.937  1.00  0.00     0.173 A 
ATOM     66  F   UNL A   1      43.662  36.180  29.351  1.00  0.00    -0.203 F 
ATOM     67  C   UNL A   1      44.094  37.667  31.121  1.00  0.00     0.198 A 
ATOM     68  C   UNL A   1      43.643  37.002  33.385  1.00  0.00     0.198 A 
ATOM     69  F   UNL A   1      42.795  34.852  33.835  1.00  0.00    -0.203 F 
ATOM     70  F   UNL A   1      44.534  38.580  30.246  1.00  0.00    -0.200 F 
ATOM     71  C   UNL A   1      44.088  37.954  32.478  1.00  0.00     0.200 A 
ATOM     72  F   UNL A   1      43.614  37.288  34.694  1.00  0.00    -0.200 F 
ATOM     73  F   UNL A   1      44.507  39.150  32.912  1.00  0.00    -0.200 F 
ENDBRANCH  40  63
ENDBRANCH  14  15
ENDBRANCH   7   9
ENDBRANCH   4   5
ENDBRANCH   3   4
ENDBRANCH   2   3
ENDBRANCH   1   2
BRANCH   1  74
ATOM     74  N   UNL A   1      33.365  21.675  23.875  1.00  0.00    -0.354 N 
ATOM     75  C   UNL A   1      32.536  21.519  24.954  1.00  0.00     0.244 C 
ATOM     76  H   UNL A   1      33.396  20.921  23.242  1.00  0.00     0.163 HD
ATOM     77  O   UNL A   1      31.848  20.500  25.045  1.00  0.00    -0.273 OA
BRANCH  75  78
ATOM     78  C   UNL A   1      32.531  22.601  26.040  1.00  0.00     0.197 C 
BRANCH  78  79
ATOM     79  N   UNL A   1      31.236  22.647  26.705  1.00  0.00    -0.340 N 
ATOM     80  C   UNL A   1      30.345  23.665  26.822  1.00  0.00     0.243 C 
ATOM     81  H   UNL A   1      30.962  21.807  27.137  1.00  0.00     0.164 HD
ATOM     82  O   UNL A   1      29.289  23.410  27.415  1.00  0.00    -0.273 OA
BRANCH  80  83
ATOM     83  C   UNL A   1      30.502  25.037  26.113  1.00  0.00     0.176 C 
BRANCH  83  84
ATOM     84  N   UNL A   1      29.503  25.413  25.103  1.00  0.00    -0.340 N 
ATOM     85  C   UNL A   1      29.586  26.244  24.022  1.00  0.00     0.251 C 
ATOM     86  H   UNL A   1      28.621  24.994  25.228  1.00  0.00     0.164 HD
ATOM     87  O   UNL A   1      28.551  26.603  23.467  1.00  0.00    -0.269 OA
BRANCH  85  88
ATOM     88  C   UNL A   1      30.878  26.753  23.525  1.00  0.00     0.040 A 
ATOM     89  C   UNL A   1      31.833  25.907  22.952  1.00  0.00     0.017 A 
ATOM     90  C   UNL A   1      31.086  28.140  23.549  1.00  0.00     0.017 A 
ATOM     91  C   UNL A   1      33.025  26.444  22.462  1.00  0.00     0.040 A 
ATOM     92  C   UNL A   1      32.273  28.674  23.047  1.00  0.00     0.040 A 
ATOM     93  C   UNL A   1      33.235  27.820  22.517  1.00  0.00     0.123 A 
ATOM     94  F   UNL A   1      34.375  28.331  22.038  1.00  0.00    -0.207 F 
ENDBRANCH  85  88
ENDBRANCH  83  84
BRANCH  83  95
ATOM     95  C   UNL A   1      30.791  26.145  27.154  1.00  0.00     0.070 C 
BRANCH  95  96
ATOM     96  C   UNL A   1      31.905  27.129  26.872  1.00  0.00    -0.045 A 
ATOM     97  C   UNL A   1      31.788  28.477  27.247  1.00  0.00     0.007 A 
ATOM     98  C   UNL A   1      33.115  26.686  26.315  1.00  0.00     0.007 A 
ATOM     99  C   UNL A   1      32.866  29.353  27.096  1.00  0.00     0.046 A 
ATOM    100  C   UNL A   1      34.187  27.564  26.153  1.00  0.00     0.046 A 
ATOM    101  C   UNL A   1      34.061  28.885  26.559  1.00  0.00     0.115 A 
BRANCH 101 102
ATOM    102  O   UNL A   1      35.133  29.711  26.391  1.00  0.00    -0.508 OA
ATOM    103  H   UNL A   1      35.011  30.572  26.044  1.00  0.00     0.293 HD
ENDBRANCH 101 102
ENDBRANCH  95  96
ENDBRANCH  83  95
ENDBRANCH  80  83
ENDBRANCH  78  79
BRANCH  78 104
ATOM    104  C   UNL A   1      33.661  22.315  27.037  1.00  0.00     0.191 C 
BRANCH 104 105
ATOM    105  O   UNL A   1      34.210  21.018  26.812  1.00  0.00    -0.394 OA
ATOM    106  H   UNL A   1      35.155  21.097  26.608  1.00  0.00     0.210 HD
ENDBRANCH 104 105
ENDBRANCH  78 104
ENDBRANCH  75  78
ENDBRANCH   1  74
TORSDOF 20
ENDMDL
MODEL 2
REMARK VINA RESULT:     -11.5      4.014      8.914
REMARK SMILES O=C(NCCCCNC(=O)[C@H](CO)NC(=O)[C@H](Cc1ccc(O)cc1)NC(=O)c1ccc(F)cc1)c1ccc(-c2c3nc(c(-c4c(F)c(F)c(F)c(F)c4F)c4ccc([nH]4)c(-c4c(F)c(F)c(F)c(F)c4F)c4nc(c(-c5c(F)c(F)c(F)c(F)c5F)c5ccc2[nH]5)C=C4)C=C3)cc1
REMARK SMILES IDX 7 1 6 2 5 3 4 4 3 5 1 6 2 7 36 9 37 10 98 11 38 12 97 13
REMARK SMILES IDX 39 14 40 15 41 16 91 17 42 18 96 19 90 20 92 21 43 22 95 23
REMARK SMILES IDX 89 24 88 25 44 27 76 28 56 29 75 30 57 31 60 32 74 33 93 34
REMARK SMILES IDX 58 35 59 36 73 38 94 39 61 40 45 41 46 42 54 43 47 44 48 45
REMARK SMILES IDX 52 46 55 47 49 48 50 49 53 50 51 51 77 52 78 53 86 54 79 55
REMARK SMILES IDX 80 56 84 57 87 58 81 59 82 60 85 61 83 62 62 63 63 64 71 65
REMARK SMILES IDX 64 66 65 67 69 68 72 69 66 70 67 71 70 72 68 73 8 74 9 75
REMARK SMILES IDX 10 77 11 78 14 79 15 80 16 82 17 83 26 84 27 85 28 87 29 88
REMARK SMILES IDX 30 89 35 90 31 91 34 92 32 93 33 94 18 95 19 96 20 97 25 98
REMARK SMILES IDX 21 99 24 100 22 101 23 102 12 104 13 105
REMARK H PARENT 3 8 92 26 60 37 8 76 14 81 26 86 23 103 13 106
REMARK Flexibility Score: inf
ROOT
ATOM      1  C   UNL A   1      32.198  29.865  25.387  1.00  0.00     0.116 C 
ENDROOT
BRANCH   1   2
ATOM      2  C   UNL A   1      32.087  30.398  26.808  1.00  0.00     0.023 C 
BRANCH   2   3
ATOM      3  C   UNL A   1      31.757  31.885  26.891  1.00  0.00     0.023 C 
BRANCH   3   4
ATOM      4  C   UNL A   1      32.903  32.779  27.355  1.00  0.00     0.116 C 
BRANCH   4   5
ATOM      5  N   UNL A   1      32.492  34.136  27.680  1.00  0.00    -0.352 N 
ATOM      6  O   UNL A   1      32.518  36.067  28.868  1.00  0.00    -0.269 OA
ATOM      7  C   UNL A   1      33.025  34.985  28.624  1.00  0.00     0.251 C 
ATOM      8  H   UNL A   1      31.737  34.493  27.158  1.00  0.00     0.163 HD
BRANCH   7   9
ATOM      9  C   UNL A   1      34.213  34.534  29.379  1.00  0.00     0.039 A 
ATOM     10  C   UNL A   1      35.484  34.635  28.809  1.00  0.00     0.014 A 
ATOM     11  C   UNL A   1      34.037  33.936  30.629  1.00  0.00     0.014 A 
ATOM     12  C   UNL A   1      36.556  33.992  29.415  1.00  0.00     0.010 A 
ATOM     13  C   UNL A   1      35.132  33.357  31.273  1.00  0.00     0.010 A 
ATOM     14  C   UNL A   1      36.388  33.336  30.647  1.00  0.00    -0.014 A 
BRANCH  14  15
ATOM     15  C   UNL A   1      37.547  32.643  31.262  1.00  0.00     0.031 A 
ATOM     16  C   UNL A   1      38.005  32.986  32.652  1.00  0.00     0.074 A 
ATOM     17  C   UNL A   1      38.154  31.658  30.575  1.00  0.00     0.049 A 
ATOM     18  N   UNL A   1      38.972  32.453  33.357  1.00  0.00    -0.248 NA
ATOM     19  C   UNL A   1      37.290  34.069  33.342  1.00  0.00     0.031 C 
ATOM     20  C   UNL A   1      37.793  31.237  29.220  1.00  0.00     0.029 A 
ATOM     21  N   UNL A   1      39.179  30.819  30.926  1.00  0.00    -0.354 N 
ATOM     22  C   UNL A   1      38.992  33.143  34.562  1.00  0.00     0.074 A 
ATOM     23  C   UNL A   1      37.959  34.154  34.485  1.00  0.00     0.031 C 
ATOM     24  C   UNL A   1      38.550  30.186  28.874  1.00  0.00     0.029 A 
ATOM     25  C   UNL A   1      39.483  29.894  29.958  1.00  0.00     0.049 A 
ATOM     26  H   UNL A   1      39.652  30.874  31.788  1.00  0.00     0.167 HD
ATOM     27  C   UNL A   1      39.793  32.942  35.635  1.00  0.00     0.037 A 
ATOM     28  C   UNL A   1      40.411  28.920  29.943  1.00  0.00     0.037 A 
ATOM     29  C   UNL A   1      40.811  31.927  35.712  1.00  0.00     0.049 A 
ATOM     30  C   UNL A   1      41.297  28.729  31.138  1.00  0.00     0.074 A 
ATOM     31  C   UNL A   1      41.666  31.638  36.763  1.00  0.00     0.029 A 
ATOM     32  N   UNL A   1      41.111  31.029  34.697  1.00  0.00    -0.354 N 
ATOM     33  N   UNL A   1      41.300  29.383  32.273  1.00  0.00    -0.248 NA
ATOM     34  C   UNL A   1      42.307  27.667  31.051  1.00  0.00     0.031 C 
ATOM     35  C   UNL A   1      42.508  30.594  36.369  1.00  0.00     0.029 A 
ATOM     36  C   UNL A   1      42.146  30.196  35.092  1.00  0.00     0.049 A 
ATOM     37  H   UNL A   1      40.656  30.991  33.825  1.00  0.00     0.167 HD
ATOM     38  C   UNL A   1      42.300  28.806  33.042  1.00  0.00     0.074 A 
ATOM     39  C   UNL A   1      42.873  27.737  32.249  1.00  0.00     0.031 C 
ATOM     40  C   UNL A   1      42.705  29.135  34.293  1.00  0.00     0.037 A 
BRANCH  27  41
ATOM     41  C   UNL A   1      39.612  33.848  36.820  1.00  0.00     0.064 A 
ATOM     42  C   UNL A   1      38.800  33.459  37.896  1.00  0.00     0.173 A 
ATOM     43  C   UNL A   1      40.196  35.122  36.865  1.00  0.00     0.173 A 
ATOM     44  F   UNL A   1      38.212  32.254  37.899  1.00  0.00    -0.203 F 
ATOM     45  C   UNL A   1      38.573  34.317  38.970  1.00  0.00     0.198 A 
ATOM     46  C   UNL A   1      39.989  35.967  37.954  1.00  0.00     0.198 A 
ATOM     47  F   UNL A   1      40.993  35.537  35.868  1.00  0.00    -0.203 F 
ATOM     48  F   UNL A   1      37.772  33.934  39.975  1.00  0.00    -0.200 F 
ATOM     49  C   UNL A   1      39.172  35.567  39.000  1.00  0.00     0.200 A 
ATOM     50  F   UNL A   1      40.587  37.166  37.993  1.00  0.00    -0.200 F 
ATOM     51  F   UNL A   1      38.965  36.386  40.041  1.00  0.00    -0.200 F 
ENDBRANCH  27  41
BRANCH  28  52
ATOM     52  C   UNL A   1      40.511  28.041  28.752  1.00  0.00     0.064 A 
ATOM     53  C   UNL A   1      41.271  28.415  27.633  1.00  0.00     0.173 A 
ATOM     54  C   UNL A   1      39.789  26.843  28.683  1.00  0.00     0.173 A 
ATOM     55  F   UNL A   1      41.970  29.559  27.650  1.00  0.00    -0.203 F 
ATOM     56  C   UNL A   1      41.280  27.637  26.479  1.00  0.00     0.198 A 
ATOM     57  C   UNL A   1      39.819  26.052  27.537  1.00  0.00     0.198 A 
ATOM     58  F   UNL A   1      39.060  26.439  29.734  1.00  0.00    -0.203 F 
ATOM     59  F   UNL A   1      41.976  28.040  25.408  1.00  0.00    -0.200 F 
ATOM     60  C   UNL A   1      40.555  26.455  26.431  1.00  0.00     0.200 A 
ATOM     61  F   UNL A   1      39.130  24.903  27.500  1.00  0.00    -0.200 F 
ATOM     62  F   UNL A   1      40.563  25.708  25.320  1.00  0.00    -0.200 F 
ENDBRANCH  28  52
BRANCH  40  63
ATOM     63  C   UNL A   1      43.806  28.318  34.900  1.00  0.00     0.064 A 
ATOM     64  C   UNL A   1      43.507  27.168  35.646  1.00  0.00     0.173 A 
ATOM     65  C   UNL A   1      45.149  28.707  34.799  1.00  0.00     0.173 A 
ATOM     66  F   UNL A   1      42.236  26.758  35.776  1.00  0.00    -0.203 F 
ATOM     67  C   UNL A   1      44.513  26.443  36.278  1.00  0.00     0.198 A 
ATOM     68  C   UNL A   1      46.155  27.966  35.412  1.00  0.00     0.198 A 
ATOM     69  F   UNL A   1      45.485  29.792  34.086  1.00  0.00    -0.203 F 
ATOM     70  F   UNL A   1      44.201  25.363  37.007  1.00  0.00    -0.200 F 
ATOM     71  C   UNL A   1      45.836  26.840  36.158  1.00  0.00     0.200 A 
ATOM     72  F   UNL A   1      47.436  28.337  35.277  1.00  0.00    -0.200 F 
ATOM     73  F   UNL A   1      46.804  26.135  36.758  1.00  0.00    -0.200 F 
ENDBRANCH  40  63
ENDBRANCH  14  15
ENDBRANCH   7   9
ENDBRANCH   4   5
ENDBRANCH   3   4
ENDBRANCH   2   3
ENDBRANCH   1   2
BRANCH   1  74
ATOM     74  N   UNL A   1      31.022  30.161  24.581  1.00  0.00    -0.354 N 
ATOM     75  C   UNL A   1      30.230  29.280  23.892  1.00  0.00     0.244 C 
ATOM     76  H   UNL A   1      30.763  31.109  24.525  1.00  0.00     0.163 HD
ATOM     77  O   UNL A   1      29.231  29.700  23.305  1.00  0.00    -0.273 OA
BRANCH  75  78
ATOM     78  C   UNL A   1      30.646  27.806  23.836  1.00  0.00     0.197 C 
BRANCH  78  79
ATOM     79  N   UNL A   1      29.744  26.993  24.641  1.00  0.00    -0.340 N 
ATOM     80  C   UNL A   1      29.997  25.914  25.425  1.00  0.00     0.243 C 
ATOM     81  H   UNL A   1      28.800  27.271  24.614  1.00  0.00     0.164 HD
ATOM     82  O   UNL A   1      29.034  25.436  26.037  1.00  0.00    -0.273 OA
BRANCH  80  83
ATOM     83  C   UNL A   1      31.424  25.380  25.724  1.00  0.00     0.176 C 
BRANCH  83  84
ATOM     84  N   UNL A   1      32.482  26.357  26.017  1.00  0.00    -0.340 N 
ATOM     85  C   UNL A   1      33.839  26.281  25.876  1.00  0.00     0.251 C 
ATOM     86  H   UNL A   1      32.156  27.213  26.377  1.00  0.00     0.164 HD
ATOM     87  O   UNL A   1      34.541  27.128  26.423  1.00  0.00    -0.269 OA
BRANCH  85  88
ATOM     88  C   UNL A   1      34.487  25.194  25.120  1.00  0.00     0.040 A 
ATOM     89  C   UNL A   1      34.110  24.879  23.810  1.00  0.00     0.017 A 
ATOM     90  C   UNL A   1      35.574  24.540  25.719  1.00  0.00     0.017 A 
ATOM     91  C   UNL A   1      34.781  23.865  23.124  1.00  0.00     0.040 A 
ATOM     92  C   UNL A   1      36.250  23.536  25.025  1.00  0.00     0.040 A 
ATOM     93  C   UNL A   1      35.841  23.202  23.738  1.00  0.00     0.123 A 
ATOM     94  F   UNL A   1      36.486  22.237  23.073  1.00  0.00    -0.207 F 
ENDBRANCH  85  88
ENDBRANCH  83  84
BRANCH  83  95
ATOM     95  C   UNL A   1      31.353  24.210  26.735  1.00  0.00     0.070 C 
BRANCH  95  96
ATOM     96  C   UNL A   1      32.135  22.949  26.437  1.00  0.00    -0.045 A 
ATOM     97  C   UNL A   1      31.973  22.272  25.218  1.00  0.00     0.007 A 
ATOM     98  C   UNL A   1      33.106  22.490  27.341  1.00  0.00     0.007 A 
ATOM     99  C   UNL A   1      32.786  21.180  24.898  1.00  0.00     0.046 A 
ATOM    100  C   UNL A   1      33.908  21.393  27.026  1.00  0.00     0.046 A 
ATOM    101  C   UNL A   1      33.754  20.757  25.802  1.00  0.00     0.115 A 
BRANCH 101 102
ATOM    102  O   UNL A   1      34.561  19.693  25.528  1.00  0.00    -0.508 OA
ATOM    103  H   UNL A   1      34.639  18.992  26.144  1.00  0.00     0.293 HD
ENDBRANCH 101 102
ENDBRANCH  95  96
ENDBRANCH  83  95
ENDBRANCH  80  83
ENDBRANCH  78  79
BRANCH  78 104
ATOM    104  C   UNL A   1      30.660  27.344  22.373  1.00  0.00     0.191 C 
BRANCH 104 105
ATOM    105  O   UNL A   1      31.908  27.662  21.760  1.00  0.00    -0.394 OA
ATOM    106  H   UNL A   1      32.104  27.010  21.070  1.00  0.00     0.210 HD
ENDBRANCH 104 105
ENDBRANCH  78 104
ENDBRANCH  75  78
ENDBRANCH   1  74
TORSDOF 20
ENDMDL
MODEL 3
REMARK VINA RESULT:     -11.5      4.212      8.150
REMARK SMILES O=C(NCCCCNC(=O)[C@H](CO)NC(=O)[C@H](Cc1ccc(O)cc1)NC(=O)c1ccc(F)cc1)c1ccc(-c2c3nc(c(-c4c(F)c(F)c(F)c(F)c4F)c4ccc([nH]4)c(-c4c(F)c(F)c(F)c(F)c4F)c4nc(c(-c5c(F)c(F)c(F)c(F)c5F)c5ccc2[nH]5)C=C4)C=C3)cc1
REMARK SMILES IDX 7 1 6 2 5 3 4 4 3 5 1 6 2 7 36 9 37 10 98 11 38 12 97 13
REMARK SMILES IDX 39 14 40 15 41 16 91 17 42 18 96 19 90 20 92 21 43 22 95 23
REMARK SMILES IDX 89 24 88 25 44 27 76 28 56 29 75 30 57 31 60 32 74 33 93 34
REMARK SMILES IDX 58 35 59 36 73 38 94 39 61 40 45 41 46 42 54 43 47 44 48 45
REMARK SMILES IDX 52 46 55 47 49 48 50 49 53 50 51 51 77 52 78 53 86 54 79 55
REMARK SMILES IDX 80 56 84 57 87 58 81 59 82 60 85 61 83 62 62 63 63 64 71 65
REMARK SMILES IDX 64 66 65 67 69 68 72 69 66 70 67 71 70 72 68 73 8 74 9 75
REMARK SMILES IDX 10 77 11 78 14 79 15 80 16 82 17 83 26 84 27 85 28 87 29 88
REMARK SMILES IDX 30 89 35 90 31 91 34 92 32 93 33 94 18 95 19 96 20 97 25 98
REMARK SMILES IDX 21 99 24 100 22 101 23 102 12 104 13 105
REMARK H PARENT 3 8 92 26 60 37 8 76 14 81 26 86 23 103 13 106
REMARK Flexibility Score: inf
ROOT
ATOM      1  C   UNL A   1      31.856  30.019  25.490  1.00  0.00     0.116 C 
ENDROOT
BRANCH   1   2
ATOM      2  C   UNL A   1      32.365  30.465  26.853  1.00  0.00     0.023 C 
BRANCH   2   3
ATOM      3  C   UNL A   1      31.938  31.877  27.244  1.00  0.00     0.023 C 
BRANCH   3   4
ATOM      4  C   UNL A   1      33.061  32.908  27.276  1.00  0.00     0.116 C 
BRANCH   4   5
ATOM      5  N   UNL A   1      32.617  34.247  27.631  1.00  0.00    -0.352 N 
ATOM      6  O   UNL A   1      32.524  36.114  28.915  1.00  0.00    -0.269 OA
ATOM      7  C   UNL A   1      33.056  35.046  28.664  1.00  0.00     0.251 C 
ATOM      8  H   UNL A   1      31.912  34.632  27.061  1.00  0.00     0.163 HD
BRANCH   7   9
ATOM      9  C   UNL A   1      34.170  34.555  29.502  1.00  0.00     0.039 A 
ATOM     10  C   UNL A   1      35.489  34.701  29.067  1.00  0.00     0.014 A 
ATOM     11  C   UNL A   1      33.880  33.877  30.688  1.00  0.00     0.014 A 
ATOM     12  C   UNL A   1      36.505  34.027  29.733  1.00  0.00     0.010 A 
ATOM     13  C   UNL A   1      34.915  33.265  31.399  1.00  0.00     0.010 A 
ATOM     14  C   UNL A   1      36.227  33.293  30.900  1.00  0.00    -0.014 A 
BRANCH  14  15
ATOM     15  C   UNL A   1      37.328  32.569  31.580  1.00  0.00     0.031 A 
ATOM     16  C   UNL A   1      38.069  31.460  30.886  1.00  0.00     0.074 A 
ATOM     17  C   UNL A   1      37.694  32.955  32.815  1.00  0.00     0.049 A 
ATOM     18  N   UNL A   1      39.082  30.749  31.316  1.00  0.00    -0.248 NA
ATOM     19  C   UNL A   1      37.615  31.097  29.535  1.00  0.00     0.031 C 
ATOM     20  C   UNL A   1      37.049  34.020  33.585  1.00  0.00     0.029 A 
ATOM     21  N   UNL A   1      38.707  32.518  33.630  1.00  0.00    -0.354 N 
ATOM     22  C   UNL A   1      39.375  29.849  30.301  1.00  0.00     0.074 A 
ATOM     23  C   UNL A   1      38.416  30.082  29.242  1.00  0.00     0.031 C 
ATOM     24  C   UNL A   1      37.713  34.190  34.737  1.00  0.00     0.029 A 
ATOM     25  C   UNL A   1      38.794  33.212  34.811  1.00  0.00     0.049 A 
ATOM     26  H   UNL A   1      39.312  31.780  33.391  1.00  0.00     0.167 HD
ATOM     27  C   UNL A   1      40.361  28.921  30.255  1.00  0.00     0.037 A 
ATOM     28  C   UNL A   1      39.648  33.074  35.843  1.00  0.00     0.037 A 
ATOM     29  C   UNL A   1      41.320  28.701  31.307  1.00  0.00     0.049 A 
ATOM     30  C   UNL A   1      40.720  32.028  35.774  1.00  0.00     0.074 A 
ATOM     31  C   UNL A   1      42.364  27.792  31.348  1.00  0.00     0.029 A 
ATOM     32  N   UNL A   1      41.356  29.402  32.504  1.00  0.00    -0.354 N 
ATOM     33  N   UNL A   1      40.992  31.188  34.806  1.00  0.00    -0.248 NA
ATOM     34  C   UNL A   1      41.604  31.909  36.941  1.00  0.00     0.031 C 
ATOM     35  C   UNL A   1      43.005  27.916  32.584  1.00  0.00     0.029 A 
ATOM     36  C   UNL A   1      42.394  28.936  33.295  1.00  0.00     0.049 A 
ATOM     37  H   UNL A   1      40.734  30.123  32.755  1.00  0.00     0.167 HD
ATOM     38  C   UNL A   1      42.084  30.450  35.237  1.00  0.00     0.074 A 
ATOM     39  C   UNL A   1      42.436  30.952  36.550  1.00  0.00     0.031 C 
ATOM     40  C   UNL A   1      42.735  29.447  34.599  1.00  0.00     0.037 A 
BRANCH  27  41
ATOM     41  C   UNL A   1      40.451  28.057  29.030  1.00  0.00     0.064 A 
ATOM     42  C   UNL A   1      41.208  28.469  27.923  1.00  0.00     0.173 A 
ATOM     43  C   UNL A   1      39.743  26.851  28.929  1.00  0.00     0.173 A 
ATOM     44  F   UNL A   1      41.897  29.618  27.965  1.00  0.00    -0.203 F 
ATOM     45  C   UNL A   1      41.246  27.707  26.757  1.00  0.00     0.198 A 
ATOM     46  C   UNL A   1      39.806  26.078  27.771  1.00  0.00     0.198 A 
ATOM     47  F   UNL A   1      39.015  26.405  29.965  1.00  0.00    -0.203 F 
ATOM     48  F   UNL A   1      41.956  28.134  25.702  1.00  0.00    -0.200 F 
ATOM     49  C   UNL A   1      40.550  26.511  26.685  1.00  0.00     0.200 A 
ATOM     50  F   UNL A   1      39.150  24.910  27.712  1.00  0.00    -0.200 F 
ATOM     51  F   UNL A   1      40.598  25.771  25.568  1.00  0.00    -0.200 F 
ENDBRANCH  27  41
BRANCH  28  52
ATOM     52  C   UNL A   1      39.521  33.984  37.006  1.00  0.00     0.064 A 
ATOM     53  C   UNL A   1      40.170  35.228  37.031  1.00  0.00     0.173 A 
ATOM     54  C   UNL A   1      38.805  33.595  38.146  1.00  0.00     0.173 A 
ATOM     55  F   UNL A   1      40.875  35.637  35.966  1.00  0.00    -0.203 F 
ATOM     56  C   UNL A   1      40.132  36.035  38.164  1.00  0.00     0.198 A 
ATOM     57  C   UNL A   1      38.747  34.415  39.271  1.00  0.00     0.198 A 
ATOM     58  F   UNL A   1      38.157  32.421  38.162  1.00  0.00    -0.203 F 
ATOM     59  F   UNL A   1      40.799  37.196  38.180  1.00  0.00    -0.200 F 
ATOM     60  C   UNL A   1      39.420  35.629  39.284  1.00  0.00     0.200 A 
ATOM     61  F   UNL A   1      38.045  34.028  40.344  1.00  0.00    -0.200 F 
ATOM     62  F   UNL A   1      39.385  36.405  40.375  1.00  0.00    -0.200 F 
ENDBRANCH  28  52
BRANCH  40  63
ATOM     63  C   UNL A   1      43.913  28.834  35.296  1.00  0.00     0.064 A 
ATOM     64  C   UNL A   1      45.210  29.307  35.045  1.00  0.00     0.173 A 
ATOM     65  C   UNL A   1      43.765  27.741  36.161  1.00  0.00     0.173 A 
ATOM     66  F   UNL A   1      45.402  30.347  34.220  1.00  0.00    -0.203 F 
ATOM     67  C   UNL A   1      46.318  28.698  35.626  1.00  0.00     0.198 A 
ATOM     68  C   UNL A   1      44.874  27.150  36.761  1.00  0.00     0.198 A 
ATOM     69  F   UNL A   1      42.545  27.263  36.442  1.00  0.00    -0.203 F 
ATOM     70  F   UNL A   1      47.549  29.149  35.351  1.00  0.00    -0.200 F 
ATOM     71  C   UNL A   1      46.150  27.623  36.486  1.00  0.00     0.200 A 
ATOM     72  F   UNL A   1      44.710  26.127  37.609  1.00  0.00    -0.200 F 
ATOM     73  F   UNL A   1      47.217  27.046  37.054  1.00  0.00    -0.200 F 
ENDBRANCH  40  63
ENDBRANCH  14  15
ENDBRANCH   7   9
ENDBRANCH   4   5
ENDBRANCH   3   4
ENDBRANCH   2   3
ENDBRANCH   1   2
BRANCH   1  74
ATOM     74  N   UNL A   1      30.769  30.852  24.995  1.00  0.00    -0.354 N 
ATOM     75  C   UNL A   1      29.911  30.589  23.959  1.00  0.00     0.244 C 
ATOM     76  H   UNL A   1      30.632  31.707  25.462  1.00  0.00     0.163 HD
ATOM     77  O   UNL A   1      29.004  31.385  23.711  1.00  0.00    -0.273 OA
BRANCH  75  78
ATOM     78  C   UNL A   1      30.145  29.333  23.111  1.00  0.00     0.197 C 
BRANCH  78  79
ATOM     79  N   UNL A   1      29.128  28.330  23.401  1.00  0.00    -0.340 N 
ATOM     80  C   UNL A   1      29.236  26.983  23.526  1.00  0.00     0.243 C 
ATOM     81  H   UNL A   1      28.219  28.686  23.527  1.00  0.00     0.164 HD
ATOM     82  O   UNL A   1      28.201  26.370  23.820  1.00  0.00    -0.273 OA
BRANCH  80  83
ATOM     83  C   UNL A   1      30.586  26.218  23.499  1.00  0.00     0.176 C 
BRANCH  83  84
ATOM     84  N   UNL A   1      31.406  26.303  22.283  1.00  0.00    -0.340 N 
ATOM     85  C   UNL A   1      32.508  25.597  21.891  1.00  0.00     0.251 C 
ATOM     86  H   UNL A   1      31.110  26.987  21.639  1.00  0.00     0.164 HD
ATOM     87  O   UNL A   1      33.177  26.013  20.948  1.00  0.00    -0.269 OA
BRANCH  85  88
ATOM     88  C   UNL A   1      32.941  24.372  22.588  1.00  0.00     0.040 A 
ATOM     89  C   UNL A   1      32.094  23.268  22.733  1.00  0.00     0.017 A 
ATOM     90  C   UNL A   1      34.273  24.302  23.019  1.00  0.00     0.017 A 
ATOM     91  C   UNL A   1      32.564  22.117  23.368  1.00  0.00     0.040 A 
ATOM     92  C   UNL A   1      34.742  23.145  23.642  1.00  0.00     0.040 A 
ATOM     93  C   UNL A   1      33.881  22.068  23.819  1.00  0.00     0.123 A 
ATOM     94  F   UNL A   1      34.329  20.959  24.420  1.00  0.00    -0.207 F 
ENDBRANCH  85  88
ENDBRANCH  83  84
BRANCH  83  95
ATOM     95  C   UNL A   1      31.372  26.480  24.806  1.00  0.00     0.070 C 
BRANCH  95  96
ATOM     96  C   UNL A   1      31.627  25.318  25.742  1.00  0.00    -0.045 A 
ATOM     97  C   UNL A   1      30.600  24.420  26.070  1.00  0.00     0.007 A 
ATOM     98  C   UNL A   1      32.922  25.068  26.221  1.00  0.00     0.007 A 
ATOM     99  C   UNL A   1      30.869  23.281  26.835  1.00  0.00     0.046 A 
ATOM    100  C   UNL A   1      33.188  23.937  26.995  1.00  0.00     0.046 A 
ATOM    101  C   UNL A   1      32.165  23.045  27.282  1.00  0.00     0.115 A 
BRANCH 101 102
ATOM    102  O   UNL A   1      32.465  21.949  28.035  1.00  0.00    -0.508 OA
ATOM    103  H   UNL A   1      32.293  21.090  27.702  1.00  0.00     0.293 HD
ENDBRANCH 101 102
ENDBRANCH  95  96
ENDBRANCH  83  95
ENDBRANCH  80  83
ENDBRANCH  78  79
BRANCH  78 104
ATOM    104  C   UNL A   1      30.139  29.723  21.627  1.00  0.00     0.191 C 
BRANCH 104 105
ATOM    105  O   UNL A   1      28.812  30.003  21.189  1.00  0.00    -0.394 OA
ATOM    106  H   UNL A   1      28.216  30.025  21.954  1.00  0.00     0.210 HD
ENDBRANCH 104 105
ENDBRANCH  78 104
ENDBRANCH  75  78
ENDBRANCH   1  74
TORSDOF 20
ENDMDL
