MODEL 1
REMARK VINA RESULT:     -12.8      0.000      0.000
REMARK SMILES Cc1nn(-c2cccc(C(=O)NCCCCNC(=O)c3ccc(-c4c5nc(c(-c6c(F)c(F)c(F)c(F)c6F)c6ccc([nH]6)c(-c6c(F)c(F)c(F)c(F)c6F)c6nc(c(-c7c(F)c(F)c(F)c(F)c7F)c7ccc4[nH]7)C=C6)C=C5)cc3)c2)c(C)c1Cl
REMARK SMILES IDX 15 1 14 2 13 3 12 4 10 5 11 6 9 8 5 9 6 10 83 11 7 12 8 13
REMARK SMILES IDX 4 14 1 15 2 16 3 17 86 18 84 19 87 20 85 21 16 22 17 23
REMARK SMILES IDX 18 24 19 26 20 27 21 28 82 29 22 30 81 31 23 32 24 33 25 34
REMARK SMILES IDX 75 35 26 36 80 37 74 38 76 39 27 40 79 41 73 42 72 43 28 45
REMARK SMILES IDX 60 46 40 47 59 48 41 49 44 50 58 51 77 52 42 53 43 54 57 56
REMARK SMILES IDX 78 57 45 58 29 59 30 60 38 61 31 62 32 63 36 64 39 65 33 66
REMARK SMILES IDX 34 67 37 68 35 69 61 70 62 71 70 72 63 73 64 74 68 75 71 76
REMARK SMILES IDX 65 77 66 78 69 79 67 80 46 81 47 82 55 83 48 84 49 85 53 86
REMARK SMILES IDX 56 87 50 88 51 89 54 90 52 91
REMARK H PARENT 12 7 17 25 76 44 44 55
REMARK Flexibility Score: inf
ROOT
ATOM      1  C   UNL A   1      33.617  28.422  26.968  1.00  0.00     0.023 C 
ENDROOT
BRANCH   1   2
ATOM      2  C   UNL A   1      33.452  27.092  26.233  1.00  0.00     0.023 C 
BRANCH   2   3
ATOM      3  C   UNL A   1      32.032  26.640  25.896  1.00  0.00     0.116 C 
BRANCH   3   4
ATOM      4  N   UNL A   1      31.528  25.514  26.678  1.00  0.00    -0.352 N 
ATOM      5  C   UNL A   1      31.798  24.155  26.697  1.00  0.00     0.251 C 
ATOM      6  O   UNL A   1      31.185  23.465  27.511  1.00  0.00    -0.269 OA
ATOM      7  H   UNL A   1      30.847  25.777  27.338  1.00  0.00     0.163 HD
BRANCH   5   8
ATOM      8  C   UNL A   1      32.739  23.479  25.755  1.00  0.00     0.041 A 
ATOM      9  C   UNL A   1      35.000  22.889  25.094  1.00  0.00     0.066 A 
ATOM     10  C   UNL A   1      34.559  22.601  23.800  1.00  0.00     0.028 A 
ATOM     11  C   UNL A   1      34.067  23.229  26.080  1.00  0.00     0.042 A 
ATOM     12  C   UNL A   1      33.188  22.628  23.522  1.00  0.00     0.003 A 
ATOM     13  C   UNL A   1      32.286  23.094  24.488  1.00  0.00     0.014 A 
BRANCH   9  14
ATOM     14  N   UNL A   1      36.390  22.993  25.389  1.00  0.00    -0.236 N 
ATOM     15  C   UNL A   1      38.774  24.714  27.391  1.00  0.00     0.070 C 
ATOM     16  C   UNL A   1      38.037  23.774  26.509  1.00  0.00     0.079 A 
ATOM     17  N   UNL A   1      36.865  24.132  25.963  1.00  0.00    -0.171 NA
ATOM     18  C   UNL A   1      38.399  22.466  26.130  1.00  0.00     0.085 A 
ATOM     19  C   UNL A   1      37.358  21.999  25.360  1.00  0.00     0.060 A 
ATOM     20  Cl  UNL A   1      39.829  21.648  26.534  1.00  0.00    -0.080 Cl
ATOM     21  C   UNL A   1      37.246  20.721  24.610  1.00  0.00     0.068 C 
ENDBRANCH   9  14
ENDBRANCH   5   8
ENDBRANCH   3   4
ENDBRANCH   2   3
ENDBRANCH   1   2
BRANCH   1  22
ATOM     22  C   UNL A   1      35.051  28.899  27.164  1.00  0.00     0.116 C 
BRANCH  22  23
ATOM     23  N   UNL A   1      35.236  29.828  28.275  1.00  0.00    -0.352 N 
ATOM     24  C   UNL A   1      36.306  29.867  29.158  1.00  0.00     0.251 C 
ATOM     25  H   UNL A   1      34.528  30.498  28.412  1.00  0.00     0.163 HD
ATOM     26  O   UNL A   1      36.213  30.396  30.251  1.00  0.00    -0.269 OA
BRANCH  24  27
ATOM     27  C   UNL A   1      37.575  29.238  28.737  1.00  0.00     0.039 A 
ATOM     28  C   UNL A   1      38.282  29.712  27.632  1.00  0.00     0.014 A 
ATOM     29  C   UNL A   1      38.083  28.200  29.516  1.00  0.00     0.014 A 
ATOM     30  C   UNL A   1      39.558  29.206  27.389  1.00  0.00     0.010 A 
ATOM     31  C   UNL A   1      39.386  27.790  29.350  1.00  0.00     0.010 A 
ATOM     32  C   UNL A   1      40.130  28.274  28.279  1.00  0.00    -0.014 A 
BRANCH  32  33
ATOM     33  C   UNL A   1      41.555  27.945  28.177  1.00  0.00     0.031 A 
ATOM     34  C   UNL A   1      41.826  26.670  27.454  1.00  0.00     0.074 A 
ATOM     35  C   UNL A   1      42.571  28.756  28.550  1.00  0.00     0.049 A 
ATOM     36  N   UNL A   1      42.253  25.568  27.973  1.00  0.00    -0.248 NA
ATOM     37  C   UNL A   1      41.455  26.549  26.035  1.00  0.00     0.031 C 
ATOM     38  C   UNL A   1      42.496  30.145  29.017  1.00  0.00     0.029 A 
ATOM     39  N   UNL A   1      43.921  28.524  28.526  1.00  0.00    -0.354 N 
ATOM     40  C   UNL A   1      42.396  24.666  26.922  1.00  0.00     0.074 A 
ATOM     41  C   UNL A   1      41.750  25.268  25.786  1.00  0.00     0.031 C 
ATOM     42  C   UNL A   1      43.731  30.698  29.020  1.00  0.00     0.029 A 
ATOM     43  C   UNL A   1      44.703  29.655  28.743  1.00  0.00     0.049 A 
ATOM     44  H   UNL A   1      44.306  27.632  28.367  1.00  0.00     0.167 HD
ATOM     45  C   UNL A   1      43.263  23.620  27.039  1.00  0.00     0.037 A 
ATOM     46  C   UNL A   1      46.056  29.733  28.743  1.00  0.00     0.037 A 
ATOM     47  C   UNL A   1      43.690  23.475  28.407  1.00  0.00     0.049 A 
ATOM     48  C   UNL A   1      46.573  28.383  29.034  1.00  0.00     0.074 A 
ATOM     49  C   UNL A   1      43.177  22.957  29.574  1.00  0.00     0.029 A 
ATOM     50  N   UNL A   1      44.719  24.313  28.746  1.00  0.00    -0.354 N 
ATOM     51  N   UNL A   1      46.444  27.805  30.195  1.00  0.00    -0.248 NA
ATOM     52  C   UNL A   1      46.967  27.510  27.935  1.00  0.00     0.031 C 
ATOM     53  C   UNL A   1      43.826  23.656  30.637  1.00  0.00     0.029 A 
ATOM     54  C   UNL A   1      44.749  24.544  30.092  1.00  0.00     0.049 A 
ATOM     55  H   UNL A   1      45.355  24.699  28.101  1.00  0.00     0.167 HD
ATOM     56  C   UNL A   1      46.292  26.472  29.884  1.00  0.00     0.074 A 
ATOM     57  C   UNL A   1      46.814  26.325  28.532  1.00  0.00     0.031 C 
ATOM     58  C   UNL A   1      45.455  25.687  30.620  1.00  0.00     0.037 A 
BRANCH  45  59
ATOM     59  C   UNL A   1      44.111  23.044  25.923  1.00  0.00     0.064 A 
ATOM     60  C   UNL A   1      44.134  21.643  25.739  1.00  0.00     0.173 A 
ATOM     61  C   UNL A   1      45.144  23.755  25.276  1.00  0.00     0.173 A 
ATOM     62  F   UNL A   1      43.207  20.862  26.314  1.00  0.00    -0.203 F 
ATOM     63  C   UNL A   1      45.160  21.002  25.038  1.00  0.00     0.198 A 
ATOM     64  C   UNL A   1      46.139  23.115  24.538  1.00  0.00     0.198 A 
ATOM     65  F   UNL A   1      45.299  25.074  25.426  1.00  0.00    -0.203 F 
ATOM     66  F   UNL A   1      45.208  19.664  24.997  1.00  0.00    -0.200 F 
ATOM     67  C   UNL A   1      46.168  21.739  24.445  1.00  0.00     0.200 A 
ATOM     68  F   UNL A   1      47.122  23.844  23.989  1.00  0.00    -0.200 F 
ATOM     69  F   UNL A   1      47.188  21.127  23.828  1.00  0.00    -0.200 F 
ENDBRANCH  45  59
BRANCH  46  70
ATOM     70  C   UNL A   1      46.971  30.845  28.402  1.00  0.00     0.064 A 
ATOM     71  C   UNL A   1      46.836  31.560  27.200  1.00  0.00     0.173 A 
ATOM     72  C   UNL A   1      47.773  31.430  29.397  1.00  0.00     0.173 A 
ATOM     73  F   UNL A   1      46.065  31.083  26.212  1.00  0.00    -0.203 F 
ATOM     74  C   UNL A   1      47.421  32.818  27.025  1.00  0.00     0.198 A 
ATOM     75  C   UNL A   1      48.357  32.687  29.222  1.00  0.00     0.198 A 
ATOM     76  F   UNL A   1      47.910  30.840  30.594  1.00  0.00    -0.203 F 
ATOM     77  F   UNL A   1      47.205  33.506  25.894  1.00  0.00    -0.200 F 
ATOM     78  C   UNL A   1      48.165  33.389  28.044  1.00  0.00     0.200 A 
ATOM     79  F   UNL A   1      49.043  33.248  30.228  1.00  0.00    -0.200 F 
ATOM     80  F   UNL A   1      48.657  34.628  27.910  1.00  0.00    -0.200 F 
ENDBRANCH  46  70
BRANCH  58  81
ATOM     81  C   UNL A   1      45.147  26.142  32.010  1.00  0.00     0.064 A 
ATOM     82  C   UNL A   1      44.012  26.885  32.376  1.00  0.00     0.173 A 
ATOM     83  C   UNL A   1      46.030  25.762  33.028  1.00  0.00     0.173 A 
ATOM     84  F   UNL A   1      43.087  27.225  31.470  1.00  0.00    -0.203 F 
ATOM     85  C   UNL A   1      43.800  27.266  33.700  1.00  0.00     0.198 A 
ATOM     86  C   UNL A   1      45.798  26.112  34.352  1.00  0.00     0.198 A 
ATOM     87  F   UNL A   1      47.111  25.020  32.735  1.00  0.00    -0.203 F 
ATOM     88  F   UNL A   1      42.725  27.998  34.026  1.00  0.00    -0.200 F 
ATOM     89  C   UNL A   1      44.692  26.874  34.686  1.00  0.00     0.200 A 
ATOM     90  F   UNL A   1      46.643  25.698  35.306  1.00  0.00    -0.200 F 
ATOM     91  F   UNL A   1      44.475  27.217  35.964  1.00  0.00    -0.200 F 
ENDBRANCH  58  81
ENDBRANCH  32  33
ENDBRANCH  24  27
ENDBRANCH  22  23
ENDBRANCH   1  22
TORSDOF 12
ENDMDL
MODEL 2
REMARK VINA RESULT:     -12.4      3.305      7.901
REMARK SMILES Cc1nn(-c2cccc(C(=O)NCCCCNC(=O)c3ccc(-c4c5nc(c(-c6c(F)c(F)c(F)c(F)c6F)c6ccc([nH]6)c(-c6c(F)c(F)c(F)c(F)c6F)c6nc(c(-c7c(F)c(F)c(F)c(F)c7F)c7ccc4[nH]7)C=C6)C=C5)cc3)c2)c(C)c1Cl
REMARK SMILES IDX 15 1 14 2 13 3 12 4 10 5 11 6 9 8 5 9 6 10 83 11 7 12 8 13
REMARK SMILES IDX 4 14 1 15 2 16 3 17 86 18 84 19 87 20 85 21 16 22 17 23
REMARK SMILES IDX 18 24 19 26 20 27 21 28 82 29 22 30 81 31 23 32 24 33 25 34
REMARK SMILES IDX 75 35 26 36 80 37 74 38 76 39 27 40 79 41 73 42 72 43 28 45
REMARK SMILES IDX 60 46 40 47 59 48 41 49 44 50 58 51 77 52 42 53 43 54 57 56
REMARK SMILES IDX 78 57 45 58 29 59 30 60 38 61 31 62 32 63 36 64 39 65 33 66
REMARK SMILES IDX 34 67 37 68 35 69 61 70 62 71 70 72 63 73 64 74 68 75 71 76
REMARK SMILES IDX 65 77 66 78 69 79 67 80 46 81 47 82 55 83 48 84 49 85 53 86
REMARK SMILES IDX 56 87 50 88 51 89 54 90 52 91
REMARK H PARENT 12 7 17 25 76 44 44 55
REMARK Flexibility Score: inf
ROOT
ATOM      1  C   UNL A   1      41.584  19.577  26.130  1.00  0.00     0.023 C 
ENDROOT
BRANCH   1   2
ATOM      2  C   UNL A   1      40.884  20.806  26.713  1.00  0.00     0.023 C 
BRANCH   2   3
ATOM      3  C   UNL A   1      39.619  21.299  26.012  1.00  0.00     0.116 C 
BRANCH   3   4
ATOM      4  N   UNL A   1      39.199  22.655  26.355  1.00  0.00    -0.352 N 
ATOM      5  C   UNL A   1      38.044  23.390  26.144  1.00  0.00     0.251 C 
ATOM      6  O   UNL A   1      38.012  24.539  26.584  1.00  0.00    -0.269 OA
ATOM      7  H   UNL A   1      39.889  23.159  26.843  1.00  0.00     0.163 HD
BRANCH   5   8
ATOM      8  C   UNL A   1      36.868  22.890  25.372  1.00  0.00     0.041 A 
ATOM      9  C   UNL A   1      34.839  23.318  24.107  1.00  0.00     0.066 A 
ATOM     10  C   UNL A   1      34.432  21.994  24.291  1.00  0.00     0.028 A 
ATOM     11  C   UNL A   1      36.098  23.721  24.566  1.00  0.00     0.042 A 
ATOM     12  C   UNL A   1      35.304  21.089  24.903  1.00  0.00     0.003 A 
ATOM     13  C   UNL A   1      36.504  21.541  25.467  1.00  0.00     0.014 A 
BRANCH   9  14
ATOM     14  N   UNL A   1      33.938  24.299  23.602  1.00  0.00    -0.236 N 
ATOM     15  C   UNL A   1      32.498  25.602  20.621  1.00  0.00     0.070 C 
ATOM     16  C   UNL A   1      32.842  25.229  22.016  1.00  0.00     0.079 A 
ATOM     17  N   UNL A   1      34.034  24.682  22.299  1.00  0.00    -0.171 NA
ATOM     18  C   UNL A   1      32.055  25.364  23.177  1.00  0.00     0.085 A 
ATOM     19  C   UNL A   1      32.798  24.817  24.198  1.00  0.00     0.060 A 
ATOM     20  Cl  UNL A   1      30.515  26.068  23.285  1.00  0.00    -0.080 Cl
ATOM     21  C   UNL A   1      32.505  24.780  25.655  1.00  0.00     0.068 C 
ENDBRANCH   9  14
ENDBRANCH   5   8
ENDBRANCH   3   4
ENDBRANCH   2   3
ENDBRANCH   1   2
BRANCH   1  22
ATOM     22  C   UNL A   1      42.986  19.299  26.658  1.00  0.00     0.116 C 
BRANCH  22  23
ATOM     23  N   UNL A   1      43.972  18.984  25.628  1.00  0.00    -0.352 N 
ATOM     24  C   UNL A   1      44.564  19.873  24.743  1.00  0.00     0.251 C 
ATOM     25  H   UNL A   1      44.246  18.041  25.555  1.00  0.00     0.163 HD
ATOM     26  O   UNL A   1      45.066  19.496  23.699  1.00  0.00    -0.269 OA
BRANCH  24  27
ATOM     27  C   UNL A   1      44.566  21.307  25.098  1.00  0.00     0.039 A 
ATOM     28  C   UNL A   1      43.657  22.193  24.519  1.00  0.00     0.014 A 
ATOM     29  C   UNL A   1      45.457  21.739  26.079  1.00  0.00     0.014 A 
ATOM     30  C   UNL A   1      43.579  23.491  25.022  1.00  0.00     0.010 A 
ATOM     31  C   UNL A   1      45.295  22.978  26.657  1.00  0.00     0.010 A 
ATOM     32  C   UNL A   1      44.369  23.870  26.126  1.00  0.00    -0.014 A 
BRANCH  32  33
ATOM     33  C   UNL A   1      44.100  25.135  26.818  1.00  0.00     0.031 A 
ATOM     34  C   UNL A   1      45.093  26.205  26.521  1.00  0.00     0.074 A 
ATOM     35  C   UNL A   1      42.992  25.404  27.546  1.00  0.00     0.049 A 
ATOM     36  N   UNL A   1      45.980  26.677  27.331  1.00  0.00    -0.248 NA
ATOM     37  C   UNL A   1      45.221  26.713  25.146  1.00  0.00     0.031 C 
ATOM     38  C   UNL A   1      41.793  24.574  27.712  1.00  0.00     0.029 A 
ATOM     39  N   UNL A   1      42.670  26.533  28.252  1.00  0.00    -0.354 N 
ATOM     40  C   UNL A   1      46.653  27.680  26.639  1.00  0.00     0.074 A 
ATOM     41  C   UNL A   1      46.253  27.556  25.263  1.00  0.00     0.031 C 
ATOM     42  C   UNL A   1      40.802  25.303  28.275  1.00  0.00     0.029 A 
ATOM     43  C   UNL A   1      41.348  26.584  28.684  1.00  0.00     0.049 A 
ATOM     44  H   UNL A   1      43.321  27.248  28.439  1.00  0.00     0.167 HD
ATOM     45  C   UNL A   1      47.279  28.677  27.327  1.00  0.00     0.037 A 
ATOM     46  C   UNL A   1      40.744  27.585  29.369  1.00  0.00     0.037 A 
ATOM     47  C   UNL A   1      47.368  28.339  28.724  1.00  0.00     0.049 A 
ATOM     48  C   UNL A   1      41.802  28.340  30.067  1.00  0.00     0.074 A 
ATOM     49  C   UNL A   1      48.151  27.533  29.519  1.00  0.00     0.029 A 
ATOM     50  N   UNL A   1      46.228  28.626  29.426  1.00  0.00    -0.354 N 
ATOM     51  N   UNL A   1      42.487  27.852  31.062  1.00  0.00    -0.248 NA
ATOM     52  C   UNL A   1      42.345  29.548  29.459  1.00  0.00     0.031 C 
ATOM     53  C   UNL A   1      47.354  27.204  30.658  1.00  0.00     0.029 A 
ATOM     54  C   UNL A   1      46.128  27.854  30.549  1.00  0.00     0.049 A 
ATOM     55  H   UNL A   1      45.566  29.302  29.155  1.00  0.00     0.167 HD
ATOM     56  C   UNL A   1      43.738  28.406  30.904  1.00  0.00     0.074 A 
ATOM     57  C   UNL A   1      43.543  29.569  30.048  1.00  0.00     0.031 C 
ATOM     58  C   UNL A   1      44.853  27.681  31.203  1.00  0.00     0.037 A 
BRANCH  45  59
ATOM     59  C   UNL A   1      47.370  30.127  26.899  1.00  0.00     0.064 A 
ATOM     60  C   UNL A   1      48.599  30.807  27.055  1.00  0.00     0.173 A 
ATOM     61  C   UNL A   1      46.247  30.952  26.679  1.00  0.00     0.173 A 
ATOM     62  F   UNL A   1      49.734  30.128  27.278  1.00  0.00    -0.203 F 
ATOM     63  C   UNL A   1      48.678  32.204  27.079  1.00  0.00     0.198 A 
ATOM     64  C   UNL A   1      46.338  32.344  26.657  1.00  0.00     0.198 A 
ATOM     65  F   UNL A   1      45.008  30.457  26.596  1.00  0.00    -0.203 F 
ATOM     66  F   UNL A   1      49.844  32.803  27.356  1.00  0.00    -0.200 F 
ATOM     67  C   UNL A   1      47.544  32.971  26.888  1.00  0.00     0.200 A 
ATOM     68  F   UNL A   1      45.224  33.073  26.494  1.00  0.00    -0.200 F 
ATOM     69  F   UNL A   1      47.603  34.307  26.975  1.00  0.00    -0.200 F 
ENDBRANCH  45  59
BRANCH  46  70
ATOM     70  C   UNL A   1      39.335  28.038  29.399  1.00  0.00     0.064 A 
ATOM     71  C   UNL A   1      38.624  28.131  30.608  1.00  0.00     0.173 A 
ATOM     72  C   UNL A   1      38.781  28.698  28.289  1.00  0.00     0.173 A 
ATOM     73  F   UNL A   1      39.101  27.553  31.719  1.00  0.00    -0.203 F 
ATOM     74  C   UNL A   1      37.455  28.891  30.714  1.00  0.00     0.198 A 
ATOM     75  C   UNL A   1      37.613  29.457  28.396  1.00  0.00     0.198 A 
ATOM     76  F   UNL A   1      39.423  28.704  27.111  1.00  0.00    -0.203 F 
ATOM     77  F   UNL A   1      36.847  29.021  31.902  1.00  0.00    -0.200 F 
ATOM     78  C   UNL A   1      36.962  29.569  29.612  1.00  0.00     0.200 A 
ATOM     79  F   UNL A   1      37.165  30.140  27.333  1.00  0.00    -0.200 F 
ATOM     80  F   UNL A   1      35.890  30.364  29.731  1.00  0.00    -0.200 F 
ENDBRANCH  46  70
BRANCH  58  81
ATOM     81  C   UNL A   1      44.685  26.543  32.159  1.00  0.00     0.064 A 
ATOM     82  C   UNL A   1      44.612  26.677  33.555  1.00  0.00     0.173 A 
ATOM     83  C   UNL A   1      44.548  25.259  31.620  1.00  0.00     0.173 A 
ATOM     84  F   UNL A   1      44.665  27.880  34.138  1.00  0.00    -0.203 F 
ATOM     85  C   UNL A   1      44.452  25.560  34.374  1.00  0.00     0.198 A 
ATOM     86  C   UNL A   1      44.352  24.152  32.437  1.00  0.00     0.198 A 
ATOM     87  F   UNL A   1      44.575  25.083  30.289  1.00  0.00    -0.203 F 
ATOM     88  F   UNL A   1      44.411  25.703  35.707  1.00  0.00    -0.200 F 
ATOM     89  C   UNL A   1      44.318  24.300  33.813  1.00  0.00     0.200 A 
ATOM     90  F   UNL A   1      44.185  22.942  31.886  1.00  0.00    -0.200 F 
ATOM     91  F   UNL A   1      44.137  23.229  34.598  1.00  0.00    -0.200 F 
ENDBRANCH  58  81
ENDBRANCH  32  33
ENDBRANCH  24  27
ENDBRANCH  22  23
ENDBRANCH   1  22
TORSDOF 12
ENDMDL
MODEL 3
REMARK VINA RESULT:     -12.3      5.668     11.357
REMARK SMILES Cc1nn(-c2cccc(C(=O)NCCCCNC(=O)c3ccc(-c4c5nc(c(-c6c(F)c(F)c(F)c(F)c6F)c6ccc([nH]6)c(-c6c(F)c(F)c(F)c(F)c6F)c6nc(c(-c7c(F)c(F)c(F)c(F)c7F)c7ccc4[nH]7)C=C6)C=C5)cc3)c2)c(C)c1Cl
REMARK SMILES IDX 15 1 14 2 13 3 12 4 10 5 11 6 9 8 5 9 6 10 83 11 7 12 8 13
REMARK SMILES IDX 4 14 1 15 2 16 3 17 86 18 84 19 87 20 85 21 16 22 17 23
REMARK SMILES IDX 18 24 19 26 20 27 21 28 82 29 22 30 81 31 23 32 24 33 25 34
REMARK SMILES IDX 75 35 26 36 80 37 74 38 76 39 27 40 79 41 73 42 72 43 28 45
REMARK SMILES IDX 60 46 40 47 59 48 41 49 44 50 58 51 77 52 42 53 43 54 57 56
REMARK SMILES IDX 78 57 45 58 29 59 30 60 38 61 31 62 32 63 36 64 39 65 33 66
REMARK SMILES IDX 34 67 37 68 35 69 61 70 62 71 70 72 63 73 64 74 68 75 71 76
REMARK SMILES IDX 65 77 66 78 69 79 67 80 46 81 47 82 55 83 48 84 49 85 53 86
REMARK SMILES IDX 56 87 50 88 51 89 54 90 52 91
REMARK H PARENT 12 7 17 25 76 44 44 55
REMARK Flexibility Score: inf
ROOT
ATOM      1  C   UNL A   1      44.655  32.220  26.214  1.00  0.00     0.023 C 
ENDROOT
BRANCH   1   2
ATOM      2  C   UNL A   1      43.798  31.699  27.369  1.00  0.00     0.023 C 
BRANCH   2   3
ATOM      3  C   UNL A   1      43.512  30.199  27.417  1.00  0.00     0.116 C 
BRANCH   3   4
ATOM      4  N   UNL A   1      43.026  29.612  26.171  1.00  0.00    -0.352 N 
ATOM      5  C   UNL A   1      42.670  28.331  25.783  1.00  0.00     0.251 C 
ATOM      6  O   UNL A   1      42.280  28.175  24.626  1.00  0.00    -0.269 OA
ATOM      7  H   UNL A   1      42.930  30.271  25.447  1.00  0.00     0.163 HD
BRANCH   5   8
ATOM      8  C   UNL A   1      42.784  27.131  26.664  1.00  0.00     0.041 A 
ATOM      9  C   UNL A   1      42.610  24.731  26.992  1.00  0.00     0.066 A 
ATOM     10  C   UNL A   1      42.567  24.912  28.377  1.00  0.00     0.028 A 
ATOM     11  C   UNL A   1      42.817  25.836  26.160  1.00  0.00     0.042 A 
ATOM     12  C   UNL A   1      42.764  26.191  28.906  1.00  0.00     0.003 A 
ATOM     13  C   UNL A   1      42.842  27.299  28.053  1.00  0.00     0.014 A 
BRANCH   9  14
ATOM     14  N   UNL A   1      42.294  23.471  26.407  1.00  0.00    -0.236 N 
ATOM     15  C   UNL A   1      43.679  20.361  25.375  1.00  0.00     0.070 C 
ATOM     16  C   UNL A   1      42.804  21.489  25.782  1.00  0.00     0.079 A 
ATOM     17  N   UNL A   1      43.284  22.741  25.823  1.00  0.00    -0.171 NA
ATOM     18  C   UNL A   1      41.448  21.449  26.165  1.00  0.00     0.085 A 
ATOM     19  C   UNL A   1      41.117  22.741  26.506  1.00  0.00     0.060 A 
ATOM     20  Cl  UNL A   1      40.437  20.087  26.188  1.00  0.00    -0.080 Cl
ATOM     21  C   UNL A   1      39.794  23.302  26.884  1.00  0.00     0.068 C 
ENDBRANCH   9  14
ENDBRANCH   5   8
ENDBRANCH   3   4
ENDBRANCH   2   3
ENDBRANCH   1   2
BRANCH   1  22
ATOM     22  C   UNL A   1      44.441  33.680  25.835  1.00  0.00     0.116 C 
BRANCH  22  23
ATOM     23  N   UNL A   1      45.510  34.581  26.257  1.00  0.00    -0.352 N 
ATOM     24  C   UNL A   1      45.453  35.520  27.276  1.00  0.00     0.251 C 
ATOM     25  H   UNL A   1      46.361  34.514  25.766  1.00  0.00     0.163 HD
ATOM     26  O   UNL A   1      46.220  36.466  27.317  1.00  0.00    -0.269 OA
BRANCH  24  27
ATOM     27  C   UNL A   1      44.422  35.348  28.321  1.00  0.00     0.039 A 
ATOM     28  C   UNL A   1      43.185  35.984  28.224  1.00  0.00     0.014 A 
ATOM     29  C   UNL A   1      44.696  34.476  29.374  1.00  0.00     0.014 A 
ATOM     30  C   UNL A   1      42.187  35.644  29.136  1.00  0.00     0.010 A 
ATOM     31  C   UNL A   1      43.676  34.050  30.195  1.00  0.00     0.010 A 
ATOM     32  C   UNL A   1      42.420  34.639  30.096  1.00  0.00    -0.014 A 
BRANCH  32  33
ATOM     33  C   UNL A   1      41.301  34.097  30.874  1.00  0.00     0.031 A 
ATOM     34  C   UNL A   1      41.616  33.890  32.315  1.00  0.00     0.074 A 
ATOM     35  C   UNL A   1      40.042  33.924  30.411  1.00  0.00     0.049 A 
ATOM     36  N   UNL A   1      41.761  32.757  32.916  1.00  0.00    -0.248 NA
ATOM     37  C   UNL A   1      41.946  35.051  33.158  1.00  0.00     0.031 C 
ATOM     38  C   UNL A   1      39.490  34.332  29.113  1.00  0.00     0.029 A 
ATOM     39  N   UNL A   1      38.948  33.398  31.045  1.00  0.00    -0.354 N 
ATOM     40  C   UNL A   1      42.006  33.049  34.256  1.00  0.00     0.074 A 
ATOM     41  C   UNL A   1      42.261  34.463  34.318  1.00  0.00     0.031 C 
ATOM     42  C   UNL A   1      38.141  34.242  29.138  1.00  0.00     0.029 A 
ATOM     43  C   UNL A   1      37.744  33.593  30.374  1.00  0.00     0.049 A 
ATOM     44  H   UNL A   1      39.009  32.920  31.904  1.00  0.00     0.167 HD
ATOM     45  C   UNL A   1      41.720  32.124  35.215  1.00  0.00     0.037 A 
ATOM     46  C   UNL A   1      36.507  33.214  30.776  1.00  0.00     0.037 A 
ATOM     47  C   UNL A   1      41.460  30.842  34.611  1.00  0.00     0.049 A 
ATOM     48  C   UNL A   1      36.677  32.096  31.724  1.00  0.00     0.074 A 
ATOM     49  C   UNL A   1      42.198  29.810  34.079  1.00  0.00     0.029 A 
ATOM     50  N   UNL A   1      40.176  30.707  34.155  1.00  0.00    -0.354 N 
ATOM     51  N   UNL A   1      37.101  30.917  31.367  1.00  0.00    -0.248 NA
ATOM     52  C   UNL A   1      36.684  32.362  33.157  1.00  0.00     0.031 C 
ATOM     53  C   UNL A   1      41.343  29.151  33.143  1.00  0.00     0.029 A 
ATOM     54  C   UNL A   1      40.096  29.769  33.165  1.00  0.00     0.049 A 
ATOM     55  H   UNL A   1      39.409  31.221  34.497  1.00  0.00     0.167 HD
ATOM     56  C   UNL A   1      37.834  30.489  32.452  1.00  0.00     0.074 A 
ATOM     57  C   UNL A   1      37.386  31.305  33.572  1.00  0.00     0.031 C 
ATOM     58  C   UNL A   1      38.966  29.752  32.267  1.00  0.00     0.037 A 
BRANCH  45  59
ATOM     59  C   UNL A   1      41.187  32.421  36.602  1.00  0.00     0.064 A 
ATOM     60  C   UNL A   1      39.977  33.140  36.725  1.00  0.00     0.173 A 
ATOM     61  C   UNL A   1      41.966  32.344  37.775  1.00  0.00     0.173 A 
ATOM     62  F   UNL A   1      39.158  33.289  35.673  1.00  0.00    -0.203 F 
ATOM     63  C   UNL A   1      39.623  33.803  37.906  1.00  0.00     0.198 A 
ATOM     64  C   UNL A   1      41.585  32.967  38.964  1.00  0.00     0.198 A 
ATOM     65  F   UNL A   1      43.172  31.769  37.789  1.00  0.00    -0.203 F 
ATOM     66  F   UNL A   1      38.529  34.576  37.936  1.00  0.00    -0.200 F 
ATOM     67  C   UNL A   1      40.433  33.722  39.021  1.00  0.00     0.200 A 
ATOM     68  F   UNL A   1      42.396  32.898  40.030  1.00  0.00    -0.200 F 
ATOM     69  F   UNL A   1      40.132  34.408  40.133  1.00  0.00    -0.200 F 
ENDBRANCH  45  59
BRANCH  46  70
ATOM     70  C   UNL A   1      35.172  33.794  30.510  1.00  0.00     0.064 A 
ATOM     71  C   UNL A   1      34.669  34.854  31.283  1.00  0.00     0.173 A 
ATOM     72  C   UNL A   1      34.520  33.538  29.291  1.00  0.00     0.173 A 
ATOM     73  F   UNL A   1      35.253  35.179  32.445  1.00  0.00    -0.203 F 
ATOM     74  C   UNL A   1      33.611  35.651  30.836  1.00  0.00     0.198 A 
ATOM     75  C   UNL A   1      33.464  34.334  28.844  1.00  0.00     0.198 A 
ATOM     76  F   UNL A   1      34.970  32.579  28.468  1.00  0.00    -0.203 F 
ATOM     77  F   UNL A   1      33.210  36.703  31.564  1.00  0.00    -0.200 F 
ATOM     78  C   UNL A   1      33.023  35.403  29.607  1.00  0.00     0.200 A 
ATOM     79  F   UNL A   1      32.926  34.110  27.637  1.00  0.00    -0.200 F 
ATOM     80  F   UNL A   1      32.066  36.215  29.139  1.00  0.00    -0.200 F 
ENDBRANCH  46  70
BRANCH  58  81
ATOM     81  C   UNL A   1      39.086  29.005  30.978  1.00  0.00     0.064 A 
ATOM     82  C   UNL A   1      39.562  29.555  29.776  1.00  0.00     0.173 A 
ATOM     83  C   UNL A   1      38.739  27.648  30.979  1.00  0.00     0.173 A 
ATOM     84  F   UNL A   1      39.979  30.825  29.715  1.00  0.00    -0.203 F 
ATOM     85  C   UNL A   1      39.644  28.784  28.618  1.00  0.00     0.198 A 
ATOM     86  C   UNL A   1      38.855  26.874  29.832  1.00  0.00     0.198 A 
ATOM     87  F   UNL A   1      38.311  27.067  32.111  1.00  0.00    -0.203 F 
ATOM     88  F   UNL A   1      40.077  29.333  27.473  1.00  0.00    -0.200 F 
ATOM     89  C   UNL A   1      39.294  27.443  28.649  1.00  0.00     0.200 A 
ATOM     90  F   UNL A   1      38.552  25.569  29.879  1.00  0.00    -0.200 F 
ATOM     91  F   UNL A   1      39.398  26.694  27.542  1.00  0.00    -0.200 F 
ENDBRANCH  58  81
ENDBRANCH  32  33
ENDBRANCH  24  27
ENDBRANCH  22  23
ENDBRANCH   1  22
TORSDOF 12
ENDMDL
