MODEL 1
REMARK VINA RESULT:     -13.4      0.000      0.000
REMARK SMILES O=C(NCCCCNC(=O)c1cc2c(C(F)(F)F)onc2c2ccccc12)c1ccc(-c2c3nc(c(-c4c(F)c(F)c(F)c(F)c4F)c4ccc([nH]4)c(-c4c(F)c(F)c(F)c(F)c4F)c4nc(c(-c5c(F)c(F)c(F)c(F)c5F)c5ccc2[nH]5)C=C4)C=C3)cc1
REMARK SMILES IDX 5 1 4 2 3 3 1 4 2 5 28 7 29 8 90 9 30 10 89 11 31 12 32 13
REMARK SMILES IDX 33 14 83 15 34 16 88 17 82 18 84 19 35 20 87 21 81 22 80 23
REMARK SMILES IDX 36 25 68 26 48 27 67 28 49 29 52 30 66 31 85 32 50 33 51 34
REMARK SMILES IDX 65 36 86 37 53 38 37 39 38 40 46 41 39 42 40 43 44 44 47 45
REMARK SMILES IDX 41 46 42 47 45 48 43 49 69 50 70 51 78 52 71 53 72 54 76 55
REMARK SMILES IDX 79 56 73 57 74 58 77 59 75 60 54 61 55 62 63 63 56 64 57 65
REMARK SMILES IDX 61 66 64 67 58 68 59 69 62 70 60 71 6 72 7 73 8 74 9 75
REMARK SMILES IDX 10 77 11 78 12 79 27 80 13 81 22 82 26 83 14 84 21 85 23 86
REMARK SMILES IDX 25 87 19 88 20 89 24 90 15 91 16 92 17 93 18 94
REMARK H PARENT 3 6 84 24 52 35 8 76
REMARK Flexibility Score: inf
ROOT
ATOM      1  C   UNL A   1      38.686  22.155  26.030  1.00  0.00     0.023 C 
ENDROOT
BRANCH   1   2
ATOM      2  C   UNL A   1      39.911  22.121  26.927  1.00  0.00     0.116 C 
BRANCH   2   3
ATOM      3  N   UNL A   1      41.191  22.200  26.214  1.00  0.00    -0.352 N 
ATOM      4  O   UNL A   1      42.766  23.375  25.050  1.00  0.00    -0.269 OA
ATOM      5  C   UNL A   1      41.935  23.346  25.935  1.00  0.00     0.251 C 
ATOM      6  H   UNL A   1      41.568  21.347  25.896  1.00  0.00     0.163 HD
BRANCH   5   7
ATOM      7  C   UNL A   1      41.688  24.534  26.774  1.00  0.00     0.039 A 
ATOM      8  C   UNL A   1      42.346  24.777  27.981  1.00  0.00     0.014 A 
ATOM      9  C   UNL A   1      40.807  25.467  26.249  1.00  0.00     0.014 A 
ATOM     10  C   UNL A   1      42.152  26.012  28.599  1.00  0.00     0.010 A 
ATOM     11  C   UNL A   1      40.865  26.754  26.688  1.00  0.00     0.010 A 
ATOM     12  C   UNL A   1      41.418  27.007  27.929  1.00  0.00    -0.014 A 
BRANCH  12  13
ATOM     13  C   UNL A   1      41.235  28.348  28.468  1.00  0.00     0.031 A 
ATOM     14  C   UNL A   1      42.288  29.310  28.071  1.00  0.00     0.074 A 
ATOM     15  C   UNL A   1      40.123  28.728  29.141  1.00  0.00     0.049 A 
ATOM     16  N   UNL A   1      43.211  29.797  28.829  1.00  0.00    -0.248 NA
ATOM     17  C   UNL A   1      42.442  29.645  26.647  1.00  0.00     0.031 C 
ATOM     18  C   UNL A   1      38.878  27.978  29.374  1.00  0.00     0.029 A 
ATOM     19  N   UNL A   1      39.837  29.932  29.710  1.00  0.00    -0.354 N 
ATOM     20  C   UNL A   1      43.939  30.668  28.029  1.00  0.00     0.074 A 
ATOM     21  C   UNL A   1      43.546  30.395  26.671  1.00  0.00     0.031 C 
ATOM     22  C   UNL A   1      37.908  28.808  29.814  1.00  0.00     0.029 A 
ATOM     23  C   UNL A   1      38.509  30.095  30.090  1.00  0.00     0.049 A 
ATOM     24  H   UNL A   1      40.518  30.631  29.843  1.00  0.00     0.167 HD
ATOM     25  C   UNL A   1      44.600  31.718  28.589  1.00  0.00     0.037 A 
ATOM     26  C   UNL A   1      37.944  31.211  30.614  1.00  0.00     0.037 A 
ATOM     27  C   UNL A   1      44.746  31.531  30.013  1.00  0.00     0.049 A 
ATOM     28  C   UNL A   1      39.050  32.013  31.184  1.00  0.00     0.074 A 
ATOM     29  C   UNL A   1      45.374  30.597  30.814  1.00  0.00     0.029 A 
ATOM     30  N   UNL A   1      43.841  32.173  30.819  1.00  0.00    -0.354 N 
ATOM     31  N   UNL A   1      39.754  31.646  32.218  1.00  0.00    -0.248 NA
ATOM     32  C   UNL A   1      39.660  33.022  30.335  1.00  0.00     0.031 C 
ATOM     33  C   UNL A   1      44.507  30.423  31.934  1.00  0.00     0.029 A 
ATOM     34  C   UNL A   1      43.434  31.305  31.797  1.00  0.00     0.049 A 
ATOM     35  H   UNL A   1      43.535  33.103  30.713  1.00  0.00     0.167 HD
ATOM     36  C   UNL A   1      41.050  32.032  31.911  1.00  0.00     0.074 A 
ATOM     37  C   UNL A   1      40.910  32.972  30.801  1.00  0.00     0.031 C 
ATOM     38  C   UNL A   1      42.116  31.331  32.395  1.00  0.00     0.037 A 
BRANCH  25  39
ATOM     39  C   UNL A   1      44.734  33.076  27.944  1.00  0.00     0.064 A 
ATOM     40  C   UNL A   1      45.995  33.483  27.465  1.00  0.00     0.173 A 
ATOM     41  C   UNL A   1      43.768  34.100  28.053  1.00  0.00     0.173 A 
ATOM     42  F   UNL A   1      46.999  32.601  27.349  1.00  0.00    -0.203 F 
ATOM     43  C   UNL A   1      46.285  34.823  27.191  1.00  0.00     0.198 A 
ATOM     44  C   UNL A   1      44.044  35.425  27.725  1.00  0.00     0.198 A 
ATOM     45  F   UNL A   1      42.560  33.891  28.588  1.00  0.00    -0.203 F 
ATOM     46  F   UNL A   1      47.534  35.180  26.864  1.00  0.00    -0.200 F 
ATOM     47  C   UNL A   1      45.310  35.793  27.325  1.00  0.00     0.200 A 
ATOM     48  F   UNL A   1      43.091  36.355  27.888  1.00  0.00    -0.200 F 
ATOM     49  F   UNL A   1      45.600  37.084  27.121  1.00  0.00    -0.200 F 
ENDBRANCH  25  39
BRANCH  26  50
ATOM     50  C   UNL A   1      36.593  31.777  30.387  1.00  0.00     0.064 A 
ATOM     51  C   UNL A   1      35.847  32.296  31.460  1.00  0.00     0.173 A 
ATOM     52  C   UNL A   1      36.147  32.114  29.095  1.00  0.00     0.173 A 
ATOM     53  F   UNL A   1      36.220  32.046  32.724  1.00  0.00    -0.203 F 
ATOM     54  C   UNL A   1      34.760  33.150  31.254  1.00  0.00     0.198 A 
ATOM     55  C   UNL A   1      35.057  32.965  28.890  1.00  0.00     0.198 A 
ATOM     56  F   UNL A   1      36.821  31.711  28.009  1.00  0.00    -0.203 F 
ATOM     57  F   UNL A   1      34.127  33.692  32.305  1.00  0.00    -0.200 F 
ATOM     58  C   UNL A   1      34.378  33.499  29.970  1.00  0.00     0.200 A 
ATOM     59  F   UNL A   1      34.717  33.322  27.644  1.00  0.00    -0.200 F 
ATOM     60  F   UNL A   1      33.387  34.381  29.774  1.00  0.00    -0.200 F 
ENDBRANCH  26  50
BRANCH  38  61
ATOM     61  C   UNL A   1      41.861  30.353  33.511  1.00  0.00     0.064 A 
ATOM     62  C   UNL A   1      41.545  28.995  33.325  1.00  0.00     0.173 A 
ATOM     63  C   UNL A   1      42.083  30.785  34.825  1.00  0.00     0.173 A 
ATOM     64  F   UNL A   1      41.396  28.479  32.100  1.00  0.00    -0.203 F 
ATOM     65  C   UNL A   1      41.432  28.122  34.409  1.00  0.00     0.198 A 
ATOM     66  C   UNL A   1      42.006  29.906  35.901  1.00  0.00     0.198 A 
ATOM     67  F   UNL A   1      42.430  32.061  35.060  1.00  0.00    -0.203 F 
ATOM     68  F   UNL A   1      41.123  26.833  34.207  1.00  0.00    -0.200 F 
ATOM     69  C   UNL A   1      41.674  28.578  35.694  1.00  0.00     0.200 A 
ATOM     70  F   UNL A   1      42.286  30.343  37.137  1.00  0.00    -0.200 F 
ATOM     71  F   UNL A   1      41.612  27.731  36.732  1.00  0.00    -0.200 F 
ENDBRANCH  38  61
ENDBRANCH  12  13
ENDBRANCH   5   7
ENDBRANCH   2   3
ENDBRANCH   1   2
BRANCH   1  72
ATOM     72  C   UNL A   1      37.968  23.508  25.967  1.00  0.00     0.023 C 
BRANCH  72  73
ATOM     73  C   UNL A   1      36.445  23.492  25.817  1.00  0.00     0.116 C 
BRANCH  73  74
ATOM     74  N   UNL A   1      35.969  23.705  24.456  1.00  0.00    -0.352 N 
ATOM     75  C   UNL A   1      34.843  24.373  24.023  1.00  0.00     0.251 C 
ATOM     76  H   UNL A   1      36.530  23.317  23.746  1.00  0.00     0.163 HD
ATOM     77  O   UNL A   1      34.592  24.464  22.826  1.00  0.00    -0.269 OA
BRANCH  75  78
ATOM     78  C   UNL A   1      33.886  24.920  25.016  1.00  0.00     0.048 A 
ATOM     79  C   UNL A   1      34.127  26.275  25.364  1.00  0.00     0.029 A 
ATOM     80  C   UNL A   1      32.764  24.120  25.473  1.00  0.00    -0.003 A 
ATOM     81  C   UNL A   1      33.087  26.789  26.126  1.00  0.00     0.056 A 
ATOM     82  C   UNL A   1      31.697  24.723  26.209  1.00  0.00     0.012 A 
ATOM     83  C   UNL A   1      32.627  22.738  25.210  1.00  0.00     0.009 A 
ATOM     84  C   UNL A   1      32.976  28.067  26.605  1.00  0.00     0.248 A 
ATOM     85  C   UNL A   1      31.893  26.095  26.542  1.00  0.00     0.122 A 
ATOM     86  C   UNL A   1      30.531  24.008  26.550  1.00  0.00     0.011 A 
ATOM     87  C   UNL A   1      31.469  22.028  25.550  1.00  0.00     0.001 A 
ATOM     88  O   UNL A   1      31.787  28.164  27.262  1.00  0.00    -0.350 OA
ATOM     89  N   UNL A   1      31.113  26.958  27.220  1.00  0.00    -0.079 NA
ATOM     90  C   UNL A   1      30.416  22.668  26.197  1.00  0.00     0.001 A 
BRANCH  84  91
ATOM     91  C   UNL A   1      33.789  29.292  26.574  1.00  0.00     0.453 C 
ATOM     92  F   UNL A   1      35.107  29.036  26.772  1.00  0.00    -0.163 F 
ATOM     93  F   UNL A   1      33.686  29.943  25.388  1.00  0.00    -0.163 F 
ATOM     94  F   UNL A   1      33.423  30.181  27.536  1.00  0.00    -0.163 F 
ENDBRANCH  84  91
ENDBRANCH  75  78
ENDBRANCH  73  74
ENDBRANCH  72  73
ENDBRANCH   1  72
TORSDOF 12
ENDMDL
MODEL 2
REMARK VINA RESULT:     -13.3      1.165      1.475
REMARK SMILES O=C(NCCCCNC(=O)c1cc2c(C(F)(F)F)onc2c2ccccc12)c1ccc(-c2c3nc(c(-c4c(F)c(F)c(F)c(F)c4F)c4ccc([nH]4)c(-c4c(F)c(F)c(F)c(F)c4F)c4nc(c(-c5c(F)c(F)c(F)c(F)c5F)c5ccc2[nH]5)C=C4)C=C3)cc1
REMARK SMILES IDX 5 1 4 2 3 3 1 4 2 5 28 7 29 8 90 9 30 10 89 11 31 12 32 13
REMARK SMILES IDX 33 14 83 15 34 16 88 17 82 18 84 19 35 20 87 21 81 22 80 23
REMARK SMILES IDX 36 25 68 26 48 27 67 28 49 29 52 30 66 31 85 32 50 33 51 34
REMARK SMILES IDX 65 36 86 37 53 38 37 39 38 40 46 41 39 42 40 43 44 44 47 45
REMARK SMILES IDX 41 46 42 47 45 48 43 49 69 50 70 51 78 52 71 53 72 54 76 55
REMARK SMILES IDX 79 56 73 57 74 58 77 59 75 60 54 61 55 62 63 63 56 64 57 65
REMARK SMILES IDX 61 66 64 67 58 68 59 69 62 70 60 71 6 72 7 73 8 74 9 75
REMARK SMILES IDX 10 77 11 78 12 79 27 80 13 81 22 82 26 83 14 84 21 85 23 86
REMARK SMILES IDX 25 87 19 88 20 89 24 90 15 91 16 92 17 93 18 94
REMARK H PARENT 3 6 84 24 52 35 8 76
REMARK Flexibility Score: inf
ROOT
ATOM      1  C   UNL A   1      38.570  22.318  25.772  1.00  0.00     0.023 C 
ENDROOT
BRANCH   1   2
ATOM      2  C   UNL A   1      39.709  22.123  26.757  1.00  0.00     0.116 C 
BRANCH   2   3
ATOM      3  N   UNL A   1      41.047  22.153  26.156  1.00  0.00    -0.352 N 
ATOM      4  O   UNL A   1      42.759  23.266  25.133  1.00  0.00    -0.269 OA
ATOM      5  C   UNL A   1      41.855  23.269  25.945  1.00  0.00     0.251 C 
ATOM      6  H   UNL A   1      41.417  21.286  25.870  1.00  0.00     0.163 HD
BRANCH   5   7
ATOM      7  C   UNL A   1      41.583  24.467  26.763  1.00  0.00     0.039 A 
ATOM      8  C   UNL A   1      42.108  24.663  28.041  1.00  0.00     0.014 A 
ATOM      9  C   UNL A   1      40.828  25.454  26.149  1.00  0.00     0.014 A 
ATOM     10  C   UNL A   1      41.918  25.905  28.647  1.00  0.00     0.010 A 
ATOM     11  C   UNL A   1      40.912  26.733  26.607  1.00  0.00     0.010 A 
ATOM     12  C   UNL A   1      41.329  26.946  27.907  1.00  0.00    -0.014 A 
BRANCH  12  13
ATOM     13  C   UNL A   1      41.165  28.293  28.436  1.00  0.00     0.031 A 
ATOM     14  C   UNL A   1      42.227  29.239  28.026  1.00  0.00     0.074 A 
ATOM     15  C   UNL A   1      40.061  28.692  29.113  1.00  0.00     0.049 A 
ATOM     16  N   UNL A   1      43.161  29.721  28.775  1.00  0.00    -0.248 NA
ATOM     17  C   UNL A   1      42.377  29.562  26.599  1.00  0.00     0.031 C 
ATOM     18  C   UNL A   1      38.809  27.958  29.358  1.00  0.00     0.029 A 
ATOM     19  N   UNL A   1      39.794  29.904  29.673  1.00  0.00    -0.354 N 
ATOM     20  C   UNL A   1      43.894  30.578  27.964  1.00  0.00     0.074 A 
ATOM     21  C   UNL A   1      43.491  30.298  26.611  1.00  0.00     0.031 C 
ATOM     22  C   UNL A   1      37.852  28.804  29.797  1.00  0.00     0.029 A 
ATOM     23  C   UNL A   1      38.469  30.086  30.060  1.00  0.00     0.049 A 
ATOM     24  H   UNL A   1      40.483  30.596  29.797  1.00  0.00     0.167 HD
ATOM     25  C   UNL A   1      44.571  31.624  28.512  1.00  0.00     0.037 A 
ATOM     26  C   UNL A   1      37.921  31.212  30.578  1.00  0.00     0.037 A 
ATOM     27  C   UNL A   1      44.723  31.446  29.937  1.00  0.00     0.049 A 
ATOM     28  C   UNL A   1      39.039  32.005  31.136  1.00  0.00     0.074 A 
ATOM     29  C   UNL A   1      45.344  30.511  30.741  1.00  0.00     0.029 A 
ATOM     30  N   UNL A   1      43.830  32.105  30.743  1.00  0.00    -0.354 N 
ATOM     31  N   UNL A   1      39.745  31.638  32.169  1.00  0.00    -0.248 NA
ATOM     32  C   UNL A   1      39.657  33.001  30.275  1.00  0.00     0.031 C 
ATOM     33  C   UNL A   1      44.481  30.356  31.867  1.00  0.00     0.029 A 
ATOM     34  C   UNL A   1      43.418  31.250  31.730  1.00  0.00     0.049 A 
ATOM     35  H   UNL A   1      43.535  33.038  30.631  1.00  0.00     0.167 HD
ATOM     36  C   UNL A   1      41.043  32.006  31.851  1.00  0.00     0.074 A 
ATOM     37  C   UNL A   1      40.909  32.939  30.735  1.00  0.00     0.031 C 
ATOM     38  C   UNL A   1      42.104  31.297  32.335  1.00  0.00     0.037 A 
BRANCH  25  39
ATOM     39  C   UNL A   1      44.718  32.975  27.856  1.00  0.00     0.064 A 
ATOM     40  C   UNL A   1      45.969  33.343  27.322  1.00  0.00     0.173 A 
ATOM     41  C   UNL A   1      43.788  34.028  28.000  1.00  0.00     0.173 A 
ATOM     42  F   UNL A   1      46.940  32.430  27.168  1.00  0.00    -0.203 F 
ATOM     43  C   UNL A   1      46.286  34.672  27.030  1.00  0.00     0.198 A 
ATOM     44  C   UNL A   1      44.089  35.343  27.656  1.00  0.00     0.198 A 
ATOM     45  F   UNL A   1      42.598  33.856  28.588  1.00  0.00    -0.203 F 
ATOM     46  F   UNL A   1      47.530  34.991  26.648  1.00  0.00    -0.200 F 
ATOM     47  C   UNL A   1      45.346  35.672  27.200  1.00  0.00     0.200 A 
ATOM     48  F   UNL A   1      43.171  36.301  27.854  1.00  0.00    -0.200 F 
ATOM     49  F   UNL A   1      45.665  36.953  26.979  1.00  0.00    -0.200 F 
ENDBRANCH  25  39
BRANCH  26  50
ATOM     50  C   UNL A   1      36.575  31.792  30.354  1.00  0.00     0.064 A 
ATOM     51  C   UNL A   1      35.800  32.236  31.440  1.00  0.00     0.173 A 
ATOM     52  C   UNL A   1      36.164  32.218  29.077  1.00  0.00     0.173 A 
ATOM     53  F   UNL A   1      36.139  31.900  32.692  1.00  0.00    -0.203 F 
ATOM     54  C   UNL A   1      34.717  33.103  31.264  1.00  0.00     0.198 A 
ATOM     55  C   UNL A   1      35.079  33.081  28.902  1.00  0.00     0.198 A 
ATOM     56  F   UNL A   1      36.868  31.892  27.984  1.00  0.00    -0.203 F 
ATOM     57  F   UNL A   1      34.055  33.571  32.332  1.00  0.00    -0.200 F 
ATOM     58  C   UNL A   1      34.369  33.540  29.997  1.00  0.00     0.200 A 
ATOM     59  F   UNL A   1      34.772  33.523  27.675  1.00  0.00    -0.200 F 
ATOM     60  F   UNL A   1      33.382  34.433  29.836  1.00  0.00    -0.200 F 
ENDBRANCH  26  50
BRANCH  38  61
ATOM     61  C   UNL A   1      41.843  30.330  33.460  1.00  0.00     0.064 A 
ATOM     62  C   UNL A   1      41.511  28.974  33.287  1.00  0.00     0.173 A 
ATOM     63  C   UNL A   1      42.078  30.770  34.769  1.00  0.00     0.173 A 
ATOM     64  F   UNL A   1      41.350  28.451  32.066  1.00  0.00    -0.203 F 
ATOM     65  C   UNL A   1      41.394  28.112  34.378  1.00  0.00     0.198 A 
ATOM     66  C   UNL A   1      41.996  29.900  35.853  1.00  0.00     0.198 A 
ATOM     67  F   UNL A   1      42.440  32.043  34.993  1.00  0.00    -0.203 F 
ATOM     68  F   UNL A   1      41.069  26.825  34.187  1.00  0.00    -0.200 F 
ATOM     69  C   UNL A   1      41.648  28.574  35.658  1.00  0.00     0.200 A 
ATOM     70  F   UNL A   1      42.287  30.343  37.083  1.00  0.00    -0.200 F 
ATOM     71  F   UNL A   1      41.581  27.737  36.703  1.00  0.00    -0.200 F 
ENDBRANCH  38  61
ENDBRANCH  12  13
ENDBRANCH   5   7
ENDBRANCH   2   3
ENDBRANCH   1   2
BRANCH   1  72
ATOM     72  C   UNL A   1      37.828  23.653  25.897  1.00  0.00     0.023 C 
BRANCH  72  73
ATOM     73  C   UNL A   1      36.454  23.762  25.232  1.00  0.00     0.116 C 
BRANCH  73  74
ATOM     74  N   UNL A   1      35.342  23.325  26.068  1.00  0.00    -0.352 N 
ATOM     75  C   UNL A   1      34.065  23.838  26.153  1.00  0.00     0.251 C 
ATOM     76  H   UNL A   1      35.529  22.555  26.652  1.00  0.00     0.163 HD
ATOM     77  O   UNL A   1      33.241  23.341  26.913  1.00  0.00    -0.269 OA
BRANCH  75  78
ATOM     78  C   UNL A   1      33.707  25.051  25.377  1.00  0.00     0.048 A 
ATOM     79  C   UNL A   1      33.812  26.260  26.114  1.00  0.00     0.029 A 
ATOM     80  C   UNL A   1      33.387  24.951  23.964  1.00  0.00    -0.003 A 
ATOM     81  C   UNL A   1      33.670  27.365  25.286  1.00  0.00     0.056 A 
ATOM     82  C   UNL A   1      33.310  26.126  23.155  1.00  0.00     0.012 A 
ATOM     83  C   UNL A   1      33.165  23.726  23.295  1.00  0.00     0.009 A 
ATOM     84  C   UNL A   1      33.747  28.680  25.656  1.00  0.00     0.248 A 
ATOM     85  C   UNL A   1      33.448  27.357  23.861  1.00  0.00     0.122 A 
ATOM     86  C   UNL A   1      33.135  26.057  21.757  1.00  0.00     0.011 A 
ATOM     87  C   UNL A   1      32.991  23.658  21.908  1.00  0.00     0.001 A 
ATOM     88  O   UNL A   1      33.597  29.438  24.535  1.00  0.00    -0.350 OA
ATOM     89  N   UNL A   1      33.420  28.630  23.427  1.00  0.00    -0.079 NA
ATOM     90  C   UNL A   1      32.999  24.819  21.140  1.00  0.00     0.001 A 
BRANCH  84  91
ATOM     91  C   UNL A   1      33.949  29.427  26.907  1.00  0.00     0.453 C 
ATOM     92  F   UNL A   1      35.159  29.170  27.466  1.00  0.00    -0.163 F 
ATOM     93  F   UNL A   1      33.878  30.769  26.717  1.00  0.00    -0.163 F 
ATOM     94  F   UNL A   1      33.018  29.120  27.849  1.00  0.00    -0.163 F 
ENDBRANCH  84  91
ENDBRANCH  75  78
ENDBRANCH  73  74
ENDBRANCH  72  73
ENDBRANCH   1  72
TORSDOF 12
ENDMDL
MODEL 3
REMARK VINA RESULT:     -13.2      3.592      8.798
REMARK SMILES O=C(NCCCCNC(=O)c1cc2c(C(F)(F)F)onc2c2ccccc12)c1ccc(-c2c3nc(c(-c4c(F)c(F)c(F)c(F)c4F)c4ccc([nH]4)c(-c4c(F)c(F)c(F)c(F)c4F)c4nc(c(-c5c(F)c(F)c(F)c(F)c5F)c5ccc2[nH]5)C=C4)C=C3)cc1
REMARK SMILES IDX 5 1 4 2 3 3 1 4 2 5 28 7 29 8 90 9 30 10 89 11 31 12 32 13
REMARK SMILES IDX 33 14 83 15 34 16 88 17 82 18 84 19 35 20 87 21 81 22 80 23
REMARK SMILES IDX 36 25 68 26 48 27 67 28 49 29 52 30 66 31 85 32 50 33 51 34
REMARK SMILES IDX 65 36 86 37 53 38 37 39 38 40 46 41 39 42 40 43 44 44 47 45
REMARK SMILES IDX 41 46 42 47 45 48 43 49 69 50 70 51 78 52 71 53 72 54 76 55
REMARK SMILES IDX 79 56 73 57 74 58 77 59 75 60 54 61 55 62 63 63 56 64 57 65
REMARK SMILES IDX 61 66 64 67 58 68 59 69 62 70 60 71 6 72 7 73 8 74 9 75
REMARK SMILES IDX 10 77 11 78 12 79 27 80 13 81 22 82 26 83 14 84 21 85 23 86
REMARK SMILES IDX 25 87 19 88 20 89 24 90 15 91 16 92 17 93 18 94
REMARK H PARENT 3 6 84 24 52 35 8 76
REMARK Flexibility Score: inf
ROOT
ATOM      1  C   UNL A   1      32.429  30.318  26.924  1.00  0.00     0.023 C 
ENDROOT
BRANCH   1   2
ATOM      2  C   UNL A   1      33.769  30.511  27.613  1.00  0.00     0.116 C 
BRANCH   2   3
ATOM      3  N   UNL A   1      34.352  31.847  27.448  1.00  0.00    -0.352 N 
ATOM      4  O   UNL A   1      35.795  33.496  28.094  1.00  0.00    -0.269 OA
ATOM      5  C   UNL A   1      35.563  32.311  27.962  1.00  0.00     0.251 C 
ATOM      6  H   UNL A   1      33.830  32.489  26.915  1.00  0.00     0.163 HD
BRANCH   5   7
ATOM      7  C   UNL A   1      36.574  31.301  28.329  1.00  0.00     0.039 A 
ATOM      8  C   UNL A   1      36.612  30.015  27.788  1.00  0.00     0.014 A 
ATOM      9  C   UNL A   1      37.563  31.731  29.199  1.00  0.00     0.014 A 
ATOM     10  C   UNL A   1      37.710  29.208  28.085  1.00  0.00     0.010 A 
ATOM     11  C   UNL A   1      38.751  31.068  29.232  1.00  0.00     0.010 A 
ATOM     12  C   UNL A   1      38.790  29.756  28.800  1.00  0.00    -0.014 A 
BRANCH  12  13
ATOM     13  C   UNL A   1      40.007  29.007  29.084  1.00  0.00     0.031 A 
ATOM     14  C   UNL A   1      40.276  28.813  30.528  1.00  0.00     0.074 A 
ATOM     15  C   UNL A   1      40.746  28.404  28.123  1.00  0.00     0.049 A 
ATOM     16  N   UNL A   1      41.199  29.386  31.223  1.00  0.00    -0.248 NA
ATOM     17  C   UNL A   1      39.322  28.030  31.328  1.00  0.00     0.031 C 
ATOM     18  C   UNL A   1      40.462  28.269  26.685  1.00  0.00     0.029 A 
ATOM     19  N   UNL A   1      41.903  27.699  28.250  1.00  0.00    -0.354 N 
ATOM     20  C   UNL A   1      41.080  28.874  32.508  1.00  0.00     0.074 A 
ATOM     21  C   UNL A   1      39.809  28.200  32.559  1.00  0.00     0.031 C 
ATOM     22  C   UNL A   1      41.279  27.346  26.134  1.00  0.00     0.029 A 
ATOM     23  C   UNL A   1      42.272  26.977  27.119  1.00  0.00     0.049 A 
ATOM     24  H   UNL A   1      42.438  27.701  29.077  1.00  0.00     0.167 HD
ATOM     25  C   UNL A   1      42.165  28.829  33.328  1.00  0.00     0.037 A 
ATOM     26  C   UNL A   1      43.334  26.144  26.997  1.00  0.00     0.037 A 
ATOM     27  C   UNL A   1      43.214  29.692  32.839  1.00  0.00     0.049 A 
ATOM     28  C   UNL A   1      44.295  26.530  28.055  1.00  0.00     0.074 A 
ATOM     29  C   UNL A   1      43.334  31.049  32.614  1.00  0.00     0.029 A 
ATOM     30  N   UNL A   1      44.219  29.100  32.117  1.00  0.00    -0.354 N 
ATOM     31  N   UNL A   1      44.937  27.665  28.072  1.00  0.00    -0.248 NA
ATOM     32  C   UNL A   1      44.214  25.835  29.328  1.00  0.00     0.031 C 
ATOM     33  C   UNL A   1      44.116  31.163  31.426  1.00  0.00     0.029 A 
ATOM     34  C   UNL A   1      44.494  29.880  31.027  1.00  0.00     0.049 A 
ATOM     35  H   UNL A   1      44.669  28.253  32.346  1.00  0.00     0.167 HD
ATOM     36  C   UNL A   1      44.949  28.037  29.408  1.00  0.00     0.074 A 
ATOM     37  C   UNL A   1      44.595  26.823  30.141  1.00  0.00     0.031 C 
ATOM     38  C   UNL A   1      44.959  29.355  29.761  1.00  0.00     0.037 A 
BRANCH  25  39
ATOM     39  C   UNL A   1      42.441  27.713  34.308  1.00  0.00     0.064 A 
ATOM     40  C   UNL A   1      43.006  26.513  33.834  1.00  0.00     0.173 A 
ATOM     41  C   UNL A   1      41.899  27.656  35.610  1.00  0.00     0.173 A 
ATOM     42  F   UNL A   1      43.524  26.442  32.599  1.00  0.00    -0.203 F 
ATOM     43  C   UNL A   1      42.962  25.331  34.579  1.00  0.00     0.198 A 
ATOM     44  C   UNL A   1      41.907  26.489  36.371  1.00  0.00     0.198 A 
ATOM     45  F   UNL A   1      41.237  28.682  36.156  1.00  0.00    -0.203 F 
ATOM     46  F   UNL A   1      43.395  24.185  34.035  1.00  0.00    -0.200 F 
ATOM     47  C   UNL A   1      42.409  25.320  35.846  1.00  0.00     0.200 A 
ATOM     48  F   UNL A   1      41.342  26.495  37.588  1.00  0.00    -0.200 F 
ATOM     49  F   UNL A   1      42.311  24.178  36.537  1.00  0.00    -0.200 F 
ENDBRANCH  25  39
BRANCH  26  50
ATOM     50  C   UNL A   1      43.446  24.863  26.258  1.00  0.00     0.064 A 
ATOM     51  C   UNL A   1      44.426  24.697  25.263  1.00  0.00     0.173 A 
ATOM     52  C   UNL A   1      42.825  23.690  26.726  1.00  0.00     0.173 A 
ATOM     53  F   UNL A   1      45.087  25.760  24.783  1.00  0.00    -0.203 F 
ATOM     54  C   UNL A   1      44.805  23.429  24.810  1.00  0.00     0.198 A 
ATOM     55  C   UNL A   1      43.201  22.424  26.269  1.00  0.00     0.198 A 
ATOM     56  F   UNL A   1      41.915  23.740  27.709  1.00  0.00    -0.203 F 
ATOM     57  F   UNL A   1      45.803  23.308  23.922  1.00  0.00    -0.200 F 
ATOM     58  C   UNL A   1      44.205  22.293  25.327  1.00  0.00     0.200 A 
ATOM     59  F   UNL A   1      42.637  21.331  26.800  1.00  0.00    -0.200 F 
ATOM     60  F   UNL A   1      44.624  21.076  24.952  1.00  0.00    -0.200 F 
ENDBRANCH  26  50
BRANCH  38  61
ATOM     61  C   UNL A   1      45.284  30.363  28.690  1.00  0.00     0.064 A 
ATOM     62  C   UNL A   1      44.337  30.948  27.830  1.00  0.00     0.173 A 
ATOM     63  C   UNL A   1      46.594  30.855  28.631  1.00  0.00     0.173 A 
ATOM     64  F   UNL A   1      43.047  30.595  27.877  1.00  0.00    -0.203 F 
ATOM     65  C   UNL A   1      44.696  31.958  26.936  1.00  0.00     0.198 A 
ATOM     66  C   UNL A   1      46.943  31.888  27.765  1.00  0.00     0.198 A 
ATOM     67  F   UNL A   1      47.532  30.366  29.457  1.00  0.00    -0.203 F 
ATOM     68  F   UNL A   1      43.777  32.495  26.121  1.00  0.00    -0.200 F 
ATOM     69  C   UNL A   1      45.997  32.434  26.913  1.00  0.00     0.200 A 
ATOM     70  F   UNL A   1      48.191  32.374  27.780  1.00  0.00    -0.200 F 
ATOM     71  F   UNL A   1      46.334  33.436  26.089  1.00  0.00    -0.200 F 
ENDBRANCH  38  61
ENDBRANCH  12  13
ENDBRANCH   5   7
ENDBRANCH   2   3
ENDBRANCH   1   2
BRANCH   1  72
ATOM     72  C   UNL A   1      32.505  29.711  25.519  1.00  0.00     0.023 C 
BRANCH  72  73
ATOM     73  C   UNL A   1      33.719  28.841  25.190  1.00  0.00     0.116 C 
BRANCH  73  74
ATOM     74  N   UNL A   1      34.134  28.882  23.793  1.00  0.00    -0.352 N 
ATOM     75  C   UNL A   1      33.772  28.052  22.754  1.00  0.00     0.251 C 
ATOM     76  H   UNL A   1      34.760  29.606  23.559  1.00  0.00     0.163 HD
ATOM     77  O   UNL A   1      34.214  28.235  21.625  1.00  0.00    -0.269 OA
BRANCH  75  78
ATOM     78  C   UNL A   1      32.900  26.881  23.018  1.00  0.00     0.048 A 
ATOM     79  C   UNL A   1      33.610  25.677  23.263  1.00  0.00     0.029 A 
ATOM     80  C   UNL A   1      31.460  27.043  23.107  1.00  0.00    -0.003 A 
ATOM     81  C   UNL A   1      32.758  24.674  23.707  1.00  0.00     0.056 A 
ATOM     82  C   UNL A   1      30.644  25.990  23.625  1.00  0.00     0.012 A 
ATOM     83  C   UNL A   1      30.778  28.222  22.731  1.00  0.00     0.009 A 
ATOM     84  C   UNL A   1      33.110  23.401  24.065  1.00  0.00     0.248 A 
ATOM     85  C   UNL A   1      31.335  24.777  23.916  1.00  0.00     0.122 A 
ATOM     86  C   UNL A   1      29.263  26.160  23.851  1.00  0.00     0.011 A 
ATOM     87  C   UNL A   1      29.407  28.391  22.955  1.00  0.00     0.001 A 
ATOM     88  O   UNL A   1      31.982  22.760  24.482  1.00  0.00    -0.350 OA
ATOM     89  N   UNL A   1      30.890  23.602  24.400  1.00  0.00    -0.079 NA
ATOM     90  C   UNL A   1      28.657  27.371  23.535  1.00  0.00     0.001 A 
BRANCH  84  91
ATOM     91  C   UNL A   1      34.347  22.607  24.110  1.00  0.00     0.453 C 
ATOM     92  F   UNL A   1      35.137  22.832  23.030  1.00  0.00    -0.163 F 
ATOM     93  F   UNL A   1      35.092  22.886  25.210  1.00  0.00    -0.163 F 
ATOM     94  F   UNL A   1      34.104  21.270  24.136  1.00  0.00    -0.163 F 
ENDBRANCH  84  91
ENDBRANCH  75  78
ENDBRANCH  73  74
ENDBRANCH  72  73
ENDBRANCH   1  72
TORSDOF 12
ENDMDL
