MODEL 1
REMARK VINA RESULT:     -13.7      0.000      0.000
REMARK SMILES O=C(NCCCCNC(=O)c1c(C2CC2)nn(-c2ccc(Cl)c(F)c2)c1Cl)c1ccc(-c2c3nc(c(-c4c(F)c(F)c(F)c(F)c4F)c4ccc([nH]4)c(-c4c(F)c(F)c(F)c(F)c4F)c4nc(c(-c5c(F)c(F)c(F)c(F)c5F)c5ccc2[nH]5)C=C4)C=C3)cc1
REMARK SMILES IDX 5 1 4 2 3 3 1 4 2 5 28 7 29 8 90 9 30 10 89 11 31 12 32 13
REMARK SMILES IDX 33 14 83 15 34 16 88 17 82 18 84 19 35 20 87 21 81 22 80 23
REMARK SMILES IDX 36 25 68 26 48 27 67 28 49 29 52 30 66 31 85 32 50 33 51 34
REMARK SMILES IDX 65 36 86 37 53 38 37 39 38 40 46 41 39 42 40 43 44 44 47 45
REMARK SMILES IDX 41 46 42 47 45 48 43 49 69 50 70 51 78 52 71 53 72 54 76 55
REMARK SMILES IDX 79 56 73 57 74 58 77 59 75 60 54 61 55 62 63 63 56 64 57 65
REMARK SMILES IDX 61 66 64 67 58 68 59 69 62 70 60 71 6 72 7 73 8 74 9 75
REMARK SMILES IDX 10 77 11 78 12 79 26 80 16 81 17 82 27 83 13 84 14 85 15 86
REMARK SMILES IDX 18 87 19 88 25 89 20 90 23 91 21 92 24 93 22 94
REMARK H PARENT 3 6 84 24 52 35 8 76
REMARK Flexibility Score: inf
ROOT
ATOM      1  C   UNL A   1      31.956  29.592  26.681  1.00  0.00     0.023 C 
ENDROOT
BRANCH   1   2
ATOM      2  C   UNL A   1      33.462  29.828  26.802  1.00  0.00     0.116 C 
BRANCH   2   3
ATOM      3  N   UNL A   1      33.831  31.108  27.370  1.00  0.00    -0.352 N 
ATOM      4  O   UNL A   1      34.944  32.834  28.189  1.00  0.00    -0.269 OA
ATOM      5  C   UNL A   1      34.980  31.636  27.896  1.00  0.00     0.251 C 
ATOM      6  H   UNL A   1      33.083  31.748  27.380  1.00  0.00     0.163 HD
BRANCH   5   7
ATOM      7  C   UNL A   1      36.228  30.874  28.180  1.00  0.00     0.039 A 
ATOM      8  C   UNL A   1      36.431  29.519  27.914  1.00  0.00     0.014 A 
ATOM      9  C   UNL A   1      37.285  31.608  28.751  1.00  0.00     0.014 A 
ATOM     10  C   UNL A   1      37.629  28.900  28.267  1.00  0.00     0.010 A 
ATOM     11  C   UNL A   1      38.494  31.000  29.084  1.00  0.00     0.010 A 
ATOM     12  C   UNL A   1      38.658  29.634  28.862  1.00  0.00    -0.014 A 
BRANCH  12  13
ATOM     13  C   UNL A   1      39.934  28.958  29.104  1.00  0.00     0.031 A 
ATOM     14  C   UNL A   1      40.327  28.786  30.537  1.00  0.00     0.074 A 
ATOM     15  C   UNL A   1      40.661  28.357  28.141  1.00  0.00     0.049 A 
ATOM     16  N   UNL A   1      41.436  29.119  31.121  1.00  0.00    -0.248 NA
ATOM     17  C   UNL A   1      39.332  28.186  31.441  1.00  0.00     0.031 C 
ATOM     18  C   UNL A   1      40.296  28.131  26.742  1.00  0.00     0.029 A 
ATOM     19  N   UNL A   1      41.864  27.721  28.258  1.00  0.00    -0.354 N 
ATOM     20  C   UNL A   1      41.340  28.650  32.432  1.00  0.00     0.074 A 
ATOM     21  C   UNL A   1      39.996  28.156  32.596  1.00  0.00     0.031 C 
ATOM     22  C   UNL A   1      41.154  27.240  26.199  1.00  0.00     0.029 A 
ATOM     23  C   UNL A   1      42.195  26.933  27.167  1.00  0.00     0.049 A 
ATOM     24  H   UNL A   1      42.446  27.814  29.047  1.00  0.00     0.167 HD
ATOM     25  C   UNL A   1      42.418  28.549  33.259  1.00  0.00     0.037 A 
ATOM     26  C   UNL A   1      43.210  26.040  27.088  1.00  0.00     0.037 A 
ATOM     27  C   UNL A   1      43.505  29.384  32.841  1.00  0.00     0.049 A 
ATOM     28  C   UNL A   1      44.191  26.356  28.152  1.00  0.00     0.074 A 
ATOM     29  C   UNL A   1      43.677  30.745  32.670  1.00  0.00     0.029 A 
ATOM     30  N   UNL A   1      44.594  28.807  32.241  1.00  0.00    -0.354 N 
ATOM     31  N   UNL A   1      44.967  27.403  28.157  1.00  0.00    -0.248 NA
ATOM     32  C   UNL A   1      44.062  25.669  29.428  1.00  0.00     0.031 C 
ATOM     33  C   UNL A   1      44.563  30.871  31.561  1.00  0.00     0.029 A 
ATOM     34  C   UNL A   1      44.890  29.580  31.148  1.00  0.00     0.049 A 
ATOM     35  H   UNL A   1      45.071  27.998  32.537  1.00  0.00     0.167 HD
ATOM     36  C   UNL A   1      45.083  27.747  29.494  1.00  0.00     0.074 A 
ATOM     37  C   UNL A   1      44.610  26.581  30.231  1.00  0.00     0.031 C 
ATOM     38  C   UNL A   1      45.290  29.042  29.872  1.00  0.00     0.037 A 
BRANCH  25  39
ATOM     39  C   UNL A   1      42.578  27.477  34.308  1.00  0.00     0.064 A 
ATOM     40  C   UNL A   1      43.144  26.233  33.967  1.00  0.00     0.173 A 
ATOM     41  C   UNL A   1      41.935  27.533  35.563  1.00  0.00     0.173 A 
ATOM     42  F   UNL A   1      43.744  26.057  32.781  1.00  0.00    -0.203 F 
ATOM     43  C   UNL A   1      43.033  25.118  34.803  1.00  0.00     0.198 A 
ATOM     44  C   UNL A   1      41.870  26.434  36.417  1.00  0.00     0.198 A 
ATOM     45  F   UNL A   1      41.257  28.619  35.958  1.00  0.00    -0.203 F 
ATOM     46  F   UNL A   1      43.490  23.928  34.391  1.00  0.00    -0.200 F 
ATOM     47  C   UNL A   1      42.395  25.219  36.027  1.00  0.00     0.200 A 
ATOM     48  F   UNL A   1      41.228  26.545  37.588  1.00  0.00    -0.200 F 
ATOM     49  F   UNL A   1      42.242  24.140  36.806  1.00  0.00    -0.200 F 
ENDBRANCH  25  39
BRANCH  26  50
ATOM     50  C   UNL A   1      43.264  24.774  26.324  1.00  0.00     0.064 A 
ATOM     51  C   UNL A   1      44.140  24.614  25.238  1.00  0.00     0.173 A 
ATOM     52  C   UNL A   1      42.652  23.603  26.813  1.00  0.00     0.173 A 
ATOM     53  F   UNL A   1      44.801  25.672  24.743  1.00  0.00    -0.203 F 
ATOM     54  C   UNL A   1      44.402  23.357  24.686  1.00  0.00     0.198 A 
ATOM     55  C   UNL A   1      42.905  22.350  26.255  1.00  0.00     0.198 A 
ATOM     56  F   UNL A   1      41.870  23.639  27.900  1.00  0.00    -0.203 F 
ATOM     57  F   UNL A   1      45.292  23.235  23.691  1.00  0.00    -0.200 F 
ATOM     58  C   UNL A   1      43.791  22.225  25.201  1.00  0.00     0.200 A 
ATOM     59  F   UNL A   1      42.335  21.260  26.786  1.00  0.00    -0.200 F 
ATOM     60  F   UNL A   1      44.086  21.013  24.712  1.00  0.00    -0.200 F 
ENDBRANCH  26  50
BRANCH  38  61
ATOM     61  C   UNL A   1      45.685  30.026  28.808  1.00  0.00     0.064 A 
ATOM     62  C   UNL A   1      44.765  30.692  27.981  1.00  0.00     0.173 A 
ATOM     63  C   UNL A   1      47.031  30.407  28.713  1.00  0.00     0.173 A 
ATOM     64  F   UNL A   1      43.449  30.465  28.090  1.00  0.00    -0.203 F 
ATOM     65  C   UNL A   1      45.181  31.651  27.061  1.00  0.00     0.198 A 
ATOM     66  C   UNL A   1      47.439  31.395  27.821  1.00  0.00     0.198 A 
ATOM     67  F   UNL A   1      47.946  29.851  29.523  1.00  0.00    -0.203 F 
ATOM     68  F   UNL A   1      44.286  32.259  26.270  1.00  0.00    -0.200 F 
ATOM     69  C   UNL A   1      46.519  32.007  26.987  1.00  0.00     0.200 A 
ATOM     70  F   UNL A   1      48.725  31.774  27.790  1.00  0.00    -0.200 F 
ATOM     71  F   UNL A   1      46.914  32.960  26.131  1.00  0.00    -0.200 F 
ENDBRANCH  38  61
ENDBRANCH  12  13
ENDBRANCH   5   7
ENDBRANCH   2   3
ENDBRANCH   1   2
BRANCH   1  72
ATOM     72  C   UNL A   1      31.440  28.300  27.322  1.00  0.00     0.023 C 
BRANCH  72  73
ATOM     73  C   UNL A   1      31.633  27.028  26.500  1.00  0.00     0.116 C 
BRANCH  73  74
ATOM     74  N   UNL A   1      30.672  25.983  26.823  1.00  0.00    -0.352 N 
ATOM     75  C   UNL A   1      30.691  24.649  26.471  1.00  0.00     0.256 C 
ATOM     76  H   UNL A   1      29.903  26.267  27.367  1.00  0.00     0.163 HD
ATOM     77  O   UNL A   1      29.796  23.916  26.874  1.00  0.00    -0.269 OA
BRANCH  75  78
ATOM     78  C   UNL A   1      31.784  24.183  25.652  1.00  0.00     0.100 A 
ATOM     79  C   UNL A   1      32.101  24.390  24.288  1.00  0.00     0.080 A 
ATOM     80  C   UNL A   1      32.801  23.357  26.088  1.00  0.00     0.145 A 
ATOM     81  N   UNL A   1      33.340  23.972  23.993  1.00  0.00    -0.170 NA
ATOM     82  N   UNL A   1      33.765  23.328  25.107  1.00  0.00    -0.221 N 
ATOM     83  Cl  UNL A   1      33.028  22.643  27.627  1.00  0.00    -0.061 Cl
BRANCH  79  84
ATOM     84  C   UNL A   1      31.288  25.038  23.172  1.00  0.00     0.041 C 
ATOM     85  C   UNL A   1      31.372  26.525  22.910  1.00  0.00     0.011 C 
ATOM     86  C   UNL A   1      31.941  25.567  21.919  1.00  0.00     0.011 C 
ENDBRANCH  79  84
BRANCH  82  87
ATOM     87  C   UNL A   1      35.105  22.873  25.184  1.00  0.00     0.069 A 
ATOM     88  C   UNL A   1      36.110  23.794  25.525  1.00  0.00     0.030 A 
ATOM     89  C   UNL A   1      35.424  21.527  24.988  1.00  0.00     0.069 A 
ATOM     90  C   UNL A   1      37.415  23.347  25.750  1.00  0.00     0.026 A 
ATOM     91  C   UNL A   1      36.735  21.102  25.180  1.00  0.00     0.143 A 
ATOM     92  C   UNL A   1      37.726  21.997  25.582  1.00  0.00     0.076 A 
ATOM     93  F   UNL A   1      37.023  19.807  24.982  1.00  0.00    -0.205 F 
ATOM     94  Cl  UNL A   1      39.329  21.453  25.884  1.00  0.00    -0.081 Cl
ENDBRANCH  82  87
ENDBRANCH  75  78
ENDBRANCH  73  74
ENDBRANCH  72  73
ENDBRANCH   1  72
TORSDOF 13
ENDMDL
MODEL 2
REMARK VINA RESULT:     -13.4      3.554      8.819
REMARK SMILES O=C(NCCCCNC(=O)c1c(C2CC2)nn(-c2ccc(Cl)c(F)c2)c1Cl)c1ccc(-c2c3nc(c(-c4c(F)c(F)c(F)c(F)c4F)c4ccc([nH]4)c(-c4c(F)c(F)c(F)c(F)c4F)c4nc(c(-c5c(F)c(F)c(F)c(F)c5F)c5ccc2[nH]5)C=C4)C=C3)cc1
REMARK SMILES IDX 5 1 4 2 3 3 1 4 2 5 28 7 29 8 90 9 30 10 89 11 31 12 32 13
REMARK SMILES IDX 33 14 83 15 34 16 88 17 82 18 84 19 35 20 87 21 81 22 80 23
REMARK SMILES IDX 36 25 68 26 48 27 67 28 49 29 52 30 66 31 85 32 50 33 51 34
REMARK SMILES IDX 65 36 86 37 53 38 37 39 38 40 46 41 39 42 40 43 44 44 47 45
REMARK SMILES IDX 41 46 42 47 45 48 43 49 69 50 70 51 78 52 71 53 72 54 76 55
REMARK SMILES IDX 79 56 73 57 74 58 77 59 75 60 54 61 55 62 63 63 56 64 57 65
REMARK SMILES IDX 61 66 64 67 58 68 59 69 62 70 60 71 6 72 7 73 8 74 9 75
REMARK SMILES IDX 10 77 11 78 12 79 26 80 16 81 17 82 27 83 13 84 14 85 15 86
REMARK SMILES IDX 18 87 19 88 25 89 20 90 23 91 21 92 24 93 22 94
REMARK H PARENT 3 6 84 24 52 35 8 76
REMARK Flexibility Score: inf
ROOT
ATOM      1  C   UNL A   1      36.059  22.199  25.352  1.00  0.00     0.023 C 
ENDROOT
BRANCH   1   2
ATOM      2  C   UNL A   1      37.465  22.585  24.891  1.00  0.00     0.116 C 
BRANCH   2   3
ATOM      3  N   UNL A   1      38.535  21.836  25.518  1.00  0.00    -0.352 N 
ATOM      4  O   UNL A   1      40.171  21.162  26.844  1.00  0.00    -0.269 OA
ATOM      5  C   UNL A   1      39.476  22.112  26.473  1.00  0.00     0.251 C 
ATOM      6  H   UNL A   1      38.600  20.913  25.180  1.00  0.00     0.163 HD
BRANCH   5   7
ATOM      7  C   UNL A   1      39.749  23.458  27.050  1.00  0.00     0.039 A 
ATOM      8  C   UNL A   1      38.952  24.591  26.884  1.00  0.00     0.014 A 
ATOM      9  C   UNL A   1      40.908  23.569  27.841  1.00  0.00     0.014 A 
ATOM     10  C   UNL A   1      39.333  25.813  27.435  1.00  0.00     0.010 A 
ATOM     11  C   UNL A   1      41.283  24.782  28.415  1.00  0.00     0.010 A 
ATOM     12  C   UNL A   1      40.503  25.915  28.192  1.00  0.00    -0.014 A 
BRANCH  12  13
ATOM     13  C   UNL A   1      40.792  27.195  28.841  1.00  0.00     0.031 A 
ATOM     14  C   UNL A   1      41.999  27.926  28.347  1.00  0.00     0.074 A 
ATOM     15  C   UNL A   1      39.962  27.800  29.713  1.00  0.00     0.049 A 
ATOM     16  N   UNL A   1      43.000  28.397  29.025  1.00  0.00    -0.248 NA
ATOM     17  C   UNL A   1      42.112  28.136  26.894  1.00  0.00     0.031 C 
ATOM     18  C   UNL A   1      38.599  27.413  30.079  1.00  0.00     0.029 A 
ATOM     19  N   UNL A   1      40.144  28.976  30.384  1.00  0.00    -0.354 N 
ATOM     20  C   UNL A   1      43.802  29.080  28.110  1.00  0.00     0.074 A 
ATOM     21  C   UNL A   1      43.252  28.820  26.804  1.00  0.00     0.031 C 
ATOM     22  C   UNL A   1      38.009  28.435  30.738  1.00  0.00     0.029 A 
ATOM     23  C   UNL A   1      38.988  29.490  30.948  1.00  0.00     0.049 A 
ATOM     24  H   UNL A   1      41.020  29.418  30.461  1.00  0.00     0.167 HD
ATOM     25  C   UNL A   1      44.779  29.950  28.492  1.00  0.00     0.037 A 
ATOM     26  C   UNL A   1      38.826  30.722  31.488  1.00  0.00     0.037 A 
ATOM     27  C   UNL A   1      45.205  29.731  29.844  1.00  0.00     0.049 A 
ATOM     28  C   UNL A   1      40.165  31.267  31.811  1.00  0.00     0.074 A 
ATOM     29  C   UNL A   1      45.782  28.675  30.523  1.00  0.00     0.029 A 
ATOM     30  N   UNL A   1      44.798  30.605  30.819  1.00  0.00    -0.354 N 
ATOM     31  N   UNL A   1      40.932  30.829  32.768  1.00  0.00    -0.248 NA
ATOM     32  C   UNL A   1      40.822  32.100  30.815  1.00  0.00     0.031 C 
ATOM     33  C   UNL A   1      45.238  28.736  31.839  1.00  0.00     0.029 A 
ATOM     34  C   UNL A   1      44.386  29.839  31.879  1.00  0.00     0.049 A 
ATOM     35  H   UNL A   1      44.802  31.588  30.768  1.00  0.00     0.167 HD
ATOM     36  C   UNL A   1      42.221  30.974  32.278  1.00  0.00     0.074 A 
ATOM     37  C   UNL A   1      42.096  31.867  31.133  1.00  0.00     0.031 C 
ATOM     38  C   UNL A   1      43.223  30.138  32.677  1.00  0.00     0.037 A 
BRANCH  25  39
ATOM     39  C   UNL A   1      45.161  31.183  27.714  1.00  0.00     0.064 A 
ATOM     40  C   UNL A   1      46.458  31.307  27.177  1.00  0.00     0.173 A 
ATOM     41  C   UNL A   1      44.387  32.363  27.723  1.00  0.00     0.173 A 
ATOM     42  F   UNL A   1      47.292  30.258  27.156  1.00  0.00    -0.203 F 
ATOM     43  C   UNL A   1      46.955  32.534  26.726  1.00  0.00     0.198 A 
ATOM     44  C   UNL A   1      44.868  33.573  27.226  1.00  0.00     0.198 A 
ATOM     45  F   UNL A   1      43.184  32.411  28.310  1.00  0.00    -0.203 F 
ATOM     46  F   UNL A   1      48.230  32.629  26.326  1.00  0.00    -0.200 F 
ATOM     47  C   UNL A   1      46.160  33.666  26.752  1.00  0.00     0.200 A 
ATOM     48  F   UNL A   1      44.091  34.665  27.281  1.00  0.00    -0.200 F 
ATOM     49  F   UNL A   1      46.652  34.852  26.369  1.00  0.00    -0.200 F 
ENDBRANCH  25  39
BRANCH  26  50
ATOM     50  C   UNL A   1      37.611  31.566  31.505  1.00  0.00     0.064 A 
ATOM     51  C   UNL A   1      36.902  31.801  32.695  1.00  0.00     0.173 A 
ATOM     52  C   UNL A   1      37.275  32.379  30.405  1.00  0.00     0.173 A 
ATOM     53  F   UNL A   1      37.194  31.103  33.802  1.00  0.00    -0.203 F 
ATOM     54  C   UNL A   1      35.930  32.802  32.783  1.00  0.00     0.198 A 
ATOM     55  C   UNL A   1      36.298  33.369  30.490  1.00  0.00     0.198 A 
ATOM     56  F   UNL A   1      37.955  32.291  29.253  1.00  0.00    -0.203 F 
ATOM     57  F   UNL A   1      35.319  33.039  33.952  1.00  0.00    -0.200 F 
ATOM     58  C   UNL A   1      35.635  33.590  31.683  1.00  0.00     0.200 A 
ATOM     59  F   UNL A   1      36.048  34.149  29.429  1.00  0.00    -0.200 F 
ATOM     60  F   UNL A   1      34.746  34.588  31.783  1.00  0.00    -0.200 F 
ENDBRANCH  26  50
BRANCH  38  61
ATOM     61  C   UNL A   1      42.969  29.262  33.870  1.00  0.00     0.064 A 
ATOM     62  C   UNL A   1      42.248  28.057  33.814  1.00  0.00     0.173 A 
ATOM     63  C   UNL A   1      43.590  29.586  35.085  1.00  0.00     0.173 A 
ATOM     64  F   UNL A   1      41.721  27.622  32.663  1.00  0.00    -0.203 F 
ATOM     65  C   UNL A   1      42.108  27.246  34.938  1.00  0.00     0.198 A 
ATOM     66  C   UNL A   1      43.482  28.753  36.195  1.00  0.00     0.198 A 
ATOM     67  F   UNL A   1      44.345  30.693  35.180  1.00  0.00    -0.203 F 
ATOM     68  F   UNL A   1      41.400  26.110  34.863  1.00  0.00    -0.200 F 
ATOM     69  C   UNL A   1      42.730  27.592  36.126  1.00  0.00     0.200 A 
ATOM     70  F   UNL A   1      44.129  29.064  37.327  1.00  0.00    -0.200 F 
ATOM     71  F   UNL A   1      42.630  26.790  37.196  1.00  0.00    -0.200 F 
ENDBRANCH  38  61
ENDBRANCH  12  13
ENDBRANCH   5   7
ENDBRANCH   2   3
ENDBRANCH   1   2
BRANCH   1  72
ATOM     72  C   UNL A   1      35.469  23.073  26.463  1.00  0.00     0.023 C 
BRANCH  72  73
ATOM     73  C   UNL A   1      34.220  23.868  26.092  1.00  0.00     0.116 C 
BRANCH  73  74
ATOM     74  N   UNL A   1      33.058  23.524  26.900  1.00  0.00    -0.352 N 
ATOM     75  C   UNL A   1      31.723  23.760  26.641  1.00  0.00     0.256 C 
ATOM     76  H   UNL A   1      33.252  23.061  27.746  1.00  0.00     0.163 HD
ATOM     77  O   UNL A   1      30.885  23.358  27.440  1.00  0.00    -0.269 OA
BRANCH  75  78
ATOM     78  C   UNL A   1      31.384  24.458  25.425  1.00  0.00     0.100 A 
ATOM     79  C   UNL A   1      31.201  24.010  24.095  1.00  0.00     0.080 A 
ATOM     80  C   UNL A   1      31.175  25.819  25.328  1.00  0.00     0.145 A 
ATOM     81  N   UNL A   1      30.653  24.954  23.319  1.00  0.00    -0.170 NA
ATOM     82  N   UNL A   1      30.646  26.073  24.084  1.00  0.00    -0.221 N 
ATOM     83  Cl  UNL A   1      31.300  27.020  26.541  1.00  0.00    -0.061 Cl
BRANCH  79  84
ATOM     84  C   UNL A   1      31.480  22.648  23.463  1.00  0.00     0.041 C 
ATOM     85  C   UNL A   1      32.885  22.243  23.075  1.00  0.00     0.011 C 
ATOM     86  C   UNL A   1      32.207  21.561  24.215  1.00  0.00     0.011 C 
ENDBRANCH  79  84
BRANCH  82  87
ATOM     87  C   UNL A   1      30.002  27.242  23.608  1.00  0.00     0.069 A 
ATOM     88  C   UNL A   1      30.793  28.290  23.108  1.00  0.00     0.030 A 
ATOM     89  C   UNL A   1      28.608  27.338  23.575  1.00  0.00     0.069 A 
ATOM     90  C   UNL A   1      30.185  29.393  22.500  1.00  0.00     0.026 A 
ATOM     91  C   UNL A   1      28.016  28.458  23.000  1.00  0.00     0.143 A 
ATOM     92  C   UNL A   1      28.793  29.472  22.443  1.00  0.00     0.076 A 
ATOM     93  F   UNL A   1      26.677  28.534  22.983  1.00  0.00    -0.205 F 
ATOM     94  Cl  UNL A   1      28.054  30.821  21.672  1.00  0.00    -0.081 Cl
ENDBRANCH  82  87
ENDBRANCH  75  78
ENDBRANCH  73  74
ENDBRANCH  72  73
ENDBRANCH   1  72
TORSDOF 13
ENDMDL
MODEL 3
REMARK VINA RESULT:     -13.4      3.541      8.822
REMARK SMILES O=C(NCCCCNC(=O)c1c(C2CC2)nn(-c2ccc(Cl)c(F)c2)c1Cl)c1ccc(-c2c3nc(c(-c4c(F)c(F)c(F)c(F)c4F)c4ccc([nH]4)c(-c4c(F)c(F)c(F)c(F)c4F)c4nc(c(-c5c(F)c(F)c(F)c(F)c5F)c5ccc2[nH]5)C=C4)C=C3)cc1
REMARK SMILES IDX 5 1 4 2 3 3 1 4 2 5 28 7 29 8 90 9 30 10 89 11 31 12 32 13
REMARK SMILES IDX 33 14 83 15 34 16 88 17 82 18 84 19 35 20 87 21 81 22 80 23
REMARK SMILES IDX 36 25 68 26 48 27 67 28 49 29 52 30 66 31 85 32 50 33 51 34
REMARK SMILES IDX 65 36 86 37 53 38 37 39 38 40 46 41 39 42 40 43 44 44 47 45
REMARK SMILES IDX 41 46 42 47 45 48 43 49 69 50 70 51 78 52 71 53 72 54 76 55
REMARK SMILES IDX 79 56 73 57 74 58 77 59 75 60 54 61 55 62 63 63 56 64 57 65
REMARK SMILES IDX 61 66 64 67 58 68 59 69 62 70 60 71 6 72 7 73 8 74 9 75
REMARK SMILES IDX 10 77 11 78 12 79 26 80 16 81 17 82 27 83 13 84 14 85 15 86
REMARK SMILES IDX 18 87 19 88 25 89 20 90 23 91 21 92 24 93 22 94
REMARK H PARENT 3 6 84 24 52 35 8 76
REMARK Flexibility Score: inf
ROOT
ATOM      1  C   UNL A   1      36.818  21.678  24.608  1.00  0.00     0.023 C 
ENDROOT
BRANCH   1   2
ATOM      2  C   UNL A   1      37.605  22.276  25.775  1.00  0.00     0.116 C 
BRANCH   2   3
ATOM      3  N   UNL A   1      39.005  21.906  25.815  1.00  0.00    -0.352 N 
ATOM      4  O   UNL A   1      41.166  21.791  26.266  1.00  0.00    -0.269 OA
ATOM      5  C   UNL A   1      40.139  22.472  26.331  1.00  0.00     0.251 C 
ATOM      6  H   UNL A   1      39.182  21.047  25.367  1.00  0.00     0.163 HD
BRANCH   5   7
ATOM      7  C   UNL A   1      40.232  23.841  26.911  1.00  0.00     0.039 A 
ATOM      8  C   UNL A   1      39.341  24.887  26.672  1.00  0.00     0.014 A 
ATOM      9  C   UNL A   1      41.312  24.071  27.786  1.00  0.00     0.014 A 
ATOM     10  C   UNL A   1      39.556  26.144  27.235  1.00  0.00     0.010 A 
ATOM     11  C   UNL A   1      41.519  25.318  28.371  1.00  0.00     0.010 A 
ATOM     12  C   UNL A   1      40.650  26.367  28.076  1.00  0.00    -0.014 A 
BRANCH  12  13
ATOM     13  C   UNL A   1      40.760  27.671  28.730  1.00  0.00     0.031 A 
ATOM     14  C   UNL A   1      41.880  28.548  28.267  1.00  0.00     0.074 A 
ATOM     15  C   UNL A   1      39.836  28.169  29.577  1.00  0.00     0.049 A 
ATOM     16  N   UNL A   1      42.795  29.138  28.971  1.00  0.00    -0.248 NA
ATOM     17  C   UNL A   1      42.007  28.770  26.817  1.00  0.00     0.031 C 
ATOM     18  C   UNL A   1      38.522  27.616  29.905  1.00  0.00     0.029 A 
ATOM     19  N   UNL A   1      39.853  29.358  30.249  1.00  0.00    -0.354 N 
ATOM     20  C   UNL A   1      43.532  29.916  28.078  1.00  0.00     0.074 A 
ATOM     21  C   UNL A   1      43.055  29.590  26.757  1.00  0.00     0.031 C 
ATOM     22  C   UNL A   1      37.793  28.557  30.545  1.00  0.00     0.029 A 
ATOM     23  C   UNL A   1      38.627  29.725  30.779  1.00  0.00     0.049 A 
ATOM     24  H   UNL A   1      40.665  29.905  30.350  1.00  0.00     0.167 HD
ATOM     25  C   UNL A   1      44.382  30.899  28.484  1.00  0.00     0.037 A 
ATOM     26  C   UNL A   1      38.298  30.926  31.311  1.00  0.00     0.037 A 
ATOM     27  C   UNL A   1      44.794  30.734  29.847  1.00  0.00     0.049 A 
ATOM     28  C   UNL A   1      39.550  31.633  31.669  1.00  0.00     0.074 A 
ATOM     29  C   UNL A   1      45.479  29.757  30.545  1.00  0.00     0.029 A 
ATOM     30  N   UNL A   1      44.256  31.550  30.808  1.00  0.00    -0.354 N 
ATOM     31  N   UNL A   1      40.339  31.293  32.648  1.00  0.00    -0.248 NA
ATOM     32  C   UNL A   1      40.127  32.542  30.690  1.00  0.00     0.031 C 
ATOM     33  C   UNL A   1      44.895  29.750  31.846  1.00  0.00     0.029 A 
ATOM     34  C   UNL A   1      43.912  30.739  31.859  1.00  0.00     0.049 A 
ATOM     35  H   UNL A   1      44.139  32.527  30.755  1.00  0.00     0.167 HD
ATOM     36  C   UNL A   1      41.612  31.596  32.194  1.00  0.00     0.074 A 
ATOM     37  C   UNL A   1      41.410  32.468  31.044  1.00  0.00     0.031 C 
ATOM     38  C   UNL A   1      42.699  30.891  32.624  1.00  0.00     0.037 A 
BRANCH  25  39
ATOM     39  C   UNL A   1      44.630  32.171  27.713  1.00  0.00     0.064 A 
ATOM     40  C   UNL A   1      45.819  32.329  26.973  1.00  0.00     0.173 A 
ATOM     41  C   UNL A   1      43.872  33.345  27.910  1.00  0.00     0.173 A 
ATOM     42  F   UNL A   1      46.635  31.287  26.761  1.00  0.00    -0.203 F 
ATOM     43  C   UNL A   1      46.235  33.579  26.505  1.00  0.00     0.198 A 
ATOM     44  C   UNL A   1      44.264  34.580  27.398  1.00  0.00     0.198 A 
ATOM     45  F   UNL A   1      42.784  33.356  28.692  1.00  0.00    -0.203 F 
ATOM     46  F   UNL A   1      47.425  33.701  25.901  1.00  0.00    -0.200 F 
ATOM     47  C   UNL A   1      45.458  34.704  26.719  1.00  0.00     0.200 A 
ATOM     48  F   UNL A   1      43.510  35.663  27.635  1.00  0.00    -0.200 F 
ATOM     49  F   UNL A   1      45.882  35.910  26.317  1.00  0.00    -0.200 F 
ENDBRANCH  25  39
BRANCH  26  50
ATOM     50  C   UNL A   1      36.988  31.614  31.292  1.00  0.00     0.064 A 
ATOM     51  C   UNL A   1      36.297  31.900  32.481  1.00  0.00     0.173 A 
ATOM     52  C   UNL A   1      36.516  32.245  30.124  1.00  0.00     0.173 A 
ATOM     53  F   UNL A   1      36.712  31.378  33.644  1.00  0.00    -0.203 F 
ATOM     54  C   UNL A   1      35.211  32.779  32.502  1.00  0.00     0.198 A 
ATOM     55  C   UNL A   1      35.425  33.113  30.146  1.00  0.00     0.198 A 
ATOM     56  F   UNL A   1      37.161  32.105  28.959  1.00  0.00    -0.203 F 
ATOM     57  F   UNL A   1      34.615  33.077  33.666  1.00  0.00    -0.200 F 
ATOM     58  C   UNL A   1      34.781  33.391  31.336  1.00  0.00     0.200 A 
ATOM     59  F   UNL A   1      35.042  33.726  29.016  1.00  0.00    -0.200 F 
ATOM     60  F   UNL A   1      33.778  34.279  31.366  1.00  0.00    -0.200 F 
ENDBRANCH  26  50
BRANCH  38  61
ATOM     61  C   UNL A   1      42.522  29.990  33.812  1.00  0.00     0.064 A 
ATOM     62  C   UNL A   1      42.015  28.682  33.730  1.00  0.00     0.173 A 
ATOM     63  C   UNL A   1      43.008  30.416  35.056  1.00  0.00     0.173 A 
ATOM     64  F   UNL A   1      41.636  28.161  32.556  1.00  0.00    -0.203 F 
ATOM     65  C   UNL A   1      41.943  27.862  34.854  1.00  0.00     0.198 A 
ATOM     66  C   UNL A   1      42.972  29.581  36.169  1.00  0.00     0.198 A 
ATOM     67  F   UNL A   1      43.563  31.633  35.180  1.00  0.00    -0.203 F 
ATOM     68  F   UNL A   1      41.438  26.625  34.754  1.00  0.00    -0.200 F 
ATOM     69  C   UNL A   1      42.428  28.311  36.072  1.00  0.00     0.200 A 
ATOM     70  F   UNL A   1      43.491  29.999  37.332  1.00  0.00    -0.200 F 
ATOM     71  F   UNL A   1      42.397  27.508  37.145  1.00  0.00    -0.200 F 
ENDBRANCH  38  61
ENDBRANCH  12  13
ENDBRANCH   5   7
ENDBRANCH   2   3
ENDBRANCH   1   2
BRANCH   1  72
ATOM     72  C   UNL A   1      36.653  22.593  23.390  1.00  0.00     0.023 C 
BRANCH  72  73
ATOM     73  C   UNL A   1      35.462  23.547  23.433  1.00  0.00     0.116 C 
BRANCH  73  74
ATOM     74  N   UNL A   1      34.232  22.956  22.924  1.00  0.00    -0.352 N 
ATOM     75  C   UNL A   1      32.933  23.167  23.340  1.00  0.00     0.256 C 
ATOM     76  H   UNL A   1      34.343  22.320  22.182  1.00  0.00     0.163 HD
ATOM     77  O   UNL A   1      32.023  22.592  22.755  1.00  0.00    -0.269 OA
BRANCH  75  78
ATOM     78  C   UNL A   1      32.715  24.072  24.441  1.00  0.00     0.100 A 
ATOM     79  C   UNL A   1      32.584  23.856  25.834  1.00  0.00     0.080 A 
ATOM     80  C   UNL A   1      32.561  25.439  24.321  1.00  0.00     0.145 A 
ATOM     81  N   UNL A   1      32.634  25.002  26.526  1.00  0.00    -0.170 NA
ATOM     82  N   UNL A   1      32.612  25.978  25.586  1.00  0.00    -0.221 N 
ATOM     83  Cl  UNL A   1      32.535  26.403  22.907  1.00  0.00    -0.061 Cl
BRANCH  79  84
ATOM     84  C   UNL A   1      32.451  22.557  26.624  1.00  0.00     0.041 C 
ATOM     85  C   UNL A   1      33.552  21.521  26.610  1.00  0.00     0.011 C 
ATOM     86  C   UNL A   1      33.278  22.291  27.857  1.00  0.00     0.011 C 
ENDBRANCH  79  84
BRANCH  82  87
ATOM     87  C   UNL A   1      32.791  27.329  25.975  1.00  0.00     0.069 A 
ATOM     88  C   UNL A   1      31.653  28.133  26.157  1.00  0.00     0.030 A 
ATOM     89  C   UNL A   1      34.063  27.846  26.235  1.00  0.00     0.069 A 
ATOM     90  C   UNL A   1      31.788  29.423  26.679  1.00  0.00     0.026 A 
ATOM     91  C   UNL A   1      34.185  29.144  26.720  1.00  0.00     0.143 A 
ATOM     92  C   UNL A   1      33.058  29.926  26.965  1.00  0.00     0.076 A 
ATOM     93  F   UNL A   1      35.415  29.623  26.958  1.00  0.00    -0.205 F 
ATOM     94  Cl  UNL A   1      33.212  31.505  27.628  1.00  0.00    -0.081 Cl
ENDBRANCH  82  87
ENDBRANCH  75  78
ENDBRANCH  73  74
ENDBRANCH  72  73
ENDBRANCH   1  72
TORSDOF 13
ENDMDL
