MODEL 1
REMARK VINA RESULT:     -12.6      0.000      0.000
REMARK SMILES COCCNC(=O)c1cccc(NC(=O)[C@@H]2CCCC[C@H]2C(=O)NCCCCNC(=O)c2ccc(-c3c4nc(c(-c5c(F)c(F)c(F)c(F)c5F)c5ccc([nH]5)c(-c5c(F)c(F)c(F)c(F)c5F)c5nc(c(-c6c(F)c(F)c(F)c(F)c6F)c6ccc3[nH]6)C=C5)C=C4)cc2)c1
REMARK SMILES IDX 22 1 23 2 24 3 21 5 16 6 17 7 18 8 20 9 19 10 14 11 13 12
REMARK SMILES IDX 15 14 12 15 8 16 9 17 95 18 10 19 11 20 6 21 5 22 7 24 4 25
REMARK SMILES IDX 3 26 2 27 1 28 25 29 26 30 27 31 28 32 29 33 30 34 31 36
REMARK SMILES IDX 32 37 33 38 94 39 34 40 93 41 35 42 36 43 37 44 87 45 38 46
REMARK SMILES IDX 92 47 86 48 88 49 39 50 91 51 85 52 84 53 40 55 72 56 52 57
REMARK SMILES IDX 71 58 53 59 56 60 70 61 89 62 54 63 55 64 69 66 90 67 57 68
REMARK SMILES IDX 41 69 42 70 50 71 43 72 44 73 48 74 51 75 45 76 46 77 49 78
REMARK SMILES IDX 47 79 73 80 74 81 82 82 75 83 76 84 80 85 83 86 77 87 78 88
REMARK SMILES IDX 81 89 79 90 58 91 59 92 67 93 60 94 61 95 65 96 68 97 62 98
REMARK SMILES IDX 63 99 66 100 64 101
REMARK H PARENT 24 4 13 13 5 23 29 35 88 54 56 65
REMARK Flexibility Score: inf
ROOT
ATOM      1  C   UNL A   1      34.783  24.167  24.607  1.00  0.00     0.223 C 
ATOM      2  O   UNL A   1      34.762  25.379  24.835  1.00  0.00    -0.275 OA
ATOM      3  N   UNL A   1      35.994  23.583  24.441  1.00  0.00    -0.356 N 
ATOM      4  H   UNL A   1      36.761  24.185  24.582  1.00  0.00     0.163 HD
ENDROOT
BRANCH   1   5
ATOM      5  C   UNL A   1      33.485  23.375  24.510  1.00  0.00     0.091 C 
ATOM      6  C   UNL A   1      33.332  22.704  23.128  1.00  0.00     0.091 C 
ATOM      7  C   UNL A   1      32.368  21.517  23.031  1.00  0.00     0.014 C 
ATOM      8  C   UNL A   1      32.377  20.636  24.272  1.00  0.00     0.001 C 
ATOM      9  C   UNL A   1      33.263  22.474  25.734  1.00  0.00     0.014 C 
ATOM     10  C   UNL A   1      32.151  21.454  25.533  1.00  0.00     0.001 C 
BRANCH   6  11
ATOM     11  C   UNL A   1      33.105  23.659  21.956  1.00  0.00     0.228 C 
ATOM     12  N   UNL A   1      32.423  24.832  22.002  1.00  0.00    -0.326 N 
ATOM     13  H   UNL A   1      32.491  25.341  21.162  1.00  0.00     0.169 HD
ATOM     14  O   UNL A   1      33.598  23.362  20.858  1.00  0.00    -0.274 OA
BRANCH  12  15
ATOM     15  C   UNL A   1      31.644  25.491  22.964  1.00  0.00     0.041 A 
ATOM     16  C   UNL A   1      31.412  27.441  24.374  1.00  0.00     0.041 A 
ATOM     17  C   UNL A   1      30.318  26.878  25.026  1.00  0.00     0.014 A 
ATOM     18  C   UNL A   1      32.090  26.748  23.368  1.00  0.00     0.040 A 
ATOM     19  C   UNL A   1      29.831  25.655  24.583  1.00  0.00     0.003 A 
ATOM     20  C   UNL A   1      30.469  24.991  23.528  1.00  0.00     0.026 A 
BRANCH  16  21
ATOM     21  C   UNL A   1      31.828  28.809  24.720  1.00  0.00     0.251 C 
ATOM     22  N   UNL A   1      31.074  29.851  24.242  1.00  0.00    -0.350 N 
ATOM     23  H   UNL A   1      31.442  30.752  24.389  1.00  0.00     0.163 HD
ATOM     24  O   UNL A   1      32.800  28.998  25.442  1.00  0.00    -0.269 OA
BRANCH  22  25
ATOM     25  C   UNL A   1      29.792  29.790  23.542  1.00  0.00     0.144 C 
BRANCH  25  26
ATOM     26  C   UNL A   1      29.921  29.919  22.019  1.00  0.00     0.181 C 
BRANCH  26  27
ATOM     27  O   UNL A   1      28.676  29.725  21.342  1.00  0.00    -0.383 OA
ATOM     28  C   UNL A   1      28.051  30.937  20.946  1.00  0.00     0.194 C 
ENDBRANCH  26  27
ENDBRANCH  25  26
ENDBRANCH  22  25
ENDBRANCH  16  21
ENDBRANCH  12  15
ENDBRANCH   6  11
ENDBRANCH   1   5
BRANCH   3  29
ATOM     29  C   UNL A   1      36.350  22.224  24.093  1.00  0.00     0.116 C 
BRANCH  29  30
ATOM     30  C   UNL A   1      36.850  21.448  25.306  1.00  0.00     0.023 C 
BRANCH  30  31
ATOM     31  C   UNL A   1      37.945  20.426  25.002  1.00  0.00     0.023 C 
BRANCH  31  32
ATOM     32  C   UNL A   1      39.238  20.607  25.789  1.00  0.00     0.116 C 
BRANCH  32  33
ATOM     33  N   UNL A   1      40.059  19.406  25.830  1.00  0.00    -0.352 N 
ATOM     34  C   UNL A   1      41.398  19.291  26.108  1.00  0.00     0.251 C 
ATOM     35  H   UNL A   1      39.590  18.563  25.633  1.00  0.00     0.163 HD
ATOM     36  O   UNL A   1      41.967  18.209  26.038  1.00  0.00    -0.269 OA
BRANCH  34  37
ATOM     37  C   UNL A   1      42.154  20.511  26.439  1.00  0.00     0.039 A 
ATOM     38  C   UNL A   1      42.673  21.277  25.395  1.00  0.00     0.014 A 
ATOM     39  C   UNL A   1      42.254  20.939  27.766  1.00  0.00     0.014 A 
ATOM     40  C   UNL A   1      43.219  22.527  25.673  1.00  0.00     0.010 A 
ATOM     41  C   UNL A   1      42.742  22.213  28.034  1.00  0.00     0.010 A 
ATOM     42  C   UNL A   1      43.211  23.023  26.987  1.00  0.00    -0.014 A 
BRANCH  42  43
ATOM     43  C   UNL A   1      43.642  24.409  27.280  1.00  0.00     0.031 A 
ATOM     44  C   UNL A   1      42.651  25.415  27.786  1.00  0.00     0.074 A 
ATOM     45  C   UNL A   1      44.909  24.776  27.006  1.00  0.00     0.049 A 
ATOM     46  N   UNL A   1      42.817  26.690  28.022  1.00  0.00    -0.248 NA
ATOM     47  C   UNL A   1      41.285  24.927  28.032  1.00  0.00     0.031 C 
ATOM     48  C   UNL A   1      45.944  23.898  26.457  1.00  0.00     0.029 A 
ATOM     49  N   UNL A   1      45.538  25.988  27.136  1.00  0.00    -0.354 N 
ATOM     50  C   UNL A   1      41.577  27.160  28.432  1.00  0.00     0.074 A 
ATOM     51  C   UNL A   1      40.658  26.044  28.371  1.00  0.00     0.031 C 
ATOM     52  C   UNL A   1      47.080  24.595  26.310  1.00  0.00     0.029 A 
ATOM     53  C   UNL A   1      46.847  25.976  26.721  1.00  0.00     0.049 A 
ATOM     54  H   UNL A   1      45.093  26.791  27.493  1.00  0.00     0.167 HD
ATOM     55  C   UNL A   1      41.246  28.407  28.842  1.00  0.00     0.037 A 
ATOM     56  C   UNL A   1      47.751  26.970  26.670  1.00  0.00     0.037 A 
ATOM     57  C   UNL A   1      42.172  29.504  28.926  1.00  0.00     0.049 A 
ATOM     58  C   UNL A   1      47.354  28.346  27.130  1.00  0.00     0.074 A 
ATOM     59  C   UNL A   1      41.954  30.782  29.410  1.00  0.00     0.029 A 
ATOM     60  N   UNL A   1      43.494  29.452  28.510  1.00  0.00    -0.354 N 
ATOM     61  N   UNL A   1      46.200  28.760  27.593  1.00  0.00    -0.248 NA
ATOM     62  C   UNL A   1      48.386  29.390  27.062  1.00  0.00     0.031 C 
ATOM     63  C   UNL A   1      43.134  31.516  29.250  1.00  0.00     0.029 A 
ATOM     64  C   UNL A   1      44.097  30.685  28.701  1.00  0.00     0.049 A 
ATOM     65  H   UNL A   1      43.938  28.658  28.135  1.00  0.00     0.167 HD
ATOM     66  C   UNL A   1      46.368  30.107  27.883  1.00  0.00     0.074 A 
ATOM     67  C   UNL A   1      47.743  30.435  27.562  1.00  0.00     0.031 C 
ATOM     68  C   UNL A   1      45.464  30.993  28.367  1.00  0.00     0.037 A 
BRANCH  55  69
ATOM     69  C   UNL A   1      39.820  28.647  29.237  1.00  0.00     0.064 A 
ATOM     70  C   UNL A   1      39.379  28.442  30.552  1.00  0.00     0.173 A 
ATOM     71  C   UNL A   1      38.892  29.123  28.299  1.00  0.00     0.173 A 
ATOM     72  F   UNL A   1      40.226  27.974  31.483  1.00  0.00    -0.203 F 
ATOM     73  C   UNL A   1      38.055  28.681  30.910  1.00  0.00     0.198 A 
ATOM     74  C   UNL A   1      37.575  29.386  28.665  1.00  0.00     0.198 A 
ATOM     75  F   UNL A   1      39.264  29.338  27.028  1.00  0.00    -0.203 F 
ATOM     76  F   UNL A   1      37.646  28.438  32.162  1.00  0.00    -0.200 F 
ATOM     77  C   UNL A   1      37.157  29.159  29.968  1.00  0.00     0.200 A 
ATOM     78  F   UNL A   1      36.709  29.857  27.757  1.00  0.00    -0.200 F 
ATOM     79  F   UNL A   1      35.883  29.396  30.315  1.00  0.00    -0.200 F 
ENDBRANCH  55  69
BRANCH  56  80
ATOM     80  C   UNL A   1      49.124  26.698  26.175  1.00  0.00     0.064 A 
ATOM     81  C   UNL A   1      50.106  26.182  27.032  1.00  0.00     0.173 A 
ATOM     82  C   UNL A   1      49.482  26.941  24.841  1.00  0.00     0.173 A 
ATOM     83  F   UNL A   1      49.816  25.953  28.322  1.00  0.00    -0.203 F 
ATOM     84  C   UNL A   1      51.399  25.934  26.577  1.00  0.00     0.198 A 
ATOM     85  C   UNL A   1      50.769  26.670  24.381  1.00  0.00     0.198 A 
ATOM     86  F   UNL A   1      48.576  27.431  23.982  1.00  0.00    -0.203 F 
ATOM     87  F   UNL A   1      52.330  25.476  27.426  1.00  0.00    -0.200 F 
ATOM     88  C   UNL A   1      51.729  26.173  25.251  1.00  0.00     0.200 A 
ATOM     89  F   UNL A   1      51.079  26.892  23.096  1.00  0.00    -0.200 F 
ATOM     90  F   UNL A   1      52.971  25.930  24.813  1.00  0.00    -0.200 F 
ENDBRANCH  56  80
BRANCH  68  91
ATOM     91  C   UNL A   1      45.937  32.399  28.586  1.00  0.00     0.064 A 
ATOM     92  C   UNL A   1      45.816  33.371  27.583  1.00  0.00     0.173 A 
ATOM     93  C   UNL A   1      46.478  32.786  29.820  1.00  0.00     0.173 A 
ATOM     94  F   UNL A   1      45.320  33.043  26.380  1.00  0.00    -0.203 F 
ATOM     95  C   UNL A   1      46.239  34.679  27.803  1.00  0.00     0.198 A 
ATOM     96  C   UNL A   1      46.877  34.100  30.045  1.00  0.00     0.198 A 
ATOM     97  F   UNL A   1      46.611  31.891  30.811  1.00  0.00    -0.203 F 
ATOM     98  F   UNL A   1      46.151  35.584  26.818  1.00  0.00    -0.200 F 
ATOM     99  C   UNL A   1      46.762  35.044  29.034  1.00  0.00     0.200 A 
ATOM    100  F   UNL A   1      47.373  34.453  31.238  1.00  0.00    -0.200 F 
ATOM    101  F   UNL A   1      47.163  36.305  29.246  1.00  0.00    -0.200 F 
ENDBRANCH  68  91
ENDBRANCH  42  43
ENDBRANCH  34  37
ENDBRANCH  32  33
ENDBRANCH  31  32
ENDBRANCH  30  31
ENDBRANCH  29  30
ENDBRANCH   3  29
TORSDOF 17
ENDMDL
MODEL 2
REMARK VINA RESULT:     -12.5      5.360     11.078
REMARK SMILES COCCNC(=O)c1cccc(NC(=O)[C@@H]2CCCC[C@H]2C(=O)NCCCCNC(=O)c2ccc(-c3c4nc(c(-c5c(F)c(F)c(F)c(F)c5F)c5ccc([nH]5)c(-c5c(F)c(F)c(F)c(F)c5F)c5nc(c(-c6c(F)c(F)c(F)c(F)c6F)c6ccc3[nH]6)C=C5)C=C4)cc2)c1
REMARK SMILES IDX 22 1 23 2 24 3 21 5 16 6 17 7 18 8 20 9 19 10 14 11 13 12
REMARK SMILES IDX 15 14 12 15 8 16 9 17 95 18 10 19 11 20 6 21 5 22 7 24 4 25
REMARK SMILES IDX 3 26 2 27 1 28 25 29 26 30 27 31 28 32 29 33 30 34 31 36
REMARK SMILES IDX 32 37 33 38 94 39 34 40 93 41 35 42 36 43 37 44 87 45 38 46
REMARK SMILES IDX 92 47 86 48 88 49 39 50 91 51 85 52 84 53 40 55 72 56 52 57
REMARK SMILES IDX 71 58 53 59 56 60 70 61 89 62 54 63 55 64 69 66 90 67 57 68
REMARK SMILES IDX 41 69 42 70 50 71 43 72 44 73 48 74 51 75 45 76 46 77 49 78
REMARK SMILES IDX 47 79 73 80 74 81 82 82 75 83 76 84 80 85 83 86 77 87 78 88
REMARK SMILES IDX 81 89 79 90 58 91 59 92 67 93 60 94 61 95 65 96 68 97 62 98
REMARK SMILES IDX 63 99 66 100 64 101
REMARK H PARENT 24 4 13 13 5 23 29 35 88 54 56 65
REMARK Flexibility Score: inf
ROOT
ATOM      1  C   UNL A   1      33.403  27.024  25.504  1.00  0.00     0.223 C 
ATOM      2  O   UNL A   1      34.034  26.062  25.948  1.00  0.00    -0.275 OA
ATOM      3  N   UNL A   1      33.737  28.255  25.959  1.00  0.00    -0.356 N 
ATOM      4  H   UNL A   1      34.511  28.270  26.568  1.00  0.00     0.163 HD
ENDROOT
BRANCH   1   5
ATOM      5  C   UNL A   1      32.285  26.814  24.490  1.00  0.00     0.091 C 
ATOM      6  C   UNL A   1      32.484  25.509  23.689  1.00  0.00     0.091 C 
ATOM      7  C   UNL A   1      31.249  24.916  23.003  1.00  0.00     0.014 C 
ATOM      8  C   UNL A   1      29.974  25.086  23.814  1.00  0.00     0.001 C 
ATOM      9  C   UNL A   1      30.895  27.031  25.105  1.00  0.00     0.014 C 
ATOM     10  C   UNL A   1      29.762  26.536  24.218  1.00  0.00     0.001 C 
BRANCH   6  11
ATOM     11  C   UNL A   1      33.672  25.504  22.726  1.00  0.00     0.228 C 
ATOM     12  N   UNL A   1      34.665  24.581  22.688  1.00  0.00    -0.326 N 
ATOM     13  H   UNL A   1      35.269  24.708  21.920  1.00  0.00     0.169 HD
ATOM     14  O   UNL A   1      33.740  26.410  21.881  1.00  0.00    -0.274 OA
BRANCH  12  15
ATOM     15  C   UNL A   1      35.036  23.487  23.483  1.00  0.00     0.041 A 
ATOM     16  C   UNL A   1      34.370  21.947  25.223  1.00  0.00     0.041 A 
ATOM     17  C   UNL A   1      35.658  21.421  25.292  1.00  0.00     0.014 A 
ATOM     18  C   UNL A   1      34.061  22.989  24.346  1.00  0.00     0.040 A 
ATOM     19  C   UNL A   1      36.614  21.869  24.390  1.00  0.00     0.003 A 
ATOM     20  C   UNL A   1      36.286  22.866  23.464  1.00  0.00     0.026 A 
BRANCH  16  21
ATOM     21  C   UNL A   1      33.309  21.359  26.055  1.00  0.00     0.251 C 
ATOM     22  N   UNL A   1      32.427  20.496  25.458  1.00  0.00    -0.350 N 
ATOM     23  H   UNL A   1      31.660  20.214  26.008  1.00  0.00     0.163 HD
ATOM     24  O   UNL A   1      33.247  21.616  27.252  1.00  0.00    -0.269 OA
BRANCH  22  25
ATOM     25  C   UNL A   1      32.482  19.942  24.106  1.00  0.00     0.144 C 
BRANCH  25  26
ATOM     26  C   UNL A   1      32.455  18.408  24.073  1.00  0.00     0.181 C 
BRANCH  26  27
ATOM     27  O   UNL A   1      32.072  17.837  25.326  1.00  0.00    -0.383 OA
ATOM     28  C   UNL A   1      32.801  16.665  25.662  1.00  0.00     0.194 C 
ENDBRANCH  26  27
ENDBRANCH  25  26
ENDBRANCH  22  25
ENDBRANCH  16  21
ENDBRANCH  12  15
ENDBRANCH   6  11
ENDBRANCH   1   5
BRANCH   3  29
ATOM     29  C   UNL A   1      33.150  29.553  25.698  1.00  0.00     0.116 C 
BRANCH  29  30
ATOM     30  C   UNL A   1      32.279  30.016  26.860  1.00  0.00     0.023 C 
BRANCH  30  31
ATOM     31  C   UNL A   1      31.930  31.504  26.842  1.00  0.00     0.023 C 
BRANCH  31  32
ATOM     32  C   UNL A   1      33.005  32.429  27.402  1.00  0.00     0.116 C 
BRANCH  32  33
ATOM     33  N   UNL A   1      32.532  33.787  27.629  1.00  0.00    -0.352 N 
ATOM     34  C   UNL A   1      33.025  34.733  28.491  1.00  0.00     0.251 C 
ATOM     35  H   UNL A   1      31.756  34.063  27.091  1.00  0.00     0.163 HD
ATOM     36  O   UNL A   1      32.473  35.820  28.619  1.00  0.00    -0.269 OA
BRANCH  34  37
ATOM     37  C   UNL A   1      34.204  34.395  29.307  1.00  0.00     0.039 A 
ATOM     38  C   UNL A   1      34.002  33.814  30.559  1.00  0.00     0.014 A 
ATOM     39  C   UNL A   1      35.491  34.559  28.787  1.00  0.00     0.014 A 
ATOM     40  C   UNL A   1      35.095  33.310  31.260  1.00  0.00     0.010 A 
ATOM     41  C   UNL A   1      36.571  34.001  29.460  1.00  0.00     0.010 A 
ATOM     42  C   UNL A   1      36.378  33.356  30.692  1.00  0.00    -0.014 A 
BRANCH  42  43
ATOM     43  C   UNL A   1      37.526  32.688  31.349  1.00  0.00     0.031 A 
ATOM     44  C   UNL A   1      38.194  31.519  30.690  1.00  0.00     0.074 A 
ATOM     45  C   UNL A   1      37.904  33.088  32.578  1.00  0.00     0.049 A 
ATOM     46  N   UNL A   1      39.155  30.756  31.141  1.00  0.00    -0.248 NA
ATOM     47  C   UNL A   1      37.696  31.140  29.358  1.00  0.00     0.031 C 
ATOM     48  C   UNL A   1      37.289  34.176  33.340  1.00  0.00     0.029 A 
ATOM     49  N   UNL A   1      38.886  32.614  33.411  1.00  0.00    -0.354 N 
ATOM     50  C   UNL A   1      39.370  29.801  30.157  1.00  0.00     0.074 A 
ATOM     51  C   UNL A   1      38.409  30.053  29.104  1.00  0.00     0.031 C 
ATOM     52  C   UNL A   1      37.915  34.296  34.521  1.00  0.00     0.029 A 
ATOM     53  C   UNL A   1      38.952  33.273  34.614  1.00  0.00     0.049 A 
ATOM     54  H   UNL A   1      39.486  31.873  33.169  1.00  0.00     0.167 HD
ATOM     55  C   UNL A   1      40.299  28.818  30.130  1.00  0.00     0.037 A 
ATOM     56  C   UNL A   1      39.752  33.066  35.675  1.00  0.00     0.037 A 
ATOM     57  C   UNL A   1      41.268  28.592  31.168  1.00  0.00     0.049 A 
ATOM     58  C   UNL A   1      40.774  31.965  35.618  1.00  0.00     0.074 A 
ATOM     59  C   UNL A   1      42.307  27.677  31.195  1.00  0.00     0.029 A 
ATOM     60  N   UNL A   1      41.314  29.286  32.368  1.00  0.00    -0.354 N 
ATOM     61  N   UNL A   1      41.022  31.118  34.648  1.00  0.00    -0.248 NA
ATOM     62  C   UNL A   1      41.628  31.792  36.801  1.00  0.00     0.031 C 
ATOM     63  C   UNL A   1      42.957  27.791  32.428  1.00  0.00     0.029 A 
ATOM     64  C   UNL A   1      42.347  28.802  33.155  1.00  0.00     0.049 A 
ATOM     65  H   UNL A   1      40.704  30.015  32.622  1.00  0.00     0.167 HD
ATOM     66  C   UNL A   1      42.066  30.322  35.096  1.00  0.00     0.074 A 
ATOM     67  C   UNL A   1      42.418  30.799  36.418  1.00  0.00     0.031 C 
ATOM     68  C   UNL A   1      42.675  29.285  34.471  1.00  0.00     0.037 A 
BRANCH  55  69
ATOM     69  C   UNL A   1      40.315  27.915  28.933  1.00  0.00     0.064 A 
ATOM     70  C   UNL A   1      41.053  28.234  27.784  1.00  0.00     0.173 A 
ATOM     71  C   UNL A   1      39.613  26.701  28.948  1.00  0.00     0.173 A 
ATOM     72  F   UNL A   1      41.729  29.391  27.716  1.00  0.00    -0.203 F 
ATOM     73  C   UNL A   1      41.070  27.382  26.683  1.00  0.00     0.198 A 
ATOM     74  C   UNL A   1      39.652  25.838  27.857  1.00  0.00     0.198 A 
ATOM     75  F   UNL A   1      38.894  26.348  30.024  1.00  0.00    -0.203 F 
ATOM     76  F   UNL A   1      41.748  27.726  25.581  1.00  0.00    -0.200 F 
ATOM     77  C   UNL A   1      40.376  26.182  26.724  1.00  0.00     0.200 A 
ATOM     78  F   UNL A   1      38.989  24.674  27.899  1.00  0.00    -0.200 F 
ATOM     79  F   UNL A   1      40.398  25.358  25.666  1.00  0.00    -0.200 F 
ENDBRANCH  55  69
BRANCH  56  80
ATOM     80  C   UNL A   1      39.626  33.928  36.877  1.00  0.00     0.064 A 
ATOM     81  C   UNL A   1      40.299  35.155  36.953  1.00  0.00     0.173 A 
ATOM     82  C   UNL A   1      38.831  33.550  37.969  1.00  0.00     0.173 A 
ATOM     83  F   UNL A   1      41.088  35.550  35.943  1.00  0.00    -0.203 F 
ATOM     84  C   UNL A   1      40.194  35.964  38.082  1.00  0.00     0.198 A 
ATOM     85  C   UNL A   1      38.707  34.371  39.087  1.00  0.00     0.198 A 
ATOM     86  F   UNL A   1      38.164  32.386  37.941  1.00  0.00    -0.203 F 
ATOM     87  F   UNL A   1      40.878  37.116  38.146  1.00  0.00    -0.200 F 
ATOM     88  C   UNL A   1      39.395  35.575  39.146  1.00  0.00     0.200 A 
ATOM     89  F   UNL A   1      37.924  33.996  40.108  1.00  0.00    -0.200 F 
ATOM     90  F   UNL A   1      39.290  36.355  40.230  1.00  0.00    -0.200 F 
ENDBRANCH  56  80
BRANCH  68  91
ATOM     91  C   UNL A   1      43.790  28.604  35.208  1.00  0.00     0.064 A 
ATOM     92  C   UNL A   1      43.548  27.489  36.023  1.00  0.00     0.173 A 
ATOM     93  C   UNL A   1      45.113  29.045  35.066  1.00  0.00     0.173 A 
ATOM     94  F   UNL A   1      42.296  27.042  36.202  1.00  0.00    -0.203 F 
ATOM     95  C   UNL A   1      44.593  26.851  36.686  1.00  0.00     0.198 A 
ATOM     96  C   UNL A   1      46.158  28.389  35.711  1.00  0.00     0.198 A 
ATOM     97  F   UNL A   1      45.394  30.107  34.294  1.00  0.00    -0.203 F 
ATOM     98  F   UNL A   1      44.336  25.812  37.491  1.00  0.00    -0.200 F 
ATOM     99  C   UNL A   1      45.896  27.296  36.524  1.00  0.00     0.200 A 
ATOM    100  F   UNL A   1      47.417  28.815  35.545  1.00  0.00    -0.200 F 
ATOM    101  F   UNL A   1      46.900  26.677  37.158  1.00  0.00    -0.200 F 
ENDBRANCH  68  91
ENDBRANCH  42  43
ENDBRANCH  34  37
ENDBRANCH  32  33
ENDBRANCH  31  32
ENDBRANCH  30  31
ENDBRANCH  29  30
ENDBRANCH   3  29
TORSDOF 17
ENDMDL
MODEL 3
REMARK VINA RESULT:     -12.1      5.440     11.092
REMARK SMILES COCCNC(=O)c1cccc(NC(=O)[C@@H]2CCCC[C@H]2C(=O)NCCCCNC(=O)c2ccc(-c3c4nc(c(-c5c(F)c(F)c(F)c(F)c5F)c5ccc([nH]5)c(-c5c(F)c(F)c(F)c(F)c5F)c5nc(c(-c6c(F)c(F)c(F)c(F)c6F)c6ccc3[nH]6)C=C5)C=C4)cc2)c1
REMARK SMILES IDX 22 1 23 2 24 3 21 5 16 6 17 7 18 8 20 9 19 10 14 11 13 12
REMARK SMILES IDX 15 14 12 15 8 16 9 17 95 18 10 19 11 20 6 21 5 22 7 24 4 25
REMARK SMILES IDX 3 26 2 27 1 28 25 29 26 30 27 31 28 32 29 33 30 34 31 36
REMARK SMILES IDX 32 37 33 38 94 39 34 40 93 41 35 42 36 43 37 44 87 45 38 46
REMARK SMILES IDX 92 47 86 48 88 49 39 50 91 51 85 52 84 53 40 55 72 56 52 57
REMARK SMILES IDX 71 58 53 59 56 60 70 61 89 62 54 63 55 64 69 66 90 67 57 68
REMARK SMILES IDX 41 69 42 70 50 71 43 72 44 73 48 74 51 75 45 76 46 77 49 78
REMARK SMILES IDX 47 79 73 80 74 81 82 82 75 83 76 84 80 85 83 86 77 87 78 88
REMARK SMILES IDX 81 89 79 90 58 91 59 92 67 93 60 94 61 95 65 96 68 97 62 98
REMARK SMILES IDX 63 99 66 100 64 101
REMARK H PARENT 24 4 13 13 5 23 29 35 88 54 56 65
REMARK Flexibility Score: inf
ROOT
ATOM      1  C   UNL A   1      33.152  27.142  25.550  1.00  0.00     0.223 C 
ATOM      2  O   UNL A   1      33.168  25.930  25.779  1.00  0.00    -0.275 OA
ATOM      3  N   UNL A   1      33.814  27.949  26.412  1.00  0.00    -0.356 N 
ATOM      4  H   UNL A   1      34.307  27.475  27.120  1.00  0.00     0.163 HD
ENDROOT
BRANCH   1   5
ATOM      5  C   UNL A   1      32.401  27.691  24.343  1.00  0.00     0.091 C 
ATOM      6  C   UNL A   1      32.044  26.573  23.340  1.00  0.00     0.091 C 
ATOM      7  C   UNL A   1      30.907  26.857  22.353  1.00  0.00     0.014 C 
ATOM      8  C   UNL A   1      29.779  27.678  22.960  1.00  0.00     0.001 C 
ATOM      9  C   UNL A   1      31.256  28.631  24.751  1.00  0.00     0.014 C 
ATOM     10  C   UNL A   1      30.305  28.949  23.607  1.00  0.00     0.001 C 
BRANCH   6  11
ATOM     11  C   UNL A   1      33.231  25.948  22.605  1.00  0.00     0.228 C 
ATOM     12  N   UNL A   1      33.659  24.666  22.726  1.00  0.00    -0.326 N 
ATOM     13  H   UNL A   1      34.370  24.444  22.082  1.00  0.00     0.169 HD
ATOM     14  O   UNL A   1      33.861  26.657  21.807  1.00  0.00    -0.274 OA
BRANCH  12  15
ATOM     15  C   UNL A   1      33.327  23.581  23.550  1.00  0.00     0.041 A 
ATOM     16  C   UNL A   1      34.100  21.555  24.619  1.00  0.00     0.041 A 
ATOM     17  C   UNL A   1      32.807  21.243  25.031  1.00  0.00     0.014 A 
ATOM     18  C   UNL A   1      34.361  22.700  23.862  1.00  0.00     0.040 A 
ATOM     19  C   UNL A   1      31.786  22.150  24.779  1.00  0.00     0.003 A 
ATOM     20  C   UNL A   1      32.060  23.332  24.080  1.00  0.00     0.026 A 
BRANCH  16  21
ATOM     21  C   UNL A   1      35.214  20.687  25.030  1.00  0.00     0.251 C 
ATOM     22  N   UNL A   1      35.019  19.330  24.994  1.00  0.00    -0.350 N 
ATOM     23  H   UNL A   1      35.736  18.780  25.386  1.00  0.00     0.163 HD
ATOM     24  O   UNL A   1      36.289  21.173  25.360  1.00  0.00    -0.269 OA
BRANCH  22  25
ATOM     25  C   UNL A   1      33.879  18.596  24.445  1.00  0.00     0.144 C 
BRANCH  25  26
ATOM     26  C   UNL A   1      34.270  17.274  23.771  1.00  0.00     0.181 C 
BRANCH  26  27
ATOM     27  O   UNL A   1      33.620  17.085  22.512  1.00  0.00    -0.383 OA
ATOM     28  C   UNL A   1      32.461  17.889  22.345  1.00  0.00     0.194 C 
ENDBRANCH  26  27
ENDBRANCH  25  26
ENDBRANCH  22  25
ENDBRANCH  16  21
ENDBRANCH  12  15
ENDBRANCH   6  11
ENDBRANCH   1   5
BRANCH   3  29
ATOM     29  C   UNL A   1      33.921  29.392  26.466  1.00  0.00     0.116 C 
BRANCH  29  30
ATOM     30  C   UNL A   1      32.963  29.986  27.493  1.00  0.00     0.023 C 
BRANCH  30  31
ATOM     31  C   UNL A   1      32.403  31.359  27.123  1.00  0.00     0.023 C 
BRANCH  31  32
ATOM     32  C   UNL A   1      33.394  32.513  27.229  1.00  0.00     0.116 C 
BRANCH  32  33
ATOM     33  N   UNL A   1      32.769  33.775  27.594  1.00  0.00    -0.352 N 
ATOM     34  C   UNL A   1      33.109  34.641  28.603  1.00  0.00     0.251 C 
ATOM     35  H   UNL A   1      31.999  34.045  27.043  1.00  0.00     0.163 HD
ATOM     36  O   UNL A   1      32.440  35.641  28.830  1.00  0.00    -0.269 OA
BRANCH  34  37
ATOM     37  C   UNL A   1      34.269  34.312  29.449  1.00  0.00     0.039 A 
ATOM     38  C   UNL A   1      34.047  33.640  30.651  1.00  0.00     0.014 A 
ATOM     39  C   UNL A   1      35.566  34.578  29.001  1.00  0.00     0.014 A 
ATOM     40  C   UNL A   1      35.136  33.149  31.368  1.00  0.00     0.010 A 
ATOM     41  C   UNL A   1      36.647  34.034  29.686  1.00  0.00     0.010 A 
ATOM     42  C   UNL A   1      36.437  33.300  30.864  1.00  0.00    -0.014 A 
BRANCH  42  43
ATOM     43  C   UNL A   1      37.591  32.652  31.529  1.00  0.00     0.031 A 
ATOM     44  C   UNL A   1      38.268  31.478  30.888  1.00  0.00     0.074 A 
ATOM     45  C   UNL A   1      37.968  33.074  32.752  1.00  0.00     0.049 A 
ATOM     46  N   UNL A   1      39.236  30.730  31.349  1.00  0.00    -0.248 NA
ATOM     47  C   UNL A   1      37.771  31.074  29.563  1.00  0.00     0.031 C 
ATOM     48  C   UNL A   1      37.346  34.170  33.497  1.00  0.00     0.029 A 
ATOM     49  N   UNL A   1      38.955  32.622  33.590  1.00  0.00    -0.354 N 
ATOM     50  C   UNL A   1      39.457  29.762  30.380  1.00  0.00     0.074 A 
ATOM     51  C   UNL A   1      38.492  29.988  29.325  1.00  0.00     0.031 C 
ATOM     52  C   UNL A   1      37.972  34.313  34.675  1.00  0.00     0.029 A 
ATOM     53  C   UNL A   1      39.018  33.299  34.783  1.00  0.00     0.049 A 
ATOM     54  H   UNL A   1      39.561  31.881  33.358  1.00  0.00     0.167 HD
ATOM     55  C   UNL A   1      40.394  28.785  30.367  1.00  0.00     0.037 A 
ATOM     56  C   UNL A   1      39.821  33.116  35.845  1.00  0.00     0.037 A 
ATOM     57  C   UNL A   1      41.366  28.583  31.407  1.00  0.00     0.049 A 
ATOM     58  C   UNL A   1      40.852  32.022  35.804  1.00  0.00     0.074 A 
ATOM     59  C   UNL A   1      42.412  27.677  31.447  1.00  0.00     0.029 A 
ATOM     60  N   UNL A   1      41.409  29.297  32.595  1.00  0.00    -0.354 N 
ATOM     61  N   UNL A   1      41.105  31.163  34.847  1.00  0.00    -0.248 NA
ATOM     62  C   UNL A   1      41.709  31.875  36.988  1.00  0.00     0.031 C 
ATOM     63  C   UNL A   1      43.063  27.817  32.677  1.00  0.00     0.029 A 
ATOM     64  C   UNL A   1      42.446  28.833  33.388  1.00  0.00     0.049 A 
ATOM     65  H   UNL A   1      40.793  30.025  32.839  1.00  0.00     0.167 HD
ATOM     66  C   UNL A   1      42.157  30.382  35.306  1.00  0.00     0.074 A 
ATOM     67  C   UNL A   1      42.507  30.883  36.619  1.00  0.00     0.031 C 
ATOM     68  C   UNL A   1      42.773  29.340  34.696  1.00  0.00     0.037 A 
BRANCH  55  69
ATOM     69  C   UNL A   1      40.414  27.864  29.184  1.00  0.00     0.064 A 
ATOM     70  C   UNL A   1      39.621  26.709  29.141  1.00  0.00     0.173 A 
ATOM     71  C   UNL A   1      41.208  28.159  28.066  1.00  0.00     0.173 A 
ATOM     72  F   UNL A   1      38.855  26.376  30.192  1.00  0.00    -0.203 F 
ATOM     73  C   UNL A   1      39.639  25.868  28.032  1.00  0.00     0.198 A 
ATOM     74  C   UNL A   1      41.205  27.331  26.948  1.00  0.00     0.198 A 
ATOM     75  F   UNL A   1      41.983  29.254  28.057  1.00  0.00    -0.203 F 
ATOM     76  F   UNL A   1      38.905  24.747  28.029  1.00  0.00    -0.200 F 
ATOM     77  C   UNL A   1      40.425  26.183  26.934  1.00  0.00     0.200 A 
ATOM     78  F   UNL A   1      41.958  27.641  25.883  1.00  0.00    -0.200 F 
ATOM     79  F   UNL A   1      40.437  25.377  25.862  1.00  0.00    -0.200 F 
ENDBRANCH  55  69
BRANCH  56  80
ATOM     80  C   UNL A   1      39.690  33.996  37.034  1.00  0.00     0.064 A 
ATOM     81  C   UNL A   1      38.882  33.624  38.116  1.00  0.00     0.173 A 
ATOM     82  C   UNL A   1      40.369  35.220  37.115  1.00  0.00     0.173 A 
ATOM     83  F   UNL A   1      38.196  32.471  38.074  1.00  0.00    -0.203 F 
ATOM     84  C   UNL A   1      38.745  34.450  39.229  1.00  0.00     0.198 A 
ATOM     85  C   UNL A   1      40.251  36.034  38.239  1.00  0.00     0.198 A 
ATOM     86  F   UNL A   1      41.158  35.619  36.106  1.00  0.00    -0.203 F 
ATOM     87  F   UNL A   1      37.936  34.088  40.235  1.00  0.00    -0.200 F 
ATOM     88  C   UNL A   1      39.433  35.652  39.294  1.00  0.00     0.200 A 
ATOM     89  F   UNL A   1      40.927  37.190  38.302  1.00  0.00    -0.200 F 
ATOM     90  F   UNL A   1      39.305  36.444  40.366  1.00  0.00    -0.200 F 
ENDBRANCH  56  80
BRANCH  68  91
ATOM     91  C   UNL A   1      43.894  28.680  35.441  1.00  0.00     0.064 A 
ATOM     92  C   UNL A   1      45.221  29.103  35.283  1.00  0.00     0.173 A 
ATOM     93  C   UNL A   1      43.634  27.643  36.349  1.00  0.00     0.173 A 
ATOM     94  F   UNL A   1      45.520  30.080  34.413  1.00  0.00    -0.203 F 
ATOM     95  C   UNL A   1      46.253  28.497  35.996  1.00  0.00     0.198 A 
ATOM     96  C   UNL A   1      44.664  27.057  37.078  1.00  0.00     0.198 A 
ATOM     97  F   UNL A   1      42.379  27.206  36.536  1.00  0.00    -0.203 F 
ATOM     98  F   UNL A   1      47.519  28.890  35.801  1.00  0.00    -0.200 F 
ATOM     99  C   UNL A   1      45.973  27.481  36.897  1.00  0.00     0.200 A 
ATOM    100  F   UNL A   1      44.391  26.082  37.954  1.00  0.00    -0.200 F 
ATOM    101  F   UNL A   1      46.966  26.903  37.586  1.00  0.00    -0.200 F 
ENDBRANCH  68  91
ENDBRANCH  42  43
ENDBRANCH  34  37
ENDBRANCH  32  33
ENDBRANCH  31  32
ENDBRANCH  30  31
ENDBRANCH  29  30
ENDBRANCH   3  29
TORSDOF 17
ENDMDL
