MODEL 1
REMARK VINA RESULT:     -10.7      0.000      0.000
REMARK SMILES C[C@H]1CCC[C@@H](S[C@H](F)C(=O)NCCCCNC(=O)c2ccc(-c3c4nc(c(-c5c(F)c(F)c(F)c(F)c5F)c5ccc([nH]5)c(-c5c(F)c(F)c(F)c(F)c5F)c5nc(c(-c6c(F)c(F)c(F)c(F)c6F)c6ccc3[nH]6)C=C5)C=C4)cc2)C1
REMARK SMILES IDX 14 1 13 2 12 3 10 4 11 5 8 7 9 8 7 9 6 10 1 11 2 12 3 13
REMARK SMILES IDX 83 14 4 15 5 16 15 17 16 18 17 19 18 20 19 22 20 23 21 24
REMARK SMILES IDX 82 25 22 26 81 27 23 28 24 29 25 30 75 31 26 32 80 33 74 34
REMARK SMILES IDX 76 35 27 36 79 37 73 38 72 39 28 41 60 42 40 43 59 44 41 45
REMARK SMILES IDX 44 46 58 47 77 48 42 49 43 50 57 52 78 53 45 54 29 55 30 56
REMARK SMILES IDX 38 57 31 58 32 59 36 60 39 61 33 62 34 63 37 64 35 65 61 66
REMARK SMILES IDX 62 67 70 68 63 69 64 70 68 71 71 72 65 73 66 74 69 75 67 76
REMARK SMILES IDX 46 77 47 78 55 79 48 80 49 81 53 82 56 83 50 84 51 85 54 86
REMARK SMILES IDX 52 87
REMARK H PARENT 12 6 17 21 76 40 44 51
REMARK Flexibility Score: inf
ROOT
ATOM      1  C   UNL A   1      41.593  19.935  25.994  1.00  0.00     0.023 C 
ENDROOT
BRANCH   1   2
ATOM      2  C   UNL A   1      43.050  19.498  26.066  1.00  0.00     0.116 C 
BRANCH   2   3
ATOM      3  N   UNL A   1      43.586  19.103  24.776  1.00  0.00    -0.353 N 
ATOM      4  C   UNL A   1      44.872  19.249  24.323  1.00  0.00     0.265 C 
ATOM      5  O   UNL A   1      45.168  18.722  23.244  1.00  0.00    -0.271 OA
ATOM      6  H   UNL A   1      42.950  18.682  24.152  1.00  0.00     0.163 HD
BRANCH   4   7
ATOM      7  C   UNL A   1      45.907  20.027  25.147  1.00  0.00     0.313 C 
ATOM      8  F   UNL A   1      47.125  19.406  25.155  1.00  0.00    -0.225 F 
BRANCH   7   9
ATOM      9  S   UNL A   1      46.122  21.709  24.452  1.00  0.00    -0.112 SA
BRANCH   9  10
ATOM     10  C   UNL A   1      44.836  22.652  25.336  1.00  0.00     0.050 C 
ATOM     11  C   UNL A   1      44.292  23.699  29.028  1.00  0.00     0.007 C 
ATOM     12  C   UNL A   1      43.979  23.524  27.544  1.00  0.00    -0.013 C 
ATOM     13  C   UNL A   1      43.710  24.882  26.880  1.00  0.00     0.003 C 
ATOM     14  C   UNL A   1      45.126  22.787  26.835  1.00  0.00     0.018 C 
ATOM     15  C   UNL A   1      43.431  24.738  25.385  1.00  0.00     0.001 C 
ATOM     16  C   UNL A   1      44.562  24.004  24.670  1.00  0.00     0.014 C 
ENDBRANCH   9  10
ENDBRANCH   7   9
ENDBRANCH   4   7
ENDBRANCH   2   3
ENDBRANCH   1   2
BRANCH   1  17
ATOM     17  C   UNL A   1      41.358  21.440  26.102  1.00  0.00     0.023 C 
BRANCH  17  18
ATOM     18  C   UNL A   1      40.146  21.859  26.929  1.00  0.00     0.116 C 
BRANCH  18  19
ATOM     19  N   UNL A   1      39.083  22.448  26.129  1.00  0.00    -0.352 N 
ATOM     20  C   UNL A   1      38.595  23.733  26.122  1.00  0.00     0.251 C 
ATOM     21  H   UNL A   1      38.648  21.834  25.496  1.00  0.00     0.163 HD
ATOM     22  O   UNL A   1      37.598  24.010  25.463  1.00  0.00    -0.269 OA
BRANCH  20  23
ATOM     23  C   UNL A   1      39.244  24.777  26.943  1.00  0.00     0.039 A 
ATOM     24  C   UNL A   1      40.070  25.711  26.310  1.00  0.00     0.014 A 
ATOM     25  C   UNL A   1      39.026  24.856  28.320  1.00  0.00     0.014 A 
ATOM     26  C   UNL A   1      40.596  26.778  27.040  1.00  0.00     0.010 A 
ATOM     27  C   UNL A   1      39.489  25.960  29.031  1.00  0.00     0.010 A 
ATOM     28  C   UNL A   1      40.262  26.942  28.395  1.00  0.00    -0.014 A 
BRANCH  28  29
ATOM     29  C   UNL A   1      40.664  28.162  29.142  1.00  0.00     0.031 A 
ATOM     30  C   UNL A   1      42.034  28.276  29.747  1.00  0.00     0.074 A 
ATOM     31  C   UNL A   1      39.758  29.141  29.340  1.00  0.00     0.049 A 
ATOM     32  N   UNL A   1      42.533  29.232  30.490  1.00  0.00    -0.248 NA
ATOM     33  C   UNL A   1      42.957  27.158  29.508  1.00  0.00     0.031 C 
ATOM     34  C   UNL A   1      38.378  29.126  28.848  1.00  0.00     0.029 A 
ATOM     35  N   UNL A   1      39.853  30.330  30.019  1.00  0.00    -0.354 N 
ATOM     36  C   UNL A   1      43.821  28.828  30.814  1.00  0.00     0.074 A 
ATOM     37  C   UNL A   1      44.011  27.517  30.228  1.00  0.00     0.031 C 
ATOM     38  C   UNL A   1      37.763  30.257  29.224  1.00  0.00     0.029 A 
ATOM     39  C   UNL A   1      38.688  31.059  30.019  1.00  0.00     0.049 A 
ATOM     40  H   UNL A   1      40.678  30.633  30.462  1.00  0.00     0.167 HD
ATOM     41  C   UNL A   1      44.764  29.497  31.518  1.00  0.00     0.037 A 
ATOM     42  C   UNL A   1      38.391  32.233  30.608  1.00  0.00     0.037 A 
ATOM     43  C   UNL A   1      44.576  30.807  32.086  1.00  0.00     0.049 A 
ATOM     44  C   UNL A   1      39.453  32.946  31.401  1.00  0.00     0.074 A 
ATOM     45  C   UNL A   1      45.495  31.598  32.753  1.00  0.00     0.029 A 
ATOM     46  N   UNL A   1      43.384  31.517  32.062  1.00  0.00    -0.354 N 
ATOM     47  N   UNL A   1      40.693  32.591  31.630  1.00  0.00    -0.248 NA
ATOM     48  C   UNL A   1      39.072  34.226  32.016  1.00  0.00     0.031 C 
ATOM     49  C   UNL A   1      44.847  32.759  33.183  1.00  0.00     0.029 A 
ATOM     50  C   UNL A   1      43.537  32.720  32.734  1.00  0.00     0.049 A 
ATOM     51  H   UNL A   1      42.554  31.211  31.632  1.00  0.00     0.167 HD
ATOM     52  C   UNL A   1      41.247  33.608  32.396  1.00  0.00     0.074 A 
ATOM     53  C   UNL A   1      40.213  34.606  32.573  1.00  0.00     0.031 C 
ATOM     54  C   UNL A   1      42.498  33.703  32.908  1.00  0.00     0.037 A 
BRANCH  41  55
ATOM     55  C   UNL A   1      46.092  28.825  31.720  1.00  0.00     0.064 A 
ATOM     56  C   UNL A   1      47.166  29.038  30.842  1.00  0.00     0.173 A 
ATOM     57  C   UNL A   1      46.310  27.998  32.833  1.00  0.00     0.173 A 
ATOM     58  F   UNL A   1      47.009  29.812  29.758  1.00  0.00    -0.203 F 
ATOM     59  C   UNL A   1      48.400  28.429  31.057  1.00  0.00     0.198 A 
ATOM     60  C   UNL A   1      47.553  27.415  33.062  1.00  0.00     0.198 A 
ATOM     61  F   UNL A   1      45.319  27.767  33.707  1.00  0.00    -0.203 F 
ATOM     62  F   UNL A   1      49.397  28.612  30.181  1.00  0.00    -0.200 F 
ATOM     63  C   UNL A   1      48.595  27.625  32.170  1.00  0.00     0.200 A 
ATOM     64  F   UNL A   1      47.744  26.651  34.146  1.00  0.00    -0.200 F 
ATOM     65  F   UNL A   1      49.786  27.049  32.382  1.00  0.00    -0.200 F 
ENDBRANCH  41  55
BRANCH  42  66
ATOM     66  C   UNL A   1      37.030  32.814  30.463  1.00  0.00     0.064 A 
ATOM     67  C   UNL A   1      36.671  33.532  29.314  1.00  0.00     0.173 A 
ATOM     68  C   UNL A   1      36.065  32.668  31.470  1.00  0.00     0.173 A 
ATOM     69  F   UNL A   1      37.566  33.717  28.334  1.00  0.00    -0.203 F 
ATOM     70  C   UNL A   1      35.405  34.101  29.188  1.00  0.00     0.198 A 
ATOM     71  C   UNL A   1      34.789  33.211  31.329  1.00  0.00     0.198 A 
ATOM     72  F   UNL A   1      36.356  31.987  32.588  1.00  0.00    -0.203 F 
ATOM     73  F   UNL A   1      35.104  34.824  28.100  1.00  0.00    -0.200 F 
ATOM     74  C   UNL A   1      34.464  33.935  30.192  1.00  0.00     0.200 A 
ATOM     75  F   UNL A   1      33.877  33.035  32.295  1.00  0.00    -0.200 F 
ATOM     76  F   UNL A   1      33.245  34.478  30.067  1.00  0.00    -0.200 F 
ENDBRANCH  42  66
BRANCH  54  77
ATOM     77  C   UNL A   1      42.825  34.940  33.694  1.00  0.00     0.064 A 
ATOM     78  C   UNL A   1      43.192  36.138  33.062  1.00  0.00     0.173 A 
ATOM     79  C   UNL A   1      42.735  34.939  35.095  1.00  0.00     0.173 A 
ATOM     80  F   UNL A   1      43.309  36.187  31.726  1.00  0.00    -0.203 F 
ATOM     81  C   UNL A   1      43.484  37.279  33.803  1.00  0.00     0.198 A 
ATOM     82  C   UNL A   1      42.997  36.092  35.832  1.00  0.00     0.198 A 
ATOM     83  F   UNL A   1      42.383  33.823  35.749  1.00  0.00    -0.203 F 
ATOM     84  F   UNL A   1      43.883  38.397  33.181  1.00  0.00    -0.200 F 
ATOM     85  C   UNL A   1      43.379  37.258  35.186  1.00  0.00     0.200 A 
ATOM     86  F   UNL A   1      42.880  36.072  37.166  1.00  0.00    -0.200 F 
ATOM     87  F   UNL A   1      43.653  38.360  35.898  1.00  0.00    -0.200 F 
ENDBRANCH  54  77
ENDBRANCH  28  29
ENDBRANCH  20  23
ENDBRANCH  18  19
ENDBRANCH  17  18
ENDBRANCH   1  17
TORSDOF 13
ENDMDL
MODEL 2
REMARK VINA RESULT:     -10.7      0.159      1.655
REMARK SMILES C[C@H]1CCC[C@@H](S[C@H](F)C(=O)NCCCCNC(=O)c2ccc(-c3c4nc(c(-c5c(F)c(F)c(F)c(F)c5F)c5ccc([nH]5)c(-c5c(F)c(F)c(F)c(F)c5F)c5nc(c(-c6c(F)c(F)c(F)c(F)c6F)c6ccc3[nH]6)C=C5)C=C4)cc2)C1
REMARK SMILES IDX 14 1 13 2 12 3 10 4 11 5 8 7 9 8 7 9 6 10 1 11 2 12 3 13
REMARK SMILES IDX 83 14 4 15 5 16 15 17 16 18 17 19 18 20 19 22 20 23 21 24
REMARK SMILES IDX 82 25 22 26 81 27 23 28 24 29 25 30 75 31 26 32 80 33 74 34
REMARK SMILES IDX 76 35 27 36 79 37 73 38 72 39 28 41 60 42 40 43 59 44 41 45
REMARK SMILES IDX 44 46 58 47 77 48 42 49 43 50 57 52 78 53 45 54 29 55 30 56
REMARK SMILES IDX 38 57 31 58 32 59 36 60 39 61 33 62 34 63 37 64 35 65 61 66
REMARK SMILES IDX 62 67 70 68 63 69 64 70 68 71 71 72 65 73 66 74 69 75 67 76
REMARK SMILES IDX 46 77 47 78 55 79 48 80 49 81 53 82 56 83 50 84 51 85 54 86
REMARK SMILES IDX 52 87
REMARK H PARENT 12 6 17 21 76 40 44 51
REMARK Flexibility Score: inf
ROOT
ATOM      1  C   UNL A   1      41.520  19.815  26.123  1.00  0.00     0.023 C 
ENDROOT
BRANCH   1   2
ATOM      2  C   UNL A   1      42.980  19.384  26.153  1.00  0.00     0.116 C 
BRANCH   2   3
ATOM      3  N   UNL A   1      43.506  19.079  24.835  1.00  0.00    -0.353 N 
ATOM      4  C   UNL A   1      44.788  19.260  24.382  1.00  0.00     0.265 C 
ATOM      5  O   UNL A   1      45.076  18.808  23.268  1.00  0.00    -0.271 OA
ATOM      6  H   UNL A   1      42.867  18.699  24.190  1.00  0.00     0.163 HD
BRANCH   4   7
ATOM      7  C   UNL A   1      45.827  19.985  25.248  1.00  0.00     0.313 C 
ATOM      8  F   UNL A   1      47.026  19.327  25.264  1.00  0.00    -0.225 F 
BRANCH   7   9
ATOM      9  S   UNL A   1      46.107  21.677  24.602  1.00  0.00    -0.112 SA
BRANCH   9  10
ATOM     10  C   UNL A   1      44.762  22.615  25.400  1.00  0.00     0.050 C 
ATOM     11  C   UNL A   1      43.969  23.652  29.050  1.00  0.00     0.007 C 
ATOM     12  C   UNL A   1      43.757  23.479  27.548  1.00  0.00    -0.013 C 
ATOM     13  C   UNL A   1      43.529  24.838  26.870  1.00  0.00     0.003 C 
ATOM     14  C   UNL A   1      44.951  22.747  26.915  1.00  0.00     0.018 C 
ATOM     15  C   UNL A   1      43.351  24.697  25.360  1.00  0.00     0.001 C 
ATOM     16  C   UNL A   1      44.530  23.967  24.720  1.00  0.00     0.014 C 
ENDBRANCH   9  10
ENDBRANCH   7   9
ENDBRANCH   4   7
ENDBRANCH   2   3
ENDBRANCH   1   2
BRANCH   1  17
ATOM     17  C   UNL A   1      41.287  21.325  26.107  1.00  0.00     0.023 C 
BRANCH  17  18
ATOM     18  C   UNL A   1      40.139  21.822  26.980  1.00  0.00     0.116 C 
BRANCH  18  19
ATOM     19  N   UNL A   1      39.043  22.395  26.212  1.00  0.00    -0.352 N 
ATOM     20  C   UNL A   1      38.539  23.674  26.216  1.00  0.00     0.251 C 
ATOM     21  H   UNL A   1      38.596  21.773  25.596  1.00  0.00     0.163 HD
ATOM     22  O   UNL A   1      37.517  23.936  25.588  1.00  0.00    -0.269 OA
BRANCH  20  23
ATOM     23  C   UNL A   1      39.201  24.729  27.011  1.00  0.00     0.039 A 
ATOM     24  C   UNL A   1      39.997  25.669  26.349  1.00  0.00     0.014 A 
ATOM     25  C   UNL A   1      39.025  24.813  28.394  1.00  0.00     0.014 A 
ATOM     26  C   UNL A   1      40.533  26.746  27.058  1.00  0.00     0.010 A 
ATOM     27  C   UNL A   1      39.496  25.926  29.086  1.00  0.00     0.010 A 
ATOM     28  C   UNL A   1      40.239  26.913  28.421  1.00  0.00    -0.014 A 
BRANCH  28  29
ATOM     29  C   UNL A   1      40.650  28.141  29.149  1.00  0.00     0.031 A 
ATOM     30  C   UNL A   1      42.031  28.267  29.725  1.00  0.00     0.074 A 
ATOM     31  C   UNL A   1      39.743  29.117  29.358  1.00  0.00     0.049 A 
ATOM     32  N   UNL A   1      42.540  29.231  30.450  1.00  0.00    -0.248 NA
ATOM     33  C   UNL A   1      42.955  27.151  29.477  1.00  0.00     0.031 C 
ATOM     34  C   UNL A   1      38.353  29.091  28.894  1.00  0.00     0.029 A 
ATOM     35  N   UNL A   1      39.846  30.313  30.024  1.00  0.00    -0.354 N 
ATOM     36  C   UNL A   1      43.836  28.836  30.751  1.00  0.00     0.074 A 
ATOM     37  C   UNL A   1      44.021  27.521  30.172  1.00  0.00     0.031 C 
ATOM     38  C   UNL A   1      37.741  30.223  29.273  1.00  0.00     0.029 A 
ATOM     39  C   UNL A   1      38.677  31.036  30.043  1.00  0.00     0.049 A 
ATOM     40  H   UNL A   1      40.678  30.623  30.448  1.00  0.00     0.167 HD
ATOM     41  C   UNL A   1      44.790  29.516  31.430  1.00  0.00     0.037 A 
ATOM     42  C   UNL A   1      38.387  32.213  30.627  1.00  0.00     0.037 A 
ATOM     43  C   UNL A   1      44.608  30.831  31.991  1.00  0.00     0.049 A 
ATOM     44  C   UNL A   1      39.460  32.938  31.392  1.00  0.00     0.074 A 
ATOM     45  C   UNL A   1      45.536  31.631  32.633  1.00  0.00     0.029 A 
ATOM     46  N   UNL A   1      43.412  31.534  31.985  1.00  0.00    -0.354 N 
ATOM     47  N   UNL A   1      40.707  32.591  31.599  1.00  0.00    -0.248 NA
ATOM     48  C   UNL A   1      39.086  34.221  32.004  1.00  0.00     0.031 C 
ATOM     49  C   UNL A   1      44.890  32.793  33.066  1.00  0.00     0.029 A 
ATOM     50  C   UNL A   1      43.572  32.744  32.643  1.00  0.00     0.049 A 
ATOM     51  H   UNL A   1      42.574  31.221  31.574  1.00  0.00     0.167 HD
ATOM     52  C   UNL A   1      41.271  33.617  32.345  1.00  0.00     0.074 A 
ATOM     53  C   UNL A   1      40.236  34.612  32.535  1.00  0.00     0.031 C 
ATOM     54  C   UNL A   1      42.532  33.723  32.831  1.00  0.00     0.037 A 
BRANCH  41  55
ATOM     55  C   UNL A   1      46.126  28.852  31.610  1.00  0.00     0.064 A 
ATOM     56  C   UNL A   1      46.405  28.051  32.728  1.00  0.00     0.173 A 
ATOM     57  C   UNL A   1      47.120  28.977  30.628  1.00  0.00     0.173 A 
ATOM     58  F   UNL A   1      45.492  27.906  33.699  1.00  0.00    -0.203 F 
ATOM     59  C   UNL A   1      47.639  27.420  32.867  1.00  0.00     0.198 A 
ATOM     60  C   UNL A   1      48.341  28.320  30.756  1.00  0.00     0.198 A 
ATOM     61  F   UNL A   1      46.903  29.726  29.536  1.00  0.00    -0.203 F 
ATOM     62  F   UNL A   1      47.898  26.696  33.965  1.00  0.00    -0.200 F 
ATOM     63  C   UNL A   1      48.603  27.549  31.879  1.00  0.00     0.200 A 
ATOM     64  F   UNL A   1      49.265  28.433  29.793  1.00  0.00    -0.200 F 
ATOM     65  F   UNL A   1      49.785  26.932  32.009  1.00  0.00    -0.200 F 
ENDBRANCH  41  55
BRANCH  42  66
ATOM     66  C   UNL A   1      37.020  32.786  30.505  1.00  0.00     0.064 A 
ATOM     67  C   UNL A   1      36.650  33.536  29.380  1.00  0.00     0.173 A 
ATOM     68  C   UNL A   1      36.060  32.601  31.511  1.00  0.00     0.173 A 
ATOM     69  F   UNL A   1      37.540  33.759  28.403  1.00  0.00    -0.203 F 
ATOM     70  C   UNL A   1      35.379  34.098  29.276  1.00  0.00     0.198 A 
ATOM     71  C   UNL A   1      34.779  33.137  31.391  1.00  0.00     0.198 A 
ATOM     72  F   UNL A   1      36.361  31.889  32.606  1.00  0.00    -0.203 F 
ATOM     73  F   UNL A   1      35.067  34.851  28.212  1.00  0.00    -0.200 F 
ATOM     74  C   UNL A   1      34.443  33.892  30.278  1.00  0.00     0.200 A 
ATOM     75  F   UNL A   1      33.873  32.923  32.354  1.00  0.00    -0.200 F 
ATOM     76  F   UNL A   1      33.219  34.428  30.174  1.00  0.00    -0.200 F 
ENDBRANCH  42  66
BRANCH  54  77
ATOM     77  C   UNL A   1      42.868  34.968  33.600  1.00  0.00     0.064 A 
ATOM     78  C   UNL A   1      42.798  35.008  35.001  1.00  0.00     0.173 A 
ATOM     79  C   UNL A   1      43.300  36.124  32.931  1.00  0.00     0.173 A 
ATOM     80  F   UNL A   1      42.375  33.935  35.686  1.00  0.00    -0.203 F 
ATOM     81  C   UNL A   1      43.122  36.168  35.701  1.00  0.00     0.198 A 
ATOM     82  C   UNL A   1      43.654  37.272  33.637  1.00  0.00     0.198 A 
ATOM     83  F   UNL A   1      43.391  36.138  31.593  1.00  0.00    -0.203 F 
ATOM     84  F   UNL A   1      42.998  36.198  37.035  1.00  0.00    -0.200 F 
ATOM     85  C   UNL A   1      43.556  37.295  35.020  1.00  0.00     0.200 A 
ATOM     86  F   UNL A   1      44.087  38.354  32.978  1.00  0.00    -0.200 F 
ATOM     87  F   UNL A   1      43.875  38.407  35.696  1.00  0.00    -0.200 F 
ENDBRANCH  54  77
ENDBRANCH  28  29
ENDBRANCH  20  23
ENDBRANCH  18  19
ENDBRANCH  17  18
ENDBRANCH   1  17
TORSDOF 13
ENDMDL
MODEL 3
REMARK VINA RESULT:     -10.7      5.447     10.219
REMARK SMILES C[C@H]1CCC[C@@H](S[C@H](F)C(=O)NCCCCNC(=O)c2ccc(-c3c4nc(c(-c5c(F)c(F)c(F)c(F)c5F)c5ccc([nH]5)c(-c5c(F)c(F)c(F)c(F)c5F)c5nc(c(-c6c(F)c(F)c(F)c(F)c6F)c6ccc3[nH]6)C=C5)C=C4)cc2)C1
REMARK SMILES IDX 14 1 13 2 12 3 10 4 11 5 8 7 9 8 7 9 6 10 1 11 2 12 3 13
REMARK SMILES IDX 83 14 4 15 5 16 15 17 16 18 17 19 18 20 19 22 20 23 21 24
REMARK SMILES IDX 82 25 22 26 81 27 23 28 24 29 25 30 75 31 26 32 80 33 74 34
REMARK SMILES IDX 76 35 27 36 79 37 73 38 72 39 28 41 60 42 40 43 59 44 41 45
REMARK SMILES IDX 44 46 58 47 77 48 42 49 43 50 57 52 78 53 45 54 29 55 30 56
REMARK SMILES IDX 38 57 31 58 32 59 36 60 39 61 33 62 34 63 37 64 35 65 61 66
REMARK SMILES IDX 62 67 70 68 63 69 64 70 68 71 71 72 65 73 66 74 69 75 67 76
REMARK SMILES IDX 46 77 47 78 55 79 48 80 49 81 53 82 56 83 50 84 51 85 54 86
REMARK SMILES IDX 52 87
REMARK H PARENT 12 6 17 21 76 40 44 51
REMARK Flexibility Score: inf
ROOT
ATOM      1  C   UNL A   1      31.950  30.467  26.206  1.00  0.00     0.023 C 
ENDROOT
BRANCH   1   2
ATOM      2  C   UNL A   1      32.443  29.458  27.236  1.00  0.00     0.116 C 
BRANCH   2   3
ATOM      3  N   UNL A   1      31.582  28.294  27.342  1.00  0.00    -0.353 N 
ATOM      4  C   UNL A   1      31.570  27.185  26.535  1.00  0.00     0.265 C 
ATOM      5  O   UNL A   1      30.856  26.234  26.871  1.00  0.00    -0.271 OA
ATOM      6  H   UNL A   1      30.929  28.303  28.079  1.00  0.00     0.163 HD
BRANCH   4   7
ATOM      7  C   UNL A   1      32.435  27.131  25.268  1.00  0.00     0.313 C 
ATOM      8  F   UNL A   1      33.682  26.632  25.524  1.00  0.00    -0.225 F 
BRANCH   7   9
ATOM      9  S   UNL A   1      31.635  26.068  24.009  1.00  0.00    -0.112 SA
BRANCH   9  10
ATOM     10  C   UNL A   1      30.598  27.264  23.106  1.00  0.00     0.050 C 
ATOM     11  C   UNL A   1      26.929  28.471  23.433  1.00  0.00     0.007 C 
ATOM     12  C   UNL A   1      28.327  28.332  22.836  1.00  0.00    -0.013 C 
ATOM     13  C   UNL A   1      29.008  29.703  22.720  1.00  0.00     0.003 C 
ATOM     14  C   UNL A   1      29.180  27.368  23.676  1.00  0.00     0.018 C 
ATOM     15  C   UNL A   1      30.424  29.588  22.158  1.00  0.00     0.001 C 
ATOM     16  C   UNL A   1      31.281  28.630  22.983  1.00  0.00     0.014 C 
ENDBRANCH   9  10
ENDBRANCH   7   9
ENDBRANCH   4   7
ENDBRANCH   2   3
ENDBRANCH   1   2
BRANCH   1  17
ATOM     17  C   UNL A   1      31.596  31.845  26.763  1.00  0.00     0.023 C 
BRANCH  17  18
ATOM     18  C   UNL A   1      32.760  32.635  27.354  1.00  0.00     0.116 C 
BRANCH  18  19
ATOM     19  N   UNL A   1      32.425  34.023  27.637  1.00  0.00    -0.352 N 
ATOM     20  C   UNL A   1      32.984  34.897  28.536  1.00  0.00     0.251 C 
ATOM     21  H   UNL A   1      31.686  34.390  27.101  1.00  0.00     0.163 HD
ATOM     22  O   UNL A   1      32.475  35.999  28.724  1.00  0.00    -0.269 OA
BRANCH  20  23
ATOM     23  C   UNL A   1      34.177  34.500  29.315  1.00  0.00     0.039 A 
ATOM     24  C   UNL A   1      33.999  34.015  30.614  1.00  0.00     0.014 A 
ATOM     25  C   UNL A   1      35.459  34.579  28.766  1.00  0.00     0.014 A 
ATOM     26  C   UNL A   1      35.094  33.519  31.324  1.00  0.00     0.010 A 
ATOM     27  C   UNL A   1      36.537  34.016  29.445  1.00  0.00     0.010 A 
ATOM     28  C   UNL A   1      36.363  33.464  30.722  1.00  0.00    -0.014 A 
BRANCH  28  29
ATOM     29  C   UNL A   1      37.499  32.779  31.391  1.00  0.00     0.031 A 
ATOM     30  C   UNL A   1      38.172  31.601  30.747  1.00  0.00     0.074 A 
ATOM     31  C   UNL A   1      37.874  33.177  32.624  1.00  0.00     0.049 A 
ATOM     32  N   UNL A   1      39.128  30.837  31.214  1.00  0.00    -0.248 NA
ATOM     33  C   UNL A   1      37.691  31.212  29.413  1.00  0.00     0.031 C 
ATOM     34  C   UNL A   1      37.264  34.274  33.378  1.00  0.00     0.029 A 
ATOM     35  N   UNL A   1      38.845  32.696  33.467  1.00  0.00    -0.354 N 
ATOM     36  C   UNL A   1      39.357  29.877  30.239  1.00  0.00     0.074 A 
ATOM     37  C   UNL A   1      38.405  30.122  29.175  1.00  0.00     0.031 C 
ATOM     38  C   UNL A   1      37.886  34.396  34.561  1.00  0.00     0.029 A 
ATOM     39  C   UNL A   1      38.908  33.359  34.669  1.00  0.00     0.049 A 
ATOM     40  H   UNL A   1      39.440  31.949  33.232  1.00  0.00     0.167 HD
ATOM     41  C   UNL A   1      40.287  28.893  30.225  1.00  0.00     0.037 A 
ATOM     42  C   UNL A   1      39.689  33.147  35.745  1.00  0.00     0.037 A 
ATOM     43  C   UNL A   1      41.242  28.662  31.279  1.00  0.00     0.049 A 
ATOM     44  C   UNL A   1      40.701  32.034  35.709  1.00  0.00     0.074 A 
ATOM     45  C   UNL A   1      42.270  27.737  31.323  1.00  0.00     0.029 A 
ATOM     46  N   UNL A   1      41.279  29.357  32.479  1.00  0.00    -0.354 N 
ATOM     47  N   UNL A   1      40.963  31.184  34.747  1.00  0.00    -0.248 NA
ATOM     48  C   UNL A   1      41.529  31.854  36.910  1.00  0.00     0.031 C 
ATOM     49  C   UNL A   1      42.894  27.833  32.571  1.00  0.00     0.029 A 
ATOM     50  C   UNL A   1      42.291  28.857  33.284  1.00  0.00     0.049 A 
ATOM     51  H   UNL A   1      40.676  30.096  32.723  1.00  0.00     0.167 HD
ATOM     52  C   UNL A   1      41.995  30.382  35.215  1.00  0.00     0.074 A 
ATOM     53  C   UNL A   1      42.328  30.863  36.540  1.00  0.00     0.031 C 
ATOM     54  C   UNL A   1      42.609  29.340  34.604  1.00  0.00     0.037 A 
BRANCH  41  55
ATOM     55  C   UNL A   1      40.322  27.983  29.030  1.00  0.00     0.064 A 
ATOM     56  C   UNL A   1      39.589  26.787  28.993  1.00  0.00     0.173 A 
ATOM     57  C   UNL A   1      41.057  28.336  27.888  1.00  0.00     0.173 A 
ATOM     58  F   UNL A   1      38.877  26.398  30.062  1.00  0.00    -0.203 F 
ATOM     59  C   UNL A   1      39.610  25.967  27.867  1.00  0.00     0.198 A 
ATOM     60  C   UNL A   1      41.052  27.530  26.753  1.00  0.00     0.198 A 
ATOM     61  F   UNL A   1      41.770  29.473  27.867  1.00  0.00    -0.203 F 
ATOM     62  F   UNL A   1      38.938  24.808  27.873  1.00  0.00    -0.200 F 
ATOM     63  C   UNL A   1      40.335  26.342  26.746  1.00  0.00     0.200 A 
ATOM     64  F   UNL A   1      41.740  27.901  25.665  1.00  0.00    -0.200 F 
ATOM     65  F   UNL A   1      40.346  25.558  25.660  1.00  0.00    -0.200 F 
ENDBRANCH  41  55
BRANCH  42  66
ATOM     66  C   UNL A   1      39.551  34.012  36.946  1.00  0.00     0.064 A 
ATOM     67  C   UNL A   1      38.771  33.609  38.039  1.00  0.00     0.173 A 
ATOM     68  C   UNL A   1      40.189  35.259  37.024  1.00  0.00     0.173 A 
ATOM     69  F   UNL A   1      38.123  32.436  38.002  1.00  0.00    -0.203 F 
ATOM     70  C   UNL A   1      38.615  34.430  39.154  1.00  0.00     0.198 A 
ATOM     71  C   UNL A   1      40.059  36.065  38.154  1.00  0.00     0.198 A 
ATOM     72  F   UNL A   1      40.950  35.690  36.008  1.00  0.00    -0.203 F 
ATOM     73  F   UNL A   1      37.825  34.041  40.164  1.00  0.00    -0.200 F 
ATOM     74  C   UNL A   1      39.266  35.654  39.213  1.00  0.00     0.200 A 
ATOM     75  F   UNL A   1      40.700  37.239  38.213  1.00  0.00    -0.200 F 
ATOM     76  F   UNL A   1      39.121  36.440  40.289  1.00  0.00    -0.200 F 
ENDBRANCH  42  66
BRANCH  54  77
ATOM     77  C   UNL A   1      43.717  28.660  35.354  1.00  0.00     0.064 A 
ATOM     78  C   UNL A   1      45.050  29.084  35.240  1.00  0.00     0.173 A 
ATOM     79  C   UNL A   1      43.440  27.594  36.224  1.00  0.00     0.173 A 
ATOM     80  F   UNL A   1      45.370  30.088  34.409  1.00  0.00    -0.203 F 
ATOM     81  C   UNL A   1      46.067  28.450  35.949  1.00  0.00     0.198 A 
ATOM     82  C   UNL A   1      44.455  26.982  36.956  1.00  0.00     0.198 A 
ATOM     83  F   UNL A   1      42.183  27.153  36.374  1.00  0.00    -0.203 F 
ATOM     84  F   UNL A   1      47.338  28.838  35.786  1.00  0.00    -0.200 F 
ATOM     85  C   UNL A   1      45.768  27.405  36.812  1.00  0.00     0.200 A 
ATOM     86  F   UNL A   1      44.161  25.983  37.799  1.00  0.00    -0.200 F 
ATOM     87  F   UNL A   1      46.746  26.801  37.498  1.00  0.00    -0.200 F 
ENDBRANCH  54  77
ENDBRANCH  28  29
ENDBRANCH  20  23
ENDBRANCH  18  19
ENDBRANCH  17  18
ENDBRANCH   1  17
TORSDOF 13
ENDMDL
