MODEL 1
REMARK VINA RESULT:     -11.8      0.000      0.000
REMARK SMILES CCc1ccc(S(=O)(=O)Cc2noc(C(=O)NCCCCNC(=O)c3ccc(-c4c5nc(c(-c6c(F)c(F)c(F)c(F)c6F)c6ccc([nH]6)c(-c6c(F)c(F)c(F)c(F)c6F)c6nc(c(-c7c(F)c(F)c(F)c(F)c7F)c7ccc4[nH]7)C=C6)C=C5)cc3)n2)cc1
REMARK SMILES IDX 18 1 17 2 15 3 16 4 14 6 11 7 12 8 88 9 13 10 10 11 7 12
REMARK SMILES IDX 8 13 9 14 6 15 3 16 4 17 90 18 5 19 89 20 2 21 1 22 19 23
REMARK SMILES IDX 20 24 21 25 22 26 23 27 24 29 25 30 26 31 87 32 27 33 86 34
REMARK SMILES IDX 28 35 29 36 30 37 80 38 31 39 85 40 79 41 81 42 32 43 84 44
REMARK SMILES IDX 78 45 77 46 33 48 65 49 45 50 64 51 46 52 49 53 63 54 82 55
REMARK SMILES IDX 47 56 48 57 62 59 83 60 50 61 34 62 35 63 43 64 36 65 37 66
REMARK SMILES IDX 41 67 44 68 38 69 39 70 42 71 40 72 66 73 67 74 75 75 68 76
REMARK SMILES IDX 69 77 73 78 76 79 70 80 71 81 74 82 72 83 51 84 52 85 60 86
REMARK SMILES IDX 53 87 54 88 58 89 61 90 55 91 56 92 59 93 57 94
REMARK H PARENT 17 5 22 28 81 47 49 58
REMARK Flexibility Score: inf
ROOT
ATOM      1  C   UNL A   1      35.391  19.729  24.824  1.00  0.00     0.116 C 
ENDROOT
BRANCH   1   2
ATOM      2  N   UNL A   1      34.247  18.938  25.246  1.00  0.00    -0.348 N 
ATOM      3  C   UNL A   1      32.901  19.129  24.994  1.00  0.00     0.309 C 
ATOM      4  O   UNL A   1      32.126  18.326  25.525  1.00  0.00    -0.264 OA
ATOM      5  H   UNL A   1      34.462  18.148  25.793  1.00  0.00     0.163 HD
BRANCH   3   6
ATOM      6  C   UNL A   1      32.465  20.213  24.136  1.00  0.00     0.315 A 
ATOM      7  C   UNL A   1      31.873  22.045  23.283  1.00  0.00     0.187 A 
ATOM      8  N   UNL A   1      31.976  21.229  22.228  1.00  0.00    -0.061 NA
ATOM      9  N   UNL A   1      32.178  21.453  24.477  1.00  0.00    -0.186 NA
ATOM     10  O   UNL A   1      32.359  20.005  22.790  1.00  0.00    -0.329 OA
BRANCH   7  11
ATOM     11  C   UNL A   1      31.619  23.496  23.245  1.00  0.00     0.223 C 
BRANCH  11  12
ATOM     12  S   UNL A   1      32.951  24.527  22.742  1.00  0.00     0.185 S 
ATOM     13  O   UNL A   1      32.633  25.872  23.193  1.00  0.00    -0.223 OA
ATOM     14  O   UNL A   1      33.205  24.280  21.333  1.00  0.00    -0.223 OA
BRANCH  12  15
ATOM     15  C   UNL A   1      34.405  24.058  23.644  1.00  0.00     0.067 A 
ATOM     16  C   UNL A   1      36.723  23.484  25.103  1.00  0.00    -0.048 A 
ATOM     17  C   UNL A   1      35.675  24.205  25.690  1.00  0.00     0.005 A 
ATOM     18  C   UNL A   1      36.578  23.023  23.787  1.00  0.00     0.005 A 
ATOM     19  C   UNL A   1      34.521  24.500  24.963  1.00  0.00     0.020 A 
ATOM     20  C   UNL A   1      35.419  23.298  23.060  1.00  0.00     0.020 A 
BRANCH  16  21
ATOM     21  C   UNL A   1      37.975  23.185  25.889  1.00  0.00     0.032 C 
ATOM     22  C   UNL A   1      38.647  24.433  26.447  1.00  0.00     0.009 C 
ENDBRANCH  16  21
ENDBRANCH  12  15
ENDBRANCH  11  12
ENDBRANCH   7  11
ENDBRANCH   3   6
ENDBRANCH   1   2
BRANCH   1  23
ATOM     23  C   UNL A   1      36.700  18.964  25.001  1.00  0.00     0.023 C 
BRANCH  23  24
ATOM     24  C   UNL A   1      37.944  19.792  24.678  1.00  0.00     0.023 C 
BRANCH  24  25
ATOM     25  C   UNL A   1      38.877  20.027  25.860  1.00  0.00     0.116 C 
BRANCH  25  26
ATOM     26  N   UNL A   1      40.038  19.147  25.862  1.00  0.00    -0.352 N 
ATOM     27  C   UNL A   1      41.347  19.477  26.124  1.00  0.00     0.251 C 
ATOM     28  H   UNL A   1      39.864  18.201  25.649  1.00  0.00     0.163 HD
ATOM     29  O   UNL A   1      42.249  18.663  25.976  1.00  0.00    -0.269 OA
BRANCH  27  30
ATOM     30  C   UNL A   1      41.646  20.857  26.553  1.00  0.00     0.039 A 
ATOM     31  C   UNL A   1      42.001  21.094  27.882  1.00  0.00     0.014 A 
ATOM     32  C   UNL A   1      41.672  21.887  25.611  1.00  0.00     0.014 A 
ATOM     33  C   UNL A   1      42.462  22.359  28.251  1.00  0.00     0.010 A 
ATOM     34  C   UNL A   1      42.209  23.117  25.961  1.00  0.00     0.010 A 
ATOM     35  C   UNL A   1      42.613  23.366  27.283  1.00  0.00    -0.014 A 
BRANCH  35  36
ATOM     36  C   UNL A   1      43.183  24.696  27.616  1.00  0.00     0.031 A 
ATOM     37  C   UNL A   1      42.292  25.756  28.201  1.00  0.00     0.074 A 
ATOM     38  C   UNL A   1      44.463  24.981  27.306  1.00  0.00     0.049 A 
ATOM     39  N   UNL A   1      42.541  27.020  28.421  1.00  0.00    -0.248 NA
ATOM     40  C   UNL A   1      40.924  25.341  28.554  1.00  0.00     0.031 C 
ATOM     41  C   UNL A   1      45.419  24.047  26.707  1.00  0.00     0.029 A 
ATOM     42  N   UNL A   1      45.175  26.148  27.432  1.00  0.00    -0.354 N 
ATOM     43  C   UNL A   1      41.360  27.554  28.917  1.00  0.00     0.074 A 
ATOM     44  C   UNL A   1      40.377  26.493  28.911  1.00  0.00     0.031 C 
ATOM     45  C   UNL A   1      46.594  24.674  26.533  1.00  0.00     0.029 A 
ATOM     46  C   UNL A   1      46.462  26.065  26.956  1.00  0.00     0.049 A 
ATOM     47  H   UNL A   1      44.799  26.968  27.827  1.00  0.00     0.167 HD
ATOM     48  C   UNL A   1      41.123  28.811  29.359  1.00  0.00     0.037 A 
ATOM     49  C   UNL A   1      47.417  27.008  26.854  1.00  0.00     0.037 A 
ATOM     50  C   UNL A   1      42.111  29.856  29.384  1.00  0.00     0.049 A 
ATOM     51  C   UNL A   1      47.116  28.410  27.322  1.00  0.00     0.074 A 
ATOM     52  C   UNL A   1      41.985  31.149  29.859  1.00  0.00     0.029 A 
ATOM     53  N   UNL A   1      43.408  29.727  28.910  1.00  0.00    -0.354 N 
ATOM     54  N   UNL A   1      46.013  28.891  27.841  1.00  0.00    -0.248 NA
ATOM     55  C   UNL A   1      48.195  29.400  27.188  1.00  0.00     0.031 C 
ATOM     56  C   UNL A   1      43.188  31.820  29.621  1.00  0.00     0.029 A 
ATOM     57  C   UNL A   1      44.086  30.926  29.060  1.00  0.00     0.049 A 
ATOM     58  H   UNL A   1      43.791  28.905  28.526  1.00  0.00     0.167 HD
ATOM     59  C   UNL A   1      46.276  30.222  28.134  1.00  0.00     0.074 A 
ATOM     60  C   UNL A   1      47.646  30.474  27.739  1.00  0.00     0.031 C 
ATOM     61  C   UNL A   1      45.459  31.153  28.685  1.00  0.00     0.037 A 
BRANCH  48  62
ATOM     62  C   UNL A   1      39.740  29.127  29.853  1.00  0.00     0.064 A 
ATOM     63  C   UNL A   1      38.730  29.569  28.985  1.00  0.00     0.173 A 
ATOM     64  C   UNL A   1      39.410  28.949  31.206  1.00  0.00     0.173 A 
ATOM     65  F   UNL A   1      38.996  29.767  27.685  1.00  0.00    -0.203 F 
ATOM     66  C   UNL A   1      37.451  29.852  29.458  1.00  0.00     0.198 A 
ATOM     67  C   UNL A   1      38.121  29.199  31.668  1.00  0.00     0.198 A 
ATOM     68  F   UNL A   1      40.336  28.524  32.079  1.00  0.00    -0.203 F 
ATOM     69  F   UNL A   1      36.519  30.327  28.620  1.00  0.00    -0.200 F 
ATOM     70  C   UNL A   1      37.146  29.658  30.796  1.00  0.00     0.200 A 
ATOM     71  F   UNL A   1      37.823  28.997  32.959  1.00  0.00    -0.200 F 
ATOM     72  F   UNL A   1      35.912  29.922  31.248  1.00  0.00    -0.200 F 
ENDBRANCH  48  62
BRANCH  49  73
ATOM     73  C   UNL A   1      48.753  26.666  26.297  1.00  0.00     0.064 A 
ATOM     74  C   UNL A   1      49.755  26.123  27.113  1.00  0.00     0.173 A 
ATOM     75  C   UNL A   1      49.064  26.892  24.947  1.00  0.00     0.173 A 
ATOM     76  F   UNL A   1      49.515  25.907  28.414  1.00  0.00    -0.203 F 
ATOM     77  C   UNL A   1      51.025  25.846  26.609  1.00  0.00     0.198 A 
ATOM     78  C   UNL A   1      50.324  26.583  24.437  1.00  0.00     0.198 A 
ATOM     79  F   UNL A   1      48.141  27.405  24.121  1.00  0.00    -0.203 F 
ATOM     80  F   UNL A   1      51.981  25.381  27.425  1.00  0.00    -0.200 F 
ATOM     81  C   UNL A   1      51.307  26.072  25.271  1.00  0.00     0.200 A 
ATOM     82  F   UNL A   1      50.586  26.788  23.139  1.00  0.00    -0.200 F 
ATOM     83  F   UNL A   1      52.527  25.805  24.785  1.00  0.00    -0.200 F 
ENDBRANCH  49  73
BRANCH  61  84
ATOM     84  C   UNL A   1      46.030  32.515  28.955  1.00  0.00     0.064 A 
ATOM     85  C   UNL A   1      46.710  32.810  30.144  1.00  0.00     0.173 A 
ATOM     86  C   UNL A   1      45.959  33.514  27.972  1.00  0.00     0.173 A 
ATOM     87  F   UNL A   1      46.793  31.894  31.122  1.00  0.00    -0.203 F 
ATOM     88  C   UNL A   1      47.286  34.062  30.346  1.00  0.00     0.198 A 
ATOM     89  C   UNL A   1      46.565  34.752  28.163  1.00  0.00     0.198 A 
ATOM     90  F   UNL A   1      45.326  33.279  26.812  1.00  0.00    -0.203 F 
ATOM     91  F   UNL A   1      47.900  34.337  31.505  1.00  0.00    -0.200 F 
ATOM     92  C   UNL A   1      47.223  35.027  29.351  1.00  0.00     0.200 A 
ATOM     93  F   UNL A   1      46.518  35.676  27.192  1.00  0.00    -0.200 F 
ATOM     94  F   UNL A   1      47.797  36.223  29.538  1.00  0.00    -0.200 F 
ENDBRANCH  61  84
ENDBRANCH  35  36
ENDBRANCH  27  30
ENDBRANCH  25  26
ENDBRANCH  24  25
ENDBRANCH  23  24
ENDBRANCH   1  23
TORSDOF 15
ENDMDL
MODEL 2
REMARK VINA RESULT:     -11.8      5.694     10.970
REMARK SMILES CCc1ccc(S(=O)(=O)Cc2noc(C(=O)NCCCCNC(=O)c3ccc(-c4c5nc(c(-c6c(F)c(F)c(F)c(F)c6F)c6ccc([nH]6)c(-c6c(F)c(F)c(F)c(F)c6F)c6nc(c(-c7c(F)c(F)c(F)c(F)c7F)c7ccc4[nH]7)C=C6)C=C5)cc3)n2)cc1
REMARK SMILES IDX 18 1 17 2 15 3 16 4 14 6 11 7 12 8 88 9 13 10 10 11 7 12
REMARK SMILES IDX 8 13 9 14 6 15 3 16 4 17 90 18 5 19 89 20 2 21 1 22 19 23
REMARK SMILES IDX 20 24 21 25 22 26 23 27 24 29 25 30 26 31 87 32 27 33 86 34
REMARK SMILES IDX 28 35 29 36 30 37 80 38 31 39 85 40 79 41 81 42 32 43 84 44
REMARK SMILES IDX 78 45 77 46 33 48 65 49 45 50 64 51 46 52 49 53 63 54 82 55
REMARK SMILES IDX 47 56 48 57 62 59 83 60 50 61 34 62 35 63 43 64 36 65 37 66
REMARK SMILES IDX 41 67 44 68 38 69 39 70 42 71 40 72 66 73 67 74 75 75 68 76
REMARK SMILES IDX 69 77 73 78 76 79 70 80 71 81 74 82 72 83 51 84 52 85 60 86
REMARK SMILES IDX 53 87 54 88 58 89 61 90 55 91 56 92 59 93 57 94
REMARK H PARENT 17 5 22 28 81 47 49 58
REMARK Flexibility Score: inf
ROOT
ATOM      1  C   UNL A   1      30.569  30.510  24.664  1.00  0.00     0.116 C 
ENDROOT
BRANCH   1   2
ATOM      2  N   UNL A   1      30.079  30.586  23.299  1.00  0.00    -0.348 N 
ATOM      3  C   UNL A   1      29.598  29.583  22.477  1.00  0.00     0.309 C 
ATOM      4  O   UNL A   1      29.294  29.918  21.327  1.00  0.00    -0.264 OA
ATOM      5  H   UNL A   1      30.092  31.485  22.897  1.00  0.00     0.163 HD
BRANCH   3   6
ATOM      6  C   UNL A   1      29.458  28.231  22.979  1.00  0.00     0.315 A 
ATOM      7  C   UNL A   1      29.720  26.251  23.646  1.00  0.00     0.187 A 
ATOM      8  N   UNL A   1      28.441  26.510  23.938  1.00  0.00    -0.061 NA
ATOM      9  N   UNL A   1      30.381  27.296  23.062  1.00  0.00    -0.186 NA
ATOM     10  O   UNL A   1      28.257  27.823  23.487  1.00  0.00    -0.329 OA
BRANCH   7  11
ATOM     11  C   UNL A   1      30.476  25.043  24.023  1.00  0.00     0.223 C 
BRANCH  11  12
ATOM     12  S   UNL A   1      30.852  24.836  25.727  1.00  0.00     0.185 S 
ATOM     13  O   UNL A   1      31.735  23.685  25.825  1.00  0.00    -0.223 OA
ATOM     14  O   UNL A   1      29.604  24.853  26.470  1.00  0.00    -0.223 OA
BRANCH  12  15
ATOM     15  C   UNL A   1      31.821  26.221  26.267  1.00  0.00     0.067 A 
ATOM     16  C   UNL A   1      33.238  28.508  27.038  1.00  0.00    -0.048 A 
ATOM     17  C   UNL A   1      31.876  28.381  27.342  1.00  0.00     0.005 A 
ATOM     18  C   UNL A   1      33.888  27.458  26.375  1.00  0.00     0.005 A 
ATOM     19  C   UNL A   1      31.165  27.245  26.951  1.00  0.00     0.020 A 
ATOM     20  C   UNL A   1      33.188  26.311  25.998  1.00  0.00     0.020 A 
BRANCH  16  21
ATOM     21  C   UNL A   1      33.996  29.746  27.446  1.00  0.00     0.032 C 
ATOM     22  C   UNL A   1      35.498  29.635  27.215  1.00  0.00     0.009 C 
ENDBRANCH  16  21
ENDBRANCH  12  15
ENDBRANCH  11  12
ENDBRANCH   7  11
ENDBRANCH   3   6
ENDBRANCH   1   2
BRANCH   1  23
ATOM     23  C   UNL A   1      30.492  31.864  25.366  1.00  0.00     0.023 C 
BRANCH  23  24
ATOM     24  C   UNL A   1      31.127  31.872  26.757  1.00  0.00     0.023 C 
BRANCH  24  25
ATOM     25  C   UNL A   1      32.431  32.656  26.856  1.00  0.00     0.116 C 
BRANCH  25  26
ATOM     26  N   UNL A   1      32.267  33.975  27.453  1.00  0.00    -0.352 N 
ATOM     27  C   UNL A   1      33.030  34.556  28.438  1.00  0.00     0.251 C 
ATOM     28  H   UNL A   1      31.519  34.515  27.108  1.00  0.00     0.163 HD
ATOM     29  O   UNL A   1      32.712  35.629  28.936  1.00  0.00    -0.269 OA
BRANCH  27  30
ATOM     30  C   UNL A   1      34.226  33.835  28.912  1.00  0.00     0.039 A 
ATOM     31  C   UNL A   1      35.477  34.178  28.396  1.00  0.00     0.014 A 
ATOM     32  C   UNL A   1      34.108  32.895  29.938  1.00  0.00     0.014 A 
ATOM     33  C   UNL A   1      36.626  33.631  28.969  1.00  0.00     0.010 A 
ATOM     34  C   UNL A   1      35.254  32.419  30.561  1.00  0.00     0.010 A 
ATOM     35  C   UNL A   1      36.525  32.785  30.086  1.00  0.00    -0.014 A 
BRANCH  35  36
ATOM     36  C   UNL A   1      37.725  32.254  30.780  1.00  0.00     0.031 A 
ATOM     37  C   UNL A   1      38.529  31.161  30.133  1.00  0.00     0.074 A 
ATOM     38  C   UNL A   1      38.033  32.680  32.021  1.00  0.00     0.049 A 
ATOM     39  N   UNL A   1      39.512  30.452  30.625  1.00  0.00    -0.248 NA
ATOM     40  C   UNL A   1      38.152  30.795  28.758  1.00  0.00     0.031 C 
ATOM     41  C   UNL A   1      37.311  33.712  32.767  1.00  0.00     0.029 A 
ATOM     42  N   UNL A   1      39.022  32.279  32.883  1.00  0.00    -0.354 N 
ATOM     43  C   UNL A   1      39.854  29.546  29.630  1.00  0.00     0.074 A 
ATOM     44  C   UNL A   1      38.938  29.755  28.530  1.00  0.00     0.031 C 
ATOM     45  C   UNL A   1      37.892  33.873  33.968  1.00  0.00     0.029 A 
ATOM     46  C   UNL A   1      38.991  32.921  34.098  1.00  0.00     0.049 A 
ATOM     47  H   UNL A   1      39.693  31.595  32.653  1.00  0.00     0.167 HD
ATOM     48  C   UNL A   1      40.859  28.639  29.626  1.00  0.00     0.037 A 
ATOM     49  C   UNL A   1      39.749  32.746  35.198  1.00  0.00     0.037 A 
ATOM     50  C   UNL A   1      41.781  28.453  30.713  1.00  0.00     0.049 A 
ATOM     51  C   UNL A   1      40.838  31.703  35.180  1.00  0.00     0.074 A 
ATOM     52  C   UNL A   1      42.863  27.595  30.788  1.00  0.00     0.029 A 
ATOM     53  N   UNL A   1      41.727  29.136  31.920  1.00  0.00    -0.354 N 
ATOM     54  N   UNL A   1      41.190  30.890  34.214  1.00  0.00    -0.248 NA
ATOM     55  C   UNL A   1      41.635  31.554  36.406  1.00  0.00     0.031 C 
ATOM     56  C   UNL A   1      43.430  27.717  32.060  1.00  0.00     0.029 A 
ATOM     57  C   UNL A   1      42.743  28.700  32.754  1.00  0.00     0.049 A 
ATOM     58  H   UNL A   1      41.065  29.828  32.149  1.00  0.00     0.167 HD
ATOM     59  C   UNL A   1      42.271  30.166  34.698  1.00  0.00     0.074 A 
ATOM     60  C   UNL A   1      42.521  30.638  36.043  1.00  0.00     0.031 C 
ATOM     61  C   UNL A   1      42.995  29.199  34.082  1.00  0.00     0.037 A 
BRANCH  48  62
ATOM     62  C   UNL A   1      41.013  27.776  28.406  1.00  0.00     0.064 A 
ATOM     63  C   UNL A   1      40.359  26.540  28.290  1.00  0.00     0.173 A 
ATOM     64  C   UNL A   1      41.794  28.208  27.323  1.00  0.00     0.173 A 
ATOM     65  F   UNL A   1      39.609  26.075  29.300  1.00  0.00    -0.203 F 
ATOM     66  C   UNL A   1      40.507  25.754  27.149  1.00  0.00     0.198 A 
ATOM     67  C   UNL A   1      41.912  27.436  26.171  1.00  0.00     0.198 A 
ATOM     68  F   UNL A   1      42.438  29.384  27.379  1.00  0.00    -0.203 F 
ATOM     69  F   UNL A   1      39.918  24.552  27.086  1.00  0.00    -0.200 F 
ATOM     70  C   UNL A   1      41.276  26.207  26.088  1.00  0.00     0.200 A 
ATOM     71  F   UNL A   1      42.643  27.882  25.140  1.00  0.00    -0.200 F 
ATOM     72  F   UNL A   1      41.410  25.454  24.988  1.00  0.00    -0.200 F 
ENDBRANCH  48  62
BRANCH  49  73
ATOM     73  C   UNL A   1      39.517  33.578  36.408  1.00  0.00     0.064 A 
ATOM     74  C   UNL A   1      38.673  33.134  37.436  1.00  0.00     0.173 A 
ATOM     75  C   UNL A   1      40.111  34.841  36.555  1.00  0.00     0.173 A 
ATOM     76  F   UNL A   1      38.065  31.943  37.335  1.00  0.00    -0.203 F 
ATOM     77  C   UNL A   1      38.412  33.930  38.550  1.00  0.00     0.198 A 
ATOM     78  C   UNL A   1      39.875  35.622  37.684  1.00  0.00     0.198 A 
ATOM     79  F   UNL A   1      40.929  35.313  35.604  1.00  0.00    -0.203 F 
ATOM     80  F   UNL A   1      37.557  33.504  39.490  1.00  0.00    -0.200 F 
ATOM     81  C   UNL A   1      39.016  35.171  38.676  1.00  0.00     0.200 A 
ATOM     82  F   UNL A   1      40.474  36.814  37.809  1.00  0.00    -0.200 F 
ATOM     83  F   UNL A   1      38.765  35.937  39.746  1.00  0.00    -0.200 F 
ENDBRANCH  49  73
BRANCH  61  84
ATOM     84  C   UNL A   1      44.167  28.624  34.823  1.00  0.00     0.064 A 
ATOM     85  C   UNL A   1      45.435  29.218  34.780  1.00  0.00     0.173 A 
ATOM     86  C   UNL A   1      43.994  27.502  35.649  1.00  0.00     0.173 A 
ATOM     87  F   UNL A   1      45.657  30.283  33.994  1.00  0.00    -0.203 F 
ATOM     88  C   UNL A   1      46.492  28.702  35.526  1.00  0.00     0.198 A 
ATOM     89  C   UNL A   1      45.043  27.010  36.419  1.00  0.00     0.198 A 
ATOM     90  F   UNL A   1      42.797  26.901  35.732  1.00  0.00    -0.203 F 
ATOM     91  F   UNL A   1      47.706  29.263  35.442  1.00  0.00    -0.200 F 
ATOM     92  C   UNL A   1      46.292  27.606  36.353  1.00  0.00     0.200 A 
ATOM     93  F   UNL A   1      44.842  25.962  37.231  1.00  0.00    -0.200 F 
ATOM     94  F   UNL A   1      47.305  27.125  37.087  1.00  0.00    -0.200 F 
ENDBRANCH  61  84
ENDBRANCH  35  36
ENDBRANCH  27  30
ENDBRANCH  25  26
ENDBRANCH  24  25
ENDBRANCH  23  24
ENDBRANCH   1  23
TORSDOF 15
ENDMDL
MODEL 3
REMARK VINA RESULT:     -11.7      3.970      7.604
REMARK SMILES CCc1ccc(S(=O)(=O)Cc2noc(C(=O)NCCCCNC(=O)c3ccc(-c4c5nc(c(-c6c(F)c(F)c(F)c(F)c6F)c6ccc([nH]6)c(-c6c(F)c(F)c(F)c(F)c6F)c6nc(c(-c7c(F)c(F)c(F)c(F)c7F)c7ccc4[nH]7)C=C6)C=C5)cc3)n2)cc1
REMARK SMILES IDX 18 1 17 2 15 3 16 4 14 6 11 7 12 8 88 9 13 10 10 11 7 12
REMARK SMILES IDX 8 13 9 14 6 15 3 16 4 17 90 18 5 19 89 20 2 21 1 22 19 23
REMARK SMILES IDX 20 24 21 25 22 26 23 27 24 29 25 30 26 31 87 32 27 33 86 34
REMARK SMILES IDX 28 35 29 36 30 37 80 38 31 39 85 40 79 41 81 42 32 43 84 44
REMARK SMILES IDX 78 45 77 46 33 48 65 49 45 50 64 51 46 52 49 53 63 54 82 55
REMARK SMILES IDX 47 56 48 57 62 59 83 60 50 61 34 62 35 63 43 64 36 65 37 66
REMARK SMILES IDX 41 67 44 68 38 69 39 70 42 71 40 72 66 73 67 74 75 75 68 76
REMARK SMILES IDX 69 77 73 78 76 79 70 80 71 81 74 82 72 83 51 84 52 85 60 86
REMARK SMILES IDX 53 87 54 88 58 89 61 90 55 91 56 92 59 93 57 94
REMARK H PARENT 17 5 22 28 81 47 49 58
REMARK Flexibility Score: inf
ROOT
ATOM      1  C   UNL A   1      31.393  29.737  25.020  1.00  0.00     0.116 C 
ENDROOT
BRANCH   1   2
ATOM      2  N   UNL A   1      30.899  29.971  23.673  1.00  0.00    -0.348 N 
ATOM      3  C   UNL A   1      30.263  29.103  22.803  1.00  0.00     0.309 C 
ATOM      4  O   UNL A   1      29.994  29.551  21.684  1.00  0.00    -0.264 OA
ATOM      5  H   UNL A   1      31.037  30.882  23.328  1.00  0.00     0.163 HD
BRANCH   3   6
ATOM      6  C   UNL A   1      29.934  27.756  23.226  1.00  0.00     0.315 A 
ATOM      7  C   UNL A   1      29.922  25.742  23.837  1.00  0.00     0.187 A 
ATOM      8  N   UNL A   1      28.644  26.113  23.966  1.00  0.00    -0.061 NA
ATOM      9  N   UNL A   1      30.749  26.735  23.392  1.00  0.00    -0.186 NA
ATOM     10  O   UNL A   1      28.642  27.450  23.551  1.00  0.00    -0.329 OA
BRANCH   7  11
ATOM     11  C   UNL A   1      30.507  24.457  24.261  1.00  0.00     0.223 C 
BRANCH  11  12
ATOM     12  S   UNL A   1      31.129  24.365  25.902  1.00  0.00     0.185 S 
ATOM     13  O   UNL A   1      30.562  23.166  26.499  1.00  0.00    -0.223 OA
ATOM     14  O   UNL A   1      30.919  25.655  26.537  1.00  0.00    -0.223 OA
BRANCH  12  15
ATOM     15  C   UNL A   1      32.878  24.076  25.832  1.00  0.00     0.067 A 
ATOM     16  C   UNL A   1      35.647  23.674  25.883  1.00  0.00    -0.048 A 
ATOM     17  C   UNL A   1      34.823  23.064  26.839  1.00  0.00     0.005 A 
ATOM     18  C   UNL A   1      35.060  24.458  24.880  1.00  0.00     0.005 A 
ATOM     19  C   UNL A   1      33.443  23.269  26.821  1.00  0.00     0.020 A 
ATOM     20  C   UNL A   1      33.679  24.652  24.844  1.00  0.00     0.020 A 
BRANCH  16  21
ATOM     21  C   UNL A   1      37.140  23.462  25.919  1.00  0.00     0.032 C 
ATOM     22  C   UNL A   1      37.614  22.363  24.976  1.00  0.00     0.009 C 
ENDBRANCH  16  21
ENDBRANCH  12  15
ENDBRANCH  11  12
ENDBRANCH   7  11
ENDBRANCH   3   6
ENDBRANCH   1   2
BRANCH   1  23
ATOM     23  C   UNL A   1      32.908  29.550  25.038  1.00  0.00     0.023 C 
BRANCH  23  24
ATOM     24  C   UNL A   1      33.366  28.320  25.821  1.00  0.00     0.023 C 
BRANCH  24  25
ATOM     25  C   UNL A   1      33.670  28.579  27.292  1.00  0.00     0.116 C 
BRANCH  25  26
ATOM     26  N   UNL A   1      33.658  29.992  27.643  1.00  0.00    -0.352 N 
ATOM     27  C   UNL A   1      34.668  30.727  28.221  1.00  0.00     0.251 C 
ATOM     28  H   UNL A   1      32.827  30.481  27.444  1.00  0.00     0.163 HD
ATOM     29  O   UNL A   1      34.487  31.885  28.574  1.00  0.00    -0.269 OA
BRANCH  27  30
ATOM     30  C   UNL A   1      35.970  30.071  28.440  1.00  0.00     0.039 A 
ATOM     31  C   UNL A   1      36.949  30.151  27.448  1.00  0.00     0.014 A 
ATOM     32  C   UNL A   1      36.246  29.469  29.670  1.00  0.00     0.014 A 
ATOM     33  C   UNL A   1      38.239  29.694  27.722  1.00  0.00     0.010 A 
ATOM     34  C   UNL A   1      37.548  29.094  29.969  1.00  0.00     0.010 A 
ATOM     35  C   UNL A   1      38.559  29.205  29.000  1.00  0.00    -0.014 A 
BRANCH  35  36
ATOM     36  C   UNL A   1      39.939  28.793  29.360  1.00  0.00     0.031 A 
ATOM     37  C   UNL A   1      40.805  29.726  30.157  1.00  0.00     0.074 A 
ATOM     38  C   UNL A   1      40.443  27.634  28.891  1.00  0.00     0.049 A 
ATOM     39  N   UNL A   1      42.077  29.636  30.446  1.00  0.00    -0.248 NA
ATOM     40  C   UNL A   1      40.157  30.945  30.670  1.00  0.00     0.031 C 
ATOM     41  C   UNL A   1      39.713  26.657  28.081  1.00  0.00     0.029 A 
ATOM     42  N   UNL A   1      41.698  27.091  29.011  1.00  0.00    -0.354 N 
ATOM     43  C   UNL A   1      42.385  30.790  31.154  1.00  0.00     0.074 A 
ATOM     44  C   UNL A   1      41.183  31.593  31.200  1.00  0.00     0.031 C 
ATOM     45  C   UNL A   1      40.527  25.630  27.791  1.00  0.00     0.029 A 
ATOM     46  C   UNL A   1      41.851  25.898  28.347  1.00  0.00     0.049 A 
ATOM     47  H   UNL A   1      42.422  27.517  29.526  1.00  0.00     0.167 HD
ATOM     48  C   UNL A   1      43.558  31.136  31.733  1.00  0.00     0.037 A 
ATOM     49  C   UNL A   1      42.939  25.120  28.188  1.00  0.00     0.037 A 
ATOM     50  C   UNL A   1      44.743  30.322  31.702  1.00  0.00     0.049 A 
ATOM     51  C   UNL A   1      44.243  25.547  28.813  1.00  0.00     0.074 A 
ATOM     52  C   UNL A   1      45.967  30.561  32.300  1.00  0.00     0.029 A 
ATOM     53  N   UNL A   1      44.852  29.111  31.034  1.00  0.00    -0.354 N 
ATOM     54  N   UNL A   1      44.509  26.613  29.527  1.00  0.00    -0.248 NA
ATOM     55  C   UNL A   1      45.398  24.661  28.609  1.00  0.00     0.031 C 
ATOM     56  C   UNL A   1      46.834  29.523  31.947  1.00  0.00     0.029 A 
ATOM     57  C   UNL A   1      46.131  28.603  31.186  1.00  0.00     0.049 A 
ATOM     58  H   UNL A   1      44.127  28.677  30.529  1.00  0.00     0.167 HD
ATOM     59  C   UNL A   1      45.844  26.506  29.892  1.00  0.00     0.074 A 
ATOM     60  C   UNL A   1      46.335  25.269  29.324  1.00  0.00     0.031 C 
ATOM     61  C   UNL A   1      46.596  27.355  30.635  1.00  0.00     0.037 A 
BRANCH  48  62
ATOM     62  C   UNL A   1      43.618  32.455  32.449  1.00  0.00     0.064 A 
ATOM     63  C   UNL A   1      43.977  33.639  31.786  1.00  0.00     0.173 A 
ATOM     64  C   UNL A   1      43.276  32.543  33.807  1.00  0.00     0.173 A 
ATOM     65  F   UNL A   1      44.324  33.609  30.491  1.00  0.00    -0.203 F 
ATOM     66  C   UNL A   1      44.023  34.855  32.463  1.00  0.00     0.198 A 
ATOM     67  C   UNL A   1      43.289  33.766  34.472  1.00  0.00     0.198 A 
ATOM     68  F   UNL A   1      42.921  31.443  34.489  1.00  0.00    -0.203 F 
ATOM     69  F   UNL A   1      44.422  35.962  31.822  1.00  0.00    -0.200 F 
ATOM     70  C   UNL A   1      43.670  34.919  33.802  1.00  0.00     0.200 A 
ATOM     71  F   UNL A   1      42.933  33.829  35.762  1.00  0.00    -0.200 F 
ATOM     72  F   UNL A   1      43.705  36.091  34.450  1.00  0.00    -0.200 F 
ENDBRANCH  48  62
BRANCH  49  73
ATOM     73  C   UNL A   1      42.848  23.854  27.413  1.00  0.00     0.064 A 
ATOM     74  C   UNL A   1      42.416  22.667  28.023  1.00  0.00     0.173 A 
ATOM     75  C   UNL A   1      43.211  23.795  26.059  1.00  0.00     0.173 A 
ATOM     76  F   UNL A   1      42.077  22.666  29.320  1.00  0.00    -0.203 F 
ATOM     77  C   UNL A   1      42.376  21.466  27.316  1.00  0.00     0.198 A 
ATOM     78  C   UNL A   1      43.139  22.600  25.345  1.00  0.00     0.198 A 
ATOM     79  F   UNL A   1      43.628  24.900  25.426  1.00  0.00    -0.203 F 
ATOM     80  F   UNL A   1      42.012  20.337  27.939  1.00  0.00    -0.200 F 
ATOM     81  C   UNL A   1      42.733  21.434  25.978  1.00  0.00     0.200 A 
ATOM     82  F   UNL A   1      43.470  22.577  24.047  1.00  0.00    -0.200 F 
ATOM     83  F   UNL A   1      42.694  20.280  25.298  1.00  0.00    -0.200 F 
ENDBRANCH  49  73
BRANCH  61  84
ATOM     84  C   UNL A   1      48.012  26.956  30.935  1.00  0.00     0.064 A 
ATOM     85  C   UNL A   1      49.092  27.431  30.180  1.00  0.00     0.173 A 
ATOM     86  C   UNL A   1      48.293  26.145  32.046  1.00  0.00     0.173 A 
ATOM     87  F   UNL A   1      48.877  28.198  29.100  1.00  0.00    -0.203 F 
ATOM     88  C   UNL A   1      50.402  27.098  30.517  1.00  0.00     0.198 A 
ATOM     89  C   UNL A   1      49.604  25.841  32.399  1.00  0.00     0.198 A 
ATOM     90  F   UNL A   1      47.294  25.670  32.806  1.00  0.00    -0.203 F 
ATOM     91  F   UNL A   1      51.418  27.533  29.760  1.00  0.00    -0.200 F 
ATOM     92  C   UNL A   1      50.657  26.313  31.632  1.00  0.00     0.200 A 
ATOM     93  F   UNL A   1      49.847  25.098  33.488  1.00  0.00    -0.200 F 
ATOM     94  F   UNL A   1      51.919  26.011  31.967  1.00  0.00    -0.200 F 
ENDBRANCH  61  84
ENDBRANCH  35  36
ENDBRANCH  27  30
ENDBRANCH  25  26
ENDBRANCH  24  25
ENDBRANCH  23  24
ENDBRANCH   1  23
TORSDOF 15
ENDMDL
