MODEL 1
REMARK VINA RESULT:     -13.0      0.000      0.000
REMARK SMILES COc1cc(/C=C2\SC(=S)N(CC(=O)NCCCCNC(=O)c3ccc(-c4c5nc(c(-c6c(F)c(F)c(F)c(F)c6F)c6ccc([nH]6)c(-c6c(F)c(F)c(F)c(F)c6F)c6nc(c(-c7c(F)c(F)c(F)c(F)c7F)c7ccc4[nH]7)C=C6)C=C5)cc3)C2=O)cc2c1OCO2
REMARK SMILES IDX 17 1 16 2 15 3 13 4 14 5 12 7 11 8 6 9 7 10 8 11 86 12 9 13
REMARK SMILES IDX 87 14 10 15 5 16 3 17 4 18 90 19 89 20 91 21 88 22 93 23
REMARK SMILES IDX 92 24 2 25 1 26 18 27 19 28 20 29 21 30 22 32 23 33 24 34
REMARK SMILES IDX 85 35 25 36 84 37 26 38 27 39 28 40 78 41 29 42 83 43 77 44
REMARK SMILES IDX 79 45 30 46 82 47 76 48 75 49 31 51 63 52 43 53 62 54 44 55
REMARK SMILES IDX 47 56 61 57 80 58 45 59 46 60 60 62 81 63 48 64 32 65 33 66
REMARK SMILES IDX 41 67 34 68 35 69 39 70 42 71 36 72 37 73 40 74 38 75 64 76
REMARK SMILES IDX 65 77 73 78 66 79 67 80 71 81 74 82 68 83 69 84 72 85 70 86
REMARK SMILES IDX 49 87 50 88 58 89 51 90 52 91 56 92 59 93 53 94 54 95 57 96
REMARK SMILES IDX 55 97
REMARK H PARENT 15 6 20 31 79 50 47 61
REMARK Flexibility Score: inf
ROOT
ATOM      1  C   UNL A   1      31.594  30.660  26.201  1.00  0.00     0.023 C 
ENDROOT
BRANCH   1   2
ATOM      2  C   UNL A   1      32.996  30.131  26.491  1.00  0.00     0.116 C 
BRANCH   2   3
ATOM      3  N   UNL A   1      33.676  29.686  25.293  1.00  0.00    -0.355 N 
ATOM      4  C   UNL A   1      33.317  28.752  24.369  1.00  0.00     0.240 C 
ATOM      5  O   UNL A   1      33.935  28.766  23.299  1.00  0.00    -0.273 OA
ATOM      6  H   UNL A   1      34.536  30.131  25.119  1.00  0.00     0.163 HD
BRANCH   4   7
ATOM      7  C   UNL A   1      32.087  27.851  24.543  1.00  0.00     0.227 C 
BRANCH   7   8
ATOM      8  N   UNL A   1      32.320  26.429  24.297  1.00  0.00    -0.283 N 
ATOM      9  C   UNL A   1      33.577  23.347  25.721  1.00  0.00     0.029 C 
ATOM     10  C   UNL A   1      33.068  24.275  24.899  1.00  0.00     0.081 C 
ATOM     11  S   UNL A   1      32.531  24.080  23.278  1.00  0.00    -0.054 SA
ATOM     12  C   UNL A   1      32.871  25.686  25.330  1.00  0.00     0.266 C 
ATOM     13  C   UNL A   1      32.188  25.791  23.084  1.00  0.00     0.148 C 
ATOM     14  O   UNL A   1      33.167  26.103  26.435  1.00  0.00    -0.268 OA
ATOM     15  S   UNL A   1      31.783  26.437  21.600  1.00  0.00    -0.052 S 
BRANCH   9  16
ATOM     16  C   UNL A   1      33.775  21.930  25.393  1.00  0.00    -0.017 A 
ATOM     17  C   UNL A   1      35.327  20.097  24.917  1.00  0.00     0.165 A 
ATOM     18  C   UNL A   1      35.085  21.448  25.198  1.00  0.00     0.058 A 
ATOM     19  C   UNL A   1      34.240  19.241  24.882  1.00  0.00     0.207 A 
ATOM     20  C   UNL A   1      32.959  19.717  25.049  1.00  0.00     0.170 A 
ATOM     21  O   UNL A   1      34.251  17.889  24.722  1.00  0.00    -0.450 OA
ATOM     22  C   UNL A   1      32.690  21.051  25.272  1.00  0.00     0.059 A 
ATOM     23  O   UNL A   1      32.018  18.735  25.000  1.00  0.00    -0.453 OA
ATOM     24  C   UNL A   1      32.857  17.570  24.895  1.00  0.00     0.468 C 
BRANCH  17  25
ATOM     25  O   UNL A   1      36.636  19.742  24.769  1.00  0.00    -0.493 OA
ATOM     26  C   UNL A   1      37.558  20.805  25.001  1.00  0.00     0.278 C 
ENDBRANCH  17  25
ENDBRANCH   9  16
ENDBRANCH   7   8
ENDBRANCH   4   7
ENDBRANCH   2   3
ENDBRANCH   1   2
BRANCH   1  27
ATOM     27  C   UNL A   1      31.388  32.140  26.540  1.00  0.00     0.023 C 
BRANCH  27  28
ATOM     28  C   UNL A   1      32.538  32.807  27.288  1.00  0.00     0.116 C 
BRANCH  28  29
ATOM     29  N   UNL A   1      32.282  34.200  27.615  1.00  0.00    -0.352 N 
ATOM     30  C   UNL A   1      32.929  35.007  28.521  1.00  0.00     0.251 C 
ATOM     31  H   UNL A   1      31.545  34.625  27.118  1.00  0.00     0.163 HD
ATOM     32  O   UNL A   1      32.509  36.136  28.753  1.00  0.00    -0.269 OA
BRANCH  30  33
ATOM     33  C   UNL A   1      34.112  34.497  29.246  1.00  0.00     0.039 A 
ATOM     34  C   UNL A   1      33.928  33.891  30.492  1.00  0.00     0.014 A 
ATOM     35  C   UNL A   1      35.394  34.602  28.699  1.00  0.00     0.014 A 
ATOM     36  C   UNL A   1      35.020  33.328  31.158  1.00  0.00     0.010 A 
ATOM     37  C   UNL A   1      36.469  33.981  29.331  1.00  0.00     0.010 A 
ATOM     38  C   UNL A   1      36.292  33.337  30.565  1.00  0.00    -0.014 A 
BRANCH  38  39
ATOM     39  C   UNL A   1      37.451  32.675  31.219  1.00  0.00     0.031 A 
ATOM     40  C   UNL A   1      38.150  31.530  30.540  1.00  0.00     0.074 A 
ATOM     41  C   UNL A   1      37.830  33.061  32.454  1.00  0.00     0.049 A 
ATOM     42  N   UNL A   1      39.124  30.775  30.981  1.00  0.00    -0.248 NA
ATOM     43  C   UNL A   1      37.674  31.167  29.195  1.00  0.00     0.031 C 
ATOM     44  C   UNL A   1      37.202  34.124  33.239  1.00  0.00     0.029 A 
ATOM     45  N   UNL A   1      38.827  32.591  33.273  1.00  0.00    -0.354 N 
ATOM     46  C   UNL A   1      39.361  29.840  29.982  1.00  0.00     0.074 A 
ATOM     47  C   UNL A   1      38.402  30.092  28.929  1.00  0.00     0.031 C 
ATOM     48  C   UNL A   1      37.837  34.236  34.417  1.00  0.00     0.029 A 
ATOM     49  C   UNL A   1      38.892  33.230  34.488  1.00  0.00     0.049 A 
ATOM     50  H   UNL A   1      39.439  31.864  33.014  1.00  0.00     0.167 HD
ATOM     51  C   UNL A   1      40.309  28.873  29.939  1.00  0.00     0.037 A 
ATOM     52  C   UNL A   1      39.703  33.020  35.542  1.00  0.00     0.037 A 
ATOM     53  C   UNL A   1      41.287  28.649  30.970  1.00  0.00     0.049 A 
ATOM     54  C   UNL A   1      40.752  31.943  35.459  1.00  0.00     0.074 A 
ATOM     55  C   UNL A   1      42.332  27.741  30.984  1.00  0.00     0.029 A 
ATOM     56  N   UNL A   1      41.342  29.341  32.170  1.00  0.00    -0.354 N 
ATOM     57  N   UNL A   1      41.016  31.118  34.476  1.00  0.00    -0.248 NA
ATOM     58  C   UNL A   1      41.623  31.774  36.631  1.00  0.00     0.031 C 
ATOM     59  C   UNL A   1      42.992  27.853  32.210  1.00  0.00     0.029 A 
ATOM     60  C   UNL A   1      42.392  28.865  32.940  1.00  0.00     0.049 A 
ATOM     61  H   UNL A   1      40.728  30.062  32.436  1.00  0.00     0.167 HD
ATOM     62  C   UNL A   1      42.102  30.361  34.895  1.00  0.00     0.074 A 
ATOM     63  C   UNL A   1      42.458  30.832  36.216  1.00  0.00     0.031 C 
ATOM     64  C   UNL A   1      42.746  29.361  34.244  1.00  0.00     0.037 A 
BRANCH  51  65
ATOM     65  C   UNL A   1      40.348  27.983  28.732  1.00  0.00     0.064 A 
ATOM     66  C   UNL A   1      41.097  28.318  27.595  1.00  0.00     0.173 A 
ATOM     67  C   UNL A   1      39.687  26.745  28.741  1.00  0.00     0.173 A 
ATOM     68  F   UNL A   1      41.739  29.495  27.532  1.00  0.00    -0.203 F 
ATOM     69  C   UNL A   1      41.170  27.455  26.504  1.00  0.00     0.198 A 
ATOM     70  C   UNL A   1      39.785  25.872  27.660  1.00  0.00     0.198 A 
ATOM     71  F   UNL A   1      38.961  26.372  29.806  1.00  0.00    -0.203 F 
ATOM     72  F   UNL A   1      41.863  27.812  25.415  1.00  0.00    -0.200 F 
ATOM     73  C   UNL A   1      40.522  26.229  26.542  1.00  0.00     0.200 A 
ATOM     74  F   UNL A   1      39.171  24.682  27.704  1.00  0.00    -0.200 F 
ATOM     75  F   UNL A   1      40.608  25.393  25.499  1.00  0.00    -0.200 F 
ENDBRANCH  51  65
BRANCH  52  76
ATOM     76  C   UNL A   1      39.571  33.851  36.768  1.00  0.00     0.064 A 
ATOM     77  C   UNL A   1      38.804  33.413  37.858  1.00  0.00     0.173 A 
ATOM     78  C   UNL A   1      40.174  35.113  36.864  1.00  0.00     0.173 A 
ATOM     79  F   UNL A   1      38.190  32.222  37.808  1.00  0.00    -0.203 F 
ATOM     80  C   UNL A   1      38.617  34.219  38.979  1.00  0.00     0.198 A 
ATOM     81  C   UNL A   1      40.012  35.906  37.999  1.00  0.00     0.198 A 
ATOM     82  F   UNL A   1      40.922  35.579  35.852  1.00  0.00    -0.203 F 
ATOM     83  F   UNL A   1      37.827  33.800  39.978  1.00  0.00    -0.200 F 
ATOM     84  C   UNL A   1      39.224  35.463  39.050  1.00  0.00     0.200 A 
ATOM     85  F   UNL A   1      40.612  37.102  38.069  1.00  0.00    -0.200 F 
ATOM     86  F   UNL A   1      39.039  36.240  40.126  1.00  0.00    -0.200 F 
ENDBRANCH  52  76
BRANCH  64  87
ATOM     87  C   UNL A   1      43.934  28.745  34.927  1.00  0.00     0.064 A 
ATOM     88  C   UNL A   1      45.227  29.258  34.760  1.00  0.00     0.173 A 
ATOM     89  C   UNL A   1      43.764  27.653  35.791  1.00  0.00     0.173 A 
ATOM     90  F   UNL A   1      45.443  30.293  33.934  1.00  0.00    -0.203 F 
ATOM     91  C   UNL A   1      46.315  28.682  35.414  1.00  0.00     0.198 A 
ATOM     92  C   UNL A   1      44.848  27.099  36.467  1.00  0.00     0.198 A 
ATOM     93  F   UNL A   1      42.545  27.130  35.990  1.00  0.00    -0.203 F 
ATOM     94  F   UNL A   1      47.549  29.156  35.201  1.00  0.00    -0.200 F 
ATOM     95  C   UNL A   1      46.122  27.609  36.270  1.00  0.00     0.200 A 
ATOM     96  F   UNL A   1      44.658  26.072  37.305  1.00  0.00    -0.200 F 
ATOM     97  F   UNL A   1      47.169  27.061  36.904  1.00  0.00    -0.200 F 
ENDBRANCH  64  87
ENDBRANCH  38  39
ENDBRANCH  30  33
ENDBRANCH  28  29
ENDBRANCH  27  28
ENDBRANCH   1  27
TORSDOF 14
ENDMDL
MODEL 2
REMARK VINA RESULT:     -12.9      0.900      2.212
REMARK SMILES COc1cc(/C=C2\SC(=S)N(CC(=O)NCCCCNC(=O)c3ccc(-c4c5nc(c(-c6c(F)c(F)c(F)c(F)c6F)c6ccc([nH]6)c(-c6c(F)c(F)c(F)c(F)c6F)c6nc(c(-c7c(F)c(F)c(F)c(F)c7F)c7ccc4[nH]7)C=C6)C=C5)cc3)C2=O)cc2c1OCO2
REMARK SMILES IDX 17 1 16 2 15 3 13 4 14 5 12 7 11 8 6 9 7 10 8 11 86 12 9 13
REMARK SMILES IDX 87 14 10 15 5 16 3 17 4 18 90 19 89 20 91 21 88 22 93 23
REMARK SMILES IDX 92 24 2 25 1 26 18 27 19 28 20 29 21 30 22 32 23 33 24 34
REMARK SMILES IDX 85 35 25 36 84 37 26 38 27 39 28 40 78 41 29 42 83 43 77 44
REMARK SMILES IDX 79 45 30 46 82 47 76 48 75 49 31 51 63 52 43 53 62 54 44 55
REMARK SMILES IDX 47 56 61 57 80 58 45 59 46 60 60 62 81 63 48 64 32 65 33 66
REMARK SMILES IDX 41 67 34 68 35 69 39 70 42 71 36 72 37 73 40 74 38 75 64 76
REMARK SMILES IDX 65 77 73 78 66 79 67 80 71 81 74 82 68 83 69 84 72 85 70 86
REMARK SMILES IDX 49 87 50 88 58 89 51 90 52 91 56 92 59 93 53 94 54 95 57 96
REMARK SMILES IDX 55 97
REMARK H PARENT 15 6 20 31 79 50 47 61
REMARK Flexibility Score: inf
ROOT
ATOM      1  C   UNL A   1      31.679  30.520  26.696  1.00  0.00     0.023 C 
ENDROOT
BRANCH   1   2
ATOM      2  C   UNL A   1      32.103  30.024  25.317  1.00  0.00     0.116 C 
BRANCH   2   3
ATOM      3  N   UNL A   1      31.067  29.252  24.666  1.00  0.00    -0.355 N 
ATOM      4  C   UNL A   1      31.146  28.343  23.654  1.00  0.00     0.240 C 
ATOM      5  O   UNL A   1      30.159  27.622  23.477  1.00  0.00    -0.273 OA
ATOM      6  H   UNL A   1      30.158  29.409  25.010  1.00  0.00     0.163 HD
BRANCH   4   7
ATOM      7  C   UNL A   1      32.450  28.073  22.891  1.00  0.00     0.227 C 
BRANCH   7   8
ATOM      8  N   UNL A   1      32.969  26.712  23.013  1.00  0.00    -0.283 N 
ATOM      9  C   UNL A   1      34.939  24.469  25.061  1.00  0.00     0.029 C 
ATOM     10  C   UNL A   1      34.197  25.006  24.083  1.00  0.00     0.081 C 
ATOM     11  S   UNL A   1      33.624  24.254  22.648  1.00  0.00    -0.054 SA
ATOM     12  C   UNL A   1      33.725  26.417  24.137  1.00  0.00     0.266 C 
ATOM     13  C   UNL A   1      32.910  25.738  22.040  1.00  0.00     0.148 C 
ATOM     14  O   UNL A   1      33.986  27.182  25.047  1.00  0.00    -0.268 OA
ATOM     15  S   UNL A   1      32.292  25.841  20.494  1.00  0.00    -0.052 S 
BRANCH   9  16
ATOM     16  C   UNL A   1      35.419  23.082  25.107  1.00  0.00    -0.017 A 
ATOM     17  C   UNL A   1      34.906  20.692  24.972  1.00  0.00     0.165 A 
ATOM     18  C   UNL A   1      34.491  22.030  24.968  1.00  0.00     0.058 A 
ATOM     19  C   UNL A   1      36.262  20.437  25.069  1.00  0.00     0.207 A 
ATOM     20  C   UNL A   1      37.166  21.465  25.228  1.00  0.00     0.170 A 
ATOM     21  O   UNL A   1      36.889  19.230  24.998  1.00  0.00    -0.450 OA
ATOM     22  C   UNL A   1      36.778  22.786  25.283  1.00  0.00     0.059 A 
ATOM     23  O   UNL A   1      38.454  21.032  25.291  1.00  0.00    -0.453 OA
ATOM     24  C   UNL A   1      38.274  19.626  25.040  1.00  0.00     0.468 C 
BRANCH  17  25
ATOM     25  O   UNL A   1      33.922  19.761  24.809  1.00  0.00    -0.493 OA
ATOM     26  C   UNL A   1      32.693  20.291  24.319  1.00  0.00     0.278 C 
ENDBRANCH  17  25
ENDBRANCH   9  16
ENDBRANCH   7   8
ENDBRANCH   4   7
ENDBRANCH   2   3
ENDBRANCH   1   2
BRANCH   1  27
ATOM     27  C   UNL A   1      31.499  32.037  26.802  1.00  0.00     0.023 C 
BRANCH  27  28
ATOM     28  C   UNL A   1      32.717  32.807  27.304  1.00  0.00     0.116 C 
BRANCH  28  29
ATOM     29  N   UNL A   1      32.422  34.186  27.658  1.00  0.00    -0.352 N 
ATOM     30  C   UNL A   1      33.024  34.983  28.602  1.00  0.00     0.251 C 
ATOM     31  H   UNL A   1      31.690  34.608  27.151  1.00  0.00     0.163 HD
ATOM     32  O   UNL A   1      32.574  36.097  28.851  1.00  0.00    -0.269 OA
BRANCH  30  33
ATOM     33  C   UNL A   1      34.197  34.479  29.349  1.00  0.00     0.039 A 
ATOM     34  C   UNL A   1      33.994  33.878  30.595  1.00  0.00     0.014 A 
ATOM     35  C   UNL A   1      35.487  34.585  28.823  1.00  0.00     0.014 A 
ATOM     36  C   UNL A   1      35.076  33.321  31.280  1.00  0.00     0.010 A 
ATOM     37  C   UNL A   1      36.553  33.970  29.474  1.00  0.00     0.010 A 
ATOM     38  C   UNL A   1      36.358  33.330  30.709  1.00  0.00    -0.014 A 
BRANCH  38  39
ATOM     39  C   UNL A   1      37.508  32.674  31.384  1.00  0.00     0.031 A 
ATOM     40  C   UNL A   1      38.200  31.508  30.736  1.00  0.00     0.074 A 
ATOM     41  C   UNL A   1      37.883  33.086  32.612  1.00  0.00     0.049 A 
ATOM     42  N   UNL A   1      39.166  30.755  31.201  1.00  0.00    -0.248 NA
ATOM     43  C   UNL A   1      37.729  31.118  29.397  1.00  0.00     0.031 C 
ATOM     44  C   UNL A   1      37.260  34.173  33.369  1.00  0.00     0.029 A 
ATOM     45  N   UNL A   1      38.872  32.627  33.447  1.00  0.00    -0.354 N 
ATOM     46  C   UNL A   1      39.400  29.795  30.225  1.00  0.00     0.074 A 
ATOM     47  C   UNL A   1      38.449  30.031  29.161  1.00  0.00     0.031 C 
ATOM     48  C   UNL A   1      37.890  34.307  34.547  1.00  0.00     0.029 A 
ATOM     49  C   UNL A   1      38.936  33.294  34.647  1.00  0.00     0.049 A 
ATOM     50  H   UNL A   1      39.479  31.890  33.209  1.00  0.00     0.167 HD
ATOM     51  C   UNL A   1      40.340  28.820  30.210  1.00  0.00     0.037 A 
ATOM     52  C   UNL A   1      39.739  33.103  35.711  1.00  0.00     0.037 A 
ATOM     53  C   UNL A   1      41.310  28.612  31.251  1.00  0.00     0.049 A 
ATOM     54  C   UNL A   1      40.780  32.016  35.659  1.00  0.00     0.074 A 
ATOM     55  C   UNL A   1      42.348  27.696  31.292  1.00  0.00     0.029 A 
ATOM     56  N   UNL A   1      41.366  29.332  32.435  1.00  0.00    -0.354 N 
ATOM     57  N   UNL A   1      41.043  31.166  34.696  1.00  0.00    -0.248 NA
ATOM     58  C   UNL A   1      41.644  31.867  36.839  1.00  0.00     0.031 C 
ATOM     59  C   UNL A   1      43.003  27.831  32.519  1.00  0.00     0.029 A 
ATOM     60  C   UNL A   1      42.407  28.865  33.221  1.00  0.00     0.049 A 
ATOM     61  H   UNL A   1      40.756  30.064  32.680  1.00  0.00     0.167 HD
ATOM     62  C   UNL A   1      42.119  30.409  35.139  1.00  0.00     0.074 A 
ATOM     63  C   UNL A   1      42.472  30.909  36.450  1.00  0.00     0.031 C 
ATOM     64  C   UNL A   1      42.759  29.389  34.516  1.00  0.00     0.037 A 
BRANCH  51  65
ATOM     65  C   UNL A   1      40.378  27.901  29.024  1.00  0.00     0.064 A 
ATOM     66  C   UNL A   1      39.625  26.719  28.986  1.00  0.00     0.173 A 
ATOM     67  C   UNL A   1      41.119  28.244  27.883  1.00  0.00     0.173 A 
ATOM     68  F   UNL A   1      38.908  26.340  30.055  1.00  0.00    -0.203 F 
ATOM     69  C   UNL A   1      39.625  25.904  27.856  1.00  0.00     0.198 A 
ATOM     70  C   UNL A   1      41.095  27.442  26.744  1.00  0.00     0.198 A 
ATOM     71  F   UNL A   1      41.852  29.368  27.864  1.00  0.00    -0.203 F 
ATOM     72  F   UNL A   1      38.925  24.762  27.856  1.00  0.00    -0.200 F 
ATOM     73  C   UNL A   1      40.352  26.272  26.733  1.00  0.00     0.200 A 
ATOM     74  F   UNL A   1      41.785  27.807  25.655  1.00  0.00    -0.200 F 
ATOM     75  F   UNL A   1      40.336  25.497  25.641  1.00  0.00    -0.200 F 
ENDBRANCH  51  65
BRANCH  52  76
ATOM     76  C   UNL A   1      39.609  33.964  36.916  1.00  0.00     0.064 A 
ATOM     77  C   UNL A   1      38.841  33.553  38.016  1.00  0.00     0.173 A 
ATOM     78  C   UNL A   1      40.213  35.227  36.981  1.00  0.00     0.173 A 
ATOM     79  F   UNL A   1      38.225  32.361  37.994  1.00  0.00    -0.203 F 
ATOM     80  C   UNL A   1      38.654  34.386  39.117  1.00  0.00     0.198 A 
ATOM     81  C   UNL A   1      40.052  36.048  38.096  1.00  0.00     0.198 A 
ATOM     82  F   UNL A   1      40.961  35.667  35.958  1.00  0.00    -0.203 F 
ATOM     83  F   UNL A   1      37.864  33.993  40.125  1.00  0.00    -0.200 F 
ATOM     84  C   UNL A   1      39.262  35.631  39.157  1.00  0.00     0.200 A 
ATOM     85  F   UNL A   1      40.652  37.244  38.137  1.00  0.00    -0.200 F 
ATOM     86  F   UNL A   1      39.078  36.435  40.214  1.00  0.00    -0.200 F 
ENDBRANCH  52  76
BRANCH  64  87
ATOM     87  C   UNL A   1      43.937  28.780  35.219  1.00  0.00     0.064 A 
ATOM     88  C   UNL A   1      43.793  27.698  36.098  1.00  0.00     0.173 A 
ATOM     89  C   UNL A   1      45.232  29.262  34.974  1.00  0.00     0.173 A 
ATOM     90  F   UNL A   1      42.574  27.211  36.376  1.00  0.00    -0.203 F 
ATOM     91  C   UNL A   1      44.901  27.137  36.730  1.00  0.00     0.198 A 
ATOM     92  C   UNL A   1      46.341  28.679  35.583  1.00  0.00     0.198 A 
ATOM     93  F   UNL A   1      45.425  30.290  34.134  1.00  0.00    -0.203 F 
ATOM     94  F   UNL A   1      44.735  26.137  37.605  1.00  0.00    -0.200 F 
ATOM     95  C   UNL A   1      46.172  27.623  36.466  1.00  0.00     0.200 A 
ATOM     96  F   UNL A   1      47.570  29.140  35.315  1.00  0.00    -0.200 F 
ATOM     97  F   UNL A   1      47.238  27.077  37.069  1.00  0.00    -0.200 F 
ENDBRANCH  64  87
ENDBRANCH  38  39
ENDBRANCH  30  33
ENDBRANCH  28  29
ENDBRANCH  27  28
ENDBRANCH   1  27
TORSDOF 14
ENDMDL
MODEL 3
REMARK VINA RESULT:     -12.9      5.383     11.355
REMARK SMILES COc1cc(/C=C2\SC(=S)N(CC(=O)NCCCCNC(=O)c3ccc(-c4c5nc(c(-c6c(F)c(F)c(F)c(F)c6F)c6ccc([nH]6)c(-c6c(F)c(F)c(F)c(F)c6F)c6nc(c(-c7c(F)c(F)c(F)c(F)c7F)c7ccc4[nH]7)C=C6)C=C5)cc3)C2=O)cc2c1OCO2
REMARK SMILES IDX 17 1 16 2 15 3 13 4 14 5 12 7 11 8 6 9 7 10 8 11 86 12 9 13
REMARK SMILES IDX 87 14 10 15 5 16 3 17 4 18 90 19 89 20 91 21 88 22 93 23
REMARK SMILES IDX 92 24 2 25 1 26 18 27 19 28 20 29 21 30 22 32 23 33 24 34
REMARK SMILES IDX 85 35 25 36 84 37 26 38 27 39 28 40 78 41 29 42 83 43 77 44
REMARK SMILES IDX 79 45 30 46 82 47 76 48 75 49 31 51 63 52 43 53 62 54 44 55
REMARK SMILES IDX 47 56 61 57 80 58 45 59 46 60 60 62 81 63 48 64 32 65 33 66
REMARK SMILES IDX 41 67 34 68 35 69 39 70 42 71 36 72 37 73 40 74 38 75 64 76
REMARK SMILES IDX 65 77 73 78 66 79 67 80 71 81 74 82 68 83 69 84 72 85 70 86
REMARK SMILES IDX 49 87 50 88 58 89 51 90 52 91 56 92 59 93 53 94 54 95 57 96
REMARK SMILES IDX 55 97
REMARK H PARENT 15 6 20 31 79 50 47 61
REMARK Flexibility Score: inf
ROOT
ATOM      1  C   UNL A   1      37.170  20.845  24.841  1.00  0.00     0.023 C 
ENDROOT
BRANCH   1   2
ATOM      2  C   UNL A   1      35.718  20.409  25.016  1.00  0.00     0.116 C 
BRANCH   2   3
ATOM      3  N   UNL A   1      35.111  20.977  26.201  1.00  0.00    -0.355 N 
ATOM      4  C   UNL A   1      33.851  21.452  26.407  1.00  0.00     0.240 C 
ATOM      5  O   UNL A   1      33.506  21.618  27.581  1.00  0.00    -0.273 OA
ATOM      6  H   UNL A   1      35.705  21.027  26.984  1.00  0.00     0.163 HD
BRANCH   4   7
ATOM      7  C   UNL A   1      32.829  21.593  25.271  1.00  0.00     0.227 C 
BRANCH   7   8
ATOM      8  N   UNL A   1      32.592  22.962  24.816  1.00  0.00    -0.283 N 
ATOM      9  C   UNL A   1      30.279  25.746  24.891  1.00  0.00     0.029 C 
ATOM     10  C   UNL A   1      31.321  24.941  24.642  1.00  0.00     0.081 C 
ATOM     11  S   UNL A   1      32.716  25.270  23.693  1.00  0.00    -0.054 SA
ATOM     12  C   UNL A   1      31.413  23.572  25.218  1.00  0.00     0.266 C 
ATOM     13  C   UNL A   1      33.355  23.648  23.898  1.00  0.00     0.148 C 
ATOM     14  O   UNL A   1      30.559  23.080  25.932  1.00  0.00    -0.268 OA
ATOM     15  S   UNL A   1      34.689  23.121  23.045  1.00  0.00    -0.052 S 
BRANCH   9  16
ATOM     16  C   UNL A   1      30.120  27.119  24.393  1.00  0.00    -0.017 A 
ATOM     17  C   UNL A   1      30.788  29.471  24.514  1.00  0.00     0.165 A 
ATOM     18  C   UNL A   1      30.881  28.152  24.977  1.00  0.00     0.058 A 
ATOM     19  C   UNL A   1      29.961  29.718  23.433  1.00  0.00     0.207 A 
ATOM     20  C   UNL A   1      29.201  28.713  22.879  1.00  0.00     0.170 A 
ATOM     21  O   UNL A   1      29.794  30.894  22.766  1.00  0.00    -0.450 OA
ATOM     22  C   UNL A   1      29.232  27.418  23.352  1.00  0.00     0.059 A 
ATOM     23  O   UNL A   1      28.461  29.133  21.817  1.00  0.00    -0.453 OA
ATOM     24  C   UNL A   1      28.923  30.490  21.692  1.00  0.00     0.468 C 
BRANCH  17  25
ATOM     25  O   UNL A   1      31.587  30.382  25.142  1.00  0.00    -0.493 OA
ATOM     26  C   UNL A   1      32.000  29.992  26.449  1.00  0.00     0.278 C 
ENDBRANCH  17  25
ENDBRANCH   9  16
ENDBRANCH   7   8
ENDBRANCH   4   7
ENDBRANCH   2   3
ENDBRANCH   1   2
BRANCH   1  27
ATOM     27  C   UNL A   1      38.196  19.716  24.979  1.00  0.00     0.023 C 
BRANCH  27  28
ATOM     28  C   UNL A   1      39.381  20.016  25.891  1.00  0.00     0.116 C 
BRANCH  28  29
ATOM     29  N   UNL A   1      40.406  18.985  25.865  1.00  0.00    -0.352 N 
ATOM     30  C   UNL A   1      41.765  19.113  26.028  1.00  0.00     0.251 C 
ATOM     31  H   UNL A   1      40.081  18.068  25.709  1.00  0.00     0.163 HD
ATOM     32  O   UNL A   1      42.501  18.146  25.864  1.00  0.00    -0.269 OA
BRANCH  30  33
ATOM     33  C   UNL A   1      42.343  20.431  26.365  1.00  0.00     0.039 A 
ATOM     34  C   UNL A   1      42.887  21.209  25.339  1.00  0.00     0.014 A 
ATOM     35  C   UNL A   1      42.339  20.906  27.679  1.00  0.00     0.014 A 
ATOM     36  C   UNL A   1      43.365  22.492  25.619  1.00  0.00     0.010 A 
ATOM     37  C   UNL A   1      42.752  22.210  27.945  1.00  0.00     0.010 A 
ATOM     38  C   UNL A   1      43.267  23.016  26.918  1.00  0.00    -0.014 A 
BRANCH  38  39
ATOM     39  C   UNL A   1      43.696  24.406  27.222  1.00  0.00     0.031 A 
ATOM     40  C   UNL A   1      42.697  25.413  27.721  1.00  0.00     0.074 A 
ATOM     41  C   UNL A   1      44.969  24.778  26.984  1.00  0.00     0.049 A 
ATOM     42  N   UNL A   1      42.859  26.689  27.965  1.00  0.00    -0.248 NA
ATOM     43  C   UNL A   1      41.327  24.928  27.953  1.00  0.00     0.031 C 
ATOM     44  C   UNL A   1      46.021  23.909  26.453  1.00  0.00     0.029 A 
ATOM     45  N   UNL A   1      45.593  25.992  27.143  1.00  0.00    -0.354 N 
ATOM     46  C   UNL A   1      41.613  27.161  28.356  1.00  0.00     0.074 A 
ATOM     47  C   UNL A   1      40.694  26.046  28.276  1.00  0.00     0.031 C 
ATOM     48  C   UNL A   1      47.161  24.612  26.346  1.00  0.00     0.029 A 
ATOM     49  C   UNL A   1      46.913  25.988  26.763  1.00  0.00     0.049 A 
ATOM     50  H   UNL A   1      45.137  26.790  27.496  1.00  0.00     0.167 HD
ATOM     51  C   UNL A   1      41.272  28.406  28.767  1.00  0.00     0.037 A 
ATOM     52  C   UNL A   1      47.818  26.986  26.744  1.00  0.00     0.037 A 
ATOM     53  C   UNL A   1      42.196  29.502  28.883  1.00  0.00     0.049 A 
ATOM     54  C   UNL A   1      47.411  28.356  27.215  1.00  0.00     0.074 A 
ATOM     55  C   UNL A   1      41.960  30.781  29.358  1.00  0.00     0.029 A 
ATOM     56  N   UNL A   1      43.534  29.450  28.523  1.00  0.00    -0.354 N 
ATOM     57  N   UNL A   1      46.248  28.769  27.657  1.00  0.00    -0.248 NA
ATOM     58  C   UNL A   1      48.446  29.400  27.193  1.00  0.00     0.031 C 
ATOM     59  C   UNL A   1      43.143  31.516  29.243  1.00  0.00     0.029 A 
ATOM     60  C   UNL A   1      44.130  30.681  28.746  1.00  0.00     0.049 A 
ATOM     61  H   UNL A   1      43.992  28.657  28.162  1.00  0.00     0.167 HD
ATOM     62  C   UNL A   1      46.421  30.104  27.997  1.00  0.00     0.074 A 
ATOM     63  C   UNL A   1      47.804  30.430  27.725  1.00  0.00     0.031 C 
ATOM     64  C   UNL A   1      45.514  30.983  28.490  1.00  0.00     0.037 A 
BRANCH  51  65
ATOM     65  C   UNL A   1      39.839  28.656  29.133  1.00  0.00     0.064 A 
ATOM     66  C   UNL A   1      39.370  28.461  30.440  1.00  0.00     0.173 A 
ATOM     67  C   UNL A   1      38.941  29.167  28.183  1.00  0.00     0.173 A 
ATOM     68  F   UNL A   1      40.184  27.965  31.383  1.00  0.00    -0.203 F 
ATOM     69  C   UNL A   1      38.050  28.752  30.779  1.00  0.00     0.198 A 
ATOM     70  C   UNL A   1      37.631  29.483  28.532  1.00  0.00     0.198 A 
ATOM     71  F   UNL A   1      39.341  29.378  26.919  1.00  0.00    -0.203 F 
ATOM     72  F   UNL A   1      37.615  28.525  32.025  1.00  0.00    -0.200 F 
ATOM     73  C   UNL A   1      37.185  29.272  29.827  1.00  0.00     0.200 A 
ATOM     74  F   UNL A   1      36.801  30.000  27.615  1.00  0.00    -0.200 F 
ATOM     75  F   UNL A   1      35.922  29.568  30.159  1.00  0.00    -0.200 F 
ENDBRANCH  51  65
BRANCH  52  76
ATOM     76  C   UNL A   1      49.207  26.732  26.275  1.00  0.00     0.064 A 
ATOM     77  C   UNL A   1      49.567  26.945  24.937  1.00  0.00     0.173 A 
ATOM     78  C   UNL A   1      50.191  26.234  27.142  1.00  0.00     0.173 A 
ATOM     79  F   UNL A   1      48.656  27.400  24.063  1.00  0.00    -0.203 F 
ATOM     80  C   UNL A   1      50.845  26.639  24.476  1.00  0.00     0.198 A 
ATOM     81  C   UNL A   1      51.479  25.958  26.687  1.00  0.00     0.198 A 
ATOM     82  F   UNL A   1      49.901  26.016  28.433  1.00  0.00    -0.203 F 
ATOM     83  F   UNL A   1      51.142  26.794  23.178  1.00  0.00    -0.200 F 
ATOM     84  C   UNL A   1      51.801  26.149  25.352  1.00  0.00     0.200 A 
ATOM     85  F   UNL A   1      52.404  25.498  27.540  1.00  0.00    -0.200 F 
ATOM     86  F   UNL A   1      53.029  25.849  24.907  1.00  0.00    -0.200 F 
ENDBRANCH  52  76
BRANCH  64  87
ATOM     87  C   UNL A   1      46.000  32.366  28.818  1.00  0.00     0.064 A 
ATOM     88  C   UNL A   1      45.935  33.410  27.885  1.00  0.00     0.173 A 
ATOM     89  C   UNL A   1      46.497  32.655  30.097  1.00  0.00     0.173 A 
ATOM     90  F   UNL A   1      45.481  33.180  26.643  1.00  0.00    -0.203 F 
ATOM     91  C   UNL A   1      46.377  34.690  28.212  1.00  0.00     0.198 A 
ATOM     92  C   UNL A   1      46.909  33.943  30.431  1.00  0.00     0.198 A 
ATOM     93  F   UNL A   1      46.572  31.693  31.029  1.00  0.00    -0.203 F 
ATOM     94  F   UNL A   1      46.353  35.660  27.289  1.00  0.00    -0.200 F 
ATOM     95  C   UNL A   1      46.856  34.956  29.486  1.00  0.00     0.200 A 
ATOM     96  F   UNL A   1      47.357  34.202  31.667  1.00  0.00    -0.200 F 
ATOM     97  F   UNL A   1      47.273  36.190  29.801  1.00  0.00    -0.200 F 
ENDBRANCH  64  87
ENDBRANCH  38  39
ENDBRANCH  30  33
ENDBRANCH  28  29
ENDBRANCH  27  28
ENDBRANCH   1  27
TORSDOF 14
ENDMDL
