MODEL 1
REMARK VINA RESULT:     -13.3      0.000      0.000
REMARK SMILES COc1cccc(C(=O)NNC(=O)[C@H]2CC(C)=C(C)C[C@@H]2C(=O)NCCCCNC(=O)c2ccc(-c3c4nc(c(-c5c(F)c(F)c(F)c(F)c5F)c5ccc([nH]5)c(-c5c(F)c(F)c(F)c(F)c5F)c5nc(c(-c6c(F)c(F)c(F)c(F)c6F)c6ccc3[nH]6)C=C5)C=C4)cc2)c1
REMARK SMILES IDX 25 1 24 2 22 3 23 4 21 6 14 7 15 8 16 9 20 10 17 11 18 12
REMARK SMILES IDX 19 13 12 14 11 15 13 17 10 18 8 19 9 20 7 22 3 23 4 24 95 25
REMARK SMILES IDX 5 26 6 27 2 28 1 29 26 30 27 31 28 32 29 33 30 34 31 36
REMARK SMILES IDX 32 37 33 38 94 39 34 40 93 41 35 42 36 43 37 44 87 45 38 46
REMARK SMILES IDX 92 47 86 48 88 49 39 50 91 51 85 52 84 53 40 55 72 56 52 57
REMARK SMILES IDX 71 58 53 59 56 60 70 61 89 62 54 63 55 64 69 66 90 67 57 68
REMARK SMILES IDX 41 69 42 70 50 71 43 72 44 73 48 74 51 75 45 76 46 77 49 78
REMARK SMILES IDX 47 79 73 80 74 81 82 82 75 83 76 84 80 85 83 86 77 87 78 88
REMARK SMILES IDX 81 89 79 90 58 91 59 92 67 93 60 94 61 95 65 96 68 97 62 98
REMARK SMILES IDX 63 99 66 100 64 101
REMARK H PARENT 24 5 11 16 10 21 29 35 88 54 56 65
REMARK Flexibility Score: inf
ROOT
ATOM      1  C   UNL A   1      37.340  22.366  24.717  1.00  0.00     0.116 C 
ENDROOT
BRANCH   1   2
ATOM      2  N   UNL A   1      36.531  22.950  23.664  1.00  0.00    -0.356 N 
ATOM      3  C   UNL A   1      35.273  23.475  23.717  1.00  0.00     0.224 C 
ATOM      4  O   UNL A   1      34.778  23.887  22.669  1.00  0.00    -0.275 OA
ATOM      5  H   UNL A   1      36.954  22.969  22.776  1.00  0.00     0.163 HD
BRANCH   3   6
ATOM      6  C   UNL A   1      34.579  23.624  25.072  1.00  0.00     0.095 C 
ATOM      7  C   UNL A   1      33.170  23.011  25.020  1.00  0.00     0.097 C 
ATOM      8  C   UNL A   1      31.976  23.965  25.018  1.00  0.00     0.045 C 
ATOM      9  C   UNL A   1      32.195  25.350  25.571  1.00  0.00    -0.074 C 
ATOM     10  C   UNL A   1      34.687  25.107  25.462  1.00  0.00     0.045 C 
ATOM     11  C   UNL A   1      30.916  26.082  25.892  1.00  0.00     0.039 C 
ATOM     12  C   UNL A   1      33.423  25.871  25.746  1.00  0.00    -0.074 C 
ATOM     13  C   UNL A   1      33.652  27.296  26.193  1.00  0.00     0.039 C 
BRANCH   7  14
ATOM     14  C   UNL A   1      33.044  21.835  25.990  1.00  0.00     0.242 C 
ATOM     15  N   UNL A   1      32.699  20.571  25.609  1.00  0.00    -0.267 N 
ATOM     16  H   UNL A   1      32.857  19.854  26.266  1.00  0.00     0.191 HD
ATOM     17  O   UNL A   1      33.223  22.019  27.200  1.00  0.00    -0.273 OA
BRANCH  15  18
ATOM     18  N   UNL A   1      32.153  20.190  24.395  1.00  0.00    -0.263 N 
ATOM     19  C   UNL A   1      32.534  19.088  23.648  1.00  0.00     0.269 C 
ATOM     20  O   UNL A   1      32.154  19.003  22.480  1.00  0.00    -0.267 OA
ATOM     21  H   UNL A   1      31.430  20.751  24.032  1.00  0.00     0.191 HD
BRANCH  19  22
ATOM     22  C   UNL A   1      33.402  18.009  24.202  1.00  0.00     0.045 A 
ATOM     23  C   UNL A   1      33.759  15.802  25.148  1.00  0.00     0.119 A 
ATOM     24  C   UNL A   1      35.130  16.058  25.210  1.00  0.00     0.046 A 
ATOM     25  C   UNL A   1      32.902  16.761  24.600  1.00  0.00     0.060 A 
ATOM     26  C   UNL A   1      35.648  17.266  24.745  1.00  0.00     0.005 A 
ATOM     27  C   UNL A   1      34.783  18.244  24.251  1.00  0.00     0.014 A 
BRANCH  23  28
ATOM     28  O   UNL A   1      33.384  14.585  25.646  1.00  0.00    -0.497 OA
ATOM     29  C   UNL A   1      31.989  14.327  25.755  1.00  0.00     0.278 C 
ENDBRANCH  23  28
ENDBRANCH  19  22
ENDBRANCH  15  18
ENDBRANCH   7  14
ENDBRANCH   3   6
ENDBRANCH   1   2
BRANCH   1  30
ATOM     30  C   UNL A   1      36.933  20.921  25.001  1.00  0.00     0.023 C 
BRANCH  30  31
ATOM     31  C   UNL A   1      38.086  19.914  24.961  1.00  0.00     0.023 C 
BRANCH  31  32
ATOM     32  C   UNL A   1      39.273  20.244  25.860  1.00  0.00     0.116 C 
BRANCH  32  33
ATOM     33  N   UNL A   1      40.247  19.166  25.935  1.00  0.00    -0.352 N 
ATOM     34  C   UNL A   1      41.608  19.237  26.126  1.00  0.00     0.251 C 
ATOM     35  H   UNL A   1      39.881  18.258  25.835  1.00  0.00     0.163 HD
ATOM     36  O   UNL A   1      42.297  18.232  26.030  1.00  0.00    -0.269 OA
BRANCH  34  37
ATOM     37  C   UNL A   1      42.241  20.544  26.410  1.00  0.00     0.039 A 
ATOM     38  C   UNL A   1      42.710  21.310  25.341  1.00  0.00     0.014 A 
ATOM     39  C   UNL A   1      42.354  21.020  27.719  1.00  0.00     0.014 A 
ATOM     40  C   UNL A   1      43.226  22.586  25.577  1.00  0.00     0.010 A 
ATOM     41  C   UNL A   1      42.799  22.319  27.947  1.00  0.00     0.010 A 
ATOM     42  C   UNL A   1      43.235  23.118  26.877  1.00  0.00    -0.014 A 
BRANCH  42  43
ATOM     43  C   UNL A   1      43.681  24.513  27.134  1.00  0.00     0.031 A 
ATOM     44  C   UNL A   1      42.704  25.544  27.627  1.00  0.00     0.074 A 
ATOM     45  C   UNL A   1      44.952  24.865  26.863  1.00  0.00     0.049 A 
ATOM     46  N   UNL A   1      42.888  26.822  27.844  1.00  0.00    -0.248 NA
ATOM     47  C   UNL A   1      41.331  25.084  27.888  1.00  0.00     0.031 C 
ATOM     48  C   UNL A   1      45.984  23.968  26.337  1.00  0.00     0.029 A 
ATOM     49  N   UNL A   1      45.594  26.074  26.980  1.00  0.00    -0.354 N 
ATOM     50  C   UNL A   1      41.658  27.316  28.256  1.00  0.00     0.074 A 
ATOM     51  C   UNL A   1      40.721  26.215  28.204  1.00  0.00     0.031 C 
ATOM     52  C   UNL A   1      47.132  24.652  26.198  1.00  0.00     0.029 A 
ATOM     53  C   UNL A   1      46.909  26.041  26.583  1.00  0.00     0.049 A 
ATOM     54  H   UNL A   1      45.153  26.887  27.317  1.00  0.00     0.167 HD
ATOM     55  C   UNL A   1      41.344  28.570  28.663  1.00  0.00     0.037 A 
ATOM     56  C   UNL A   1      47.828  27.024  26.524  1.00  0.00     0.037 A 
ATOM     57  C   UNL A   1      42.283  29.660  28.729  1.00  0.00     0.049 A 
ATOM     58  C   UNL A   1      47.445  28.414  26.961  1.00  0.00     0.074 A 
ATOM     59  C   UNL A   1      42.075  30.952  29.179  1.00  0.00     0.029 A 
ATOM     60  N   UNL A   1      43.609  29.586  28.328  1.00  0.00    -0.354 N 
ATOM     61  N   UNL A   1      46.297  28.852  27.417  1.00  0.00    -0.248 NA
ATOM     62  C   UNL A   1      48.490  29.444  26.880  1.00  0.00     0.031 C 
ATOM     63  C   UNL A   1      43.258  31.674  29.000  1.00  0.00     0.029 A 
ATOM     64  C   UNL A   1      44.222  30.817  28.496  1.00  0.00     0.049 A 
ATOM     65  H   UNL A   1      44.049  28.778  27.977  1.00  0.00     0.167 HD
ATOM     66  C   UNL A   1      46.490  30.197  27.706  1.00  0.00     0.074 A 
ATOM     67  C   UNL A   1      47.870  30.498  27.392  1.00  0.00     0.031 C 
ATOM     68  C   UNL A   1      45.602  31.100  28.188  1.00  0.00     0.037 A 
BRANCH  55  69
ATOM     69  C   UNL A   1      39.924  28.834  29.076  1.00  0.00     0.064 A 
ATOM     70  C   UNL A   1      38.954  29.252  28.152  1.00  0.00     0.173 A 
ATOM     71  C   UNL A   1      39.515  28.616  30.401  1.00  0.00     0.173 A 
ATOM     72  F   UNL A   1      39.294  29.484  26.875  1.00  0.00    -0.203 F 
ATOM     73  C   UNL A   1      37.636  29.469  28.544  1.00  0.00     0.198 A 
ATOM     74  C   UNL A   1      38.189  28.803  30.782  1.00  0.00     0.198 A 
ATOM     75  F   UNL A   1      40.400  28.211  31.324  1.00  0.00    -0.203 F 
ATOM     76  F   UNL A   1      36.738  29.913  27.654  1.00  0.00    -0.200 F 
ATOM     77  C   UNL A   1      37.252  29.235  29.856  1.00  0.00     0.200 A 
ATOM     78  F   UNL A   1      37.816  28.562  32.047  1.00  0.00    -0.200 F 
ATOM     79  F   UNL A   1      35.980  29.431  30.229  1.00  0.00    -0.200 F 
ENDBRANCH  55  69
BRANCH  56  80
ATOM     80  C   UNL A   1      49.205  26.732  26.045  1.00  0.00     0.064 A 
ATOM     81  C   UNL A   1      50.183  26.237  26.919  1.00  0.00     0.173 A 
ATOM     82  C   UNL A   1      49.580  26.962  24.713  1.00  0.00     0.173 A 
ATOM     83  F   UNL A   1      49.881  26.020  28.208  1.00  0.00    -0.203 F 
ATOM     84  C   UNL A   1      51.488  26.010  26.487  1.00  0.00     0.198 A 
ATOM     85  C   UNL A   1      50.877  26.703  24.274  1.00  0.00     0.198 A 
ATOM     86  F   UNL A   1      48.682  27.432  23.834  1.00  0.00    -0.203 F 
ATOM     87  F   UNL A   1      52.416  25.590  27.358  1.00  0.00    -0.200 F 
ATOM     88  C   UNL A   1      51.832  26.239  25.163  1.00  0.00     0.200 A 
ATOM     89  F   UNL A   1      51.201  26.911  22.991  1.00  0.00    -0.200 F 
ATOM     90  F   UNL A   1      53.088  26.020  24.748  1.00  0.00    -0.200 F 
ENDBRANCH  56  80
BRANCH  68  91
ATOM     91  C   UNL A   1      46.104  32.493  28.445  1.00  0.00     0.064 A 
ATOM     92  C   UNL A   1      46.674  32.858  29.673  1.00  0.00     0.173 A 
ATOM     93  C   UNL A   1      46.044  33.465  27.435  1.00  0.00     0.173 A 
ATOM     94  F   UNL A   1      46.742  31.970  30.677  1.00  0.00    -0.203 F 
ATOM     95  C   UNL A   1      47.143  34.151  29.888  1.00  0.00     0.198 A 
ATOM     96  C   UNL A   1      46.544  34.748  27.643  1.00  0.00     0.198 A 
ATOM     97  F   UNL A   1      45.513  33.167  26.239  1.00  0.00    -0.203 F 
ATOM     98  F   UNL A   1      47.638  34.492  31.087  1.00  0.00    -0.200 F 
ATOM     99  C   UNL A   1      47.084  35.092  28.871  1.00  0.00     0.200 A 
ATOM    100  F   UNL A   1      46.501  35.650  26.652  1.00  0.00    -0.200 F 
ATOM    101  F   UNL A   1      47.544  36.334  29.078  1.00  0.00    -0.200 F 
ENDBRANCH  68  91
ENDBRANCH  42  43
ENDBRANCH  34  37
ENDBRANCH  32  33
ENDBRANCH  31  32
ENDBRANCH  30  31
ENDBRANCH   1  30
TORSDOF 15
ENDMDL
MODEL 2
REMARK VINA RESULT:     -13.3      6.272     11.902
REMARK SMILES COc1cccc(C(=O)NNC(=O)[C@H]2CC(C)=C(C)C[C@@H]2C(=O)NCCCCNC(=O)c2ccc(-c3c4nc(c(-c5c(F)c(F)c(F)c(F)c5F)c5ccc([nH]5)c(-c5c(F)c(F)c(F)c(F)c5F)c5nc(c(-c6c(F)c(F)c(F)c(F)c6F)c6ccc3[nH]6)C=C5)C=C4)cc2)c1
REMARK SMILES IDX 25 1 24 2 22 3 23 4 21 6 14 7 15 8 16 9 20 10 17 11 18 12
REMARK SMILES IDX 19 13 12 14 11 15 13 17 10 18 8 19 9 20 7 22 3 23 4 24 95 25
REMARK SMILES IDX 5 26 6 27 2 28 1 29 26 30 27 31 28 32 29 33 30 34 31 36
REMARK SMILES IDX 32 37 33 38 94 39 34 40 93 41 35 42 36 43 37 44 87 45 38 46
REMARK SMILES IDX 92 47 86 48 88 49 39 50 91 51 85 52 84 53 40 55 72 56 52 57
REMARK SMILES IDX 71 58 53 59 56 60 70 61 89 62 54 63 55 64 69 66 90 67 57 68
REMARK SMILES IDX 41 69 42 70 50 71 43 72 44 73 48 74 51 75 45 76 46 77 49 78
REMARK SMILES IDX 47 79 73 80 74 81 82 82 75 83 76 84 80 85 83 86 77 87 78 88
REMARK SMILES IDX 81 89 79 90 58 91 59 92 67 93 60 94 61 95 65 96 68 97 62 98
REMARK SMILES IDX 63 99 66 100 64 101
REMARK H PARENT 24 5 11 16 10 21 29 35 88 54 56 65
REMARK Flexibility Score: inf
ROOT
ATOM      1  C   UNL A   1      32.774  29.661  26.950  1.00  0.00     0.116 C 
ENDROOT
BRANCH   1   2
ATOM      2  N   UNL A   1      32.140  28.384  27.219  1.00  0.00    -0.356 N 
ATOM      3  C   UNL A   1      32.142  27.235  26.484  1.00  0.00     0.224 C 
ATOM      4  O   UNL A   1      31.495  26.279  26.910  1.00  0.00    -0.275 OA
ATOM      5  H   UNL A   1      31.631  28.340  28.060  1.00  0.00     0.163 HD
BRANCH   3   6
ATOM      6  C   UNL A   1      33.016  27.147  25.231  1.00  0.00     0.095 C 
ATOM      7  C   UNL A   1      32.161  26.776  24.009  1.00  0.00     0.097 C 
ATOM      8  C   UNL A   1      32.307  25.366  23.437  1.00  0.00     0.045 C 
ATOM      9  C   UNL A   1      33.584  24.625  23.738  1.00  0.00    -0.074 C 
ATOM     10  C   UNL A   1      34.190  26.217  25.577  1.00  0.00     0.045 C 
ATOM     11  C   UNL A   1      33.819  23.434  22.842  1.00  0.00     0.039 C 
ATOM     12  C   UNL A   1      34.420  24.999  24.725  1.00  0.00    -0.074 C 
ATOM     13  C   UNL A   1      35.643  24.201  25.109  1.00  0.00     0.039 C 
BRANCH   7  14
ATOM     14  C   UNL A   1      32.179  27.893  22.963  1.00  0.00     0.242 C 
ATOM     15  N   UNL A   1      31.054  28.472  22.453  1.00  0.00    -0.267 N 
ATOM     16  H   UNL A   1      31.178  29.314  21.957  1.00  0.00     0.191 HD
ATOM     17  O   UNL A   1      33.261  28.288  22.511  1.00  0.00    -0.273 OA
BRANCH  15  18
ATOM     18  N   UNL A   1      29.757  28.000  22.558  1.00  0.00    -0.263 N 
ATOM     19  C   UNL A   1      28.640  28.765  22.848  1.00  0.00     0.269 C 
ATOM     20  O   UNL A   1      27.595  28.195  23.163  1.00  0.00    -0.267 OA
ATOM     21  H   UNL A   1      29.616  27.036  22.413  1.00  0.00     0.191 HD
BRANCH  19  22
ATOM     22  C   UNL A   1      28.662  30.256  22.809  1.00  0.00     0.045 A 
ATOM     23  C   UNL A   1      28.227  32.392  21.740  1.00  0.00     0.119 A 
ATOM     24  C   UNL A   1      28.743  33.049  22.859  1.00  0.00     0.046 A 
ATOM     25  C   UNL A   1      28.144  30.996  21.737  1.00  0.00     0.060 A 
ATOM     26  C   UNL A   1      29.190  32.325  23.963  1.00  0.00     0.005 A 
ATOM     27  C   UNL A   1      29.158  30.931  23.934  1.00  0.00     0.014 A 
BRANCH  23  28
ATOM     28  O   UNL A   1      27.835  33.219  20.724  1.00  0.00    -0.497 OA
ATOM     29  C   UNL A   1      27.684  32.639  19.434  1.00  0.00     0.278 C 
ENDBRANCH  23  28
ENDBRANCH  19  22
ENDBRANCH  15  18
ENDBRANCH   7  14
ENDBRANCH   3   6
ENDBRANCH   1   2
BRANCH   1  30
ATOM     30  C   UNL A   1      31.859  30.583  26.149  1.00  0.00     0.023 C 
BRANCH  30  31
ATOM     31  C   UNL A   1      31.555  31.924  26.825  1.00  0.00     0.023 C 
BRANCH  31  32
ATOM     32  C   UNL A   1      32.767  32.669  27.375  1.00  0.00     0.116 C 
BRANCH  32  33
ATOM     33  N   UNL A   1      32.498  34.072  27.645  1.00  0.00    -0.352 N 
ATOM     34  C   UNL A   1      33.109  34.916  28.544  1.00  0.00     0.251 C 
ATOM     35  H   UNL A   1      31.778  34.475  27.109  1.00  0.00     0.163 HD
ATOM     36  O   UNL A   1      32.666  36.040  28.734  1.00  0.00    -0.269 OA
BRANCH  34  37
ATOM     37  C   UNL A   1      34.284  34.445  29.309  1.00  0.00     0.039 A 
ATOM     38  C   UNL A   1      34.076  33.796  30.529  1.00  0.00     0.014 A 
ATOM     39  C   UNL A   1      35.581  34.623  28.821  1.00  0.00     0.014 A 
ATOM     40  C   UNL A   1      35.163  33.261  31.222  1.00  0.00     0.010 A 
ATOM     41  C   UNL A   1      36.655  34.026  29.475  1.00  0.00     0.010 A 
ATOM     42  C   UNL A   1      36.457  33.334  30.680  1.00  0.00    -0.014 A 
BRANCH  42  43
ATOM     43  C   UNL A   1      37.609  32.678  31.351  1.00  0.00     0.031 A 
ATOM     44  C   UNL A   1      38.327  31.536  30.686  1.00  0.00     0.074 A 
ATOM     45  C   UNL A   1      37.970  33.071  32.588  1.00  0.00     0.049 A 
ATOM     46  N   UNL A   1      39.307  30.797  31.140  1.00  0.00    -0.248 NA
ATOM     47  C   UNL A   1      37.865  31.158  29.341  1.00  0.00     0.031 C 
ATOM     48  C   UNL A   1      37.324  34.136  33.359  1.00  0.00     0.029 A 
ATOM     49  N   UNL A   1      38.962  32.614  33.422  1.00  0.00    -0.354 N 
ATOM     50  C   UNL A   1      39.571  29.866  30.144  1.00  0.00     0.074 A 
ATOM     51  C   UNL A   1      38.612  30.095  29.086  1.00  0.00     0.031 C 
ATOM     52  C   UNL A   1      37.949  34.264  34.541  1.00  0.00     0.029 A 
ATOM     53  C   UNL A   1      39.009  33.265  34.631  1.00  0.00     0.049 A 
ATOM     54  H   UNL A   1      39.580  31.888  33.177  1.00  0.00     0.167 HD
ATOM     55  C   UNL A   1      40.541  28.921  30.107  1.00  0.00     0.037 A 
ATOM     56  C   UNL A   1      39.810  33.072  35.696  1.00  0.00     0.037 A 
ATOM     57  C   UNL A   1      41.505  28.706  31.155  1.00  0.00     0.049 A 
ATOM     58  C   UNL A   1      40.865  31.998  35.635  1.00  0.00     0.074 A 
ATOM     59  C   UNL A   1      42.560  27.811  31.186  1.00  0.00     0.029 A 
ATOM     60  N   UNL A   1      41.528  29.393  32.360  1.00  0.00    -0.354 N 
ATOM     61  N   UNL A   1      41.151  31.172  34.659  1.00  0.00    -0.248 NA
ATOM     62  C   UNL A   1      41.713  31.836  36.825  1.00  0.00     0.031 C 
ATOM     63  C   UNL A   1      43.187  27.917  32.431  1.00  0.00     0.029 A 
ATOM     64  C   UNL A   1      42.563  28.921  33.152  1.00  0.00     0.049 A 
ATOM     65  H   UNL A   1      40.902  30.109  32.615  1.00  0.00     0.167 HD
ATOM     66  C   UNL A   1      42.228  30.415  35.103  1.00  0.00     0.074 A 
ATOM     67  C   UNL A   1      42.556  30.893  36.429  1.00  0.00     0.031 C 
ATOM     68  C   UNL A   1      42.885  29.414  34.468  1.00  0.00     0.037 A 
BRANCH  55  69
ATOM     69  C   UNL A   1      40.615  28.046  28.888  1.00  0.00     0.064 A 
ATOM     70  C   UNL A   1      39.932  26.822  28.817  1.00  0.00     0.173 A 
ATOM     71  C   UNL A   1      41.335  28.460  27.757  1.00  0.00     0.173 A 
ATOM     72  F   UNL A   1      39.237  26.375  29.875  1.00  0.00    -0.203 F 
ATOM     73  C   UNL A   1      39.989  26.033  27.672  1.00  0.00     0.198 A 
ATOM     74  C   UNL A   1      41.364  27.683  26.600  1.00  0.00     0.198 A 
ATOM     75  F   UNL A   1      42.002  29.624  27.767  1.00  0.00    -0.203 F 
ATOM     76  F   UNL A   1      39.366  24.847  27.645  1.00  0.00    -0.200 F 
ATOM     77  C   UNL A   1      40.696  26.468  26.561  1.00  0.00     0.200 A 
ATOM     78  F   UNL A   1      42.035  28.112  25.523  1.00  0.00    -0.200 F 
ATOM     79  F   UNL A   1      40.739  25.714  25.454  1.00  0.00    -0.200 F 
ENDBRANCH  55  69
BRANCH  56  80
ATOM     80  C   UNL A   1      39.658  33.918  36.910  1.00  0.00     0.064 A 
ATOM     81  C   UNL A   1      38.847  33.508  37.978  1.00  0.00     0.173 A 
ATOM     82  C   UNL A   1      40.298  35.161  37.019  1.00  0.00     0.173 A 
ATOM     83  F   UNL A   1      38.196  32.337  37.914  1.00  0.00    -0.203 F 
ATOM     84  C   UNL A   1      38.662  34.319  39.095  1.00  0.00     0.198 A 
ATOM     85  C   UNL A   1      40.139  35.957  38.151  1.00  0.00     0.198 A 
ATOM     86  F   UNL A   1      41.088  35.599  36.027  1.00  0.00    -0.203 F 
ATOM     87  F   UNL A   1      37.838  33.927  40.076  1.00  0.00    -0.200 F 
ATOM     88  C   UNL A   1      39.312  35.541  39.183  1.00  0.00     0.200 A 
ATOM     89  F   UNL A   1      40.781  37.130  38.239  1.00  0.00    -0.200 F 
ATOM     90  F   UNL A   1      39.134  36.322  40.258  1.00  0.00    -0.200 F 
ENDBRANCH  56  80
BRANCH  68  91
ATOM     91  C   UNL A   1      44.053  28.793  35.181  1.00  0.00     0.064 A 
ATOM     92  C   UNL A   1      43.902  27.668  36.005  1.00  0.00     0.173 A 
ATOM     93  C   UNL A   1      45.346  29.310  35.007  1.00  0.00     0.173 A 
ATOM     94  F   UNL A   1      42.684  27.144  36.216  1.00  0.00    -0.203 F 
ATOM     95  C   UNL A   1      44.998  27.100  36.648  1.00  0.00     0.198 A 
ATOM     96  C   UNL A   1      46.444  28.719  35.626  1.00  0.00     0.198 A 
ATOM     97  F   UNL A   1      45.547  30.381  34.224  1.00  0.00    -0.203 F 
ATOM     98  F   UNL A   1      44.822  26.057  37.472  1.00  0.00    -0.200 F 
ATOM     99  C   UNL A   1      46.268  27.621  36.452  1.00  0.00     0.200 A 
ATOM    100  F   UNL A   1      47.672  29.214  35.421  1.00  0.00    -0.200 F 
ATOM    101  F   UNL A   1      47.323  27.067  37.066  1.00  0.00    -0.200 F 
ENDBRANCH  68  91
ENDBRANCH  42  43
ENDBRANCH  34  37
ENDBRANCH  32  33
ENDBRANCH  31  32
ENDBRANCH  30  31
ENDBRANCH   1  30
TORSDOF 15
ENDMDL
MODEL 3
REMARK VINA RESULT:     -13.0      0.192      1.897
REMARK SMILES COc1cccc(C(=O)NNC(=O)[C@H]2CC(C)=C(C)C[C@@H]2C(=O)NCCCCNC(=O)c2ccc(-c3c4nc(c(-c5c(F)c(F)c(F)c(F)c5F)c5ccc([nH]5)c(-c5c(F)c(F)c(F)c(F)c5F)c5nc(c(-c6c(F)c(F)c(F)c(F)c6F)c6ccc3[nH]6)C=C5)C=C4)cc2)c1
REMARK SMILES IDX 25 1 24 2 22 3 23 4 21 6 14 7 15 8 16 9 20 10 17 11 18 12
REMARK SMILES IDX 19 13 12 14 11 15 13 17 10 18 8 19 9 20 7 22 3 23 4 24 95 25
REMARK SMILES IDX 5 26 6 27 2 28 1 29 26 30 27 31 28 32 29 33 30 34 31 36
REMARK SMILES IDX 32 37 33 38 94 39 34 40 93 41 35 42 36 43 37 44 87 45 38 46
REMARK SMILES IDX 92 47 86 48 88 49 39 50 91 51 85 52 84 53 40 55 72 56 52 57
REMARK SMILES IDX 71 58 53 59 56 60 70 61 89 62 54 63 55 64 69 66 90 67 57 68
REMARK SMILES IDX 41 69 42 70 50 71 43 72 44 73 48 74 51 75 45 76 46 77 49 78
REMARK SMILES IDX 47 79 73 80 74 81 82 82 75 83 76 84 80 85 83 86 77 87 78 88
REMARK SMILES IDX 81 89 79 90 58 91 59 92 67 93 60 94 61 95 65 96 68 97 62 98
REMARK SMILES IDX 63 99 66 100 64 101
REMARK H PARENT 24 5 11 16 10 21 29 35 88 54 56 65
REMARK Flexibility Score: inf
ROOT
ATOM      1  C   UNL A   1      37.303  22.303  24.717  1.00  0.00     0.116 C 
ENDROOT
BRANCH   1   2
ATOM      2  N   UNL A   1      36.512  22.915  23.666  1.00  0.00    -0.356 N 
ATOM      3  C   UNL A   1      35.271  23.478  23.720  1.00  0.00     0.224 C 
ATOM      4  O   UNL A   1      34.789  23.909  22.674  1.00  0.00    -0.275 OA
ATOM      5  H   UNL A   1      36.937  22.926  22.778  1.00  0.00     0.163 HD
BRANCH   3   6
ATOM      6  C   UNL A   1      34.580  23.641  25.075  1.00  0.00     0.095 C 
ATOM      7  C   UNL A   1      33.162  23.049  25.026  1.00  0.00     0.097 C 
ATOM      8  C   UNL A   1      31.983  24.021  25.023  1.00  0.00     0.045 C 
ATOM      9  C   UNL A   1      32.223  25.404  25.572  1.00  0.00    -0.074 C 
ATOM     10  C   UNL A   1      34.711  25.123  25.461  1.00  0.00     0.045 C 
ATOM     11  C   UNL A   1      30.955  26.157  25.892  1.00  0.00     0.039 C 
ATOM     12  C   UNL A   1      33.459  25.908  25.744  1.00  0.00    -0.074 C 
ATOM     13  C   UNL A   1      33.710  27.330  26.186  1.00  0.00     0.039 C 
BRANCH   7  14
ATOM     14  C   UNL A   1      33.020  21.878  26.001  1.00  0.00     0.242 C 
ATOM     15  N   UNL A   1      32.678  20.613  25.620  1.00  0.00    -0.267 N 
ATOM     16  H   UNL A   1      32.824  19.899  26.283  1.00  0.00     0.191 HD
ATOM     17  O   UNL A   1      33.182  22.068  27.212  1.00  0.00    -0.273 OA
BRANCH  15  18
ATOM     18  N   UNL A   1      32.147  20.227  24.401  1.00  0.00    -0.263 N 
ATOM     19  C   UNL A   1      32.509  19.100  23.683  1.00  0.00     0.269 C 
ATOM     20  O   UNL A   1      32.154  19.005  22.508  1.00  0.00    -0.267 OA
ATOM     21  H   UNL A   1      31.453  20.806  24.010  1.00  0.00     0.191 HD
BRANCH  19  22
ATOM     22  C   UNL A   1      33.326  18.003  24.277  1.00  0.00     0.045 A 
ATOM     23  C   UNL A   1      33.576  15.853  25.377  1.00  0.00     0.119 A 
ATOM     24  C   UNL A   1      34.963  16.009  25.350  1.00  0.00     0.046 A 
ATOM     25  C   UNL A   1      32.761  16.830  24.799  1.00  0.00     0.060 A 
ATOM     26  C   UNL A   1      35.540  17.135  24.766  1.00  0.00     0.005 A 
ATOM     27  C   UNL A   1      34.722  18.135  24.239  1.00  0.00     0.014 A 
BRANCH  23  28
ATOM     28  O   UNL A   1      33.143  14.709  25.989  1.00  0.00    -0.497 OA
ATOM     29  C   UNL A   1      31.795  14.319  25.760  1.00  0.00     0.278 C 
ENDBRANCH  23  28
ENDBRANCH  19  22
ENDBRANCH  15  18
ENDBRANCH   7  14
ENDBRANCH   3   6
ENDBRANCH   1   2
BRANCH   1  30
ATOM     30  C   UNL A   1      36.851  20.871  24.996  1.00  0.00     0.023 C 
BRANCH  30  31
ATOM     31  C   UNL A   1      37.981  19.836  25.001  1.00  0.00     0.023 C 
BRANCH  31  32
ATOM     32  C   UNL A   1      39.235  20.241  25.767  1.00  0.00     0.116 C 
BRANCH  32  33
ATOM     33  N   UNL A   1      40.205  19.163  25.882  1.00  0.00    -0.352 N 
ATOM     34  C   UNL A   1      41.558  19.234  26.123  1.00  0.00     0.251 C 
ATOM     35  H   UNL A   1      39.842  18.255  25.771  1.00  0.00     0.163 HD
ATOM     36  O   UNL A   1      42.250  18.228  26.056  1.00  0.00    -0.269 OA
BRANCH  34  37
ATOM     37  C   UNL A   1      42.181  20.541  26.426  1.00  0.00     0.039 A 
ATOM     38  C   UNL A   1      42.648  21.325  25.369  1.00  0.00     0.014 A 
ATOM     39  C   UNL A   1      42.286  21.001  27.741  1.00  0.00     0.014 A 
ATOM     40  C   UNL A   1      43.154  22.601  25.624  1.00  0.00     0.010 A 
ATOM     41  C   UNL A   1      42.721  22.301  27.988  1.00  0.00     0.010 A 
ATOM     42  C   UNL A   1      43.155  23.117  26.930  1.00  0.00    -0.014 A 
BRANCH  42  43
ATOM     43  C   UNL A   1      43.590  24.511  27.207  1.00  0.00     0.031 A 
ATOM     44  C   UNL A   1      42.606  25.526  27.717  1.00  0.00     0.074 A 
ATOM     45  C   UNL A   1      44.858  24.877  26.938  1.00  0.00     0.049 A 
ATOM     46  N   UNL A   1      42.779  26.802  27.952  1.00  0.00    -0.248 NA
ATOM     47  C   UNL A   1      41.237  25.051  27.973  1.00  0.00     0.031 C 
ATOM     48  C   UNL A   1      45.896  23.997  26.397  1.00  0.00     0.029 A 
ATOM     49  N   UNL A   1      45.490  26.089  27.073  1.00  0.00    -0.354 N 
ATOM     50  C   UNL A   1      41.546  27.281  28.374  1.00  0.00     0.074 A 
ATOM     51  C   UNL A   1      40.618  26.173  28.308  1.00  0.00     0.031 C 
ATOM     52  C   UNL A   1      47.038  24.692  26.267  1.00  0.00     0.029 A 
ATOM     53  C   UNL A   1      46.804  26.074  26.672  1.00  0.00     0.049 A 
ATOM     54  H   UNL A   1      45.043  26.894  27.422  1.00  0.00     0.167 HD
ATOM     55  C   UNL A   1      41.223  28.526  28.800  1.00  0.00     0.037 A 
ATOM     56  C   UNL A   1      47.715  27.064  26.626  1.00  0.00     0.037 A 
ATOM     57  C   UNL A   1      42.154  29.622  28.881  1.00  0.00     0.049 A 
ATOM     58  C   UNL A   1      47.321  28.444  27.084  1.00  0.00     0.074 A 
ATOM     59  C   UNL A   1      41.935  30.905  29.350  1.00  0.00     0.029 A 
ATOM     60  N   UNL A   1      43.479  29.565  28.476  1.00  0.00    -0.354 N 
ATOM     61  N   UNL A   1      46.171  28.867  27.549  1.00  0.00    -0.248 NA
ATOM     62  C   UNL A   1      48.358  29.484  27.017  1.00  0.00     0.031 C 
ATOM     63  C   UNL A   1      43.112  31.640  29.179  1.00  0.00     0.029 A 
ATOM     64  C   UNL A   1      44.083  30.799  28.661  1.00  0.00     0.049 A 
ATOM     65  H   UNL A   1      43.925  28.766  28.112  1.00  0.00     0.167 HD
ATOM     66  C   UNL A   1      46.353  30.208  27.858  1.00  0.00     0.074 A 
ATOM     67  C   UNL A   1      47.730  30.525  27.545  1.00  0.00     0.031 C 
ATOM     68  C   UNL A   1      45.460  31.098  28.354  1.00  0.00     0.037 A 
BRANCH  55  69
ATOM     69  C   UNL A   1      39.802  28.772  29.220  1.00  0.00     0.064 A 
ATOM     70  C   UNL A   1      39.389  28.614  30.551  1.00  0.00     0.173 A 
ATOM     71  C   UNL A   1      38.853  29.222  28.289  1.00  0.00     0.173 A 
ATOM     72  F   UNL A   1      40.255  28.178  31.479  1.00  0.00    -0.203 F 
ATOM     73  C   UNL A   1      38.075  28.871  30.931  1.00  0.00     0.198 A 
ATOM     74  C   UNL A   1      37.546  29.509  28.678  1.00  0.00     0.198 A 
ATOM     75  F   UNL A   1      39.194  29.396  27.003  1.00  0.00    -0.203 F 
ATOM     76  F   UNL A   1      37.693  28.669  32.199  1.00  0.00    -0.200 F 
ATOM     77  C   UNL A   1      37.156  29.327  29.996  1.00  0.00     0.200 A 
ATOM     78  F   UNL A   1      36.665  29.964  27.777  1.00  0.00    -0.200 F 
ATOM     79  F   UNL A   1      35.895  29.586  30.366  1.00  0.00    -0.200 F 
ENDBRANCH  55  69
BRANCH  56  80
ATOM     80  C   UNL A   1      49.094  26.791  26.140  1.00  0.00     0.064 A 
ATOM     81  C   UNL A   1      49.441  27.002  24.798  1.00  0.00     0.173 A 
ATOM     82  C   UNL A   1      50.086  26.292  26.997  1.00  0.00     0.173 A 
ATOM     83  F   UNL A   1      48.522  27.458  23.933  1.00  0.00    -0.203 F 
ATOM     84  C   UNL A   1      50.717  26.701  24.327  1.00  0.00     0.198 A 
ATOM     85  C   UNL A   1      51.371  26.022  26.532  1.00  0.00     0.198 A 
ATOM     86  F   UNL A   1      49.808  26.076  28.291  1.00  0.00    -0.203 F 
ATOM     87  F   UNL A   1      51.003  26.860  23.028  1.00  0.00    -0.200 F 
ATOM     88  C   UNL A   1      51.682  26.215  25.196  1.00  0.00     0.200 A 
ATOM     89  F   UNL A   1      52.305  25.568  27.379  1.00  0.00    -0.200 F 
ATOM     90  F   UNL A   1      52.909  25.925  24.742  1.00  0.00    -0.200 F 
ENDBRANCH  56  80
BRANCH  68  91
ATOM     91  C   UNL A   1      45.950  32.490  28.631  1.00  0.00     0.064 A 
ATOM     92  C   UNL A   1      45.858  33.511  27.673  1.00  0.00     0.173 A 
ATOM     93  C   UNL A   1      46.488  32.816  29.886  1.00  0.00     0.173 A 
ATOM     94  F   UNL A   1      45.365  33.248  26.452  1.00  0.00    -0.203 F 
ATOM     95  C   UNL A   1      46.309  34.798  27.952  1.00  0.00     0.198 A 
ATOM     96  C   UNL A   1      46.907  34.112  30.172  1.00  0.00     0.198 A 
ATOM     97  F   UNL A   1      46.594  31.879  30.841  1.00  0.00    -0.203 F 
ATOM     98  F   UNL A   1      46.258  35.744  27.004  1.00  0.00    -0.200 F 
ATOM     99  C   UNL A   1      46.826  35.099  29.204  1.00  0.00     0.200 A 
ATOM    100  F   UNL A   1      47.391  34.404  31.388  1.00  0.00    -0.200 F 
ATOM    101  F   UNL A   1      47.251  36.341  29.473  1.00  0.00    -0.200 F 
ENDBRANCH  68  91
ENDBRANCH  42  43
ENDBRANCH  34  37
ENDBRANCH  32  33
ENDBRANCH  31  32
ENDBRANCH  30  31
ENDBRANCH   1  30
TORSDOF 15
ENDMDL
