MODEL 1
REMARK VINA RESULT:     -13.2      0.000      0.000
REMARK SMILES O=C(NCCCCNC(=O)c1cnc2c(ccn2C2CCCCC2)c1)c1ccc(-c2c3nc(c(-c4c(F)c(F)c(F)c(F)c4F)c4ccc([nH]4)c(-c4c(F)c(F)c(F)c(F)c4F)c4nc(c(-c5c(F)c(F)c(F)c(F)c5F)c5ccc2[nH]5)C=C4)C=C3)cc1
REMARK SMILES IDX 5 1 4 2 3 3 1 4 2 5 26 7 27 8 88 9 28 10 87 11 29 12 30 13
REMARK SMILES IDX 31 14 81 15 32 16 86 17 80 18 82 19 33 20 85 21 79 22 78 23
REMARK SMILES IDX 34 25 66 26 46 27 65 28 47 29 50 30 64 31 83 32 48 33 49 34
REMARK SMILES IDX 63 36 84 37 51 38 35 39 36 40 44 41 37 42 38 43 42 44 45 45
REMARK SMILES IDX 39 46 40 47 43 48 41 49 67 50 68 51 76 52 69 53 70 54 74 55
REMARK SMILES IDX 77 56 71 57 72 58 75 59 73 60 52 61 53 62 61 63 54 64 55 65
REMARK SMILES IDX 59 66 62 67 56 68 57 69 60 70 58 71 6 72 7 73 8 74 9 75
REMARK SMILES IDX 10 77 11 78 12 79 25 80 13 81 15 82 14 83 16 84 18 85 17 86
REMARK SMILES IDX 19 87 20 88 24 89 21 90 23 91 22 92
REMARK H PARENT 3 6 82 24 50 35 8 76
REMARK Flexibility Score: inf
ROOT
ATOM      1  C   UNL A   1      37.364  22.975  24.735  1.00  0.00     0.023 C 
ENDROOT
BRANCH   1   2
ATOM      2  C   UNL A   1      38.265  23.042  25.967  1.00  0.00     0.116 C 
BRANCH   2   3
ATOM      3  N   UNL A   1      39.548  22.375  25.839  1.00  0.00    -0.352 N 
ATOM      4  O   UNL A   1      41.691  21.822  26.143  1.00  0.00    -0.269 OA
ATOM      5  C   UNL A   1      40.809  22.668  26.289  1.00  0.00     0.251 C 
ATOM      6  H   UNL A   1      39.503  21.538  25.321  1.00  0.00     0.163 HD
BRANCH   5   7
ATOM      7  C   UNL A   1      41.176  24.006  26.798  1.00  0.00     0.039 A 
ATOM      8  C   UNL A   1      42.014  24.227  27.889  1.00  0.00     0.014 A 
ATOM      9  C   UNL A   1      40.538  25.093  26.180  1.00  0.00     0.014 A 
ATOM     10  C   UNL A   1      42.012  25.459  28.516  1.00  0.00     0.010 A 
ATOM     11  C   UNL A   1      40.583  26.346  26.766  1.00  0.00     0.010 A 
ATOM     12  C   UNL A   1      41.243  26.494  27.983  1.00  0.00    -0.014 A 
BRANCH  12  13
ATOM     13  C   UNL A   1      41.229  27.760  28.695  1.00  0.00     0.031 A 
ATOM     14  C   UNL A   1      42.360  28.674  28.362  1.00  0.00     0.074 A 
ATOM     15  C   UNL A   1      40.193  28.102  29.487  1.00  0.00     0.049 A 
ATOM     16  N   UNL A   1      43.213  29.237  29.157  1.00  0.00    -0.248 NA
ATOM     17  C   UNL A   1      42.637  28.904  26.931  1.00  0.00     0.031 C 
ATOM     18  C   UNL A   1      38.919  27.402  29.677  1.00  0.00     0.029 A 
ATOM     19  N   UNL A   1      40.025  29.232  30.220  1.00  0.00    -0.354 N 
ATOM     20  C   UNL A   1      44.047  30.004  28.344  1.00  0.00     0.074 A 
ATOM     21  C   UNL A   1      43.724  29.671  26.981  1.00  0.00     0.031 C 
ATOM     22  C   UNL A   1      38.032  28.242  30.261  1.00  0.00     0.029 A 
ATOM     23  C   UNL A   1      38.713  29.478  30.599  1.00  0.00     0.049 A 
ATOM     24  H   UNL A   1      40.771  29.827  30.464  1.00  0.00     0.167 HD
ATOM     25  C   UNL A   1      44.836  31.001  28.831  1.00  0.00     0.037 A 
ATOM     26  C   UNL A   1      38.231  30.666  31.042  1.00  0.00     0.037 A 
ATOM     27  C   UNL A   1      45.044  30.890  30.244  1.00  0.00     0.049 A 
ATOM     28  C   UNL A   1      39.398  31.475  31.488  1.00  0.00     0.074 A 
ATOM     29  C   UNL A   1      45.695  29.980  31.053  1.00  0.00     0.029 A 
ATOM     30  N   UNL A   1      44.240  31.620  31.082  1.00  0.00    -0.354 N 
ATOM     31  N   UNL A   1      40.139  31.171  32.519  1.00  0.00    -0.248 NA
ATOM     32  C   UNL A   1      40.023  32.346  30.501  1.00  0.00     0.031 C 
ATOM     33  C   UNL A   1      44.880  29.875  32.216  1.00  0.00     0.029 A 
ATOM     34  C   UNL A   1      43.818  30.766  32.069  1.00  0.00     0.049 A 
ATOM     35  H   UNL A   1      44.009  32.573  30.991  1.00  0.00     0.167 HD
ATOM     36  C   UNL A   1      41.435  31.470  32.125  1.00  0.00     0.074 A 
ATOM     37  C   UNL A   1      41.295  32.241  30.893  1.00  0.00     0.031 C 
ATOM     38  C   UNL A   1      42.508  30.828  32.672  1.00  0.00     0.037 A 
BRANCH  25  39
ATOM     39  C   UNL A   1      45.179  32.237  28.052  1.00  0.00     0.064 A 
ATOM     40  C   UNL A   1      44.182  33.168  27.713  1.00  0.00     0.173 A 
ATOM     41  C   UNL A   1      46.420  32.394  27.400  1.00  0.00     0.173 A 
ATOM     42  F   UNL A   1      42.955  33.079  28.246  1.00  0.00    -0.203 F 
ATOM     43  C   UNL A   1      44.409  34.169  26.763  1.00  0.00     0.198 A 
ATOM     44  C   UNL A   1      46.659  33.423  26.494  1.00  0.00     0.198 A 
ATOM     45  F   UNL A   1      47.405  31.495  27.540  1.00  0.00    -0.203 F 
ATOM     46  F   UNL A   1      43.406  34.979  26.396  1.00  0.00    -0.200 F 
ATOM     47  C   UNL A   1      45.647  34.297  26.156  1.00  0.00     0.200 A 
ATOM     48  F   UNL A   1      47.857  33.514  25.899  1.00  0.00    -0.200 F 
ATOM     49  F   UNL A   1      45.852  35.227  25.215  1.00  0.00    -0.200 F 
ENDBRANCH  25  39
BRANCH  26  50
ATOM     50  C   UNL A   1      36.930  31.285  30.683  1.00  0.00     0.064 A 
ATOM     51  C   UNL A   1      36.042  31.730  31.675  1.00  0.00     0.173 A 
ATOM     52  C   UNL A   1      36.658  31.708  29.366  1.00  0.00     0.173 A 
ATOM     53  F   UNL A   1      36.258  31.415  32.961  1.00  0.00    -0.203 F 
ATOM     54  C   UNL A   1      34.960  32.564  31.371  1.00  0.00     0.198 A 
ATOM     55  C   UNL A   1      35.575  32.534  29.063  1.00  0.00     0.198 A 
ATOM     56  F   UNL A   1      37.492  31.411  28.360  1.00  0.00    -0.203 F 
ATOM     57  F   UNL A   1      34.168  33.018  32.352  1.00  0.00    -0.200 F 
ATOM     58  C   UNL A   1      34.733  32.973  30.067  1.00  0.00     0.200 A 
ATOM     59  F   UNL A   1      35.391  32.952  27.802  1.00  0.00    -0.200 F 
ATOM     60  F   UNL A   1      33.734  33.820  29.783  1.00  0.00    -0.200 F 
ENDBRANCH  26  50
BRANCH  38  61
ATOM     61  C   UNL A   1      42.259  29.916  33.841  1.00  0.00     0.064 A 
ATOM     62  C   UNL A   1      41.860  28.574  33.708  1.00  0.00     0.173 A 
ATOM     63  C   UNL A   1      42.601  30.361  35.124  1.00  0.00     0.173 A 
ATOM     64  F   UNL A   1      41.622  28.044  32.504  1.00  0.00    -0.203 F 
ATOM     65  C   UNL A   1      41.772  27.731  34.814  1.00  0.00     0.198 A 
ATOM     66  C   UNL A   1      42.546  29.507  36.222  1.00  0.00     0.198 A 
ATOM     67  F   UNL A   1      43.047  31.614  35.303  1.00  0.00    -0.203 F 
ATOM     68  F   UNL A   1      41.389  26.454  34.659  1.00  0.00    -0.200 F 
ATOM     69  C   UNL A   1      42.124  28.195  36.070  1.00  0.00     0.200 A 
ATOM     70  F   UNL A   1      42.939  29.946  37.426  1.00  0.00    -0.200 F 
ATOM     71  F   UNL A   1      42.088  27.372  37.127  1.00  0.00    -0.200 F 
ENDBRANCH  38  61
ENDBRANCH  12  13
ENDBRANCH   5   7
ENDBRANCH   2   3
ENDBRANCH   1   2
BRANCH   1  72
ATOM     72  C   UNL A   1      36.948  21.562  24.318  1.00  0.00     0.023 C 
BRANCH  72  73
ATOM     73  C   UNL A   1      36.221  20.753  25.387  1.00  0.00     0.116 C 
BRANCH  73  74
ATOM     74  N   UNL A   1      34.930  20.254  24.938  1.00  0.00    -0.352 N 
ATOM     75  C   UNL A   1      33.766  20.947  24.699  1.00  0.00     0.252 C 
ATOM     76  H   UNL A   1      34.882  19.282  24.783  1.00  0.00     0.163 HD
ATOM     77  O   UNL A   1      32.733  20.356  24.441  1.00  0.00    -0.269 OA
BRANCH  75  78
ATOM     78  C   UNL A   1      33.775  22.414  24.793  1.00  0.00     0.058 A 
ATOM     79  C   UNL A   1      33.762  23.045  26.029  1.00  0.00     0.127 A 
ATOM     80  C   UNL A   1      33.782  23.179  23.626  1.00  0.00     0.027 A 
ATOM     81  N   UNL A   1      33.652  24.376  26.224  1.00  0.00    -0.238 NA
ATOM     82  C   UNL A   1      33.689  24.571  23.779  1.00  0.00     0.020 A 
ATOM     83  C   UNL A   1      33.610  25.081  25.073  1.00  0.00     0.140 A 
ATOM     84  C   UNL A   1      33.641  25.679  22.892  1.00  0.00     0.030 A 
ATOM     85  N   UNL A   1      33.470  26.445  24.981  1.00  0.00    -0.329 N 
ATOM     86  C   UNL A   1      33.505  26.818  23.657  1.00  0.00     0.088 A 
BRANCH  85  87
ATOM     87  C   UNL A   1      33.278  27.367  26.099  1.00  0.00     0.088 C 
ATOM     88  C   UNL A   1      34.341  28.479  26.116  1.00  0.00     0.025 C 
ATOM     89  C   UNL A   1      31.850  27.932  26.162  1.00  0.00     0.025 C 
ATOM     90  C   UNL A   1      34.137  29.437  27.287  1.00  0.00     0.002 C 
ATOM     91  C   UNL A   1      31.675  28.893  27.335  1.00  0.00     0.002 C 
ATOM     92  C   UNL A   1      32.720  30.004  27.308  1.00  0.00     0.000 C 
ENDBRANCH  85  87
ENDBRANCH  75  78
ENDBRANCH  73  74
ENDBRANCH  72  73
ENDBRANCH   1  72
TORSDOF 12
ENDMDL
MODEL 2
REMARK VINA RESULT:     -13.1      3.856      8.841
REMARK SMILES O=C(NCCCCNC(=O)c1cnc2c(ccn2C2CCCCC2)c1)c1ccc(-c2c3nc(c(-c4c(F)c(F)c(F)c(F)c4F)c4ccc([nH]4)c(-c4c(F)c(F)c(F)c(F)c4F)c4nc(c(-c5c(F)c(F)c(F)c(F)c5F)c5ccc2[nH]5)C=C4)C=C3)cc1
REMARK SMILES IDX 5 1 4 2 3 3 1 4 2 5 26 7 27 8 88 9 28 10 87 11 29 12 30 13
REMARK SMILES IDX 31 14 81 15 32 16 86 17 80 18 82 19 33 20 85 21 79 22 78 23
REMARK SMILES IDX 34 25 66 26 46 27 65 28 47 29 50 30 64 31 83 32 48 33 49 34
REMARK SMILES IDX 63 36 84 37 51 38 35 39 36 40 44 41 37 42 38 43 42 44 45 45
REMARK SMILES IDX 39 46 40 47 43 48 41 49 67 50 68 51 76 52 69 53 70 54 74 55
REMARK SMILES IDX 77 56 71 57 72 58 75 59 73 60 52 61 53 62 61 63 54 64 55 65
REMARK SMILES IDX 59 66 62 67 56 68 57 69 60 70 58 71 6 72 7 73 8 74 9 75
REMARK SMILES IDX 10 77 11 78 12 79 25 80 13 81 15 82 14 83 16 84 18 85 17 86
REMARK SMILES IDX 19 87 20 88 24 89 21 90 23 91 22 92
REMARK H PARENT 3 6 82 24 50 35 8 76
REMARK Flexibility Score: inf
ROOT
ATOM      1  C   UNL A   1      33.589  30.949  27.491  1.00  0.00     0.023 C 
ENDROOT
BRANCH   1   2
ATOM      2  C   UNL A   1      34.468  32.050  28.082  1.00  0.00     0.116 C 
BRANCH   2   3
ATOM      3  N   UNL A   1      34.545  32.077  29.532  1.00  0.00    -0.352 N 
ATOM      4  O   UNL A   1      35.347  31.996  31.615  1.00  0.00    -0.269 OA
ATOM      5  C   UNL A   1      35.518  31.719  30.428  1.00  0.00     0.251 C 
ATOM      6  H   UNL A   1      33.728  32.424  29.960  1.00  0.00     0.163 HD
BRANCH   5   7
ATOM      7  C   UNL A   1      36.678  30.886  30.046  1.00  0.00     0.039 A 
ATOM      8  C   UNL A   1      36.652  29.495  29.971  1.00  0.00     0.014 A 
ATOM      9  C   UNL A   1      37.888  31.570  29.856  1.00  0.00     0.014 A 
ATOM     10  C   UNL A   1      37.840  28.786  29.970  1.00  0.00     0.010 A 
ATOM     11  C   UNL A   1      39.078  30.867  29.789  1.00  0.00     0.010 A 
ATOM     12  C   UNL A   1      39.048  29.483  29.944  1.00  0.00    -0.014 A 
BRANCH  12  13
ATOM     13  C   UNL A   1      40.276  28.707  29.991  1.00  0.00     0.031 A 
ATOM     14  C   UNL A   1      40.829  28.501  31.361  1.00  0.00     0.074 A 
ATOM     15  C   UNL A   1      40.776  28.128  28.881  1.00  0.00     0.049 A 
ATOM     16  N   UNL A   1      42.014  28.771  31.809  1.00  0.00    -0.248 NA
ATOM     17  C   UNL A   1      39.894  28.025  32.396  1.00  0.00     0.031 C 
ATOM     18  C   UNL A   1      40.177  28.045  27.545  1.00  0.00     0.029 A 
ATOM     19  N   UNL A   1      41.903  27.383  28.750  1.00  0.00    -0.354 N 
ATOM     20  C   UNL A   1      42.019  28.368  33.144  1.00  0.00     0.074 A 
ATOM     21  C   UNL A   1      40.661  28.028  33.484  1.00  0.00     0.031 C 
ATOM     22  C   UNL A   1      40.818  27.092  26.829  1.00  0.00     0.029 A 
ATOM     23  C   UNL A   1      41.941  26.600  27.605  1.00  0.00     0.049 A 
ATOM     24  H   UNL A   1      42.633  27.397  29.411  1.00  0.00     0.167 HD
ATOM     25  C   UNL A   1      43.167  28.168  33.848  1.00  0.00     0.037 A 
ATOM     26  C   UNL A   1      42.773  25.549  27.397  1.00  0.00     0.037 A 
ATOM     27  C   UNL A   1      44.296  28.808  33.242  1.00  0.00     0.049 A 
ATOM     28  C   UNL A   1      43.903  25.687  28.356  1.00  0.00     0.074 A 
ATOM     29  C   UNL A   1      44.657  30.123  33.028  1.00  0.00     0.029 A 
ATOM     30  N   UNL A   1      45.106  28.064  32.422  1.00  0.00    -0.354 N 
ATOM     31  N   UNL A   1      44.786  26.647  28.302  1.00  0.00    -0.248 NA
ATOM     32  C   UNL A   1      43.762  25.037  29.652  1.00  0.00     0.031 C 
ATOM     33  C   UNL A   1      45.285  30.128  31.750  1.00  0.00     0.029 A 
ATOM     34  C   UNL A   1      45.317  28.812  31.291  1.00  0.00     0.049 A 
ATOM     35  H   UNL A   1      45.465  27.167  32.609  1.00  0.00     0.167 HD
ATOM     36  C   UNL A   1      45.018  26.991  29.626  1.00  0.00     0.074 A 
ATOM     37  C   UNL A   1      44.400  25.928  30.414  1.00  0.00     0.031 C 
ATOM     38  C   UNL A   1      45.438  28.244  29.970  1.00  0.00     0.037 A 
BRANCH  25  39
ATOM     39  C   UNL A   1      43.299  27.145  34.937  1.00  0.00     0.064 A 
ATOM     40  C   UNL A   1      43.539  27.540  36.265  1.00  0.00     0.173 A 
ATOM     41  C   UNL A   1      43.463  25.770  34.662  1.00  0.00     0.173 A 
ATOM     42  F   UNL A   1      43.451  28.830  36.619  1.00  0.00    -0.203 F 
ATOM     43  C   UNL A   1      43.943  26.622  37.240  1.00  0.00     0.198 A 
ATOM     44  C   UNL A   1      43.815  24.851  35.646  1.00  0.00     0.198 A 
ATOM     45  F   UNL A   1      43.391  25.292  33.411  1.00  0.00    -0.203 F 
ATOM     46  F   UNL A   1      44.254  27.051  38.471  1.00  0.00    -0.200 F 
ATOM     47  C   UNL A   1      44.079  25.279  36.930  1.00  0.00     0.200 A 
ATOM     48  F   UNL A   1      43.966  23.560  35.319  1.00  0.00    -0.200 F 
ATOM     49  F   UNL A   1      44.508  24.407  37.852  1.00  0.00    -0.200 F 
ENDBRANCH  25  39
BRANCH  26  50
ATOM     50  C   UNL A   1      42.423  24.250  26.769  1.00  0.00     0.064 A 
ATOM     51  C   UNL A   1      43.308  23.611  25.887  1.00  0.00     0.173 A 
ATOM     52  C   UNL A   1      41.341  23.477  27.239  1.00  0.00     0.173 A 
ATOM     53  F   UNL A   1      44.391  24.260  25.433  1.00  0.00    -0.203 F 
ATOM     54  C   UNL A   1      43.134  22.273  25.512  1.00  0.00     0.198 A 
ATOM     55  C   UNL A   1      41.165  22.145  26.860  1.00  0.00     0.198 A 
ATOM     56  F   UNL A   1      40.490  23.964  28.151  1.00  0.00    -0.203 F 
ATOM     57  F   UNL A   1      44.031  21.678  24.715  1.00  0.00    -0.200 F 
ATOM     58  C   UNL A   1      42.068  21.540  26.007  1.00  0.00     0.200 A 
ATOM     59  F   UNL A   1      40.150  21.437  27.377  1.00  0.00    -0.200 F 
ATOM     60  F   UNL A   1      41.933  20.242  25.699  1.00  0.00    -0.200 F 
ENDBRANCH  26  50
BRANCH  38  61
ATOM     61  C   UNL A   1      45.815  29.186  28.861  1.00  0.00     0.064 A 
ATOM     62  C   UNL A   1      44.893  30.020  28.204  1.00  0.00     0.173 A 
ATOM     63  C   UNL A   1      47.173  29.377  28.575  1.00  0.00     0.173 A 
ATOM     64  F   UNL A   1      43.591  29.974  28.502  1.00  0.00    -0.203 F 
ATOM     65  C   UNL A   1      45.311  30.973  27.276  1.00  0.00     0.198 A 
ATOM     66  C   UNL A   1      47.590  30.353  27.675  1.00  0.00     0.198 A 
ATOM     67  F   UNL A   1      48.101  28.652  29.218  1.00  0.00    -0.203 F 
ATOM     68  F   UNL A   1      44.410  31.756  26.663  1.00  0.00    -0.200 F 
ATOM     69  C   UNL A   1      46.660  31.145  27.019  1.00  0.00     0.200 A 
ATOM     70  F   UNL A   1      48.899  30.552  27.469  1.00  0.00    -0.200 F 
ATOM     71  F   UNL A   1      47.067  32.095  26.164  1.00  0.00    -0.200 F 
ENDBRANCH  38  61
ENDBRANCH  12  13
ENDBRANCH   5   7
ENDBRANCH   2   3
ENDBRANCH   1   2
BRANCH   1  72
ATOM     72  C   UNL A   1      34.312  29.630  27.205  1.00  0.00     0.023 C 
BRANCH  72  73
ATOM     73  C   UNL A   1      33.428  28.387  27.211  1.00  0.00     0.116 C 
BRANCH  73  74
ATOM     74  N   UNL A   1      34.010  27.277  26.468  1.00  0.00    -0.352 N 
ATOM     75  C   UNL A   1      33.607  26.725  25.275  1.00  0.00     0.252 C 
ATOM     76  H   UNL A   1      34.804  26.864  26.879  1.00  0.00     0.163 HD
ATOM     77  O   UNL A   1      34.138  25.715  24.847  1.00  0.00    -0.269 OA
BRANCH  75  78
ATOM     78  C   UNL A   1      32.503  27.351  24.534  1.00  0.00     0.058 A 
ATOM     79  C   UNL A   1      32.695  28.542  23.848  1.00  0.00     0.127 A 
ATOM     80  C   UNL A   1      31.244  26.747  24.534  1.00  0.00     0.027 A 
ATOM     81  N   UNL A   1      31.725  29.256  23.238  1.00  0.00    -0.238 NA
ATOM     82  C   UNL A   1      30.207  27.443  23.893  1.00  0.00     0.020 A 
ATOM     83  C   UNL A   1      30.511  28.668  23.301  1.00  0.00     0.140 A 
ATOM     84  C   UNL A   1      28.822  27.214  23.684  1.00  0.00     0.030 A 
ATOM     85  N   UNL A   1      29.347  29.190  22.791  1.00  0.00    -0.329 N 
ATOM     86  C   UNL A   1      28.317  28.302  23.005  1.00  0.00     0.088 A 
BRANCH  85  87
ATOM     87  C   UNL A   1      29.199  30.495  22.150  1.00  0.00     0.088 C 
ATOM     88  C   UNL A   1      28.143  30.470  21.031  1.00  0.00     0.025 C 
ATOM     89  C   UNL A   1      28.944  31.625  23.160  1.00  0.00     0.025 C 
ATOM     90  C   UNL A   1      27.995  31.834  20.364  1.00  0.00     0.002 C 
ATOM     91  C   UNL A   1      28.791  32.977  22.467  1.00  0.00     0.002 C 
ATOM     92  C   UNL A   1      27.714  32.932  21.387  1.00  0.00     0.000 C 
ENDBRANCH  85  87
ENDBRANCH  75  78
ENDBRANCH  73  74
ENDBRANCH  72  73
ENDBRANCH   1  72
TORSDOF 12
ENDMDL
MODEL 3
REMARK VINA RESULT:     -13.0      1.286      2.421
REMARK SMILES O=C(NCCCCNC(=O)c1cnc2c(ccn2C2CCCCC2)c1)c1ccc(-c2c3nc(c(-c4c(F)c(F)c(F)c(F)c4F)c4ccc([nH]4)c(-c4c(F)c(F)c(F)c(F)c4F)c4nc(c(-c5c(F)c(F)c(F)c(F)c5F)c5ccc2[nH]5)C=C4)C=C3)cc1
REMARK SMILES IDX 5 1 4 2 3 3 1 4 2 5 26 7 27 8 88 9 28 10 87 11 29 12 30 13
REMARK SMILES IDX 31 14 81 15 32 16 86 17 80 18 82 19 33 20 85 21 79 22 78 23
REMARK SMILES IDX 34 25 66 26 46 27 65 28 47 29 50 30 64 31 83 32 48 33 49 34
REMARK SMILES IDX 63 36 84 37 51 38 35 39 36 40 44 41 37 42 38 43 42 44 45 45
REMARK SMILES IDX 39 46 40 47 43 48 41 49 67 50 68 51 76 52 69 53 70 54 74 55
REMARK SMILES IDX 77 56 71 57 72 58 75 59 73 60 52 61 53 62 61 63 54 64 55 65
REMARK SMILES IDX 59 66 62 67 56 68 57 69 60 70 58 71 6 72 7 73 8 74 9 75
REMARK SMILES IDX 10 77 11 78 12 79 25 80 13 81 15 82 14 83 16 84 18 85 17 86
REMARK SMILES IDX 19 87 20 88 24 89 21 90 23 91 22 92
REMARK H PARENT 3 6 82 24 50 35 8 76
REMARK Flexibility Score: inf
ROOT
ATOM      1  C   UNL A   1      38.420  22.237  25.786  1.00  0.00     0.023 C 
ENDROOT
BRANCH   1   2
ATOM      2  C   UNL A   1      39.702  21.571  26.285  1.00  0.00     0.116 C 
BRANCH   2   3
ATOM      3  N   UNL A   1      40.926  22.010  25.639  1.00  0.00    -0.352 N 
ATOM      4  O   UNL A   1      42.825  23.108  25.217  1.00  0.00    -0.269 OA
ATOM      5  C   UNL A   1      41.764  23.076  25.840  1.00  0.00     0.251 C 
ATOM      6  H   UNL A   1      41.213  21.421  24.904  1.00  0.00     0.163 HD
BRANCH   5   7
ATOM      7  C   UNL A   1      41.374  24.247  26.652  1.00  0.00     0.039 A 
ATOM      8  C   UNL A   1      40.529  25.262  26.207  1.00  0.00     0.014 A 
ATOM      9  C   UNL A   1      41.997  24.361  27.905  1.00  0.00     0.014 A 
ATOM     10  C   UNL A   1      40.508  26.476  26.869  1.00  0.00     0.010 A 
ATOM     11  C   UNL A   1      41.930  25.552  28.606  1.00  0.00     0.010 A 
ATOM     12  C   UNL A   1      41.263  26.631  28.031  1.00  0.00    -0.014 A 
BRANCH  12  13
ATOM     13  C   UNL A   1      41.254  27.935  28.673  1.00  0.00     0.031 A 
ATOM     14  C   UNL A   1      42.332  28.860  28.218  1.00  0.00     0.074 A 
ATOM     15  C   UNL A   1      40.261  28.291  29.513  1.00  0.00     0.049 A 
ATOM     16  N   UNL A   1      43.217  29.489  28.924  1.00  0.00    -0.248 NA
ATOM     17  C   UNL A   1      42.509  29.017  26.762  1.00  0.00     0.031 C 
ATOM     18  C   UNL A   1      39.024  27.567  29.823  1.00  0.00     0.029 A 
ATOM     19  N   UNL A   1      40.105  29.454  30.194  1.00  0.00    -0.354 N 
ATOM     20  C   UNL A   1      43.972  30.233  28.018  1.00  0.00     0.074 A 
ATOM     21  C   UNL A   1      43.572  29.816  26.699  1.00  0.00     0.031 C 
ATOM     22  C   UNL A   1      38.151  28.413  30.419  1.00  0.00     0.029 A 
ATOM     23  C   UNL A   1      38.813  29.684  30.644  1.00  0.00     0.049 A 
ATOM     24  H   UNL A   1      40.846  30.083  30.355  1.00  0.00     0.167 HD
ATOM     25  C   UNL A   1      44.759  31.277  28.397  1.00  0.00     0.037 A 
ATOM     26  C   UNL A   1      38.324  30.882  31.054  1.00  0.00     0.037 A 
ATOM     27  C   UNL A   1      45.061  31.250  29.798  1.00  0.00     0.049 A 
ATOM     28  C   UNL A   1      39.491  31.746  31.378  1.00  0.00     0.074 A 
ATOM     29  C   UNL A   1      45.790  30.406  30.609  1.00  0.00     0.029 A 
ATOM     30  N   UNL A   1      44.289  32.004  30.646  1.00  0.00    -0.354 N 
ATOM     31  N   UNL A   1      40.305  31.520  32.373  1.00  0.00    -0.248 NA
ATOM     32  C   UNL A   1      40.023  32.578  30.307  1.00  0.00     0.031 C 
ATOM     33  C   UNL A   1      45.056  30.342  31.828  1.00  0.00     0.029 A 
ATOM     34  C   UNL A   1      43.959  31.194  31.704  1.00  0.00     0.049 A 
ATOM     35  H   UNL A   1      44.023  32.943  30.520  1.00  0.00     0.167 HD
ATOM     36  C   UNL A   1      41.564  31.834  31.879  1.00  0.00     0.074 A 
ATOM     37  C   UNL A   1      41.321  32.531  30.619  1.00  0.00     0.031 C 
ATOM     38  C   UNL A   1      42.690  31.252  32.387  1.00  0.00     0.037 A 
BRANCH  25  39
ATOM     39  C   UNL A   1      45.012  32.477  27.533  1.00  0.00     0.064 A 
ATOM     40  C   UNL A   1      46.240  32.632  26.866  1.00  0.00     0.173 A 
ATOM     41  C   UNL A   1      44.174  33.613  27.559  1.00  0.00     0.173 A 
ATOM     42  F   UNL A   1      47.124  31.625  26.822  1.00  0.00    -0.203 F 
ATOM     43  C   UNL A   1      46.611  33.852  26.291  1.00  0.00     0.198 A 
ATOM     44  C   UNL A   1      44.524  34.810  26.942  1.00  0.00     0.198 A 
ATOM     45  F   UNL A   1      43.040  33.630  28.273  1.00  0.00    -0.203 F 
ATOM     46  F   UNL A   1      47.828  33.989  25.748  1.00  0.00    -0.200 F 
ATOM     47  C   UNL A   1      45.753  34.938  26.328  1.00  0.00     0.200 A 
ATOM     48  F   UNL A   1      43.690  35.857  27.011  1.00  0.00    -0.200 F 
ATOM     49  F   UNL A   1      46.125  36.119  25.816  1.00  0.00    -0.200 F 
ENDBRANCH  25  39
BRANCH  26  50
ATOM     50  C   UNL A   1      36.983  31.443  30.749  1.00  0.00     0.064 A 
ATOM     51  C   UNL A   1      36.104  31.817  31.777  1.00  0.00     0.173 A 
ATOM     52  C   UNL A   1      36.652  31.886  29.451  1.00  0.00     0.173 A 
ATOM     53  F   UNL A   1      36.373  31.480  33.047  1.00  0.00    -0.203 F 
ATOM     54  C   UNL A   1      34.973  32.603  31.527  1.00  0.00     0.198 A 
ATOM     55  C   UNL A   1      35.520  32.664  29.202  1.00  0.00     0.198 A 
ATOM     56  F   UNL A   1      37.469  31.658  28.415  1.00  0.00    -0.203 F 
ATOM     57  F   UNL A   1      34.189  32.991  32.542  1.00  0.00    -0.200 F 
ATOM     58  C   UNL A   1      34.688  33.033  30.241  1.00  0.00     0.200 A 
ATOM     59  F   UNL A   1      35.279  33.104  27.959  1.00  0.00    -0.200 F 
ATOM     60  F   UNL A   1      33.640  33.836  30.009  1.00  0.00    -0.200 F 
ENDBRANCH  26  50
BRANCH  38  61
ATOM     61  C   UNL A   1      42.545  30.401  33.618  1.00  0.00     0.064 A 
ATOM     62  C   UNL A   1      42.543  30.920  34.925  1.00  0.00     0.173 A 
ATOM     63  C   UNL A   1      42.226  29.046  33.464  1.00  0.00     0.173 A 
ATOM     64  F   UNL A   1      42.731  32.225  35.146  1.00  0.00    -0.203 F 
ATOM     65  C   UNL A   1      42.271  30.110  36.026  1.00  0.00     0.198 A 
ATOM     66  C   UNL A   1      41.920  28.248  34.562  1.00  0.00     0.198 A 
ATOM     67  F   UNL A   1      42.152  28.511  32.235  1.00  0.00    -0.203 F 
ATOM     68  F   UNL A   1      42.276  30.632  37.263  1.00  0.00    -0.200 F 
ATOM     69  C   UNL A   1      41.951  28.776  35.843  1.00  0.00     0.200 A 
ATOM     70  F   UNL A   1      41.559  26.971  34.375  1.00  0.00    -0.200 F 
ATOM     71  F   UNL A   1      41.640  28.007  36.897  1.00  0.00    -0.200 F 
ENDBRANCH  38  61
ENDBRANCH  12  13
ENDBRANCH   5   7
ENDBRANCH   2   3
ENDBRANCH   1   2
BRANCH   1  72
ATOM     72  C   UNL A   1      37.490  21.323  24.983  1.00  0.00     0.023 C 
BRANCH  72  73
ATOM     73  C   UNL A   1      36.088  21.152  25.558  1.00  0.00     0.116 C 
BRANCH  73  74
ATOM     74  N   UNL A   1      35.393  19.994  25.015  1.00  0.00    -0.352 N 
ATOM     75  C   UNL A   1      34.072  19.866  24.652  1.00  0.00     0.252 C 
ATOM     76  H   UNL A   1      35.946  19.189  24.889  1.00  0.00     0.163 HD
ATOM     77  O   UNL A   1      33.620  18.783  24.325  1.00  0.00    -0.269 OA
BRANCH  75  78
ATOM     78  C   UNL A   1      33.199  21.048  24.697  1.00  0.00     0.058 A 
ATOM     79  C   UNL A   1      33.201  21.969  23.659  1.00  0.00     0.127 A 
ATOM     80  C   UNL A   1      32.373  21.253  25.803  1.00  0.00     0.027 A 
ATOM     81  N   UNL A   1      32.530  23.140  23.655  1.00  0.00    -0.238 NA
ATOM     82  C   UNL A   1      31.639  22.449  25.834  1.00  0.00     0.020 A 
ATOM     83  C   UNL A   1      31.781  23.329  24.762  1.00  0.00     0.140 A 
ATOM     84  C   UNL A   1      30.730  23.047  26.745  1.00  0.00     0.030 A 
ATOM     85  N   UNL A   1      31.024  24.444  25.030  1.00  0.00    -0.329 N 
ATOM     86  C   UNL A   1      30.368  24.273  26.228  1.00  0.00     0.088 A 
BRANCH  85  87
ATOM     87  C   UNL A   1      30.943  25.647  24.203  1.00  0.00     0.088 C 
ATOM     88  C   UNL A   1      29.530  26.255  24.210  1.00  0.00     0.025 C 
ATOM     89  C   UNL A   1      32.021  26.684  24.559  1.00  0.00     0.025 C 
ATOM     90  C   UNL A   1      29.451  27.509  23.343  1.00  0.00     0.002 C 
ATOM     91  C   UNL A   1      31.914  27.930  23.684  1.00  0.00     0.002 C 
ATOM     92  C   UNL A   1      30.513  28.532  23.737  1.00  0.00     0.000 C 
ENDBRANCH  85  87
ENDBRANCH  75  78
ENDBRANCH  73  74
ENDBRANCH  72  73
ENDBRANCH   1  72
TORSDOF 12
ENDMDL
