MODEL 1
REMARK VINA RESULT:     -12.6      0.000      0.000
REMARK SMILES O=C(NCCCCNC(=O)c1cc(S(=O)(=O)Nc2cccc(Cl)c2)ccc1O)c1ccc(-c2c3nc(c(-c4c(F)c(F)c(F)c(F)c4F)c4ccc([nH]4)c(-c4c(F)c(F)c(F)c(F)c4F)c4nc(c(-c5c(F)c(F)c(F)c(F)c5F)c5ccc2[nH]5)C=C4)C=C3)cc1
REMARK SMILES IDX 6 1 5 2 4 3 3 4 1 5 2 6 29 8 30 9 91 10 31 11 90 12 32 13
REMARK SMILES IDX 33 14 34 15 84 16 35 17 89 18 83 19 85 20 36 21 88 22 82 23
REMARK SMILES IDX 81 24 37 26 69 27 49 28 68 29 50 30 53 31 67 32 86 33 51 34
REMARK SMILES IDX 52 35 66 37 87 38 54 39 38 40 39 41 47 42 40 43 41 44 45 45
REMARK SMILES IDX 48 46 42 47 43 48 46 49 44 50 70 51 71 52 79 53 72 54 73 55
REMARK SMILES IDX 77 56 80 57 74 58 75 59 78 60 76 61 55 62 56 63 64 64 57 65
REMARK SMILES IDX 58 66 62 67 65 68 59 69 60 70 63 71 61 72 7 73 8 74 9 75
REMARK SMILES IDX 10 77 11 78 12 79 27 80 13 81 26 82 25 83 28 84 14 86 15 87
REMARK SMILES IDX 16 88 17 89 18 91 19 92 24 93 20 94 22 95 21 96 23 97
REMARK H PARENT 3 7 85 25 53 36 8 76 28 85 17 90
REMARK Flexibility Score: inf
ROOT
ATOM      1  C   UNL A   1      31.446  30.871  26.029  1.00  0.00     0.023 C 
ENDROOT
BRANCH   1   2
ATOM      2  C   UNL A   1      31.264  32.266  26.611  1.00  0.00     0.023 C 
BRANCH   2   3
ATOM      3  C   UNL A   1      32.538  32.921  27.123  1.00  0.00     0.116 C 
BRANCH   3   4
ATOM      4  N   UNL A   1      32.322  34.271  27.622  1.00  0.00    -0.352 N 
ATOM      5  O   UNL A   1      32.572  36.024  29.026  1.00  0.00    -0.269 OA
ATOM      6  C   UNL A   1      32.974  34.934  28.634  1.00  0.00     0.251 C 
ATOM      7  H   UNL A   1      31.610  34.781  27.171  1.00  0.00     0.163 HD
BRANCH   6   8
ATOM      8  C   UNL A   1      34.158  34.313  29.263  1.00  0.00     0.039 A 
ATOM      9  C   UNL A   1      34.012  33.493  30.385  1.00  0.00     0.014 A 
ATOM     10  C   UNL A   1      35.425  34.551  28.724  1.00  0.00     0.014 A 
ATOM     11  C   UNL A   1      35.138  33.018  31.045  1.00  0.00     0.010 A 
ATOM     12  C   UNL A   1      36.552  33.995  29.335  1.00  0.00     0.010 A 
ATOM     13  C   UNL A   1      36.416  33.235  30.508  1.00  0.00    -0.014 A 
BRANCH  13  14
ATOM     14  C   UNL A   1      37.582  32.546  31.114  1.00  0.00     0.031 A 
ATOM     15  C   UNL A   1      38.241  31.378  30.441  1.00  0.00     0.074 A 
ATOM     16  C   UNL A   1      38.028  32.993  32.304  1.00  0.00     0.049 A 
ATOM     17  N   UNL A   1      39.238  30.643  30.865  1.00  0.00    -0.248 NA
ATOM     18  C   UNL A   1      37.715  30.974  29.128  1.00  0.00     0.031 C 
ATOM     19  C   UNL A   1      37.446  34.111  33.053  1.00  0.00     0.029 A 
ATOM     20  N   UNL A   1      39.061  32.568  33.098  1.00  0.00    -0.354 N 
ATOM     21  C   UNL A   1      39.445  29.679  29.889  1.00  0.00     0.074 A 
ATOM     22  C   UNL A   1      38.463  29.912  28.850  1.00  0.00     0.031 C 
ATOM     23  C   UNL A   1      38.140  34.295  34.183  1.00  0.00     0.029 A 
ATOM     24  C   UNL A   1      39.167  33.265  34.276  1.00  0.00     0.049 A 
ATOM     25  H   UNL A   1      39.668  31.834  32.848  1.00  0.00     0.167 HD
ATOM     26  C   UNL A   1      40.374  28.692  29.871  1.00  0.00     0.037 A 
ATOM     27  C   UNL A   1      39.970  33.071  35.337  1.00  0.00     0.037 A 
ATOM     28  C   UNL A   1      41.361  28.492  30.901  1.00  0.00     0.049 A 
ATOM     29  C   UNL A   1      40.960  31.944  35.298  1.00  0.00     0.074 A 
ATOM     30  C   UNL A   1      42.403  27.579  30.927  1.00  0.00     0.029 A 
ATOM     31  N   UNL A   1      41.422  29.202  32.090  1.00  0.00    -0.354 N 
ATOM     32  N   UNL A   1      41.197  31.088  34.334  1.00  0.00    -0.248 NA
ATOM     33  C   UNL A   1      41.789  31.748  36.495  1.00  0.00     0.031 C 
ATOM     34  C   UNL A   1      43.050  27.691  32.161  1.00  0.00     0.029 A 
ATOM     35  C   UNL A   1      42.450  28.711  32.881  1.00  0.00     0.049 A 
ATOM     36  H   UNL A   1      40.824  29.943  32.337  1.00  0.00     0.167 HD
ATOM     37  C   UNL A   1      42.204  30.258  34.803  1.00  0.00     0.074 A 
ATOM     38  C   UNL A   1      42.556  30.733  36.126  1.00  0.00     0.031 C 
ATOM     39  C   UNL A   1      42.779  29.191  34.198  1.00  0.00     0.037 A 
BRANCH  26  40
ATOM     40  C   UNL A   1      40.371  27.729  28.720  1.00  0.00     0.064 A 
ATOM     41  C   UNL A   1      41.144  27.944  27.572  1.00  0.00     0.173 A 
ATOM     42  C   UNL A   1      39.668  26.517  28.822  1.00  0.00     0.173 A 
ATOM     43  F   UNL A   1      41.830  29.087  27.423  1.00  0.00    -0.203 F 
ATOM     44  C   UNL A   1      41.211  26.985  26.563  1.00  0.00     0.198 A 
ATOM     45  C   UNL A   1      39.756  25.551  27.823  1.00  0.00     0.198 A 
ATOM     46  F   UNL A   1      38.921  26.257  29.905  1.00  0.00    -0.203 F 
ATOM     47  F   UNL A   1      41.942  27.218  25.465  1.00  0.00    -0.200 F 
ATOM     48  C   UNL A   1      40.526  25.784  26.694  1.00  0.00     0.200 A 
ATOM     49  F   UNL A   1      39.107  24.386  27.961  1.00  0.00    -0.200 F 
ATOM     50  F   UNL A   1      40.611  24.853  25.735  1.00  0.00    -0.200 F 
ENDBRANCH  26  40
BRANCH  27  51
ATOM     51  C   UNL A   1      39.828  33.930  36.542  1.00  0.00     0.064 A 
ATOM     52  C   UNL A   1      38.997  33.558  37.606  1.00  0.00     0.173 A 
ATOM     53  C   UNL A   1      40.517  35.148  36.647  1.00  0.00     0.173 A 
ATOM     54  F   UNL A   1      38.305  32.411  37.545  1.00  0.00    -0.203 F 
ATOM     55  C   UNL A   1      38.837  34.385  38.716  1.00  0.00     0.198 A 
ATOM     56  C   UNL A   1      40.384  35.958  37.772  1.00  0.00     0.198 A 
ATOM     57  F   UNL A   1      41.330  35.549  35.659  1.00  0.00    -0.203 F 
ATOM     58  F   UNL A   1      37.992  34.032  39.694  1.00  0.00    -0.200 F 
ATOM     59  C   UNL A   1      39.535  35.580  38.801  1.00  0.00     0.200 A 
ATOM     60  F   UNL A   1      41.076  37.101  37.858  1.00  0.00    -0.200 F 
ATOM     61  F   UNL A   1      39.382  36.374  39.870  1.00  0.00    -0.200 F 
ENDBRANCH  27  51
BRANCH  39  62
ATOM     62  C   UNL A   1      43.850  28.469  34.960  1.00  0.00     0.064 A 
ATOM     63  C   UNL A   1      43.545  27.379  35.788  1.00  0.00     0.173 A 
ATOM     64  C   UNL A   1      45.195  28.844  34.830  1.00  0.00     0.173 A 
ATOM     65  F   UNL A   1      42.271  26.998  35.960  1.00  0.00    -0.203 F 
ATOM     66  C   UNL A   1      44.549  26.702  36.474  1.00  0.00     0.198 A 
ATOM     67  C   UNL A   1      46.199  28.144  35.493  1.00  0.00     0.198 A 
ATOM     68  F   UNL A   1      45.538  29.878  34.048  1.00  0.00    -0.203 F 
ATOM     69  F   UNL A   1      44.231  25.690  37.295  1.00  0.00    -0.200 F 
ATOM     70  C   UNL A   1      45.874  27.077  36.318  1.00  0.00     0.200 A 
ATOM     71  F   UNL A   1      47.481  28.500  35.332  1.00  0.00    -0.200 F 
ATOM     72  F   UNL A   1      46.841  26.416  36.971  1.00  0.00    -0.200 F 
ENDBRANCH  39  62
ENDBRANCH  13  14
ENDBRANCH   6   8
ENDBRANCH   3   4
ENDBRANCH   2   3
ENDBRANCH   1   2
BRANCH   1  73
ATOM     73  C   UNL A   1      31.798  29.784  27.037  1.00  0.00     0.116 C 
BRANCH  73  74
ATOM     74  N   UNL A   1      33.208  29.729  27.395  1.00  0.00    -0.352 N 
ATOM     75  C   UNL A   1      34.192  28.916  26.865  1.00  0.00     0.255 C 
ATOM     76  H   UNL A   1      33.498  30.350  28.103  1.00  0.00     0.163 HD
ATOM     77  O   UNL A   1      35.346  28.986  27.275  1.00  0.00    -0.269 OA
BRANCH  75  78
ATOM     78  C   UNL A   1      33.815  27.873  25.885  1.00  0.00     0.082 A 
ATOM     79  C   UNL A   1      33.603  26.573  26.365  1.00  0.00     0.040 A 
ATOM     80  C   UNL A   1      33.528  28.182  24.551  1.00  0.00     0.128 A 
ATOM     81  C   UNL A   1      32.928  25.650  25.561  1.00  0.00     0.088 A 
ATOM     82  C   UNL A   1      32.779  27.296  23.789  1.00  0.00     0.048 A 
ATOM     83  C   UNL A   1      32.404  26.071  24.338  1.00  0.00     0.026 A 
BRANCH  80  84
ATOM     84  O   UNL A   1      33.906  29.379  24.014  1.00  0.00    -0.507 OA
ATOM     85  H   UNL A   1      34.059  29.451  23.093  1.00  0.00     0.293 HD
ENDBRANCH  80  84
BRANCH  81  86
ATOM     86  S   UNL A   1      32.639  24.006  26.182  1.00  0.00     0.261 S 
ATOM     87  O   UNL A   1      31.612  24.099  27.193  1.00  0.00    -0.201 OA
ATOM     88  O   UNL A   1      32.458  23.154  25.021  1.00  0.00    -0.201 OA
BRANCH  86  89
ATOM     89  N   UNL A   1      34.016  23.404  27.000  1.00  0.00    -0.280 N 
ATOM     90  H   UNL A   1      34.023  23.377  27.984  1.00  0.00     0.180 HD
BRANCH  89  91
ATOM     91  C   UNL A   1      35.154  22.940  26.271  1.00  0.00     0.050 A 
ATOM     92  C   UNL A   1      36.016  23.893  25.721  1.00  0.00     0.027 A 
ATOM     93  C   UNL A   1      35.360  21.579  26.027  1.00  0.00     0.047 A 
ATOM     94  C   UNL A   1      37.064  23.495  24.891  1.00  0.00     0.004 A 
ATOM     95  C   UNL A   1      36.422  21.189  25.207  1.00  0.00     0.043 A 
ATOM     96  C   UNL A   1      37.264  22.140  24.627  1.00  0.00     0.020 A 
ATOM     97  Cl  UNL A   1      36.673  19.521  24.867  1.00  0.00    -0.084 Cl
ENDBRANCH  89  91
ENDBRANCH  86  89
ENDBRANCH  81  86
ENDBRANCH  75  78
ENDBRANCH  73  74
ENDBRANCH   1  73
TORSDOF 15
ENDMDL
MODEL 2
REMARK VINA RESULT:     -12.4      0.736      2.076
REMARK SMILES O=C(NCCCCNC(=O)c1cc(S(=O)(=O)Nc2cccc(Cl)c2)ccc1O)c1ccc(-c2c3nc(c(-c4c(F)c(F)c(F)c(F)c4F)c4ccc([nH]4)c(-c4c(F)c(F)c(F)c(F)c4F)c4nc(c(-c5c(F)c(F)c(F)c(F)c5F)c5ccc2[nH]5)C=C4)C=C3)cc1
REMARK SMILES IDX 6 1 5 2 4 3 3 4 1 5 2 6 29 8 30 9 91 10 31 11 90 12 32 13
REMARK SMILES IDX 33 14 34 15 84 16 35 17 89 18 83 19 85 20 36 21 88 22 82 23
REMARK SMILES IDX 81 24 37 26 69 27 49 28 68 29 50 30 53 31 67 32 86 33 51 34
REMARK SMILES IDX 52 35 66 37 87 38 54 39 38 40 39 41 47 42 40 43 41 44 45 45
REMARK SMILES IDX 48 46 42 47 43 48 46 49 44 50 70 51 71 52 79 53 72 54 73 55
REMARK SMILES IDX 77 56 80 57 74 58 75 59 78 60 76 61 55 62 56 63 64 64 57 65
REMARK SMILES IDX 58 66 62 67 65 68 59 69 60 70 63 71 61 72 7 73 8 74 9 75
REMARK SMILES IDX 10 77 11 78 12 79 27 80 13 81 26 82 25 83 28 84 14 86 15 87
REMARK SMILES IDX 16 88 17 89 18 91 19 92 24 93 20 94 22 95 21 96 23 97
REMARK H PARENT 3 7 85 25 53 36 8 76 28 85 17 90
REMARK Flexibility Score: inf
ROOT
ATOM      1  C   UNL A   1      31.548  30.837  26.015  1.00  0.00     0.023 C 
ENDROOT
BRANCH   1   2
ATOM      2  C   UNL A   1      31.339  32.226  26.601  1.00  0.00     0.023 C 
BRANCH   2   3
ATOM      3  C   UNL A   1      32.578  32.855  27.221  1.00  0.00     0.116 C 
BRANCH   3   4
ATOM      4  N   UNL A   1      32.360  34.224  27.663  1.00  0.00    -0.352 N 
ATOM      5  O   UNL A   1      32.594  36.031  29.001  1.00  0.00    -0.269 OA
ATOM      6  C   UNL A   1      32.998  34.924  28.659  1.00  0.00     0.251 C 
ATOM      7  H   UNL A   1      31.658  34.719  27.180  1.00  0.00     0.163 HD
BRANCH   6   8
ATOM      8  C   UNL A   1      34.168  34.324  29.333  1.00  0.00     0.039 A 
ATOM      9  C   UNL A   1      33.994  33.504  30.450  1.00  0.00     0.014 A 
ATOM     10  C   UNL A   1      35.450  34.583  28.841  1.00  0.00     0.014 A 
ATOM     11  C   UNL A   1      35.102  33.048  31.152  1.00  0.00     0.010 A 
ATOM     12  C   UNL A   1      36.562  34.047  29.494  1.00  0.00     0.010 A 
ATOM     13  C   UNL A   1      36.396  33.286  30.662  1.00  0.00    -0.014 A 
BRANCH  13  14
ATOM     14  C   UNL A   1      37.550  32.617  31.312  1.00  0.00     0.031 A 
ATOM     15  C   UNL A   1      38.250  31.457  30.668  1.00  0.00     0.074 A 
ATOM     16  C   UNL A   1      37.947  33.076  32.514  1.00  0.00     0.049 A 
ATOM     17  N   UNL A   1      39.242  30.739  31.130  1.00  0.00    -0.248 NA
ATOM     18  C   UNL A   1      37.777  31.039  29.339  1.00  0.00     0.031 C 
ATOM     19  C   UNL A   1      37.322  34.189  33.237  1.00  0.00     0.029 A 
ATOM     20  N   UNL A   1      38.957  32.670  33.346  1.00  0.00    -0.354 N 
ATOM     21  C   UNL A   1      39.498  29.774  30.166  1.00  0.00     0.074 A 
ATOM     22  C   UNL A   1      38.550  29.988  29.093  1.00  0.00     0.031 C 
ATOM     23  C   UNL A   1      37.973  34.388  34.391  1.00  0.00     0.029 A 
ATOM     24  C   UNL A   1      39.011  33.374  34.525  1.00  0.00     0.049 A 
ATOM     25  H   UNL A   1      39.584  31.945  33.121  1.00  0.00     0.167 HD
ATOM     26  C   UNL A   1      40.442  28.802  30.186  1.00  0.00     0.037 A 
ATOM     27  C   UNL A   1      39.779  33.196  35.614  1.00  0.00     0.037 A 
ATOM     28  C   UNL A   1      41.396  28.621  31.251  1.00  0.00     0.049 A 
ATOM     29  C   UNL A   1      40.787  32.084  35.615  1.00  0.00     0.074 A 
ATOM     30  C   UNL A   1      42.449  27.725  31.318  1.00  0.00     0.029 A 
ATOM     31  N   UNL A   1      41.404  29.336  32.439  1.00  0.00    -0.354 N 
ATOM     32  N   UNL A   1      41.071  31.228  34.664  1.00  0.00    -0.248 NA
ATOM     33  C   UNL A   1      41.576  31.906  36.841  1.00  0.00     0.031 C 
ATOM     34  C   UNL A   1      43.051  27.851  32.573  1.00  0.00     0.029 A 
ATOM     35  C   UNL A   1      42.411  28.865  33.267  1.00  0.00     0.049 A 
ATOM     36  H   UNL A   1      40.786  30.070  32.661  1.00  0.00     0.167 HD
ATOM     37  C   UNL A   1      42.074  30.415  35.173  1.00  0.00     0.074 A 
ATOM     38  C   UNL A   1      42.371  30.901  36.504  1.00  0.00     0.031 C 
ATOM     39  C   UNL A   1      42.685  29.356  34.592  1.00  0.00     0.037 A 
BRANCH  26  40
ATOM     40  C   UNL A   1      40.495  27.833  29.040  1.00  0.00     0.064 A 
ATOM     41  C   UNL A   1      39.714  26.670  29.017  1.00  0.00     0.173 A 
ATOM     42  C   UNL A   1      41.257  28.137  27.901  1.00  0.00     0.173 A 
ATOM     43  F   UNL A   1      38.973  26.332  30.082  1.00  0.00    -0.203 F 
ATOM     44  C   UNL A   1      39.698  25.841  27.896  1.00  0.00     0.198 A 
ATOM     45  C   UNL A   1      41.219  27.319  26.774  1.00  0.00     0.198 A 
ATOM     46  F   UNL A   1      42.013  29.244  27.868  1.00  0.00    -0.203 F 
ATOM     47  F   UNL A   1      38.958  24.724  27.902  1.00  0.00    -0.200 F 
ATOM     48  C   UNL A   1      40.441  26.172  26.772  1.00  0.00     0.200 A 
ATOM     49  F   UNL A   1      41.926  27.651  25.683  1.00  0.00    -0.200 F 
ATOM     50  F   UNL A   1      40.405  25.387  25.686  1.00  0.00    -0.200 F 
ENDBRANCH  26  40
BRANCH  27  51
ATOM     51  C   UNL A   1      39.582  34.058  36.809  1.00  0.00     0.064 A 
ATOM     52  C   UNL A   1      40.190  35.316  36.906  1.00  0.00     0.173 A 
ATOM     53  C   UNL A   1      38.788  33.632  37.885  1.00  0.00     0.173 A 
ATOM     54  F   UNL A   1      40.973  35.759  35.912  1.00  0.00    -0.203 F 
ATOM     55  C   UNL A   1      40.035  36.102  38.045  1.00  0.00     0.198 A 
ATOM     56  C   UNL A   1      38.604  34.435  39.008  1.00  0.00     0.198 A 
ATOM     57  F   UNL A   1      38.178  32.438  37.841  1.00  0.00    -0.203 F 
ATOM     58  F   UNL A   1      40.673  37.277  38.136  1.00  0.00    -0.200 F 
ATOM     59  C   UNL A   1      39.237  35.665  39.092  1.00  0.00     0.200 A 
ATOM     60  F   UNL A   1      37.816  34.015  40.007  1.00  0.00    -0.200 F 
ATOM     61  F   UNL A   1      39.086  36.424  40.186  1.00  0.00    -0.200 F 
ENDBRANCH  27  51
BRANCH  39  62
ATOM     62  C   UNL A   1      43.739  28.653  35.395  1.00  0.00     0.064 A 
ATOM     63  C   UNL A   1      45.094  28.994  35.274  1.00  0.00     0.173 A 
ATOM     64  C   UNL A   1      43.389  27.660  36.321  1.00  0.00     0.173 A 
ATOM     65  F   UNL A   1      45.481  29.921  34.387  1.00  0.00    -0.203 F 
ATOM     66  C   UNL A   1      46.062  28.351  36.041  1.00  0.00     0.198 A 
ATOM     67  C   UNL A   1      44.356  27.042  37.108  1.00  0.00     0.198 A 
ATOM     68  F   UNL A   1      42.106  27.301  36.475  1.00  0.00    -0.203 F 
ATOM     69  F   UNL A   1      47.357  28.660  35.877  1.00  0.00    -0.200 F 
ATOM     70  C   UNL A   1      45.693  27.384  36.963  1.00  0.00     0.200 A 
ATOM     71  F   UNL A   1      43.995  26.116  38.008  1.00  0.00    -0.200 F 
ATOM     72  F   UNL A   1      46.625  26.774  37.707  1.00  0.00    -0.200 F 
ENDBRANCH  39  62
ENDBRANCH  13  14
ENDBRANCH   6   8
ENDBRANCH   3   4
ENDBRANCH   2   3
ENDBRANCH   1   2
BRANCH   1  73
ATOM     73  C   UNL A   1      31.800  29.730  27.030  1.00  0.00     0.116 C 
BRANCH  73  74
ATOM     74  N   UNL A   1      33.199  29.553  27.393  1.00  0.00    -0.352 N 
ATOM     75  C   UNL A   1      34.122  28.688  26.836  1.00  0.00     0.255 C 
ATOM     76  H   UNL A   1      33.529  30.121  28.127  1.00  0.00     0.163 HD
ATOM     77  O   UNL A   1      35.275  28.654  27.255  1.00  0.00    -0.269 OA
BRANCH  75  78
ATOM     78  C   UNL A   1      33.674  27.717  25.814  1.00  0.00     0.082 A 
ATOM     79  C   UNL A   1      33.184  26.481  26.259  1.00  0.00     0.040 A 
ATOM     80  C   UNL A   1      33.594  28.055  24.459  1.00  0.00     0.128 A 
ATOM     81  C   UNL A   1      32.447  25.682  25.379  1.00  0.00     0.088 A 
ATOM     82  C   UNL A   1      32.787  27.307  23.613  1.00  0.00     0.048 A 
ATOM     83  C   UNL A   1      32.143  26.175  24.109  1.00  0.00     0.026 A 
BRANCH  80  84
ATOM     84  O   UNL A   1      34.234  29.160  23.975  1.00  0.00    -0.507 OA
ATOM     85  H   UNL A   1      34.991  29.061  23.432  1.00  0.00     0.293 HD
ENDBRANCH  80  84
BRANCH  81  86
ATOM     86  S   UNL A   1      31.805  24.124  25.953  1.00  0.00     0.261 S 
ATOM     87  O   UNL A   1      31.287  24.332  27.285  1.00  0.00    -0.201 OA
ATOM     88  O   UNL A   1      30.947  23.619  24.898  1.00  0.00    -0.201 OA
BRANCH  86  89
ATOM     89  N   UNL A   1      33.056  22.971  26.138  1.00  0.00    -0.280 N 
ATOM     90  H   UNL A   1      32.961  22.254  26.805  1.00  0.00     0.180 HD
BRANCH  89  91
ATOM     91  C   UNL A   1      34.236  23.038  25.335  1.00  0.00     0.050 A 
ATOM     92  C   UNL A   1      34.083  23.109  23.947  1.00  0.00     0.027 A 
ATOM     93  C   UNL A   1      35.511  22.942  25.900  1.00  0.00     0.047 A 
ATOM     94  C   UNL A   1      35.201  23.042  23.115  1.00  0.00     0.004 A 
ATOM     95  C   UNL A   1      36.625  22.892  25.058  1.00  0.00     0.043 A 
ATOM     96  C   UNL A   1      36.475  22.928  23.670  1.00  0.00     0.020 A 
ATOM     97  Cl  UNL A   1      38.201  22.741  25.733  1.00  0.00    -0.084 Cl
ENDBRANCH  89  91
ENDBRANCH  86  89
ENDBRANCH  81  86
ENDBRANCH  75  78
ENDBRANCH  73  74
ENDBRANCH   1  73
TORSDOF 15
ENDMDL
MODEL 3
REMARK VINA RESULT:     -12.4      1.328      2.040
REMARK SMILES O=C(NCCCCNC(=O)c1cc(S(=O)(=O)Nc2cccc(Cl)c2)ccc1O)c1ccc(-c2c3nc(c(-c4c(F)c(F)c(F)c(F)c4F)c4ccc([nH]4)c(-c4c(F)c(F)c(F)c(F)c4F)c4nc(c(-c5c(F)c(F)c(F)c(F)c5F)c5ccc2[nH]5)C=C4)C=C3)cc1
REMARK SMILES IDX 6 1 5 2 4 3 3 4 1 5 2 6 29 8 30 9 91 10 31 11 90 12 32 13
REMARK SMILES IDX 33 14 34 15 84 16 35 17 89 18 83 19 85 20 36 21 88 22 82 23
REMARK SMILES IDX 81 24 37 26 69 27 49 28 68 29 50 30 53 31 67 32 86 33 51 34
REMARK SMILES IDX 52 35 66 37 87 38 54 39 38 40 39 41 47 42 40 43 41 44 45 45
REMARK SMILES IDX 48 46 42 47 43 48 46 49 44 50 70 51 71 52 79 53 72 54 73 55
REMARK SMILES IDX 77 56 80 57 74 58 75 59 78 60 76 61 55 62 56 63 64 64 57 65
REMARK SMILES IDX 58 66 62 67 65 68 59 69 60 70 63 71 61 72 7 73 8 74 9 75
REMARK SMILES IDX 10 77 11 78 12 79 27 80 13 81 26 82 25 83 28 84 14 86 15 87
REMARK SMILES IDX 16 88 17 89 18 91 19 92 24 93 20 94 22 95 21 96 23 97
REMARK H PARENT 3 7 85 25 53 36 8 76 28 85 17 90
REMARK Flexibility Score: inf
ROOT
ATOM      1  C   UNL A   1      31.481  30.981  25.783  1.00  0.00     0.023 C 
ENDROOT
BRANCH   1   2
ATOM      2  C   UNL A   1      31.365  32.076  26.834  1.00  0.00     0.023 C 
BRANCH   2   3
ATOM      3  C   UNL A   1      32.650  32.843  27.107  1.00  0.00     0.116 C 
BRANCH   3   4
ATOM      4  N   UNL A   1      32.414  34.198  27.581  1.00  0.00    -0.352 N 
ATOM      5  O   UNL A   1      32.621  35.974  28.964  1.00  0.00    -0.269 OA
ATOM      6  C   UNL A   1      33.040  34.882  28.596  1.00  0.00     0.251 C 
ATOM      7  H   UNL A   1      31.706  34.696  27.109  1.00  0.00     0.163 HD
BRANCH   6   8
ATOM      8  C   UNL A   1      34.217  34.281  29.257  1.00  0.00     0.039 A 
ATOM      9  C   UNL A   1      34.051  33.411  30.338  1.00  0.00     0.014 A 
ATOM     10  C   UNL A   1      35.497  34.588  28.790  1.00  0.00     0.014 A 
ATOM     11  C   UNL A   1      35.162  32.952  31.032  1.00  0.00     0.010 A 
ATOM     12  C   UNL A   1      36.615  34.051  29.433  1.00  0.00     0.010 A 
ATOM     13  C   UNL A   1      36.455  33.239  30.567  1.00  0.00    -0.014 A 
BRANCH  13  14
ATOM     14  C   UNL A   1      37.617  32.570  31.201  1.00  0.00     0.031 A 
ATOM     15  C   UNL A   1      38.336  31.438  30.528  1.00  0.00     0.074 A 
ATOM     16  C   UNL A   1      38.005  33.003  32.416  1.00  0.00     0.049 A 
ATOM     17  N   UNL A   1      39.337  30.723  30.973  1.00  0.00    -0.248 NA
ATOM     18  C   UNL A   1      37.871  31.049  29.188  1.00  0.00     0.031 C 
ATOM     19  C   UNL A   1      37.363  34.086  33.167  1.00  0.00     0.029 A 
ATOM     20  N   UNL A   1      39.020  32.589  33.239  1.00  0.00    -0.354 N 
ATOM     21  C   UNL A   1      39.609  29.787  29.985  1.00  0.00     0.074 A 
ATOM     22  C   UNL A   1      38.660  30.016  28.915  1.00  0.00     0.031 C 
ATOM     23  C   UNL A   1      38.008  34.264  34.327  1.00  0.00     0.029 A 
ATOM     24  C   UNL A   1      39.061  33.262  34.436  1.00  0.00     0.049 A 
ATOM     25  H   UNL A   1      39.658  31.879  32.996  1.00  0.00     0.167 HD
ATOM     26  C   UNL A   1      40.567  28.829  29.981  1.00  0.00     0.037 A 
ATOM     27  C   UNL A   1      39.829  33.067  35.522  1.00  0.00     0.037 A 
ATOM     28  C   UNL A   1      41.521  28.633  31.042  1.00  0.00     0.049 A 
ATOM     29  C   UNL A   1      40.853  31.970  35.496  1.00  0.00     0.074 A 
ATOM     30  C   UNL A   1      42.587  27.752  31.088  1.00  0.00     0.029 A 
ATOM     31  N   UNL A   1      41.517  29.317  32.249  1.00  0.00    -0.354 N 
ATOM     32  N   UNL A   1      41.151  31.144  34.523  1.00  0.00    -0.248 NA
ATOM     33  C   UNL A   1      41.643  31.771  36.719  1.00  0.00     0.031 C 
ATOM     34  C   UNL A   1      43.185  27.853  32.348  1.00  0.00     0.029 A 
ATOM     35  C   UNL A   1      42.529  28.839  33.066  1.00  0.00     0.049 A 
ATOM     36  H   UNL A   1      40.887  30.035  32.489  1.00  0.00     0.167 HD
ATOM     37  C   UNL A   1      42.165  30.333  35.012  1.00  0.00     0.074 A 
ATOM     38  C   UNL A   1      42.453  30.787  36.357  1.00  0.00     0.031 C 
ATOM     39  C   UNL A   1      42.794  29.298  34.405  1.00  0.00     0.037 A 
BRANCH  26  40
ATOM     40  C   UNL A   1      40.636  27.893  28.810  1.00  0.00     0.064 A 
ATOM     41  C   UNL A   1      39.860  26.728  28.746  1.00  0.00     0.173 A 
ATOM     42  C   UNL A   1      41.410  28.230  27.687  1.00  0.00     0.173 A 
ATOM     43  F   UNL A   1      39.107  26.358  29.793  1.00  0.00    -0.203 F 
ATOM     44  C   UNL A   1      39.859  25.930  27.603  1.00  0.00     0.198 A 
ATOM     45  C   UNL A   1      41.388  27.443  26.538  1.00  0.00     0.198 A 
ATOM     46  F   UNL A   1      42.163  29.339  27.693  1.00  0.00    -0.203 F 
ATOM     47  F   UNL A   1      39.124  24.811  27.569  1.00  0.00    -0.200 F 
ATOM     48  C   UNL A   1      40.614  26.294  26.496  1.00  0.00     0.200 A 
ATOM     49  F   UNL A   1      42.106  27.806  25.465  1.00  0.00    -0.200 F 
ATOM     50  F   UNL A   1      40.593  25.538  25.390  1.00  0.00    -0.200 F 
ENDBRANCH  26  40
BRANCH  27  51
ATOM     51  C   UNL A   1      39.617  33.893  36.740  1.00  0.00     0.064 A 
ATOM     52  C   UNL A   1      38.798  33.450  37.785  1.00  0.00     0.173 A 
ATOM     53  C   UNL A   1      40.225  35.151  36.875  1.00  0.00     0.173 A 
ATOM     54  F   UNL A   1      38.182  32.263  37.695  1.00  0.00    -0.203 F 
ATOM     55  C   UNL A   1      38.571  34.246  38.906  1.00  0.00     0.198 A 
ATOM     56  C   UNL A   1      40.026  35.931  38.012  1.00  0.00     0.198 A 
ATOM     57  F   UNL A   1      41.024  35.621  35.905  1.00  0.00    -0.203 F 
ATOM     58  F   UNL A   1      37.738  33.822  39.867  1.00  0.00    -0.200 F 
ATOM     59  C   UNL A   1      39.190  35.481  39.022  1.00  0.00     0.200 A 
ATOM     60  F   UNL A   1      40.642  37.114  38.126  1.00  0.00    -0.200 F 
ATOM     61  F   UNL A   1      38.973  36.245  40.102  1.00  0.00    -0.200 F 
ENDBRANCH  27  51
BRANCH  39  62
ATOM     62  C   UNL A   1      43.856  28.590  35.191  1.00  0.00     0.064 A 
ATOM     63  C   UNL A   1      43.554  27.473  35.984  1.00  0.00     0.173 A 
ATOM     64  C   UNL A   1      45.194  29.005  35.120  1.00  0.00     0.173 A 
ATOM     65  F   UNL A   1      42.286  27.052  36.100  1.00  0.00    -0.203 F 
ATOM     66  C   UNL A   1      44.551  26.809  36.692  1.00  0.00     0.198 A 
ATOM     67  C   UNL A   1      46.193  28.320  35.805  1.00  0.00     0.198 A 
ATOM     68  F   UNL A   1      45.534  30.066  34.374  1.00  0.00    -0.203 F 
ATOM     69  F   UNL A   1      44.233  25.771  37.479  1.00  0.00    -0.200 F 
ATOM     70  C   UNL A   1      45.870  27.226  36.595  1.00  0.00     0.200 A 
ATOM     71  F   UNL A   1      47.469  28.716  35.700  1.00  0.00    -0.200 F 
ATOM     72  F   UNL A   1      46.830  26.579  37.268  1.00  0.00    -0.200 F 
ENDBRANCH  39  62
ENDBRANCH  13  14
ENDBRANCH   6   8
ENDBRANCH   3   4
ENDBRANCH   2   3
ENDBRANCH   1   2
BRANCH   1  73
ATOM     73  C   UNL A   1      32.587  29.960  26.023  1.00  0.00     0.116 C 
BRANCH  73  74
ATOM     74  N   UNL A   1      33.476  29.760  24.887  1.00  0.00    -0.352 N 
ATOM     75  C   UNL A   1      33.255  28.998  23.755  1.00  0.00     0.255 C 
ATOM     76  H   UNL A   1      34.343  30.225  24.930  1.00  0.00     0.163 HD
ATOM     77  O   UNL A   1      34.109  28.926  22.876  1.00  0.00    -0.269 OA
BRANCH  75  78
ATOM     78  C   UNL A   1      32.031  28.171  23.670  1.00  0.00     0.082 A 
ATOM     79  C   UNL A   1      31.916  27.084  24.548  1.00  0.00     0.040 A 
ATOM     80  C   UNL A   1      30.951  28.532  22.858  1.00  0.00     0.128 A 
ATOM     81  C   UNL A   1      30.664  26.492  24.742  1.00  0.00     0.088 A 
ATOM     82  C   UNL A   1      29.693  28.006  23.118  1.00  0.00     0.048 A 
ATOM     83  C   UNL A   1      29.545  27.055  24.126  1.00  0.00     0.026 A 
BRANCH  80  84
ATOM     84  O   UNL A   1      31.102  29.456  21.864  1.00  0.00    -0.507 OA
ATOM     85  H   UNL A   1      30.914  30.358  22.032  1.00  0.00     0.293 HD
ENDBRANCH  80  84
BRANCH  81  86
ATOM     86  S   UNL A   1      30.516  25.126  25.874  1.00  0.00     0.261 S 
ATOM     87  O   UNL A   1      31.736  25.067  26.644  1.00  0.00    -0.201 OA
ATOM     88  O   UNL A   1      29.233  25.276  26.534  1.00  0.00    -0.201 OA
BRANCH  86  89
ATOM     89  N   UNL A   1      30.447  23.635  25.038  1.00  0.00    -0.280 N 
ATOM     90  H   UNL A   1      29.582  23.305  24.702  1.00  0.00     0.180 HD
BRANCH  89  91
ATOM     91  C   UNL A   1      31.630  22.863  24.821  1.00  0.00     0.050 A 
ATOM     92  C   UNL A   1      31.749  21.640  25.488  1.00  0.00     0.027 A 
ATOM     93  C   UNL A   1      32.686  23.348  24.044  1.00  0.00     0.047 A 
ATOM     94  C   UNL A   1      32.939  20.915  25.415  1.00  0.00     0.004 A 
ATOM     95  C   UNL A   1      33.868  22.606  23.965  1.00  0.00     0.043 A 
ATOM     96  C   UNL A   1      34.003  21.401  24.657  1.00  0.00     0.020 A 
ATOM     97  Cl  UNL A   1      35.192  23.201  23.040  1.00  0.00    -0.084 Cl
ENDBRANCH  89  91
ENDBRANCH  86  89
ENDBRANCH  81  86
ENDBRANCH  75  78
ENDBRANCH  73  74
ENDBRANCH   1  73
TORSDOF 15
ENDMDL
