MODEL 1
REMARK VINA RESULT:     -13.4      0.000      0.000
REMARK SMILES O=C(Cn1cnnn1)Nc1cccc(F)c1C(=O)NCCCCNC(=O)c1ccc(-c2c3nc(c(-c4c(F)c(F)c(F)c(F)c4F)c4ccc([nH]4)c(-c4c(F)c(F)c(F)c(F)c4F)c4nc(c(-c5c(F)c(F)c(F)c(F)c5F)c5ccc2[nH]5)C=C4)C=C3)cc1
REMARK SMILES IDX 21 1 20 2 19 3 17 4 18 5 16 7 10 8 11 9 12 10 14 11 13 12
REMARK SMILES IDX 15 13 9 14 1 15 2 16 3 18 4 19 5 20 8 21 6 22 7 23 22 24
REMARK SMILES IDX 23 25 24 26 25 27 26 29 27 30 28 31 89 32 29 33 88 34 30 35
REMARK SMILES IDX 31 36 32 37 82 38 33 39 87 40 81 41 83 42 34 43 86 44 80 45
REMARK SMILES IDX 79 46 35 48 67 49 47 50 66 51 48 52 51 53 65 54 84 55 49 56
REMARK SMILES IDX 50 57 64 59 85 60 52 61 36 62 37 63 45 64 38 65 39 66 43 67
REMARK SMILES IDX 46 68 40 69 41 70 44 71 42 72 68 73 69 74 77 75 70 76 71 77
REMARK SMILES IDX 75 78 78 79 72 80 73 81 76 82 74 83 53 84 54 85 62 86 55 87
REMARK SMILES IDX 56 88 60 89 63 90 57 91 58 92 61 93 59 94
REMARK H PARENT 19 6 9 17 24 28 83 47 51 58
REMARK Flexibility Score: inf
ROOT
ATOM      1  C   UNL A   1      37.019  22.522  24.930  1.00  0.00     0.023 C 
ENDROOT
BRANCH   1   2
ATOM      2  C   UNL A   1      36.510  23.566  25.924  1.00  0.00     0.116 C 
BRANCH   2   3
ATOM      3  N   UNL A   1      35.608  23.033  26.934  1.00  0.00    -0.352 N 
ATOM      4  C   UNL A   1      34.251  23.032  27.152  1.00  0.00     0.256 C 
ATOM      5  O   UNL A   1      33.920  22.483  28.215  1.00  0.00    -0.269 OA
ATOM      6  H   UNL A   1      36.095  22.550  27.641  1.00  0.00     0.163 HD
BRANCH   4   7
ATOM      7  C   UNL A   1      33.163  23.668  26.327  1.00  0.00     0.099 A 
ATOM      8  C   UNL A   1      32.118  22.845  25.807  1.00  0.00     0.057 A 
ATOM      9  C   UNL A   1      30.998  23.418  25.176  1.00  0.00     0.027 A 
ATOM     10  C   UNL A   1      30.913  24.791  24.985  1.00  0.00     0.005 A 
ATOM     11  C   UNL A   1      33.116  25.012  25.951  1.00  0.00     0.138 A 
ATOM     12  C   UNL A   1      31.993  25.580  25.337  1.00  0.00     0.040 A 
ATOM     13  F   UNL A   1      34.188  25.808  26.010  1.00  0.00    -0.206 F 
BRANCH   8  14
ATOM     14  N   UNL A   1      32.206  21.428  25.884  1.00  0.00    -0.324 N 
ATOM     15  O   UNL A   1      33.861  21.084  24.300  1.00  0.00    -0.273 OA
ATOM     16  C   UNL A   1      33.045  20.640  25.109  1.00  0.00     0.246 C 
ATOM     17  H   UNL A   1      31.627  20.970  26.536  1.00  0.00     0.170 HD
BRANCH  16  18
ATOM     18  C   UNL A   1      32.862  19.150  25.273  1.00  0.00     0.248 C 
BRANCH  18  19
ATOM     19  N   UNL A   1      33.123  18.392  24.075  1.00  0.00    -0.223 N 
ATOM     20  C   UNL A   1      33.978  17.348  23.902  1.00  0.00     0.246 A 
ATOM     21  N   UNL A   1      32.303  18.475  23.012  1.00  0.00    -0.045 NA
ATOM     22  N   UNL A   1      33.740  16.799  22.734  1.00  0.00    -0.117 NA
ATOM     23  N   UNL A   1      32.697  17.509  22.192  1.00  0.00    -0.024 NA
ENDBRANCH  18  19
ENDBRANCH  16  18
ENDBRANCH   8  14
ENDBRANCH   4   7
ENDBRANCH   2   3
ENDBRANCH   1   2
BRANCH   1  24
ATOM     24  C   UNL A   1      38.199  21.646  25.358  1.00  0.00     0.023 C 
BRANCH  24  25
ATOM     25  C   UNL A   1      39.085  22.219  26.459  1.00  0.00     0.116 C 
BRANCH  25  26
ATOM     26  N   UNL A   1      40.517  22.040  26.227  1.00  0.00    -0.352 N 
ATOM     27  C   UNL A   1      41.508  23.010  26.264  1.00  0.00     0.251 C 
ATOM     28  H   UNL A   1      40.812  21.123  26.021  1.00  0.00     0.163 HD
ATOM     29  O   UNL A   1      42.581  22.845  25.713  1.00  0.00    -0.269 OA
BRANCH  27  30
ATOM     30  C   UNL A   1      41.224  24.261  26.992  1.00  0.00     0.039 A 
ATOM     31  C   UNL A   1      41.925  24.600  28.151  1.00  0.00     0.014 A 
ATOM     32  C   UNL A   1      40.283  25.129  26.445  1.00  0.00     0.014 A 
ATOM     33  C   UNL A   1      41.747  25.874  28.689  1.00  0.00     0.010 A 
ATOM     34  C   UNL A   1      40.214  26.426  26.892  1.00  0.00     0.010 A 
ATOM     35  C   UNL A   1      40.916  26.800  28.031  1.00  0.00    -0.014 A 
BRANCH  35  36
ATOM     36  C   UNL A   1      40.880  28.197  28.462  1.00  0.00     0.031 A 
ATOM     37  C   UNL A   1      41.990  29.038  27.941  1.00  0.00     0.074 A 
ATOM     38  C   UNL A   1      39.844  28.758  29.124  1.00  0.00     0.049 A 
ATOM     39  N   UNL A   1      42.966  29.549  28.614  1.00  0.00    -0.248 NA
ATOM     40  C   UNL A   1      42.099  29.250  26.488  1.00  0.00     0.031 C 
ATOM     41  C   UNL A   1      38.540  28.156  29.439  1.00  0.00     0.029 A 
ATOM     42  N   UNL A   1      39.707  30.032  29.598  1.00  0.00    -0.354 N 
ATOM     43  C   UNL A   1      43.704  30.312  27.712  1.00  0.00     0.074 A 
ATOM     44  C   UNL A   1      43.226  29.963  26.400  1.00  0.00     0.031 C 
ATOM     45  C   UNL A   1      37.680  29.115  29.847  1.00  0.00     0.029 A 
ATOM     46  C   UNL A   1      38.422  30.349  30.020  1.00  0.00     0.049 A 
ATOM     47  H   UNL A   1      40.455  30.671  29.637  1.00  0.00     0.167 HD
ATOM     48  C   UNL A   1      44.465  31.355  28.152  1.00  0.00     0.037 A 
ATOM     49  C   UNL A   1      37.993  31.529  30.522  1.00  0.00     0.037 A 
ATOM     50  C   UNL A   1      44.594  31.321  29.585  1.00  0.00     0.049 A 
ATOM     51  C   UNL A   1      39.170  32.230  31.073  1.00  0.00     0.074 A 
ATOM     52  C   UNL A   1      45.360  30.648  30.509  1.00  0.00     0.029 A 
ATOM     53  N   UNL A   1      43.519  31.849  30.249  1.00  0.00    -0.354 N 
ATOM     54  N   UNL A   1      39.835  31.807  32.111  1.00  0.00    -0.248 NA
ATOM     55  C   UNL A   1      39.826  33.264  30.280  1.00  0.00     0.031 C 
ATOM     56  C   UNL A   1      44.615  30.654  31.727  1.00  0.00     0.029 A 
ATOM     57  C   UNL A   1      43.432  31.357  31.523  1.00  0.00     0.049 A 
ATOM     58  H   UNL A   1      42.890  32.499  29.859  1.00  0.00     0.167 HD
ATOM     59  C   UNL A   1      41.131  32.197  31.857  1.00  0.00     0.074 A 
ATOM     60  C   UNL A   1      41.038  33.234  30.840  1.00  0.00     0.031 C 
ATOM     61  C   UNL A   1      42.180  31.418  32.239  1.00  0.00     0.037 A 
BRANCH  48  62
ATOM     62  C   UNL A   1      44.719  32.642  27.400  1.00  0.00     0.064 A 
ATOM     63  C   UNL A   1      43.970  33.822  27.591  1.00  0.00     0.173 A 
ATOM     64  C   UNL A   1      45.936  32.806  26.703  1.00  0.00     0.173 A 
ATOM     65  F   UNL A   1      42.855  33.841  28.329  1.00  0.00    -0.203 F 
ATOM     66  C   UNL A   1      44.403  35.066  27.128  1.00  0.00     0.198 A 
ATOM     67  C   UNL A   1      46.391  34.061  26.286  1.00  0.00     0.198 A 
ATOM     68  F   UNL A   1      46.745  31.758  26.485  1.00  0.00    -0.203 F 
ATOM     69  F   UNL A   1      43.656  36.153  27.368  1.00  0.00    -0.200 F 
ATOM     70  C   UNL A   1      45.624  35.191  26.501  1.00  0.00     0.200 A 
ATOM     71  F   UNL A   1      47.604  34.181  25.730  1.00  0.00    -0.200 F 
ATOM     72  F   UNL A   1      46.078  36.401  26.148  1.00  0.00    -0.200 F 
ENDBRANCH  48  62
BRANCH  49  73
ATOM     73  C   UNL A   1      36.669  32.175  30.443  1.00  0.00     0.064 A 
ATOM     74  C   UNL A   1      36.384  33.087  29.410  1.00  0.00     0.173 A 
ATOM     75  C   UNL A   1      35.790  32.164  31.538  1.00  0.00     0.173 A 
ATOM     76  F   UNL A   1      37.202  33.194  28.352  1.00  0.00    -0.203 F 
ATOM     77  C   UNL A   1      35.314  33.980  29.498  1.00  0.00     0.198 A 
ATOM     78  C   UNL A   1      34.721  33.059  31.625  1.00  0.00     0.198 A 
ATOM     79  F   UNL A   1      36.010  31.338  32.571  1.00  0.00    -0.203 F 
ATOM     80  F   UNL A   1      35.126  34.889  28.532  1.00  0.00    -0.200 F 
ATOM     81  C   UNL A   1      34.497  33.979  30.616  1.00  0.00     0.200 A 
ATOM     82  F   UNL A   1      33.952  33.073  32.723  1.00  0.00    -0.200 F 
ATOM     83  F   UNL A   1      33.523  34.893  30.738  1.00  0.00    -0.200 F 
ENDBRANCH  49  73
BRANCH  61  84
ATOM     84  C   UNL A   1      41.950  30.449  33.355  1.00  0.00     0.064 A 
ATOM     85  C   UNL A   1      42.180  30.895  34.662  1.00  0.00     0.173 A 
ATOM     86  C   UNL A   1      41.597  29.102  33.177  1.00  0.00     0.173 A 
ATOM     87  F   UNL A   1      42.550  32.166  34.881  1.00  0.00    -0.203 F 
ATOM     88  C   UNL A   1      42.077  30.031  35.746  1.00  0.00     0.198 A 
ATOM     89  C   UNL A   1      41.463  28.246  34.270  1.00  0.00     0.198 A 
ATOM     90  F   UNL A   1      41.419  28.591  31.954  1.00  0.00    -0.203 F 
ATOM     91  F   UNL A   1      42.356  30.477  36.979  1.00  0.00    -0.200 F 
ATOM     92  C   UNL A   1      41.712  28.709  35.552  1.00  0.00     0.200 A 
ATOM     93  F   UNL A   1      41.118  26.963  34.081  1.00  0.00    -0.200 F 
ATOM     94  F   UNL A   1      41.623  27.877  36.598  1.00  0.00    -0.200 F 
ENDBRANCH  61  84
ENDBRANCH  35  36
ENDBRANCH  27  30
ENDBRANCH  25  26
ENDBRANCH  24  25
ENDBRANCH   1  24
TORSDOF 14
ENDMDL
MODEL 2
REMARK VINA RESULT:     -13.3      2.581      3.413
REMARK SMILES O=C(Cn1cnnn1)Nc1cccc(F)c1C(=O)NCCCCNC(=O)c1ccc(-c2c3nc(c(-c4c(F)c(F)c(F)c(F)c4F)c4ccc([nH]4)c(-c4c(F)c(F)c(F)c(F)c4F)c4nc(c(-c5c(F)c(F)c(F)c(F)c5F)c5ccc2[nH]5)C=C4)C=C3)cc1
REMARK SMILES IDX 21 1 20 2 19 3 17 4 18 5 16 7 10 8 11 9 12 10 14 11 13 12
REMARK SMILES IDX 15 13 9 14 1 15 2 16 3 18 4 19 5 20 8 21 6 22 7 23 22 24
REMARK SMILES IDX 23 25 24 26 25 27 26 29 27 30 28 31 89 32 29 33 88 34 30 35
REMARK SMILES IDX 31 36 32 37 82 38 33 39 87 40 81 41 83 42 34 43 86 44 80 45
REMARK SMILES IDX 79 46 35 48 67 49 47 50 66 51 48 52 51 53 65 54 84 55 49 56
REMARK SMILES IDX 50 57 64 59 85 60 52 61 36 62 37 63 45 64 38 65 39 66 43 67
REMARK SMILES IDX 46 68 40 69 41 70 44 71 42 72 68 73 69 74 77 75 70 76 71 77
REMARK SMILES IDX 75 78 78 79 72 80 73 81 76 82 74 83 53 84 54 85 62 86 55 87
REMARK SMILES IDX 56 88 60 89 63 90 57 91 58 92 61 93 59 94
REMARK H PARENT 19 6 9 17 24 28 83 47 51 58
REMARK Flexibility Score: inf
ROOT
ATOM      1  C   UNL A   1      39.194  21.410  26.016  1.00  0.00     0.023 C 
ENDROOT
BRANCH   1   2
ATOM      2  C   UNL A   1      37.860  21.435  25.269  1.00  0.00     0.116 C 
BRANCH   2   3
ATOM      3  N   UNL A   1      36.696  21.506  26.139  1.00  0.00    -0.352 N 
ATOM      4  C   UNL A   1      35.346  21.708  25.977  1.00  0.00     0.256 C 
ATOM      5  O   UNL A   1      34.718  21.748  27.046  1.00  0.00    -0.269 OA
ATOM      6  H   UNL A   1      36.937  21.375  27.085  1.00  0.00     0.163 HD
BRANCH   4   7
ATOM      7  C   UNL A   1      34.577  21.963  24.706  1.00  0.00     0.099 A 
ATOM      8  C   UNL A   1      33.388  21.213  24.455  1.00  0.00     0.057 A 
ATOM      9  C   UNL A   1      32.552  21.534  23.369  1.00  0.00     0.027 A 
ATOM     10  C   UNL A   1      32.896  22.543  22.478  1.00  0.00     0.005 A 
ATOM     11  C   UNL A   1      34.967  22.836  23.688  1.00  0.00     0.138 A 
ATOM     12  C   UNL A   1      34.125  23.163  22.618  1.00  0.00     0.040 A 
ATOM     13  F   UNL A   1      36.216  23.298  23.583  1.00  0.00    -0.206 F 
BRANCH   8  14
ATOM     14  N   UNL A   1      33.043  20.105  25.276  1.00  0.00    -0.324 N 
ATOM     15  O   UNL A   1      33.522  18.395  23.789  1.00  0.00    -0.273 OA
ATOM     16  C   UNL A   1      33.103  18.775  24.882  1.00  0.00     0.246 C 
ATOM     17  H   UNL A   1      32.739  20.294  26.193  1.00  0.00     0.170 HD
BRANCH  16  18
ATOM     18  C   UNL A   1      32.557  17.784  25.881  1.00  0.00     0.248 C 
BRANCH  18  19
ATOM     19  N   UNL A   1      33.135  16.467  25.777  1.00  0.00    -0.223 N 
ATOM     20  C   UNL A   1      32.499  15.267  25.689  1.00  0.00     0.246 A 
ATOM     21  N   UNL A   1      34.435  16.305  25.472  1.00  0.00    -0.045 NA
ATOM     22  N   UNL A   1      33.381  14.347  25.375  1.00  0.00    -0.117 NA
ATOM     23  N   UNL A   1      34.579  15.005  25.244  1.00  0.00    -0.024 NA
ENDBRANCH  18  19
ENDBRANCH  16  18
ENDBRANCH   8  14
ENDBRANCH   4   7
ENDBRANCH   2   3
ENDBRANCH   1   2
BRANCH   1  24
ATOM     24  C   UNL A   1      40.026  20.126  25.946  1.00  0.00     0.023 C 
BRANCH  24  25
ATOM     25  C   UNL A   1      41.270  20.093  26.826  1.00  0.00     0.116 C 
BRANCH  25  26
ATOM     26  N   UNL A   1      42.472  19.616  26.145  1.00  0.00    -0.352 N 
ATOM     27  C   UNL A   1      43.425  20.373  25.479  1.00  0.00     0.251 C 
ATOM     28  H   UNL A   1      42.622  18.642  26.160  1.00  0.00     0.163 HD
ATOM     29  O   UNL A   1      44.169  19.878  24.653  1.00  0.00    -0.269 OA
BRANCH  27  30
ATOM     30  C   UNL A   1      43.513  21.811  25.800  1.00  0.00     0.039 A 
ATOM     31  C   UNL A   1      42.826  22.765  25.047  1.00  0.00     0.014 A 
ATOM     32  C   UNL A   1      44.247  22.179  26.923  1.00  0.00     0.014 A 
ATOM     33  C   UNL A   1      42.797  24.081  25.506  1.00  0.00     0.010 A 
ATOM     34  C   UNL A   1      44.102  23.440  27.448  1.00  0.00     0.010 A 
ATOM     35  C   UNL A   1      43.406  24.407  26.732  1.00  0.00    -0.014 A 
BRANCH  35  36
ATOM     36  C   UNL A   1      43.209  25.728  27.328  1.00  0.00     0.031 A 
ATOM     37  C   UNL A   1      44.223  26.744  26.938  1.00  0.00     0.074 A 
ATOM     38  C   UNL A   1      42.111  26.085  28.029  1.00  0.00     0.049 A 
ATOM     39  N   UNL A   1      45.130  27.271  27.690  1.00  0.00    -0.248 NA
ATOM     40  C   UNL A   1      44.321  27.143  25.525  1.00  0.00     0.031 C 
ATOM     41  C   UNL A   1      40.880  25.310  28.239  1.00  0.00     0.029 A 
ATOM     42  N   UNL A   1      41.829  27.269  28.651  1.00  0.00    -0.354 N 
ATOM     43  C   UNL A   1      45.786  28.217  26.905  1.00  0.00     0.074 A 
ATOM     44  C   UNL A   1      45.362  27.981  25.550  1.00  0.00     0.031 C 
ATOM     45  C   UNL A   1      39.915  26.111  28.741  1.00  0.00     0.029 A 
ATOM     46  C   UNL A   1      40.512  27.388  29.079  1.00  0.00     0.049 A 
ATOM     47  H   UNL A   1      42.500  27.976  28.784  1.00  0.00     0.167 HD
ATOM     48  C   UNL A   1      46.421  29.274  27.486  1.00  0.00     0.037 A 
ATOM     49  C   UNL A   1      39.949  28.443  29.710  1.00  0.00     0.037 A 
ATOM     50  C   UNL A   1      46.540  29.079  28.907  1.00  0.00     0.049 A 
ATOM     51  C   UNL A   1      41.035  29.196  30.369  1.00  0.00     0.074 A 
ATOM     52  C   UNL A   1      47.368  28.385  29.760  1.00  0.00     0.029 A 
ATOM     53  N   UNL A   1      45.407  29.399  29.605  1.00  0.00    -0.354 N 
ATOM     54  N   UNL A   1      41.734  28.724  31.363  1.00  0.00    -0.248 NA
ATOM     55  C   UNL A   1      41.579  30.385  29.723  1.00  0.00     0.031 C 
ATOM     56  C   UNL A   1      46.616  28.159  30.952  1.00  0.00     0.029 A 
ATOM     57  C   UNL A   1      45.363  28.747  30.807  1.00  0.00     0.049 A 
ATOM     58  H   UNL A   1      44.713  30.019  29.283  1.00  0.00     0.167 HD
ATOM     59  C   UNL A   1      42.981  29.282  31.188  1.00  0.00     0.074 A 
ATOM     60  C   UNL A   1      42.781  30.420  30.303  1.00  0.00     0.031 C 
ATOM     61  C   UNL A   1      44.106  28.582  31.497  1.00  0.00     0.037 A 
BRANCH  48  62
ATOM     62  C   UNL A   1      46.537  30.664  26.901  1.00  0.00     0.064 A 
ATOM     63  C   UNL A   1      45.428  31.486  26.608  1.00  0.00     0.173 A 
ATOM     64  C   UNL A   1      47.785  31.323  26.928  1.00  0.00     0.173 A 
ATOM     65  F   UNL A   1      44.173  31.026  26.660  1.00  0.00    -0.203 F 
ATOM     66  C   UNL A   1      45.554  32.854  26.366  1.00  0.00     0.198 A 
ATOM     67  C   UNL A   1      47.902  32.703  26.736  1.00  0.00     0.198 A 
ATOM     68  F   UNL A   1      48.908  30.649  27.221  1.00  0.00    -0.203 F 
ATOM     69  F   UNL A   1      44.456  33.583  26.122  1.00  0.00    -0.200 F 
ATOM     70  C   UNL A   1      46.785  33.469  26.457  1.00  0.00     0.200 A 
ATOM     71  F   UNL A   1      49.093  33.301  26.882  1.00  0.00    -0.200 F 
ATOM     72  F   UNL A   1      46.885  34.798  26.321  1.00  0.00    -0.200 F 
ENDBRANCH  48  62
BRANCH  49  73
ATOM     73  C   UNL A   1      38.561  28.944  29.680  1.00  0.00     0.064 A 
ATOM     74  C   UNL A   1      38.048  29.543  28.515  1.00  0.00     0.173 A 
ATOM     75  C   UNL A   1      37.836  29.141  30.866  1.00  0.00     0.173 A 
ATOM     76  F   UNL A   1      38.708  29.443  27.352  1.00  0.00    -0.203 F 
ATOM     77  C   UNL A   1      36.905  30.344  28.549  1.00  0.00     0.198 A 
ATOM     78  C   UNL A   1      36.693  29.944  30.898  1.00  0.00     0.198 A 
ATOM     79  F   UNL A   1      38.276  28.620  32.020  1.00  0.00    -0.203 F 
ATOM     80  F   UNL A   1      36.495  30.964  27.434  1.00  0.00    -0.200 F 
ATOM     81  C   UNL A   1      36.241  30.561  29.744  1.00  0.00     0.200 A 
ATOM     82  F   UNL A   1      36.072  30.174  32.063  1.00  0.00    -0.200 F 
ATOM     83  F   UNL A   1      35.195  31.398  29.791  1.00  0.00    -0.200 F 
ENDBRANCH  49  73
BRANCH  61  84
ATOM     84  C   UNL A   1      43.975  27.463  32.481  1.00  0.00     0.064 A 
ATOM     85  C   UNL A   1      43.923  27.796  33.840  1.00  0.00     0.173 A 
ATOM     86  C   UNL A   1      43.984  26.101  32.142  1.00  0.00     0.173 A 
ATOM     87  F   UNL A   1      43.944  29.084  34.217  1.00  0.00    -0.203 F 
ATOM     88  C   UNL A   1      43.893  26.811  34.822  1.00  0.00     0.198 A 
ATOM     89  C   UNL A   1      43.921  25.116  33.128  1.00  0.00     0.198 A 
ATOM     90  F   UNL A   1      44.092  25.708  30.868  1.00  0.00    -0.203 F 
ATOM     91  F   UNL A   1      43.896  27.163  36.115  1.00  0.00    -0.200 F 
ATOM     92  C   UNL A   1      43.885  25.473  34.466  1.00  0.00     0.200 A 
ATOM     93  F   UNL A   1      43.922  23.820  32.783  1.00  0.00    -0.200 F 
ATOM     94  F   UNL A   1      43.866  24.526  35.415  1.00  0.00    -0.200 F 
ENDBRANCH  61  84
ENDBRANCH  35  36
ENDBRANCH  27  30
ENDBRANCH  25  26
ENDBRANCH  24  25
ENDBRANCH   1  24
TORSDOF 14
ENDMDL
MODEL 3
REMARK VINA RESULT:     -13.2      3.632      9.048
REMARK SMILES O=C(Cn1cnnn1)Nc1cccc(F)c1C(=O)NCCCCNC(=O)c1ccc(-c2c3nc(c(-c4c(F)c(F)c(F)c(F)c4F)c4ccc([nH]4)c(-c4c(F)c(F)c(F)c(F)c4F)c4nc(c(-c5c(F)c(F)c(F)c(F)c5F)c5ccc2[nH]5)C=C4)C=C3)cc1
REMARK SMILES IDX 21 1 20 2 19 3 17 4 18 5 16 7 10 8 11 9 12 10 14 11 13 12
REMARK SMILES IDX 15 13 9 14 1 15 2 16 3 18 4 19 5 20 8 21 6 22 7 23 22 24
REMARK SMILES IDX 23 25 24 26 25 27 26 29 27 30 28 31 89 32 29 33 88 34 30 35
REMARK SMILES IDX 31 36 32 37 82 38 33 39 87 40 81 41 83 42 34 43 86 44 80 45
REMARK SMILES IDX 79 46 35 48 67 49 47 50 66 51 48 52 51 53 65 54 84 55 49 56
REMARK SMILES IDX 50 57 64 59 85 60 52 61 36 62 37 63 45 64 38 65 39 66 43 67
REMARK SMILES IDX 46 68 40 69 41 70 44 71 42 72 68 73 69 74 77 75 70 76 71 77
REMARK SMILES IDX 75 78 78 79 72 80 73 81 76 82 74 83 53 84 54 85 62 86 55 87
REMARK SMILES IDX 56 88 60 89 63 90 57 91 58 92 61 93 59 94
REMARK H PARENT 19 6 9 17 24 28 83 47 51 58
REMARK Flexibility Score: inf
ROOT
ATOM      1  C   UNL A   1      34.812  29.715  27.289  1.00  0.00     0.023 C 
ENDROOT
BRANCH   1   2
ATOM      2  C   UNL A   1      34.201  28.712  26.309  1.00  0.00     0.116 C 
BRANCH   2   3
ATOM      3  N   UNL A   1      33.075  27.967  26.850  1.00  0.00    -0.352 N 
ATOM      4  C   UNL A   1      31.806  27.644  26.433  1.00  0.00     0.256 C 
ATOM      5  O   UNL A   1      31.150  27.016  27.279  1.00  0.00    -0.269 OA
ATOM      6  H   UNL A   1      33.273  27.600  27.742  1.00  0.00     0.163 HD
BRANCH   4   7
ATOM      7  C   UNL A   1      31.111  28.019  25.149  1.00  0.00     0.099 A 
ATOM      8  C   UNL A   1      30.607  26.983  24.307  1.00  0.00     0.057 A 
ATOM      9  C   UNL A   1      29.808  27.290  23.189  1.00  0.00     0.027 A 
ATOM     10  C   UNL A   1      29.547  28.609  22.841  1.00  0.00     0.005 A 
ATOM     11  C   UNL A   1      30.974  29.319  24.657  1.00  0.00     0.138 A 
ATOM     12  C   UNL A   1      30.166  29.620  23.554  1.00  0.00     0.040 A 
ATOM     13  F   UNL A   1      31.717  30.335  25.104  1.00  0.00    -0.206 F 
BRANCH   8  14
ATOM     14  N   UNL A   1      30.931  25.621  24.559  1.00  0.00    -0.324 N 
ATOM     15  O   UNL A   1      32.510  25.314  22.893  1.00  0.00    -0.273 OA
ATOM     16  C   UNL A   1      31.835  24.870  23.821  1.00  0.00     0.246 C 
ATOM     17  H   UNL A   1      30.479  25.178  25.313  1.00  0.00     0.170 HD
BRANCH  16  18
ATOM     18  C   UNL A   1      31.910  23.408  24.193  1.00  0.00     0.248 C 
BRANCH  18  19
ATOM     19  N   UNL A   1      31.671  23.146  25.591  1.00  0.00    -0.223 N 
ATOM     20  C   UNL A   1      32.575  23.071  26.605  1.00  0.00     0.246 A 
ATOM     21  N   UNL A   1      30.431  23.216  26.106  1.00  0.00    -0.045 NA
ATOM     22  N   UNL A   1      31.926  23.051  27.746  1.00  0.00    -0.117 NA
ATOM     23  N   UNL A   1      30.595  23.141  27.420  1.00  0.00    -0.024 NA
ENDBRANCH  18  19
ENDBRANCH  16  18
ENDBRANCH   8  14
ENDBRANCH   4   7
ENDBRANCH   2   3
ENDBRANCH   1   2
BRANCH   1  24
ATOM     24  C   UNL A   1      34.033  31.002  27.570  1.00  0.00     0.023 C 
BRANCH  24  25
ATOM     25  C   UNL A   1      34.875  32.228  27.905  1.00  0.00     0.116 C 
BRANCH  25  26
ATOM     26  N   UNL A   1      34.828  32.618  29.313  1.00  0.00    -0.352 N 
ATOM     27  C   UNL A   1      35.485  32.021  30.379  1.00  0.00     0.251 C 
ATOM     28  H   UNL A   1      34.264  33.396  29.529  1.00  0.00     0.163 HD
ATOM     29  O   UNL A   1      35.109  32.177  31.526  1.00  0.00    -0.269 OA
BRANCH  27  30
ATOM     30  C   UNL A   1      36.661  31.182  30.084  1.00  0.00     0.039 A 
ATOM     31  C   UNL A   1      37.907  31.749  29.811  1.00  0.00     0.014 A 
ATOM     32  C   UNL A   1      36.505  29.800  30.158  1.00  0.00     0.014 A 
ATOM     33  C   UNL A   1      39.017  30.910  29.724  1.00  0.00     0.010 A 
ATOM     34  C   UNL A   1      37.615  28.992  30.212  1.00  0.00     0.010 A 
ATOM     35  C   UNL A   1      38.872  29.531  29.964  1.00  0.00    -0.014 A 
BRANCH  35  36
ATOM     36  C   UNL A   1      40.049  28.672  30.082  1.00  0.00     0.031 A 
ATOM     37  C   UNL A   1      40.571  28.519  31.466  1.00  0.00     0.074 A 
ATOM     38  C   UNL A   1      40.538  27.917  29.074  1.00  0.00     0.049 A 
ATOM     39  N   UNL A   1      41.682  28.980  31.938  1.00  0.00    -0.248 NA
ATOM     40  C   UNL A   1      39.719  27.879  32.481  1.00  0.00     0.031 C 
ATOM     41  C   UNL A   1      39.960  27.707  27.739  1.00  0.00     0.029 A 
ATOM     42  N   UNL A   1      41.636  27.104  29.056  1.00  0.00    -0.354 N 
ATOM     43  C   UNL A   1      41.768  28.520  33.250  1.00  0.00     0.074 A 
ATOM     44  C   UNL A   1      40.470  27.992  33.579  1.00  0.00     0.031 C 
ATOM     45  C   UNL A   1      40.580  26.673  27.130  1.00  0.00     0.029 A 
ATOM     46  C   UNL A   1      41.722  26.287  27.936  1.00  0.00     0.049 A 
ATOM     47  H   UNL A   1      42.308  27.098  29.775  1.00  0.00     0.167 HD
ATOM     48  C   UNL A   1      42.983  28.384  33.854  1.00  0.00     0.037 A 
ATOM     49  C   UNL A   1      42.686  25.381  27.655  1.00  0.00     0.037 A 
ATOM     50  C   UNL A   1      44.011  29.029  33.080  1.00  0.00     0.049 A 
ATOM     51  C   UNL A   1      43.896  25.775  28.405  1.00  0.00     0.074 A 
ATOM     52  C   UNL A   1      44.480  30.311  32.903  1.00  0.00     0.029 A 
ATOM     53  N   UNL A   1      44.468  28.276  32.033  1.00  0.00    -0.354 N 
ATOM     54  N   UNL A   1      44.571  26.862  28.156  1.00  0.00    -0.248 NA
ATOM     55  C   UNL A   1      44.204  25.116  29.669  1.00  0.00     0.031 C 
ATOM     56  C   UNL A   1      45.101  30.335  31.617  1.00  0.00     0.029 A 
ATOM     57  C   UNL A   1      45.024  29.062  31.061  1.00  0.00     0.049 A 
ATOM     58  H   UNL A   1      44.405  27.294  31.986  1.00  0.00     0.167 HD
ATOM     59  C   UNL A   1      45.055  27.243  29.388  1.00  0.00     0.074 A 
ATOM     60  C   UNL A   1      44.968  26.058  30.229  1.00  0.00     0.031 C 
ATOM     61  C   UNL A   1      45.166  28.560  29.715  1.00  0.00     0.037 A 
BRANCH  48  62
ATOM     62  C   UNL A   1      43.352  27.323  34.867  1.00  0.00     0.064 A 
ATOM     63  C   UNL A   1      43.702  26.001  34.525  1.00  0.00     0.173 A 
ATOM     64  C   UNL A   1      43.675  27.711  36.186  1.00  0.00     0.173 A 
ATOM     65  F   UNL A   1      43.562  25.531  33.280  1.00  0.00    -0.203 F 
ATOM     66  C   UNL A   1      44.328  25.136  35.423  1.00  0.00     0.198 A 
ATOM     67  C   UNL A   1      44.348  26.859  37.067  1.00  0.00     0.198 A 
ATOM     68  F   UNL A   1      43.412  28.955  36.617  1.00  0.00    -0.203 F 
ATOM     69  F   UNL A   1      44.661  23.900  35.024  1.00  0.00    -0.200 F 
ATOM     70  C   UNL A   1      44.676  25.572  36.684  1.00  0.00     0.200 A 
ATOM     71  F   UNL A   1      44.733  27.310  38.270  1.00  0.00    -0.200 F 
ATOM     72  F   UNL A   1      45.365  24.770  37.507  1.00  0.00    -0.200 F 
ENDBRANCH  48  62
BRANCH  49  73
ATOM     73  C   UNL A   1      42.616  24.114  26.902  1.00  0.00     0.064 A 
ATOM     74  C   UNL A   1      42.304  22.912  27.562  1.00  0.00     0.173 A 
ATOM     75  C   UNL A   1      43.164  24.006  25.614  1.00  0.00     0.173 A 
ATOM     76  F   UNL A   1      41.823  22.928  28.814  1.00  0.00    -0.203 F 
ATOM     77  C   UNL A   1      42.581  21.670  26.988  1.00  0.00     0.198 A 
ATOM     78  C   UNL A   1      43.442  22.762  25.041  1.00  0.00     0.198 A 
ATOM     79  F   UNL A   1      43.508  25.108  24.932  1.00  0.00    -0.203 F 
ATOM     80  F   UNL A   1      42.346  20.549  27.683  1.00  0.00    -0.200 F 
ATOM     81  C   UNL A   1      43.170  21.597  25.737  1.00  0.00     0.200 A 
ATOM     82  F   UNL A   1      44.039  22.699  23.843  1.00  0.00    -0.200 F 
ATOM     83  F   UNL A   1      43.514  20.408  25.223  1.00  0.00    -0.200 F 
ENDBRANCH  49  73
BRANCH  61  84
ATOM     84  C   UNL A   1      45.262  29.544  28.594  1.00  0.00     0.064 A 
ATOM     85  C   UNL A   1      46.541  29.894  28.143  1.00  0.00     0.173 A 
ATOM     86  C   UNL A   1      44.164  30.202  28.017  1.00  0.00     0.173 A 
ATOM     87  F   UNL A   1      47.624  29.316  28.684  1.00  0.00    -0.203 F 
ATOM     88  C   UNL A   1      46.719  30.869  27.167  1.00  0.00     0.198 A 
ATOM     89  C   UNL A   1      44.345  31.157  27.016  1.00  0.00     0.198 A 
ATOM     90  F   UNL A   1      42.918  29.963  28.439  1.00  0.00    -0.203 F 
ATOM     91  F   UNL A   1      47.959  31.218  26.796  1.00  0.00    -0.200 F 
ATOM     92  C   UNL A   1      45.622  31.495  26.599  1.00  0.00     0.200 A 
ATOM     93  F   UNL A   1      43.282  31.769  26.472  1.00  0.00    -0.200 F 
ATOM     94  F   UNL A   1      45.798  32.441  25.666  1.00  0.00    -0.200 F 
ENDBRANCH  61  84
ENDBRANCH  35  36
ENDBRANCH  27  30
ENDBRANCH  25  26
ENDBRANCH  24  25
ENDBRANCH   1  24
TORSDOF 14
ENDMDL
