MODEL 1
REMARK VINA RESULT:     -13.0      0.000      0.000
REMARK SMILES C[C@H]1CC[C@@H]([C@H](C(=O)NCCCCNC(=O)c2ccc(-c3c4nc(c(-c5c(F)c(F)c(F)c(F)c5F)c5ccc([nH]5)c(-c5c(F)c(F)c(F)c(F)c5F)c5nc(c(-c6c(F)c(F)c(F)c(F)c6F)c6ccc3[nH]6)C=C5)C=C4)cc2)[C@@H]2CCS(=O)(=O)C2)C[C@@H]1C
REMARK SMILES IDX 12 1 11 2 10 3 9 4 7 5 8 6 6 8 5 9 1 10 2 11 3 12 88 13 4 14
REMARK SMILES IDX 87 15 89 16 80 17 81 18 86 19 82 20 83 21 84 22 85 23 13 24
REMARK SMILES IDX 14 25 15 26 16 28 17 29 18 30 79 31 19 32 78 33 20 34 21 35
REMARK SMILES IDX 22 36 72 37 23 38 77 39 71 40 73 41 24 42 76 43 70 44 69 45
REMARK SMILES IDX 25 47 57 48 37 49 56 50 38 51 41 52 55 53 74 54 39 55 40 56
REMARK SMILES IDX 54 58 75 59 42 60 26 61 27 62 35 63 28 64 29 65 33 66 36 67
REMARK SMILES IDX 30 68 31 69 34 70 32 71 58 72 59 73 67 74 60 75 61 76 65 77
REMARK SMILES IDX 68 78 62 79 63 80 66 81 64 82 43 83 44 84 52 85 45 86 46 87
REMARK SMILES IDX 50 88 53 89 47 90 48 91 51 92 49 93
REMARK H PARENT 9 7 14 27 73 46 41 57
REMARK Flexibility Score: inf
ROOT
ATOM      1  C   UNL A   1      31.774  31.944  26.723  1.00  0.00     0.023 C 
ENDROOT
BRANCH   1   2
ATOM      2  C   UNL A   1      31.886  30.437  26.920  1.00  0.00     0.023 C 
BRANCH   2   3
ATOM      3  C   UNL A   1      33.243  29.812  26.627  1.00  0.00     0.116 C 
BRANCH   3   4
ATOM      4  N   UNL A   1      33.519  29.790  25.206  1.00  0.00    -0.356 N 
ATOM      5  C   UNL A   1      33.152  28.961  24.199  1.00  0.00     0.223 C 
ATOM      6  O   UNL A   1      33.617  29.226  23.087  1.00  0.00    -0.275 OA
ATOM      7  H   UNL A   1      34.093  30.532  24.909  1.00  0.00     0.163 HD
BRANCH   5   8
ATOM      8  C   UNL A   1      32.211  27.750  24.403  1.00  0.00     0.085 C 
BRANCH   8   9
ATOM      9  C   UNL A   1      32.738  26.961  25.694  1.00  0.00     0.002 C 
ATOM     10  C   UNL A   1      32.719  22.773  24.406  1.00  0.00     0.008 C 
ATOM     11  C   UNL A   1      32.933  23.933  25.393  1.00  0.00    -0.011 C 
ATOM     12  C   UNL A   1      33.960  24.904  24.772  1.00  0.00     0.004 C 
ATOM     13  C   UNL A   1      31.590  24.617  25.728  1.00  0.00    -0.011 C 
ATOM     14  C   UNL A   1      34.077  26.233  25.498  1.00  0.00     0.005 C 
ATOM     15  C   UNL A   1      31.758  25.994  26.397  1.00  0.00     0.008 C 
ATOM     16  C   UNL A   1      30.599  23.755  26.511  1.00  0.00     0.008 C 
ENDBRANCH   8   9
BRANCH   8  17
ATOM     17  C   UNL A   1      30.696  28.133  24.461  1.00  0.00     0.018 C 
ATOM     18  C   UNL A   1      29.671  27.140  23.882  1.00  0.00     0.021 C 
ATOM     19  C   UNL A   1      30.355  29.569  24.022  1.00  0.00     0.141 C 
ATOM     20  C   UNL A   1      28.592  27.858  23.069  1.00  0.00     0.137 C 
ATOM     21  S   UNL A   1      29.148  29.512  22.742  1.00  0.00     0.150 S 
ATOM     22  O   UNL A   1      29.844  29.563  21.469  1.00  0.00    -0.229 OA
ATOM     23  O   UNL A   1      28.082  30.431  23.057  1.00  0.00    -0.229 OA
ENDBRANCH   8  17
ENDBRANCH   5   8
ENDBRANCH   3   4
ENDBRANCH   2   3
ENDBRANCH   1   2
BRANCH   1  24
ATOM     24  C   UNL A   1      32.906  32.706  27.367  1.00  0.00     0.116 C 
BRANCH  24  25
ATOM     25  N   UNL A   1      32.554  34.096  27.662  1.00  0.00    -0.352 N 
ATOM     26  C   UNL A   1      33.042  34.924  28.643  1.00  0.00     0.251 C 
ATOM     27  H   UNL A   1      31.871  34.493  27.074  1.00  0.00     0.163 HD
ATOM     28  O   UNL A   1      32.540  36.024  28.843  1.00  0.00    -0.269 OA
BRANCH  26  29
ATOM     29  C   UNL A   1      34.160  34.448  29.476  1.00  0.00     0.039 A 
ATOM     30  C   UNL A   1      33.898  33.776  30.669  1.00  0.00     0.014 A 
ATOM     31  C   UNL A   1      35.469  34.596  29.015  1.00  0.00     0.014 A 
ATOM     32  C   UNL A   1      34.955  33.190  31.365  1.00  0.00     0.010 A 
ATOM     33  C   UNL A   1      36.485  33.878  29.614  1.00  0.00     0.010 A 
ATOM     34  C   UNL A   1      36.248  33.204  30.818  1.00  0.00    -0.014 A 
BRANCH  34  35
ATOM     35  C   UNL A   1      37.399  32.584  31.510  1.00  0.00     0.031 A 
ATOM     36  C   UNL A   1      38.129  31.454  30.834  1.00  0.00     0.074 A 
ATOM     37  C   UNL A   1      37.722  32.977  32.755  1.00  0.00     0.049 A 
ATOM     38  N   UNL A   1      39.092  30.698  31.291  1.00  0.00    -0.248 NA
ATOM     39  C   UNL A   1      37.675  31.083  29.481  1.00  0.00     0.031 C 
ATOM     40  C   UNL A   1      37.025  34.008  33.529  1.00  0.00     0.029 A 
ATOM     41  N   UNL A   1      38.719  32.552  33.593  1.00  0.00    -0.354 N 
ATOM     42  C   UNL A   1      39.328  29.755  30.299  1.00  0.00     0.074 A 
ATOM     43  C   UNL A   1      38.350  29.968  29.260  1.00  0.00     0.031 C 
ATOM     44  C   UNL A   1      37.645  34.168  34.708  1.00  0.00     0.029 A 
ATOM     45  C   UNL A   1      38.755  33.224  34.790  1.00  0.00     0.049 A 
ATOM     46  H   UNL A   1      39.350  31.834  33.359  1.00  0.00     0.167 HD
ATOM     47  C   UNL A   1      40.306  28.823  30.239  1.00  0.00     0.037 A 
ATOM     48  C   UNL A   1      39.598  33.088  35.830  1.00  0.00     0.037 A 
ATOM     49  C   UNL A   1      41.307  28.668  31.257  1.00  0.00     0.049 A 
ATOM     50  C   UNL A   1      40.701  32.068  35.726  1.00  0.00     0.074 A 
ATOM     51  C   UNL A   1      42.395  27.816  31.277  1.00  0.00     0.029 A 
ATOM     52  N   UNL A   1      41.339  29.396  32.439  1.00  0.00    -0.354 N 
ATOM     53  N   UNL A   1      40.968  31.235  34.748  1.00  0.00    -0.248 NA
ATOM     54  C   UNL A   1      41.624  31.975  36.864  1.00  0.00     0.031 C 
ATOM     55  C   UNL A   1      43.059  27.996  32.495  1.00  0.00     0.029 A 
ATOM     56  C   UNL A   1      42.419  28.998  33.207  1.00  0.00     0.049 A 
ATOM     57  H   UNL A   1      40.691  30.091  32.692  1.00  0.00     0.167 HD
ATOM     58  C   UNL A   1      42.104  30.538  35.139  1.00  0.00     0.074 A 
ATOM     59  C   UNL A   1      42.485  31.064  36.434  1.00  0.00     0.031 C 
ATOM     60  C   UNL A   1      42.771  29.552  34.491  1.00  0.00     0.037 A 
BRANCH  47  61
ATOM     61  C   UNL A   1      40.345  27.931  29.031  1.00  0.00     0.064 A 
ATOM     62  C   UNL A   1      41.083  28.269  27.883  1.00  0.00     0.173 A 
ATOM     63  C   UNL A   1      39.639  26.720  29.018  1.00  0.00     0.173 A 
ATOM     64  F   UNL A   1      41.763  29.425  27.834  1.00  0.00    -0.203 F 
ATOM     65  C   UNL A   1      41.079  27.449  26.758  1.00  0.00     0.198 A 
ATOM     66  C   UNL A   1      39.667  25.884  27.903  1.00  0.00     0.198 A 
ATOM     67  F   UNL A   1      38.915  26.347  30.084  1.00  0.00    -0.203 F 
ATOM     68  F   UNL A   1      41.736  27.828  25.653  1.00  0.00    -0.200 F 
ATOM     69  C   UNL A   1      40.378  26.254  26.772  1.00  0.00     0.200 A 
ATOM     70  F   UNL A   1      38.998  24.723  27.922  1.00  0.00    -0.200 F 
ATOM     71  F   UNL A   1      40.378  25.464  25.690  1.00  0.00    -0.200 F 
ENDBRANCH  47  61
BRANCH  48  72
ATOM     72  C   UNL A   1      39.462  33.963  37.023  1.00  0.00     0.064 A 
ATOM     73  C   UNL A   1      38.770  33.526  38.162  1.00  0.00     0.173 A 
ATOM     74  C   UNL A   1      40.023  35.249  37.059  1.00  0.00     0.173 A 
ATOM     75  F   UNL A   1      38.202  32.311  38.174  1.00  0.00    -0.203 F 
ATOM     76  C   UNL A   1      38.621  34.348  39.278  1.00  0.00     0.198 A 
ATOM     77  C   UNL A   1      39.900  36.058  38.187  1.00  0.00     0.198 A 
ATOM     78  F   UNL A   1      40.703  35.714  36.002  1.00  0.00    -0.203 F 
ATOM     79  F   UNL A   1      37.913  33.921  40.332  1.00  0.00    -0.200 F 
ATOM     80  C   UNL A   1      39.191  35.612  39.292  1.00  0.00     0.200 A 
ATOM     81  F   UNL A   1      40.466  37.273  38.203  1.00  0.00    -0.200 F 
ATOM     82  F   UNL A   1      39.052  36.400  40.366  1.00  0.00    -0.200 F 
ENDBRANCH  48  72
BRANCH  60  83
ATOM     83  C   UNL A   1      43.996  29.004  35.160  1.00  0.00     0.064 A 
ATOM     84  C   UNL A   1      45.265  29.554  34.934  1.00  0.00     0.173 A 
ATOM     85  C   UNL A   1      43.887  27.946  36.076  1.00  0.00     0.173 A 
ATOM     86  F   UNL A   1      45.420  30.559  34.059  1.00  0.00    -0.203 F 
ATOM     87  C   UNL A   1      46.388  29.045  35.579  1.00  0.00     0.198 A 
ATOM     88  C   UNL A   1      45.007  27.464  36.746  1.00  0.00     0.198 A 
ATOM     89  F   UNL A   1      42.693  27.394  36.334  1.00  0.00    -0.203 F 
ATOM     90  F   UNL A   1      47.600  29.551  35.310  1.00  0.00    -0.200 F 
ATOM     91  C   UNL A   1      46.257  28.007  36.490  1.00  0.00     0.200 A 
ATOM     92  F   UNL A   1      44.876  26.475  37.640  1.00  0.00    -0.200 F 
ATOM     93  F   UNL A   1      47.338  27.527  37.119  1.00  0.00    -0.200 F 
ENDBRANCH  60  83
ENDBRANCH  34  35
ENDBRANCH  26  29
ENDBRANCH  24  25
ENDBRANCH   1  24
TORSDOF 13
ENDMDL
MODEL 2
REMARK VINA RESULT:     -13.0      0.064      1.128
REMARK SMILES C[C@H]1CC[C@@H]([C@H](C(=O)NCCCCNC(=O)c2ccc(-c3c4nc(c(-c5c(F)c(F)c(F)c(F)c5F)c5ccc([nH]5)c(-c5c(F)c(F)c(F)c(F)c5F)c5nc(c(-c6c(F)c(F)c(F)c(F)c6F)c6ccc3[nH]6)C=C5)C=C4)cc2)[C@@H]2CCS(=O)(=O)C2)C[C@@H]1C
REMARK SMILES IDX 12 1 11 2 10 3 9 4 7 5 8 6 6 8 5 9 1 10 2 11 3 12 88 13 4 14
REMARK SMILES IDX 87 15 89 16 80 17 81 18 86 19 82 20 83 21 84 22 85 23 13 24
REMARK SMILES IDX 14 25 15 26 16 28 17 29 18 30 79 31 19 32 78 33 20 34 21 35
REMARK SMILES IDX 22 36 72 37 23 38 77 39 71 40 73 41 24 42 76 43 70 44 69 45
REMARK SMILES IDX 25 47 57 48 37 49 56 50 38 51 41 52 55 53 74 54 39 55 40 56
REMARK SMILES IDX 54 58 75 59 42 60 26 61 27 62 35 63 28 64 29 65 33 66 36 67
REMARK SMILES IDX 30 68 31 69 34 70 32 71 58 72 59 73 67 74 60 75 61 76 65 77
REMARK SMILES IDX 68 78 62 79 63 80 66 81 64 82 43 83 44 84 52 85 45 86 46 87
REMARK SMILES IDX 50 88 53 89 47 90 48 91 51 92 49 93
REMARK H PARENT 9 7 14 27 73 46 41 57
REMARK Flexibility Score: inf
ROOT
ATOM      1  C   UNL A   1      31.810  32.008  26.672  1.00  0.00     0.023 C 
ENDROOT
BRANCH   1   2
ATOM      2  C   UNL A   1      31.862  30.504  26.915  1.00  0.00     0.023 C 
BRANCH   2   3
ATOM      3  C   UNL A   1      33.192  29.816  26.640  1.00  0.00     0.116 C 
BRANCH   3   4
ATOM      4  N   UNL A   1      33.492  29.792  25.224  1.00  0.00    -0.356 N 
ATOM      5  C   UNL A   1      33.145  28.959  24.213  1.00  0.00     0.223 C 
ATOM      6  O   UNL A   1      33.628  29.225  23.108  1.00  0.00    -0.275 OA
ATOM      7  H   UNL A   1      34.068  30.536  24.935  1.00  0.00     0.163 HD
BRANCH   5   8
ATOM      8  C   UNL A   1      32.206  27.746  24.403  1.00  0.00     0.085 C 
BRANCH   8   9
ATOM      9  C   UNL A   1      32.735  26.943  25.686  1.00  0.00     0.002 C 
ATOM     10  C   UNL A   1      32.721  22.770  24.351  1.00  0.00     0.008 C 
ATOM     11  C   UNL A   1      32.934  23.919  25.351  1.00  0.00    -0.011 C 
ATOM     12  C   UNL A   1      33.959  24.898  24.741  1.00  0.00     0.004 C 
ATOM     13  C   UNL A   1      31.590  24.597  25.693  1.00  0.00    -0.011 C 
ATOM     14  C   UNL A   1      34.075  26.220  25.482  1.00  0.00     0.005 C 
ATOM     15  C   UNL A   1      31.756  25.967  26.378  1.00  0.00     0.008 C 
ATOM     16  C   UNL A   1      30.601  23.725  26.468  1.00  0.00     0.008 C 
ENDBRANCH   8   9
BRANCH   8  17
ATOM     17  C   UNL A   1      30.690  28.126  24.466  1.00  0.00     0.018 C 
ATOM     18  C   UNL A   1      29.665  27.128  23.895  1.00  0.00     0.021 C 
ATOM     19  C   UNL A   1      30.345  29.560  24.023  1.00  0.00     0.141 C 
ATOM     20  C   UNL A   1      28.581  27.841  23.084  1.00  0.00     0.137 C 
ATOM     21  S   UNL A   1      29.133  29.495  22.748  1.00  0.00     0.150 S 
ATOM     22  O   UNL A   1      29.824  29.542  21.472  1.00  0.00    -0.229 OA
ATOM     23  O   UNL A   1      28.067  30.414  23.063  1.00  0.00    -0.229 OA
ENDBRANCH   8  17
ENDBRANCH   5   8
ENDBRANCH   3   4
ENDBRANCH   2   3
ENDBRANCH   1   2
BRANCH   1  24
ATOM     24  C   UNL A   1      32.916  32.755  27.376  1.00  0.00     0.116 C 
BRANCH  24  25
ATOM     25  N   UNL A   1      32.552  34.138  27.687  1.00  0.00    -0.352 N 
ATOM     26  C   UNL A   1      33.034  34.959  28.677  1.00  0.00     0.251 C 
ATOM     27  H   UNL A   1      31.865  34.535  27.105  1.00  0.00     0.163 HD
ATOM     28  O   UNL A   1      32.523  36.053  28.890  1.00  0.00    -0.269 OA
BRANCH  26  29
ATOM     29  C   UNL A   1      34.158  34.484  29.503  1.00  0.00     0.039 A 
ATOM     30  C   UNL A   1      33.903  33.843  30.715  1.00  0.00     0.014 A 
ATOM     31  C   UNL A   1      35.461  34.601  29.019  1.00  0.00     0.014 A 
ATOM     32  C   UNL A   1      34.961  33.255  31.408  1.00  0.00     0.010 A 
ATOM     33  C   UNL A   1      36.475  33.881  29.619  1.00  0.00     0.010 A 
ATOM     34  C   UNL A   1      36.246  33.237  30.841  1.00  0.00    -0.014 A 
BRANCH  34  35
ATOM     35  C   UNL A   1      37.397  32.613  31.529  1.00  0.00     0.031 A 
ATOM     36  C   UNL A   1      38.128  31.488  30.846  1.00  0.00     0.074 A 
ATOM     37  C   UNL A   1      37.720  32.999  32.777  1.00  0.00     0.049 A 
ATOM     38  N   UNL A   1      39.092  30.731  31.299  1.00  0.00    -0.248 NA
ATOM     39  C   UNL A   1      37.674  31.125  29.491  1.00  0.00     0.031 C 
ATOM     40  C   UNL A   1      37.023  34.025  33.557  1.00  0.00     0.029 A 
ATOM     41  N   UNL A   1      38.718  32.571  33.612  1.00  0.00    -0.354 N 
ATOM     42  C   UNL A   1      39.329  29.794  30.301  1.00  0.00     0.074 A 
ATOM     43  C   UNL A   1      38.351  30.012  29.264  1.00  0.00     0.031 C 
ATOM     44  C   UNL A   1      37.643  34.179  34.737  1.00  0.00     0.029 A 
ATOM     45  C   UNL A   1      38.753  33.235  34.813  1.00  0.00     0.049 A 
ATOM     46  H   UNL A   1      39.350  31.854  33.373  1.00  0.00     0.167 HD
ATOM     47  C   UNL A   1      40.308  28.863  30.235  1.00  0.00     0.037 A 
ATOM     48  C   UNL A   1      39.597  33.094  35.851  1.00  0.00     0.037 A 
ATOM     49  C   UNL A   1      41.309  28.702  31.252  1.00  0.00     0.049 A 
ATOM     50  C   UNL A   1      40.701  32.076  35.742  1.00  0.00     0.074 A 
ATOM     51  C   UNL A   1      42.398  27.852  31.268  1.00  0.00     0.029 A 
ATOM     52  N   UNL A   1      41.341  29.424  32.439  1.00  0.00    -0.354 N 
ATOM     53  N   UNL A   1      40.969  31.249  34.759  1.00  0.00    -0.248 NA
ATOM     54  C   UNL A   1      41.624  31.977  36.879  1.00  0.00     0.031 C 
ATOM     55  C   UNL A   1      43.062  28.025  32.486  1.00  0.00     0.029 A 
ATOM     56  C   UNL A   1      42.422  29.022  33.204  1.00  0.00     0.049 A 
ATOM     57  H   UNL A   1      40.692  30.117  32.696  1.00  0.00     0.167 HD
ATOM     58  C   UNL A   1      42.105  30.551  35.145  1.00  0.00     0.074 A 
ATOM     59  C   UNL A   1      42.486  31.069  36.443  1.00  0.00     0.031 C 
ATOM     60  C   UNL A   1      42.773  29.569  34.491  1.00  0.00     0.037 A 
BRANCH  47  61
ATOM     61  C   UNL A   1      40.348  27.978  29.022  1.00  0.00     0.064 A 
ATOM     62  C   UNL A   1      41.077  28.329  27.872  1.00  0.00     0.173 A 
ATOM     63  C   UNL A   1      39.651  26.762  29.006  1.00  0.00     0.173 A 
ATOM     64  F   UNL A   1      41.747  29.490  27.826  1.00  0.00    -0.203 F 
ATOM     65  C   UNL A   1      41.073  27.515  26.743  1.00  0.00     0.198 A 
ATOM     66  C   UNL A   1      39.680  25.931  27.887  1.00  0.00     0.198 A 
ATOM     67  F   UNL A   1      38.937  26.376  30.074  1.00  0.00    -0.203 F 
ATOM     68  F   UNL A   1      41.720  27.905  25.636  1.00  0.00    -0.200 F 
ATOM     69  C   UNL A   1      40.382  26.314  26.753  1.00  0.00     0.200 A 
ATOM     70  F   UNL A   1      39.020  24.765  27.902  1.00  0.00    -0.200 F 
ATOM     71  F   UNL A   1      40.382  25.530  25.667  1.00  0.00    -0.200 F 
ENDBRANCH  47  61
BRANCH  48  72
ATOM     72  C   UNL A   1      39.460  33.962  37.050  1.00  0.00     0.064 A 
ATOM     73  C   UNL A   1      38.769  33.518  38.186  1.00  0.00     0.173 A 
ATOM     74  C   UNL A   1      40.020  35.248  37.093  1.00  0.00     0.173 A 
ATOM     75  F   UNL A   1      38.203  32.302  38.191  1.00  0.00    -0.203 F 
ATOM     76  C   UNL A   1      38.620  34.333  39.307  1.00  0.00     0.198 A 
ATOM     77  C   UNL A   1      39.897  36.051  38.227  1.00  0.00     0.198 A 
ATOM     78  F   UNL A   1      40.700  35.720  36.039  1.00  0.00    -0.203 F 
ATOM     79  F   UNL A   1      37.912  33.899  40.359  1.00  0.00    -0.200 F 
ATOM     80  C   UNL A   1      39.189  35.597  39.328  1.00  0.00     0.200 A 
ATOM     81  F   UNL A   1      40.462  37.266  38.249  1.00  0.00    -0.200 F 
ATOM     82  F   UNL A   1      39.049  36.379  40.407  1.00  0.00    -0.200 F 
ENDBRANCH  48  72
BRANCH  60  83
ATOM     83  C   UNL A   1      43.998  29.018  35.157  1.00  0.00     0.064 A 
ATOM     84  C   UNL A   1      43.932  27.917  36.023  1.00  0.00     0.173 A 
ATOM     85  C   UNL A   1      45.260  29.570  34.885  1.00  0.00     0.173 A 
ATOM     86  F   UNL A   1      42.747  27.363  36.323  1.00  0.00    -0.203 F 
ATOM     87  C   UNL A   1      45.082  27.407  36.616  1.00  0.00     0.198 A 
ATOM     88  C   UNL A   1      46.411  29.034  35.452  1.00  0.00     0.198 A 
ATOM     89  F   UNL A   1      45.375  30.616  34.054  1.00  0.00    -0.203 F 
ATOM     90  F   UNL A   1      44.991  26.388  37.482  1.00  0.00    -0.200 F 
ATOM     91  C   UNL A   1      46.321  27.960  36.324  1.00  0.00     0.200 A 
ATOM     92  F   UNL A   1      47.608  29.556  35.153  1.00  0.00    -0.200 F 
ATOM     93  F   UNL A   1      47.428  27.459  36.888  1.00  0.00    -0.200 F 
ENDBRANCH  60  83
ENDBRANCH  34  35
ENDBRANCH  26  29
ENDBRANCH  24  25
ENDBRANCH   1  24
TORSDOF 13
ENDMDL
MODEL 3
REMARK VINA RESULT:     -12.9      1.605      7.768
REMARK SMILES C[C@H]1CC[C@@H]([C@H](C(=O)NCCCCNC(=O)c2ccc(-c3c4nc(c(-c5c(F)c(F)c(F)c(F)c5F)c5ccc([nH]5)c(-c5c(F)c(F)c(F)c(F)c5F)c5nc(c(-c6c(F)c(F)c(F)c(F)c6F)c6ccc3[nH]6)C=C5)C=C4)cc2)[C@@H]2CCS(=O)(=O)C2)C[C@@H]1C
REMARK SMILES IDX 12 1 11 2 10 3 9 4 7 5 8 6 6 8 5 9 1 10 2 11 3 12 88 13 4 14
REMARK SMILES IDX 87 15 89 16 80 17 81 18 86 19 82 20 83 21 84 22 85 23 13 24
REMARK SMILES IDX 14 25 15 26 16 28 17 29 18 30 79 31 19 32 78 33 20 34 21 35
REMARK SMILES IDX 22 36 72 37 23 38 77 39 71 40 73 41 24 42 76 43 70 44 69 45
REMARK SMILES IDX 25 47 57 48 37 49 56 50 38 51 41 52 55 53 74 54 39 55 40 56
REMARK SMILES IDX 54 58 75 59 42 60 26 61 27 62 35 63 28 64 29 65 33 66 36 67
REMARK SMILES IDX 30 68 31 69 34 70 32 71 58 72 59 73 67 74 60 75 61 76 65 77
REMARK SMILES IDX 68 78 62 79 63 80 66 81 64 82 43 83 44 84 52 85 45 86 46 87
REMARK SMILES IDX 50 88 53 89 47 90 48 91 51 92 49 93
REMARK H PARENT 9 7 14 27 73 46 41 57
REMARK Flexibility Score: inf
ROOT
ATOM      1  C   UNL A   1      31.437  32.199  26.640  1.00  0.00     0.023 C 
ENDROOT
BRANCH   1   2
ATOM      2  C   UNL A   1      31.697  30.784  26.136  1.00  0.00     0.023 C 
BRANCH   2   3
ATOM      3  C   UNL A   1      33.033  30.161  26.517  1.00  0.00     0.116 C 
BRANCH   3   4
ATOM      4  N   UNL A   1      33.708  29.610  25.361  1.00  0.00    -0.356 N 
ATOM      5  C   UNL A   1      33.569  28.456  24.664  1.00  0.00     0.223 C 
ATOM      6  O   UNL A   1      34.363  28.291  23.733  1.00  0.00    -0.275 OA
ATOM      7  H   UNL A   1      34.415  30.196  25.006  1.00  0.00     0.163 HD
BRANCH   5   8
ATOM      8  C   UNL A   1      32.494  27.395  24.994  1.00  0.00     0.085 C 
BRANCH   8   9
ATOM      9  C   UNL A   1      31.825  26.960  23.604  1.00  0.00     0.002 C 
ATOM     10  C   UNL A   1      28.467  29.742  23.176  1.00  0.00     0.008 C 
ATOM     11  C   UNL A   1      29.378  28.573  22.764  1.00  0.00    -0.011 C 
ATOM     12  C   UNL A   1      30.818  29.113  22.640  1.00  0.00     0.004 C 
ATOM     13  C   UNL A   1      29.259  27.409  23.771  1.00  0.00    -0.011 C 
ATOM     14  C   UNL A   1      31.878  28.032  22.504  1.00  0.00     0.005 C 
ATOM     15  C   UNL A   1      30.395  26.376  23.644  1.00  0.00     0.008 C 
ATOM     16  C   UNL A   1      27.898  26.713  23.802  1.00  0.00     0.008 C 
ENDBRANCH   8   9
BRANCH   8  17
ATOM     17  C   UNL A   1      33.029  26.199  25.848  1.00  0.00     0.018 C 
ATOM     18  C   UNL A   1      33.929  25.156  25.159  1.00  0.00     0.021 C 
ATOM     19  C   UNL A   1      31.987  25.500  26.741  1.00  0.00     0.141 C 
ATOM     20  C   UNL A   1      33.559  23.733  25.579  1.00  0.00     0.137 C 
ATOM     21  S   UNL A   1      31.971  23.779  26.372  1.00  0.00     0.150 S 
ATOM     22  O   UNL A   1      30.920  23.542  25.399  1.00  0.00    -0.229 OA
ATOM     23  O   UNL A   1      32.044  23.031  27.602  1.00  0.00    -0.229 OA
ENDBRANCH   8  17
ENDBRANCH   5   8
ENDBRANCH   3   4
ENDBRANCH   2   3
ENDBRANCH   1   2
BRANCH   1  24
ATOM     24  C   UNL A   1      32.655  32.832  27.267  1.00  0.00     0.116 C 
BRANCH  24  25
ATOM     25  N   UNL A   1      32.428  34.224  27.659  1.00  0.00    -0.352 N 
ATOM     26  C   UNL A   1      33.033  34.955  28.651  1.00  0.00     0.251 C 
ATOM     27  H   UNL A   1      31.744  34.703  27.137  1.00  0.00     0.163 HD
ATOM     28  O   UNL A   1      32.629  36.075  28.942  1.00  0.00    -0.269 OA
BRANCH  26  29
ATOM     29  C   UNL A   1      34.159  34.350  29.386  1.00  0.00     0.039 A 
ATOM     30  C   UNL A   1      33.906  33.449  30.420  1.00  0.00     0.014 A 
ATOM     31  C   UNL A   1      35.466  34.617  28.977  1.00  0.00     0.014 A 
ATOM     32  C   UNL A   1      34.973  32.762  30.998  1.00  0.00     0.010 A 
ATOM     33  C   UNL A   1      36.496  33.819  29.434  1.00  0.00     0.010 A 
ATOM     34  C   UNL A   1      36.269  32.915  30.478  1.00  0.00    -0.014 A 
BRANCH  34  35
ATOM     35  C   UNL A   1      37.431  32.197  31.046  1.00  0.00     0.031 A 
ATOM     36  C   UNL A   1      37.908  32.565  32.425  1.00  0.00     0.074 A 
ATOM     37  C   UNL A   1      38.090  31.294  30.297  1.00  0.00     0.049 A 
ATOM     38  N   UNL A   1      38.960  32.145  33.078  1.00  0.00    -0.248 NA
ATOM     39  C   UNL A   1      37.131  33.588  33.148  1.00  0.00     0.031 C 
ATOM     40  C   UNL A   1      37.756  30.926  28.919  1.00  0.00     0.029 A 
ATOM     41  N   UNL A   1      39.183  30.521  30.590  1.00  0.00    -0.354 N 
ATOM     42  C   UNL A   1      38.980  32.874  34.260  1.00  0.00     0.074 A 
ATOM     43  C   UNL A   1      37.899  33.827  34.197  1.00  0.00     0.031 C 
ATOM     44  C   UNL A   1      38.597  29.966  28.503  1.00  0.00     0.029 A 
ATOM     45  C   UNL A   1      39.553  29.682  29.568  1.00  0.00     0.049 A 
ATOM     46  H   UNL A   1      39.659  30.565  31.451  1.00  0.00     0.167 HD
ATOM     47  C   UNL A   1      39.801  32.729  35.325  1.00  0.00     0.037 A 
ATOM     48  C   UNL A   1      40.551  28.781  29.511  1.00  0.00     0.037 A 
ATOM     49  C   UNL A   1      40.833  31.733  35.391  1.00  0.00     0.049 A 
ATOM     50  C   UNL A   1      41.430  28.612  30.722  1.00  0.00     0.074 A 
ATOM     51  C   UNL A   1      41.678  31.432  36.442  1.00  0.00     0.029 A 
ATOM     52  N   UNL A   1      41.152  30.867  34.353  1.00  0.00    -0.354 N 
ATOM     53  N   UNL A   1      41.391  29.249  31.868  1.00  0.00    -0.248 NA
ATOM     54  C   UNL A   1      42.484  27.594  30.635  1.00  0.00     0.031 C 
ATOM     55  C   UNL A   1      42.542  30.415  36.023  1.00  0.00     0.029 A 
ATOM     56  C   UNL A   1      42.198  30.044  34.732  1.00  0.00     0.049 A 
ATOM     57  H   UNL A   1      40.702  30.844  33.479  1.00  0.00     0.167 HD
ATOM     58  C   UNL A   1      42.395  28.692  32.649  1.00  0.00     0.074 A 
ATOM     59  C   UNL A   1      43.010  27.652  31.850  1.00  0.00     0.031 C 
ATOM     60  C   UNL A   1      42.779  29.012  33.910  1.00  0.00     0.037 A 
BRANCH  47  61
ATOM     61  C   UNL A   1      39.593  33.647  36.495  1.00  0.00     0.064 A 
ATOM     62  C   UNL A   1      38.793  33.282  37.592  1.00  0.00     0.173 A 
ATOM     63  C   UNL A   1      40.202  34.910  36.525  1.00  0.00     0.173 A 
ATOM     64  F   UNL A   1      38.170  32.093  37.607  1.00  0.00    -0.203 F 
ATOM     65  C   UNL A   1      38.580  34.160  38.652  1.00  0.00     0.198 A 
ATOM     66  C   UNL A   1      40.017  35.771  37.606  1.00  0.00     0.198 A 
ATOM     67  F   UNL A   1      40.975  35.313  35.506  1.00  0.00    -0.203 F 
ATOM     68  F   UNL A   1      37.758  33.813  39.651  1.00  0.00    -0.200 F 
ATOM     69  C   UNL A   1      39.199  35.400  38.661  1.00  0.00     0.200 A 
ATOM     70  F   UNL A   1      40.625  36.966  37.619  1.00  0.00    -0.200 F 
ATOM     71  F   UNL A   1      38.997  36.242  39.683  1.00  0.00    -0.200 F 
ENDBRANCH  47  61
BRANCH  48  72
ATOM     72  C   UNL A   1      40.739  27.948  28.294  1.00  0.00     0.064 A 
ATOM     73  C   UNL A   1      40.133  26.688  28.184  1.00  0.00     0.173 A 
ATOM     74  C   UNL A   1      41.517  28.392  27.214  1.00  0.00     0.173 A 
ATOM     75  F   UNL A   1      39.392  26.212  29.194  1.00  0.00    -0.203 F 
ATOM     76  C   UNL A   1      40.321  25.893  27.054  1.00  0.00     0.198 A 
ATOM     77  C   UNL A   1      41.677  27.609  26.072  1.00  0.00     0.198 A 
ATOM     78  F   UNL A   1      42.110  29.593  27.262  1.00  0.00    -0.203 F 
ATOM     79  F   UNL A   1      39.769  24.673  26.998  1.00  0.00    -0.200 F 
ATOM     80  C   UNL A   1      41.088  26.356  25.997  1.00  0.00     0.200 A 
ATOM     81  F   UNL A   1      42.407  28.067  25.045  1.00  0.00    -0.200 F 
ATOM     82  F   UNL A   1      41.264  25.594  24.909  1.00  0.00    -0.200 F 
ENDBRANCH  48  72
BRANCH  60  83
ATOM     83  C   UNL A   1      43.892  28.206  34.509  1.00  0.00     0.064 A 
ATOM     84  C   UNL A   1      45.226  28.634  34.446  1.00  0.00     0.173 A 
ATOM     85  C   UNL A   1      43.612  27.014  35.195  1.00  0.00     0.173 A 
ATOM     86  F   UNL A   1      45.544  29.761  33.791  1.00  0.00    -0.203 F 
ATOM     87  C   UNL A   1      46.243  27.883  35.025  1.00  0.00     0.198 A 
ATOM     88  C   UNL A   1      44.628  26.285  35.803  1.00  0.00     0.198 A 
ATOM     89  F   UNL A   1      42.351  26.569  35.291  1.00  0.00    -0.203 F 
ATOM     90  F   UNL A   1      47.517  28.283  34.909  1.00  0.00    -0.200 F 
ATOM     91  C   UNL A   1      45.943  26.714  35.710  1.00  0.00     0.200 A 
ATOM     92  F   UNL A   1      44.334  25.167  36.481  1.00  0.00    -0.200 F 
ATOM     93  F   UNL A   1      46.924  25.998  36.276  1.00  0.00    -0.200 F 
ENDBRANCH  60  83
ENDBRANCH  34  35
ENDBRANCH  26  29
ENDBRANCH  24  25
ENDBRANCH   1  24
TORSDOF 13
ENDMDL
