MODEL 1
REMARK VINA RESULT:     -12.2      0.000      0.000
REMARK SMILES Cc1cc(C)c2c(=O)n(CCCC(=O)NCCCCNC(=O)c3ccc(-c4c5nc(c(-c6c(F)c(F)c(F)c(F)c6F)c6ccc([nH]6)c(-c6c(F)c(F)c(F)c(F)c6F)c6nc(c(-c7c(F)c(F)c(F)c(F)c7F)c7ccc4[nH]7)C=C6)C=C5)cc3)sc2n1
REMARK SMILES IDX 17 1 16 2 15 3 13 4 14 5 12 7 11 8 10 9 9 10 1 11 2 12 3 13
REMARK SMILES IDX 88 14 4 15 87 16 5 17 6 18 86 19 7 20 8 21 18 22 19 23 20 24
REMARK SMILES IDX 21 25 22 27 23 28 24 29 85 30 25 31 84 32 26 33 27 34 28 35
REMARK SMILES IDX 78 36 29 37 83 38 77 39 79 40 30 41 82 42 76 43 75 44 31 46
REMARK SMILES IDX 63 47 43 48 62 49 44 50 47 51 61 52 80 53 45 54 46 55 60 57
REMARK SMILES IDX 81 58 48 59 32 60 33 61 41 62 34 63 35 64 39 65 42 66 36 67
REMARK SMILES IDX 37 68 40 69 38 70 64 71 65 72 73 73 66 74 67 75 71 76 74 77
REMARK SMILES IDX 68 78 69 79 72 80 70 81 49 82 50 83 58 84 51 85 52 86 56 87
REMARK SMILES IDX 59 88 53 89 54 90 57 91 55 92
REMARK H PARENT 15 6 20 26 79 45 47 56
REMARK Flexibility Score: inf
ROOT
ATOM      1  C   UNL A   1      40.514  20.980  26.400  1.00  0.00     0.023 C 
ENDROOT
BRANCH   1   2
ATOM      2  C   UNL A   1      39.132  21.085  25.743  1.00  0.00     0.116 C 
BRANCH   2   3
ATOM      3  N   UNL A   1      38.431  22.266  26.201  1.00  0.00    -0.356 N 
ATOM      4  C   UNL A   1      37.550  23.084  25.568  1.00  0.00     0.220 C 
ATOM      5  O   UNL A   1      37.189  24.100  26.168  1.00  0.00    -0.275 OA
ATOM      6  H   UNL A   1      38.626  22.519  27.133  1.00  0.00     0.163 HD
BRANCH   4   7
ATOM      7  C   UNL A   1      36.932  22.722  24.232  1.00  0.00     0.102 C 
BRANCH   7   8
ATOM      8  C   UNL A   1      35.621  21.928  24.193  1.00  0.00     0.033 C 
BRANCH   8   9
ATOM      9  C   UNL A   1      34.264  22.638  24.086  1.00  0.00     0.139 C 
BRANCH   9  10
ATOM     10  N   UNL A   1      34.071  23.999  24.557  1.00  0.00    -0.262 N 
ATOM     11  C   UNL A   1      31.797  29.159  26.929  1.00  0.00     0.067 C 
ATOM     12  C   UNL A   1      32.428  28.166  26.000  1.00  0.00     0.039 A 
ATOM     13  C   UNL A   1      32.796  28.532  24.698  1.00  0.00     0.027 A 
ATOM     14  N   UNL A   1      32.675  26.936  26.512  1.00  0.00    -0.241 NA
ATOM     15  C   UNL A   1      33.385  27.587  23.840  1.00  0.00    -0.033 A 
ATOM     16  C   UNL A   1      33.243  26.057  25.669  1.00  0.00     0.146 A 
ATOM     17  C   UNL A   1      33.822  27.972  22.461  1.00  0.00     0.045 C 
ATOM     18  C   UNL A   1      33.554  26.303  24.346  1.00  0.00     0.081 A 
ATOM     19  S   UNL A   1      33.724  24.429  26.170  1.00  0.00    -0.035 S 
ATOM     20  C   UNL A   1      34.000  25.069  23.660  1.00  0.00     0.270 A 
ATOM     21  O   UNL A   1      34.192  25.010  22.456  1.00  0.00    -0.268 OA
ENDBRANCH   9  10
ENDBRANCH   8   9
ENDBRANCH   7   8
ENDBRANCH   4   7
ENDBRANCH   2   3
ENDBRANCH   1   2
BRANCH   1  22
ATOM     22  C   UNL A   1      41.292  19.690  26.111  1.00  0.00     0.023 C 
BRANCH  22  23
ATOM     23  C   UNL A   1      42.671  19.632  26.747  1.00  0.00     0.116 C 
BRANCH  23  24
ATOM     24  N   UNL A   1      43.739  19.287  25.806  1.00  0.00    -0.352 N 
ATOM     25  C   UNL A   1      44.396  20.144  24.932  1.00  0.00     0.251 C 
ATOM     26  H   UNL A   1      44.023  18.344  25.793  1.00  0.00     0.163 HD
ATOM     27  O   UNL A   1      44.995  19.747  23.958  1.00  0.00    -0.269 OA
BRANCH  25  28
ATOM     28  C   UNL A   1      44.339  21.581  25.254  1.00  0.00     0.039 A 
ATOM     29  C   UNL A   1      43.418  22.434  24.644  1.00  0.00     0.014 A 
ATOM     30  C   UNL A   1      45.137  22.009  26.309  1.00  0.00     0.014 A 
ATOM     31  C   UNL A   1      43.232  23.706  25.185  1.00  0.00     0.010 A 
ATOM     32  C   UNL A   1      44.824  23.188  26.936  1.00  0.00     0.010 A 
ATOM     33  C   UNL A   1      43.914  24.070  26.357  1.00  0.00    -0.014 A 
BRANCH  33  34
ATOM     34  C   UNL A   1      43.654  25.351  27.014  1.00  0.00     0.031 A 
ATOM     35  C   UNL A   1      44.595  26.474  26.721  1.00  0.00     0.074 A 
ATOM     36  C   UNL A   1      42.540  25.593  27.740  1.00  0.00     0.049 A 
ATOM     37  N   UNL A   1      45.400  27.064  27.545  1.00  0.00    -0.248 NA
ATOM     38  C   UNL A   1      44.692  26.974  25.342  1.00  0.00     0.031 C 
ATOM     39  C   UNL A   1      41.351  24.755  27.947  1.00  0.00     0.029 A 
ATOM     40  N   UNL A   1      42.217  26.731  28.411  1.00  0.00    -0.354 N 
ATOM     41  C   UNL A   1      46.014  28.098  26.839  1.00  0.00     0.074 A 
ATOM     42  C   UNL A   1      45.612  27.936  25.463  1.00  0.00     0.031 C 
ATOM     43  C   UNL A   1      40.360  25.492  28.494  1.00  0.00     0.029 A 
ATOM     44  C   UNL A   1      40.911  26.776  28.871  1.00  0.00     0.049 A 
ATOM     45  H   UNL A   1      42.860  27.463  28.560  1.00  0.00     0.167 HD
ATOM     46  C   UNL A   1      46.684  29.103  27.472  1.00  0.00     0.037 A 
ATOM     47  C   UNL A   1      40.325  27.795  29.538  1.00  0.00     0.037 A 
ATOM     48  C   UNL A   1      46.984  28.759  28.837  1.00  0.00     0.049 A 
ATOM     49  C   UNL A   1      41.410  28.595  30.150  1.00  0.00     0.074 A 
ATOM     50  C   UNL A   1      47.743  27.779  29.446  1.00  0.00     0.029 A 
ATOM     51  N   UNL A   1      46.180  29.261  29.831  1.00  0.00    -0.354 N 
ATOM     52  N   UNL A   1      42.167  28.167  31.121  1.00  0.00    -0.248 NA
ATOM     53  C   UNL A   1      41.933  29.720  29.391  1.00  0.00     0.031 C 
ATOM     54  C   UNL A   1      46.989  27.394  30.598  1.00  0.00     0.029 A 
ATOM     55  C   UNL A   1      45.854  28.203  30.642  1.00  0.00     0.049 A 
ATOM     56  H   UNL A   1      45.893  30.196  29.940  1.00  0.00     0.167 HD
ATOM     57  C   UNL A   1      43.424  28.673  30.832  1.00  0.00     0.074 A 
ATOM     58  C   UNL A   1      43.198  29.697  29.815  1.00  0.00     0.031 C 
ATOM     59  C   UNL A   1      44.555  28.032  31.245  1.00  0.00     0.037 A 
BRANCH  46  60
ATOM     60  C   UNL A   1      46.832  30.515  26.961  1.00  0.00     0.064 A 
ATOM     61  C   UNL A   1      48.097  31.140  26.980  1.00  0.00     0.173 A 
ATOM     62  C   UNL A   1      45.736  31.370  26.727  1.00  0.00     0.173 A 
ATOM     63  F   UNL A   1      49.209  30.427  27.217  1.00  0.00    -0.203 F 
ATOM     64  C   UNL A   1      48.243  32.523  26.839  1.00  0.00     0.198 A 
ATOM     65  C   UNL A   1      45.889  32.744  26.536  1.00  0.00     0.198 A 
ATOM     66  F   UNL A   1      44.474  30.927  26.783  1.00  0.00    -0.203 F 
ATOM     67  F   UNL A   1      49.452  33.085  26.979  1.00  0.00    -0.200 F 
ATOM     68  C   UNL A   1      47.138  33.325  26.622  1.00  0.00     0.200 A 
ATOM     69  F   UNL A   1      44.804  33.508  26.347  1.00  0.00    -0.200 F 
ATOM     70  F   UNL A   1      47.266  34.656  26.545  1.00  0.00    -0.200 F 
ENDBRANCH  46  60
BRANCH  47  71
ATOM     71  C   UNL A   1      38.938  28.287  29.430  1.00  0.00     0.064 A 
ATOM     72  C   UNL A   1      38.155  28.457  30.582  1.00  0.00     0.173 A 
ATOM     73  C   UNL A   1      38.476  28.902  28.250  1.00  0.00     0.173 A 
ATOM     74  F   UNL A   1      38.545  27.919  31.746  1.00  0.00    -0.203 F 
ATOM     75  C   UNL A   1      37.009  29.255  30.571  1.00  0.00     0.198 A 
ATOM     76  C   UNL A   1      37.329  29.693  28.241  1.00  0.00     0.198 A 
ATOM     77  F   UNL A   1      39.189  28.833  27.116  1.00  0.00    -0.203 F 
ATOM     78  F   UNL A   1      36.333  29.465  31.708  1.00  0.00    -0.200 F 
ATOM     79  C   UNL A   1      36.608  29.888  29.406  1.00  0.00     0.200 A 
ATOM     80  F   UNL A   1      36.968  30.327  27.115  1.00  0.00    -0.200 F 
ATOM     81  F   UNL A   1      35.557  30.720  29.415  1.00  0.00    -0.200 F 
ENDBRANCH  47  71
BRANCH  59  82
ATOM     82  C   UNL A   1      44.394  26.899  32.223  1.00  0.00     0.064 A 
ATOM     83  C   UNL A   1      44.322  25.544  31.852  1.00  0.00     0.173 A 
ATOM     84  C   UNL A   1      44.438  27.186  33.593  1.00  0.00     0.173 A 
ATOM     85  F   UNL A   1      44.380  25.178  30.567  1.00  0.00    -0.203 F 
ATOM     86  C   UNL A   1      44.242  24.533  32.808  1.00  0.00     0.198 A 
ATOM     87  C   UNL A   1      44.393  26.173  34.547  1.00  0.00     0.198 A 
ATOM     88  F   UNL A   1      44.565  28.457  34.008  1.00  0.00    -0.203 F 
ATOM     89  F   UNL A   1      44.155  23.250  32.425  1.00  0.00    -0.200 F 
ATOM     90  C   UNL A   1      44.282  24.848  34.155  1.00  0.00     0.200 A 
ATOM     91  F   UNL A   1      44.481  26.480  35.848  1.00  0.00    -0.200 F 
ATOM     92  F   UNL A   1      44.239  23.876  35.076  1.00  0.00    -0.200 F 
ENDBRANCH  59  82
ENDBRANCH  33  34
ENDBRANCH  25  28
ENDBRANCH  23  24
ENDBRANCH  22  23
ENDBRANCH   1  22
TORSDOF 14
ENDMDL
MODEL 2
REMARK VINA RESULT:     -12.0      2.854      3.916
REMARK SMILES Cc1cc(C)c2c(=O)n(CCCC(=O)NCCCCNC(=O)c3ccc(-c4c5nc(c(-c6c(F)c(F)c(F)c(F)c6F)c6ccc([nH]6)c(-c6c(F)c(F)c(F)c(F)c6F)c6nc(c(-c7c(F)c(F)c(F)c(F)c7F)c7ccc4[nH]7)C=C6)C=C5)cc3)sc2n1
REMARK SMILES IDX 17 1 16 2 15 3 13 4 14 5 12 7 11 8 10 9 9 10 1 11 2 12 3 13
REMARK SMILES IDX 88 14 4 15 87 16 5 17 6 18 86 19 7 20 8 21 18 22 19 23 20 24
REMARK SMILES IDX 21 25 22 27 23 28 24 29 85 30 25 31 84 32 26 33 27 34 28 35
REMARK SMILES IDX 78 36 29 37 83 38 77 39 79 40 30 41 82 42 76 43 75 44 31 46
REMARK SMILES IDX 63 47 43 48 62 49 44 50 47 51 61 52 80 53 45 54 46 55 60 57
REMARK SMILES IDX 81 58 48 59 32 60 33 61 41 62 34 63 35 64 39 65 42 66 36 67
REMARK SMILES IDX 37 68 40 69 38 70 64 71 65 72 73 73 66 74 67 75 71 76 74 77
REMARK SMILES IDX 68 78 69 79 72 80 70 81 49 82 50 83 58 84 51 85 52 86 56 87
REMARK SMILES IDX 59 88 53 89 54 90 57 91 55 92
REMARK H PARENT 15 6 20 26 79 45 47 56
REMARK Flexibility Score: inf
ROOT
ATOM      1  C   UNL A   1      37.004  21.749  24.747  1.00  0.00     0.023 C 
ENDROOT
BRANCH   1   2
ATOM      2  C   UNL A   1      35.953  21.144  25.687  1.00  0.00     0.116 C 
BRANCH   2   3
ATOM      3  N   UNL A   1      35.276  20.030  25.056  1.00  0.00    -0.356 N 
ATOM      4  C   UNL A   1      33.971  19.850  24.723  1.00  0.00     0.220 C 
ATOM      5  O   UNL A   1      33.645  18.741  24.294  1.00  0.00    -0.275 OA
ATOM      6  H   UNL A   1      35.864  19.273  24.828  1.00  0.00     0.163 HD
BRANCH   4   7
ATOM      7  C   UNL A   1      32.968  20.986  24.757  1.00  0.00     0.102 C 
BRANCH   7   8
ATOM      8  C   UNL A   1      32.786  21.875  23.521  1.00  0.00     0.033 C 
BRANCH   8   9
ATOM      9  C   UNL A   1      33.842  22.919  23.131  1.00  0.00     0.139 C 
BRANCH   9  10
ATOM     10  N   UNL A   1      33.946  24.197  23.814  1.00  0.00    -0.262 N 
ATOM     11  C   UNL A   1      32.922  29.157  27.246  1.00  0.00     0.067 C 
ATOM     12  C   UNL A   1      33.235  28.254  26.091  1.00  0.00     0.039 A 
ATOM     13  C   UNL A   1      33.455  28.775  24.809  1.00  0.00     0.027 A 
ATOM     14  N   UNL A   1      33.356  26.935  26.375  1.00  0.00    -0.241 NA
ATOM     15  C   UNL A   1      33.746  27.914  23.737  1.00  0.00    -0.033 A 
ATOM     16  C   UNL A   1      33.639  26.137  25.331  1.00  0.00     0.146 A 
ATOM     17  C   UNL A   1      34.025  28.457  22.371  1.00  0.00     0.045 C 
ATOM     18  C   UNL A   1      33.781  26.553  24.021  1.00  0.00     0.081 A 
ATOM     19  S   UNL A   1      33.922  24.399  25.507  1.00  0.00    -0.035 S 
ATOM     20  C   UNL A   1      33.913  25.400  23.103  1.00  0.00     0.270 A 
ATOM     21  O   UNL A   1      33.907  25.514  21.887  1.00  0.00    -0.268 OA
ENDBRANCH   9  10
ENDBRANCH   8   9
ENDBRANCH   7   8
ENDBRANCH   4   7
ENDBRANCH   2   3
ENDBRANCH   1   2
BRANCH   1  22
ATOM     22  C   UNL A   1      37.429  23.188  25.064  1.00  0.00     0.023 C 
BRANCH  22  23
ATOM     23  C   UNL A   1      38.064  23.368  26.433  1.00  0.00     0.116 C 
BRANCH  23  24
ATOM     24  N   UNL A   1      39.188  22.463  26.685  1.00  0.00    -0.352 N 
ATOM     25  C   UNL A   1      40.535  22.796  26.753  1.00  0.00     0.251 C 
ATOM     26  H   UNL A   1      38.963  21.513  26.820  1.00  0.00     0.163 HD
ATOM     27  O   UNL A   1      41.416  21.979  26.609  1.00  0.00    -0.269 OA
BRANCH  25  28
ATOM     28  C   UNL A   1      40.848  24.210  27.027  1.00  0.00     0.039 A 
ATOM     29  C   UNL A   1      40.572  25.215  26.099  1.00  0.00     0.014 A 
ATOM     30  C   UNL A   1      41.281  24.508  28.314  1.00  0.00     0.014 A 
ATOM     31  C   UNL A   1      40.636  26.543  26.520  1.00  0.00     0.010 A 
ATOM     32  C   UNL A   1      41.171  25.799  28.764  1.00  0.00     0.010 A 
ATOM     33  C   UNL A   1      40.902  26.833  27.869  1.00  0.00    -0.014 A 
BRANCH  33  34
ATOM     34  C   UNL A   1      40.862  28.208  28.366  1.00  0.00     0.031 A 
ATOM     35  C   UNL A   1      41.949  29.130  27.920  1.00  0.00     0.074 A 
ATOM     36  C   UNL A   1      39.824  28.703  29.077  1.00  0.00     0.049 A 
ATOM     37  N   UNL A   1      42.863  29.684  28.651  1.00  0.00    -0.248 NA
ATOM     38  C   UNL A   1      42.069  29.441  26.489  1.00  0.00     0.031 C 
ATOM     39  C   UNL A   1      38.531  28.088  29.407  1.00  0.00     0.029 A 
ATOM     40  N   UNL A   1      39.700  29.948  29.608  1.00  0.00    -0.354 N 
ATOM     41  C   UNL A   1      43.599  30.520  27.811  1.00  0.00     0.074 A 
ATOM     42  C   UNL A   1      43.128  30.258  26.474  1.00  0.00     0.031 C 
ATOM     43  C   UNL A   1      37.683  29.027  29.877  1.00  0.00     0.029 A 
ATOM     44  C   UNL A   1      38.433  30.248  30.082  1.00  0.00     0.049 A 
ATOM     45  H   UNL A   1      40.450  30.586  29.654  1.00  0.00     0.167 HD
ATOM     46  C   UNL A   1      44.435  31.479  28.303  1.00  0.00     0.037 A 
ATOM     47  C   UNL A   1      38.032  31.418  30.628  1.00  0.00     0.037 A 
ATOM     48  C   UNL A   1      44.730  31.258  29.695  1.00  0.00     0.049 A 
ATOM     49  C   UNL A   1      39.246  32.108  31.117  1.00  0.00     0.074 A 
ATOM     50  C   UNL A   1      45.355  30.253  30.407  1.00  0.00     0.029 A 
ATOM     51  N   UNL A   1      44.047  31.992  30.633  1.00  0.00    -0.354 N 
ATOM     52  N   UNL A   1      39.965  31.689  32.120  1.00  0.00    -0.248 NA
ATOM     53  C   UNL A   1      39.904  33.041  30.216  1.00  0.00     0.031 C 
ATOM     54  C   UNL A   1      44.595  30.128  31.610  1.00  0.00     0.029 A 
ATOM     55  C   UNL A   1      43.596  31.101  31.575  1.00  0.00     0.049 A 
ATOM     56  H   UNL A   1      43.908  32.967  30.631  1.00  0.00     0.167 HD
ATOM     57  C   UNL A   1      41.273  31.958  31.749  1.00  0.00     0.074 A 
ATOM     58  C   UNL A   1      41.166  32.875  30.617  1.00  0.00     0.031 C 
ATOM     59  C   UNL A   1      42.309  31.204  32.217  1.00  0.00     0.037 A 
BRANCH  46  60
ATOM     60  C   UNL A   1      44.775  32.780  27.619  1.00  0.00     0.064 A 
ATOM     61  C   UNL A   1      46.009  32.920  26.949  1.00  0.00     0.173 A 
ATOM     62  C   UNL A   1      44.065  33.977  27.843  1.00  0.00     0.173 A 
ATOM     63  F   UNL A   1      46.779  31.850  26.703  1.00  0.00    -0.203 F 
ATOM     64  C   UNL A   1      46.519  34.172  26.590  1.00  0.00     0.198 A 
ATOM     65  C   UNL A   1      44.554  35.221  27.439  1.00  0.00     0.198 A 
ATOM     66  F   UNL A   1      42.932  34.001  28.554  1.00  0.00    -0.203 F 
ATOM     67  F   UNL A   1      47.747  34.265  26.061  1.00  0.00    -0.200 F 
ATOM     68  C   UNL A   1      45.794  35.322  26.840  1.00  0.00     0.200 A 
ATOM     69  F   UNL A   1      43.846  36.326  27.708  1.00  0.00    -0.200 F 
ATOM     70  F   UNL A   1      46.304  36.526  26.552  1.00  0.00    -0.200 F 
ENDBRANCH  46  60
BRANCH  47  71
ATOM     71  C   UNL A   1      36.732  32.100  30.485  1.00  0.00     0.064 A 
ATOM     72  C   UNL A   1      35.834  32.147  31.563  1.00  0.00     0.173 A 
ATOM     73  C   UNL A   1      36.490  32.985  29.417  1.00  0.00     0.173 A 
ATOM     74  F   UNL A   1      36.015  31.349  32.625  1.00  0.00    -0.203 F 
ATOM     75  C   UNL A   1      34.793  33.076  31.602  1.00  0.00     0.198 A 
ATOM     76  C   UNL A   1      35.446  33.908  29.456  1.00  0.00     0.198 A 
ATOM     77  F   UNL A   1      37.327  33.042  28.370  1.00  0.00    -0.203 F 
ATOM     78  F   UNL A   1      34.007  33.151  32.685  1.00  0.00    -0.200 F 
ATOM     79  C   UNL A   1      34.612  33.969  30.558  1.00  0.00     0.200 A 
ATOM     80  F   UNL A   1      35.300  34.788  28.455  1.00  0.00    -0.200 F 
ATOM     81  F   UNL A   1      33.665  34.914  30.633  1.00  0.00    -0.200 F 
ENDBRANCH  47  71
BRANCH  59  82
ATOM     82  C   UNL A   1      42.016  30.234  33.330  1.00  0.00     0.064 A 
ATOM     83  C   UNL A   1      41.622  28.900  33.127  1.00  0.00     0.173 A 
ATOM     84  C   UNL A   1      42.261  30.636  34.649  1.00  0.00     0.173 A 
ATOM     85  F   UNL A   1      41.468  28.407  31.893  1.00  0.00    -0.203 F 
ATOM     86  C   UNL A   1      41.431  28.028  34.198  1.00  0.00     0.198 A 
ATOM     87  C   UNL A   1      42.103  29.754  35.715  1.00  0.00     0.198 A 
ATOM     88  F   UNL A   1      42.695  31.881  34.902  1.00  0.00    -0.203 F 
ATOM     89  F   UNL A   1      41.037  26.765  33.975  1.00  0.00    -0.200 F 
ATOM     90  C   UNL A   1      41.676  28.455  35.491  1.00  0.00     0.200 A 
ATOM     91  F   UNL A   1      42.389  30.158  36.961  1.00  0.00    -0.200 F 
ATOM     92  F   UNL A   1      41.526  27.610  36.520  1.00  0.00    -0.200 F 
ENDBRANCH  59  82
ENDBRANCH  33  34
ENDBRANCH  25  28
ENDBRANCH  23  24
ENDBRANCH  22  23
ENDBRANCH   1  22
TORSDOF 14
ENDMDL
MODEL 3
REMARK VINA RESULT:     -11.9      3.926      7.198
REMARK SMILES Cc1cc(C)c2c(=O)n(CCCC(=O)NCCCCNC(=O)c3ccc(-c4c5nc(c(-c6c(F)c(F)c(F)c(F)c6F)c6ccc([nH]6)c(-c6c(F)c(F)c(F)c(F)c6F)c6nc(c(-c7c(F)c(F)c(F)c(F)c7F)c7ccc4[nH]7)C=C6)C=C5)cc3)sc2n1
REMARK SMILES IDX 17 1 16 2 15 3 13 4 14 5 12 7 11 8 10 9 9 10 1 11 2 12 3 13
REMARK SMILES IDX 88 14 4 15 87 16 5 17 6 18 86 19 7 20 8 21 18 22 19 23 20 24
REMARK SMILES IDX 21 25 22 27 23 28 24 29 85 30 25 31 84 32 26 33 27 34 28 35
REMARK SMILES IDX 78 36 29 37 83 38 77 39 79 40 30 41 82 42 76 43 75 44 31 46
REMARK SMILES IDX 63 47 43 48 62 49 44 50 47 51 61 52 80 53 45 54 46 55 60 57
REMARK SMILES IDX 81 58 48 59 32 60 33 61 41 62 34 63 35 64 39 65 42 66 36 67
REMARK SMILES IDX 37 68 40 69 38 70 64 71 65 72 73 73 66 74 67 75 71 76 74 77
REMARK SMILES IDX 68 78 69 79 72 80 70 81 49 82 50 83 58 84 51 85 52 86 56 87
REMARK SMILES IDX 59 88 53 89 54 90 57 91 55 92
REMARK H PARENT 15 6 20 26 79 45 47 56
REMARK Flexibility Score: inf
ROOT
ATOM      1  C   UNL A   1      43.320  26.069  25.290  1.00  0.00     0.023 C 
ENDROOT
BRANCH   1   2
ATOM      2  C   UNL A   1      44.641  26.727  25.709  1.00  0.00     0.116 C 
BRANCH   2   3
ATOM      3  N   UNL A   1      45.243  27.431  24.596  1.00  0.00    -0.356 N 
ATOM      4  C   UNL A   1      46.506  27.898  24.412  1.00  0.00     0.220 C 
ATOM      5  O   UNL A   1      46.718  28.573  23.402  1.00  0.00    -0.275 OA
ATOM      6  H   UNL A   1      44.632  27.599  23.842  1.00  0.00     0.163 HD
BRANCH   4   7
ATOM      7  C   UNL A   1      47.647  27.518  25.336  1.00  0.00     0.102 C 
BRANCH   7   8
ATOM      8  C   UNL A   1      48.154  26.072  25.359  1.00  0.00     0.033 C 
BRANCH   8   9
ATOM      9  C   UNL A   1      48.245  25.283  26.674  1.00  0.00     0.139 C 
BRANCH   9  10
ATOM     10  N   UNL A   1      47.277  25.459  27.743  1.00  0.00    -0.262 N 
ATOM     11  C   UNL A   1      44.531  26.154  33.164  1.00  0.00     0.067 C 
ATOM     12  C   UNL A   1      44.914  25.645  31.807  1.00  0.00     0.039 A 
ATOM     13  C   UNL A   1      44.305  24.503  31.270  1.00  0.00     0.027 A 
ATOM     14  N   UNL A   1      45.818  26.384  31.121  1.00  0.00    -0.241 NA
ATOM     15  C   UNL A   1      44.677  24.038  29.997  1.00  0.00    -0.033 A 
ATOM     16  C   UNL A   1      46.150  25.917  29.905  1.00  0.00     0.146 A 
ATOM     17  C   UNL A   1      44.008  22.845  29.391  1.00  0.00     0.045 C 
ATOM     18  C   UNL A   1      45.670  24.753  29.336  1.00  0.00     0.081 A 
ATOM     19  S   UNL A   1      47.246  26.781  28.818  1.00  0.00    -0.035 S 
ATOM     20  C   UNL A   1      46.374  24.444  28.071  1.00  0.00     0.270 A 
ATOM     21  O   UNL A   1      46.221  23.396  27.464  1.00  0.00    -0.268 OA
ENDBRANCH   9  10
ENDBRANCH   8   9
ENDBRANCH   7   8
ENDBRANCH   4   7
ENDBRANCH   2   3
ENDBRANCH   1   2
BRANCH   1  22
ATOM     22  C   UNL A   1      43.419  24.605  24.843  1.00  0.00     0.023 C 
BRANCH  22  23
ATOM     23  C   UNL A   1      43.134  23.593  25.941  1.00  0.00     0.116 C 
BRANCH  23  24
ATOM     24  N   UNL A   1      41.856  22.896  25.782  1.00  0.00    -0.352 N 
ATOM     25  C   UNL A   1      40.703  23.076  26.536  1.00  0.00     0.251 C 
ATOM     26  H   UNL A   1      41.809  22.227  25.062  1.00  0.00     0.163 HD
ATOM     27  O   UNL A   1      39.824  22.246  26.590  1.00  0.00    -0.269 OA
BRANCH  25  28
ATOM     28  C   UNL A   1      40.589  24.350  27.269  1.00  0.00     0.039 A 
ATOM     29  C   UNL A   1      41.305  24.587  28.443  1.00  0.00     0.014 A 
ATOM     30  C   UNL A   1      39.861  25.357  26.645  1.00  0.00     0.014 A 
ATOM     31  C   UNL A   1      41.367  25.892  28.930  1.00  0.00     0.010 A 
ATOM     32  C   UNL A   1      40.071  26.657  27.031  1.00  0.00     0.010 A 
ATOM     33  C   UNL A   1      40.775  26.936  28.201  1.00  0.00    -0.014 A 
BRANCH  33  34
ATOM     34  C   UNL A   1      40.922  28.329  28.624  1.00  0.00     0.031 A 
ATOM     35  C   UNL A   1      42.082  29.094  28.074  1.00  0.00     0.074 A 
ATOM     36  C   UNL A   1      39.991  28.976  29.359  1.00  0.00     0.049 A 
ATOM     37  N   UNL A   1      43.093  29.570  28.726  1.00  0.00    -0.248 NA
ATOM     38  C   UNL A   1      42.155  29.320  26.623  1.00  0.00     0.031 C 
ATOM     39  C   UNL A   1      38.657  28.535  29.788  1.00  0.00     0.029 A 
ATOM     40  N   UNL A   1      40.042  30.252  29.828  1.00  0.00    -0.354 N 
ATOM     41  C   UNL A   1      43.871  30.272  27.805  1.00  0.00     0.074 A 
ATOM     42  C   UNL A   1      43.297  30.004  26.510  1.00  0.00     0.031 C 
ATOM     43  C   UNL A   1      37.950  29.589  30.249  1.00  0.00     0.029 A 
ATOM     44  C   UNL A   1      38.847  30.721  30.348  1.00  0.00     0.049 A 
ATOM     45  H   UNL A   1      40.862  30.798  29.800  1.00  0.00     0.167 HD
ATOM     46  C   UNL A   1      44.839  31.148  28.201  1.00  0.00     0.037 A 
ATOM     47  C   UNL A   1      38.614  31.955  30.851  1.00  0.00     0.037 A 
ATOM     48  C   UNL A   1      45.186  30.961  29.586  1.00  0.00     0.049 A 
ATOM     49  C   UNL A   1      39.926  32.520  31.239  1.00  0.00     0.074 A 
ATOM     50  C   UNL A   1      45.730  29.924  30.318  1.00  0.00     0.029 A 
ATOM     51  N   UNL A   1      44.647  31.815  30.516  1.00  0.00    -0.354 N 
ATOM     52  N   UNL A   1      40.649  32.067  32.224  1.00  0.00    -0.248 NA
ATOM     53  C   UNL A   1      40.635  33.324  30.256  1.00  0.00     0.031 C 
ATOM     54  C   UNL A   1      45.031  29.948  31.564  1.00  0.00     0.029 A 
ATOM     55  C   UNL A   1      44.150  31.029  31.527  1.00  0.00     0.049 A 
ATOM     56  H   UNL A   1      44.621  32.798  30.469  1.00  0.00     0.167 HD
ATOM     57  C   UNL A   1      41.955  32.162  31.773  1.00  0.00     0.074 A 
ATOM     58  C   UNL A   1      41.890  33.030  30.600  1.00  0.00     0.031 C 
ATOM     59  C   UNL A   1      42.922  31.314  32.228  1.00  0.00     0.037 A 
BRANCH  46  60
ATOM     60  C   UNL A   1      45.287  32.366  27.431  1.00  0.00     0.064 A 
ATOM     61  C   UNL A   1      46.598  32.426  26.913  1.00  0.00     0.173 A 
ATOM     62  C   UNL A   1      44.577  33.584  27.434  1.00  0.00     0.173 A 
ATOM     63  F   UNL A   1      47.373  31.332  26.883  1.00  0.00    -0.203 F 
ATOM     64  C   UNL A   1      47.173  33.629  26.491  1.00  0.00     0.198 A 
ATOM     65  C   UNL A   1      45.137  34.774  26.965  1.00  0.00     0.198 A 
ATOM     66  F   UNL A   1      43.364  33.691  27.988  1.00  0.00    -0.203 F 
ATOM     67  F   UNL A   1      48.460  33.658  26.115  1.00  0.00    -0.200 F 
ATOM     68  C   UNL A   1      46.444  34.803  26.522  1.00  0.00     0.200 A 
ATOM     69  F   UNL A   1      44.422  35.905  27.022  1.00  0.00    -0.200 F 
ATOM     70  F   UNL A   1      47.009  35.966  26.174  1.00  0.00    -0.200 F 
ENDBRANCH  46  60
BRANCH  47  71
ATOM     71  C   UNL A   1      37.396  32.778  30.737  1.00  0.00     0.064 A 
ATOM     72  C   UNL A   1      37.034  33.341  29.504  1.00  0.00     0.173 A 
ATOM     73  C   UNL A   1      36.407  32.752  31.740  1.00  0.00     0.173 A 
ATOM     74  F   UNL A   1      37.917  33.380  28.496  1.00  0.00    -0.203 F 
ATOM     75  C   UNL A   1      35.735  33.793  29.264  1.00  0.00     0.198 A 
ATOM     76  C   UNL A   1      35.112  33.208  31.500  1.00  0.00     0.198 A 
ATOM     77  F   UNL A   1      36.652  32.185  32.931  1.00  0.00    -0.203 F 
ATOM     78  F   UNL A   1      35.400  34.246  28.049  1.00  0.00    -0.200 F 
ATOM     79  C   UNL A   1      34.770  33.708  30.255  1.00  0.00     0.200 A 
ATOM     80  F   UNL A   1      34.178  33.092  32.455  1.00  0.00    -0.200 F 
ATOM     81  F   UNL A   1      33.503  34.063  29.998  1.00  0.00    -0.200 F 
ENDBRANCH  47  71
BRANCH  59  82
ATOM     82  C   UNL A   1      42.584  30.440  33.405  1.00  0.00     0.064 A 
ATOM     83  C   UNL A   1      42.665  30.860  34.745  1.00  0.00     0.173 A 
ATOM     84  C   UNL A   1      42.042  29.172  33.162  1.00  0.00     0.173 A 
ATOM     85  F   UNL A   1      43.073  32.094  35.058  1.00  0.00    -0.203 F 
ATOM     86  C   UNL A   1      42.272  30.026  35.792  1.00  0.00     0.198 A 
ATOM     87  C   UNL A   1      41.618  28.354  34.207  1.00  0.00     0.198 A 
ATOM     88  F   UNL A   1      41.885  28.739  31.901  1.00  0.00    -0.203 F 
ATOM     89  F   UNL A   1      42.378  30.445  37.061  1.00  0.00    -0.200 F 
ATOM     90  C   UNL A   1      41.745  28.776  35.521  1.00  0.00     0.200 A 
ATOM     91  F   UNL A   1      41.063  27.165  33.937  1.00  0.00    -0.200 F 
ATOM     92  F   UNL A   1      41.335  27.986  36.523  1.00  0.00    -0.200 F 
ENDBRANCH  59  82
ENDBRANCH  33  34
ENDBRANCH  25  28
ENDBRANCH  23  24
ENDBRANCH  22  23
ENDBRANCH   1  22
TORSDOF 14
ENDMDL
