MODEL 1
REMARK VINA RESULT:     -13.3      0.000      0.000
REMARK SMILES CC1=C2C(=O)N(C[C@H]3CCCO3)C(=O)N=C2S[C@@H]1C(=O)NCCCCNC(=O)c1ccc(-c2c3nc(c(-c4c(F)c(F)c(F)c(F)c4F)c4ccc([nH]4)c(-c4c(F)c(F)c(F)c(F)c4F)c4nc(c(-c5c(F)c(F)c(F)c(F)c5F)c5ccc2[nH]5)C=C4)C=C3)cc1
REMARK SMILES IDX 23 1 22 2 21 3 19 4 20 5 18 7 1 8 2 9 3 10 4 11 16 12 17 13
REMARK SMILES IDX 5 14 6 15 15 16 13 17 14 18 7 19 8 20 9 21 12 22 10 23 11 24
REMARK SMILES IDX 24 25 25 26 26 27 27 28 28 30 29 31 30 32 91 33 31 34 90 35
REMARK SMILES IDX 32 36 33 37 34 38 84 39 35 40 89 41 83 42 85 43 36 44 88 45
REMARK SMILES IDX 82 46 81 47 37 49 69 50 49 51 68 52 50 53 53 54 67 55 86 56
REMARK SMILES IDX 51 57 52 58 66 60 87 61 54 62 38 63 39 64 47 65 40 66 41 67
REMARK SMILES IDX 45 68 48 69 42 70 43 71 46 72 44 73 70 74 71 75 79 76 72 77
REMARK SMILES IDX 73 78 77 79 80 80 74 81 75 82 78 83 76 84 55 85 56 86 64 87
REMARK SMILES IDX 57 88 58 89 62 90 65 91 59 92 60 93 63 94 61 95
REMARK H PARENT 21 6 26 29 85 48 53 59
REMARK Flexibility Score: inf
ROOT
ATOM      1  C   UNL A   1      31.776  30.422  26.829  1.00  0.00     0.023 C 
ENDROOT
BRANCH   1   2
ATOM      2  C   UNL A   1      32.064  29.711  25.511  1.00  0.00     0.116 C 
BRANCH   2   3
ATOM      3  N   UNL A   1      31.075  30.026  24.500  1.00  0.00    -0.355 N 
ATOM      4  C   UNL A   1      30.649  29.327  23.409  1.00  0.00     0.237 C 
ATOM      5  O   UNL A   1      29.785  29.864  22.707  1.00  0.00    -0.273 OA
ATOM      6  H   UNL A   1      30.634  30.898  24.621  1.00  0.00     0.163 HD
BRANCH   4   7
ATOM      7  C   UNL A   1      31.137  27.911  23.072  1.00  0.00     0.169 C 
ATOM      8  C   UNL A   1      29.189  26.682  24.252  1.00  0.00     0.042 C 
ATOM      9  C   UNL A   1      30.658  26.854  24.025  1.00  0.00    -0.035 C 
ATOM     10  C   UNL A   1      31.620  26.114  24.594  1.00  0.00     0.073 C 
ATOM     11  C   UNL A   1      31.508  25.069  25.603  1.00  0.00     0.264 C 
ATOM     12  C   UNL A   1      32.962  26.441  24.156  1.00  0.00     0.116 C 
ATOM     13  S   UNL A   1      32.960  27.792  23.059  1.00  0.00    -0.087 SA
ATOM     14  O   UNL A   1      30.564  25.050  26.381  1.00  0.00    -0.268 OA
ATOM     15  N   UNL A   1      32.594  24.232  25.610  1.00  0.00    -0.256 N 
ATOM     16  N   UNL A   1      34.021  25.834  24.530  1.00  0.00    -0.186 NA
ATOM     17  C   UNL A   1      33.883  24.707  25.316  1.00  0.00     0.351 C 
ATOM     18  O   UNL A   1      34.876  24.129  25.734  1.00  0.00    -0.246 OA
BRANCH  15  19
ATOM     19  C   UNL A   1      32.436  22.801  25.868  1.00  0.00     0.163 C 
BRANCH  19  20
ATOM     20  C   UNL A   1      32.147  21.805  24.724  1.00  0.00     0.138 C 
ATOM     21  C   UNL A   1      33.307  21.376  23.833  1.00  0.00     0.036 C 
ATOM     22  O   UNL A   1      31.778  20.554  25.375  1.00  0.00    -0.376 OA
ATOM     23  C   UNL A   1      34.047  20.376  24.678  1.00  0.00     0.031 C 
ATOM     24  C   UNL A   1      32.921  19.679  25.404  1.00  0.00     0.160 C 
ENDBRANCH  19  20
ENDBRANCH  15  19
ENDBRANCH   4   7
ENDBRANCH   2   3
ENDBRANCH   1   2
BRANCH   1  25
ATOM     25  C   UNL A   1      31.650  31.941  26.706  1.00  0.00     0.023 C 
BRANCH  25  26
ATOM     26  C   UNL A   1      32.793  32.738  27.328  1.00  0.00     0.116 C 
BRANCH  26  27
ATOM     27  N   UNL A   1      32.441  34.117  27.627  1.00  0.00    -0.352 N 
ATOM     28  C   UNL A   1      33.007  34.963  28.551  1.00  0.00     0.251 C 
ATOM     29  H   UNL A   1      31.702  34.494  27.099  1.00  0.00     0.163 HD
ATOM     30  O   UNL A   1      32.533  36.076  28.751  1.00  0.00    -0.269 OA
BRANCH  28  31
ATOM     31  C   UNL A   1      34.169  34.502  29.336  1.00  0.00     0.039 A 
ATOM     32  C   UNL A   1      33.946  33.929  30.590  1.00  0.00     0.014 A 
ATOM     33  C   UNL A   1      35.464  34.598  28.819  1.00  0.00     0.014 A 
ATOM     34  C   UNL A   1      35.017  33.382  31.297  1.00  0.00     0.010 A 
ATOM     35  C   UNL A   1      36.521  33.999  29.497  1.00  0.00     0.010 A 
ATOM     36  C   UNL A   1      36.305  33.379  30.737  1.00  0.00    -0.014 A 
BRANCH  36  37
ATOM     37  C   UNL A   1      37.440  32.719  31.426  1.00  0.00     0.031 A 
ATOM     38  C   UNL A   1      38.146  31.564  30.777  1.00  0.00     0.074 A 
ATOM     39  C   UNL A   1      37.782  33.112  32.668  1.00  0.00     0.049 A 
ATOM     40  N   UNL A   1      39.096  30.801  31.255  1.00  0.00    -0.248 NA
ATOM     41  C   UNL A   1      37.707  31.201  29.421  1.00  0.00     0.031 C 
ATOM     42  C   UNL A   1      37.136  34.188  33.424  1.00  0.00     0.029 A 
ATOM     43  N   UNL A   1      38.747  32.640  33.522  1.00  0.00    -0.354 N 
ATOM     44  C   UNL A   1      39.351  29.857  30.270  1.00  0.00     0.074 A 
ATOM     45  C   UNL A   1      38.432  30.119  29.183  1.00  0.00     0.031 C 
ATOM     46  C   UNL A   1      37.733  34.303  34.622  1.00  0.00     0.029 A 
ATOM     47  C   UNL A   1      38.779  33.291  34.731  1.00  0.00     0.049 A 
ATOM     48  H   UNL A   1      39.358  31.904  33.290  1.00  0.00     0.167 HD
ATOM     49  C   UNL A   1      40.282  28.875  30.266  1.00  0.00     0.037 A 
ATOM     50  C   UNL A   1      39.562  33.089  35.807  1.00  0.00     0.037 A 
ATOM     51  C   UNL A   1      41.221  28.642  31.331  1.00  0.00     0.049 A 
ATOM     52  C   UNL A   1      40.605  32.006  35.765  1.00  0.00     0.074 A 
ATOM     53  C   UNL A   1      42.247  27.716  31.391  1.00  0.00     0.029 A 
ATOM     54  N   UNL A   1      41.250  29.349  32.524  1.00  0.00    -0.354 N 
ATOM     55  N   UNL A   1      40.879  31.161  34.803  1.00  0.00    -0.248 NA
ATOM     56  C   UNL A   1      41.451  31.856  36.958  1.00  0.00     0.031 C 
ATOM     57  C   UNL A   1      42.878  27.841  32.633  1.00  0.00     0.029 A 
ATOM     58  C   UNL A   1      42.267  28.868  33.332  1.00  0.00     0.049 A 
ATOM     59  H   UNL A   1      40.637  30.082  32.762  1.00  0.00     0.167 HD
ATOM     60  C   UNL A   1      41.942  30.394  35.260  1.00  0.00     0.074 A 
ATOM     61  C   UNL A   1      42.271  30.883  36.583  1.00  0.00     0.031 C 
ATOM     62  C   UNL A   1      42.586  29.376  34.641  1.00  0.00     0.037 A 
BRANCH  49  63
ATOM     63  C   UNL A   1      40.339  27.981  29.065  1.00  0.00     0.064 A 
ATOM     64  C   UNL A   1      39.623  26.774  29.015  1.00  0.00     0.173 A 
ATOM     65  C   UNL A   1      41.084  28.351  27.936  1.00  0.00     0.173 A 
ATOM     66  F   UNL A   1      38.907  26.371  30.075  1.00  0.00    -0.203 F 
ATOM     67  C   UNL A   1      39.670  25.961  27.886  1.00  0.00     0.198 A 
ATOM     68  C   UNL A   1      41.108  27.548  26.799  1.00  0.00     0.198 A 
ATOM     69  F   UNL A   1      41.783  29.496  27.932  1.00  0.00    -0.203 F 
ATOM     70  F   UNL A   1      39.011  24.795  27.876  1.00  0.00    -0.200 F 
ATOM     71  C   UNL A   1      40.406  26.351  26.777  1.00  0.00     0.200 A 
ATOM     72  F   UNL A   1      41.812  27.929  25.725  1.00  0.00    -0.200 F 
ATOM     73  F   UNL A   1      40.444  25.570  25.689  1.00  0.00    -0.200 F 
ENDBRANCH  49  63
BRANCH  50  74
ATOM     74  C   UNL A   1      39.408  33.948  37.008  1.00  0.00     0.064 A 
ATOM     75  C   UNL A   1      40.009  35.213  37.066  1.00  0.00     0.173 A 
ATOM     76  C   UNL A   1      38.666  33.524  38.119  1.00  0.00     0.173 A 
ATOM     77  F   UNL A   1      40.746  35.651  36.034  1.00  0.00    -0.203 F 
ATOM     78  C   UNL A   1      39.891  36.014  38.199  1.00  0.00     0.198 A 
ATOM     79  C   UNL A   1      38.527  34.337  39.243  1.00  0.00     0.198 A 
ATOM     80  F   UNL A   1      38.068  32.324  38.109  1.00  0.00    -0.203 F 
ATOM     81  F   UNL A   1      40.511  37.201  38.245  1.00  0.00    -0.200 F 
ATOM     82  C   UNL A   1      39.146  35.577  39.285  1.00  0.00     0.200 A 
ATOM     83  F   UNL A   1      37.799  33.916  40.286  1.00  0.00    -0.200 F 
ATOM     84  F   UNL A   1      39.032  36.349  40.374  1.00  0.00    -0.200 F 
ENDBRANCH  50  74
BRANCH  62  85
ATOM     85  C   UNL A   1      43.730  28.744  35.374  1.00  0.00     0.064 A 
ATOM     86  C   UNL A   1      45.050  29.176  35.184  1.00  0.00     0.173 A 
ATOM     87  C   UNL A   1      43.498  27.723  36.307  1.00  0.00     0.173 A 
ATOM     88  F   UNL A   1      45.323  30.139  34.290  1.00  0.00    -0.203 F 
ATOM     89  C   UNL A   1      46.100  28.594  35.889  1.00  0.00     0.198 A 
ATOM     90  C   UNL A   1      44.547  27.160  37.027  1.00  0.00     0.198 A 
ATOM     91  F   UNL A   1      42.250  27.279  36.527  1.00  0.00    -0.203 F 
ATOM     92  F   UNL A   1      47.359  28.995  35.664  1.00  0.00    -0.200 F 
ATOM     93  C   UNL A   1      45.847  27.592  36.814  1.00  0.00     0.200 A 
ATOM     94  F   UNL A   1      44.300  26.198  37.928  1.00  0.00    -0.200 F 
ATOM     95  F   UNL A   1      46.858  27.037  37.495  1.00  0.00    -0.200 F 
ENDBRANCH  62  85
ENDBRANCH  36  37
ENDBRANCH  28  31
ENDBRANCH  26  27
ENDBRANCH  25  26
ENDBRANCH   1  25
TORSDOF 13
ENDMDL
MODEL 2
REMARK VINA RESULT:     -13.3      1.038      2.323
REMARK SMILES CC1=C2C(=O)N(C[C@H]3CCCO3)C(=O)N=C2S[C@@H]1C(=O)NCCCCNC(=O)c1ccc(-c2c3nc(c(-c4c(F)c(F)c(F)c(F)c4F)c4ccc([nH]4)c(-c4c(F)c(F)c(F)c(F)c4F)c4nc(c(-c5c(F)c(F)c(F)c(F)c5F)c5ccc2[nH]5)C=C4)C=C3)cc1
REMARK SMILES IDX 23 1 22 2 21 3 19 4 20 5 18 7 1 8 2 9 3 10 4 11 16 12 17 13
REMARK SMILES IDX 5 14 6 15 15 16 13 17 14 18 7 19 8 20 9 21 12 22 10 23 11 24
REMARK SMILES IDX 24 25 25 26 26 27 27 28 28 30 29 31 30 32 91 33 31 34 90 35
REMARK SMILES IDX 32 36 33 37 34 38 84 39 35 40 89 41 83 42 85 43 36 44 88 45
REMARK SMILES IDX 82 46 81 47 37 49 69 50 49 51 68 52 50 53 53 54 67 55 86 56
REMARK SMILES IDX 51 57 52 58 66 60 87 61 54 62 38 63 39 64 47 65 40 66 41 67
REMARK SMILES IDX 45 68 48 69 42 70 43 71 46 72 44 73 70 74 71 75 79 76 72 77
REMARK SMILES IDX 73 78 77 79 80 80 74 81 75 82 78 83 76 84 55 85 56 86 64 87
REMARK SMILES IDX 57 88 58 89 62 90 65 91 59 92 60 93 63 94 61 95
REMARK H PARENT 21 6 26 29 85 48 53 59
REMARK Flexibility Score: inf
ROOT
ATOM      1  C   UNL A   1      31.802  30.373  26.834  1.00  0.00     0.023 C 
ENDROOT
BRANCH   1   2
ATOM      2  C   UNL A   1      32.370  29.748  25.565  1.00  0.00     0.116 C 
BRANCH   2   3
ATOM      3  N   UNL A   1      31.348  29.063  24.797  1.00  0.00    -0.355 N 
ATOM      4  C   UNL A   1      31.056  27.737  24.670  1.00  0.00     0.237 C 
ATOM      5  O   UNL A   1      30.118  27.444  23.920  1.00  0.00    -0.273 OA
ATOM      6  H   UNL A   1      30.764  29.659  24.275  1.00  0.00     0.163 HD
BRANCH   4   7
ATOM      7  C   UNL A   1      31.780  26.635  25.456  1.00  0.00     0.169 C 
ATOM      8  C   UNL A   1      33.886  26.590  23.953  1.00  0.00     0.042 C 
ATOM      9  C   UNL A   1      32.780  25.860  24.646  1.00  0.00    -0.035 C 
ATOM     10  C   UNL A   1      32.602  24.531  24.631  1.00  0.00     0.073 C 
ATOM     11  C   UNL A   1      33.337  23.508  23.900  1.00  0.00     0.264 C 
ATOM     12  C   UNL A   1      31.491  24.069  25.438  1.00  0.00     0.116 C 
ATOM     13  S   UNL A   1      30.621  25.401  26.144  1.00  0.00    -0.087 SA
ATOM     14  O   UNL A   1      33.920  23.781  22.860  1.00  0.00    -0.268 OA
ATOM     15  N   UNL A   1      33.199  22.264  24.462  1.00  0.00    -0.256 N 
ATOM     16  N   UNL A   1      31.170  22.845  25.608  1.00  0.00    -0.186 NA
ATOM     17  C   UNL A   1      32.003  21.874  25.087  1.00  0.00     0.351 C 
ATOM     18  O   UNL A   1      31.702  20.694  25.186  1.00  0.00    -0.246 OA
BRANCH  15  19
ATOM     19  C   UNL A   1      34.318  21.322  24.480  1.00  0.00     0.163 C 
BRANCH  19  20
ATOM     20  C   UNL A   1      35.331  21.298  25.644  1.00  0.00     0.138 C 
ATOM     21  C   UNL A   1      36.814  21.415  25.311  1.00  0.00     0.036 C 
ATOM     22  O   UNL A   1      35.087  22.516  26.405  1.00  0.00    -0.376 OA
ATOM     23  C   UNL A   1      36.994  22.881  25.028  1.00  0.00     0.031 C 
ATOM     24  C   UNL A   1      36.052  23.514  26.024  1.00  0.00     0.160 C 
ENDBRANCH  19  20
ENDBRANCH  15  19
ENDBRANCH   4   7
ENDBRANCH   2   3
ENDBRANCH   1   2
BRANCH   1  25
ATOM     25  C   UNL A   1      31.615  31.889  26.756  1.00  0.00     0.023 C 
BRANCH  25  26
ATOM     26  C   UNL A   1      32.770  32.715  27.314  1.00  0.00     0.116 C 
BRANCH  26  27
ATOM     27  N   UNL A   1      32.402  34.086  27.629  1.00  0.00    -0.352 N 
ATOM     28  C   UNL A   1      32.966  34.932  28.554  1.00  0.00     0.251 C 
ATOM     29  H   UNL A   1      31.651  34.457  27.111  1.00  0.00     0.163 HD
ATOM     30  O   UNL A   1      32.478  36.036  28.768  1.00  0.00    -0.269 OA
BRANCH  28  31
ATOM     31  C   UNL A   1      34.141  34.481  29.322  1.00  0.00     0.039 A 
ATOM     32  C   UNL A   1      33.939  33.876  30.565  1.00  0.00     0.014 A 
ATOM     33  C   UNL A   1      35.431  34.617  28.801  1.00  0.00     0.014 A 
ATOM     34  C   UNL A   1      35.026  33.338  31.255  1.00  0.00     0.010 A 
ATOM     35  C   UNL A   1      36.505  34.028  29.461  1.00  0.00     0.010 A 
ATOM     36  C   UNL A   1      36.311  33.377  30.688  1.00  0.00    -0.014 A 
BRANCH  36  37
ATOM     37  C   UNL A   1      37.464  32.728  31.357  1.00  0.00     0.031 A 
ATOM     38  C   UNL A   1      38.173  31.584  30.693  1.00  0.00     0.074 A 
ATOM     39  C   UNL A   1      37.821  33.122  32.594  1.00  0.00     0.049 A 
ATOM     40  N   UNL A   1      39.139  30.830  31.153  1.00  0.00    -0.248 NA
ATOM     41  C   UNL A   1      37.716  31.219  29.343  1.00  0.00     0.031 C 
ATOM     42  C   UNL A   1      37.175  34.188  33.363  1.00  0.00     0.029 A 
ATOM     43  N   UNL A   1      38.805  32.659  33.431  1.00  0.00    -0.354 N 
ATOM     44  C   UNL A   1      39.390  29.892  30.162  1.00  0.00     0.074 A 
ATOM     45  C   UNL A   1      38.450  30.146  29.090  1.00  0.00     0.031 C 
ATOM     46  C   UNL A   1      37.790  34.307  34.552  1.00  0.00     0.029 A 
ATOM     47  C   UNL A   1      38.849  33.307  34.641  1.00  0.00     0.049 A 
ATOM     48  H   UNL A   1      39.421  31.931  33.187  1.00  0.00     0.167 HD
ATOM     49  C   UNL A   1      40.332  28.921  30.140  1.00  0.00     0.037 A 
ATOM     50  C   UNL A   1      39.651  33.110  35.704  1.00  0.00     0.037 A 
ATOM     51  C   UNL A   1      41.290  28.696  31.189  1.00  0.00     0.049 A 
ATOM     52  C   UNL A   1      40.706  32.040  35.643  1.00  0.00     0.074 A 
ATOM     53  C   UNL A   1      42.328  27.781  31.230  1.00  0.00     0.029 A 
ATOM     54  N   UNL A   1      41.330  29.400  32.383  1.00  0.00    -0.354 N 
ATOM     55  N   UNL A   1      40.975  31.201  34.673  1.00  0.00    -0.248 NA
ATOM     56  C   UNL A   1      41.573  31.896  36.821  1.00  0.00     0.031 C 
ATOM     57  C   UNL A   1      42.977  27.910  32.462  1.00  0.00     0.029 A 
ATOM     58  C   UNL A   1      42.366  28.929  33.174  1.00  0.00     0.049 A 
ATOM     59  H   UNL A   1      40.712  30.125  32.633  1.00  0.00     0.167 HD
ATOM     60  C   UNL A   1      42.053  30.445  35.111  1.00  0.00     0.074 A 
ATOM     61  C   UNL A   1      42.398  30.934  36.430  1.00  0.00     0.031 C 
ATOM     62  C   UNL A   1      42.700  29.437  34.479  1.00  0.00     0.037 A 
BRANCH  49  63
ATOM     63  C   UNL A   1      40.380  28.031  28.935  1.00  0.00     0.064 A 
ATOM     64  C   UNL A   1      39.661  26.826  28.885  1.00  0.00     0.173 A 
ATOM     65  C   UNL A   1      41.118  28.404  27.803  1.00  0.00     0.173 A 
ATOM     66  F   UNL A   1      38.951  26.420  29.948  1.00  0.00    -0.203 F 
ATOM     67  C   UNL A   1      39.700  26.017  27.754  1.00  0.00     0.198 A 
ATOM     68  C   UNL A   1      41.134  27.604  26.663  1.00  0.00     0.198 A 
ATOM     69  F   UNL A   1      41.819  29.547  27.798  1.00  0.00    -0.203 F 
ATOM     70  F   UNL A   1      39.039  24.851  27.743  1.00  0.00    -0.200 F 
ATOM     71  C   UNL A   1      40.429  26.409  26.641  1.00  0.00     0.200 A 
ATOM     72  F   UNL A   1      41.832  27.988  25.586  1.00  0.00    -0.200 F 
ATOM     73  F   UNL A   1      40.460  25.632  25.550  1.00  0.00    -0.200 F 
ENDBRANCH  49  63
BRANCH  50  74
ATOM     74  C   UNL A   1      39.507  33.965  36.910  1.00  0.00     0.064 A 
ATOM     75  C   UNL A   1      38.742  33.537  38.004  1.00  0.00     0.173 A 
ATOM     76  C   UNL A   1      40.120  35.222  36.991  1.00  0.00     0.173 A 
ATOM     77  F   UNL A   1      38.120  32.349  37.961  1.00  0.00    -0.203 F 
ATOM     78  C   UNL A   1      38.581  34.344  39.128  1.00  0.00     0.198 A 
ATOM     79  C   UNL A   1      39.978  36.019  38.126  1.00  0.00     0.198 A 
ATOM     80  F   UNL A   1      40.864  35.674  35.972  1.00  0.00    -0.203 F 
ATOM     81  F   UNL A   1      37.811  33.928  40.143  1.00  0.00    -0.200 F 
ATOM     82  C   UNL A   1      39.202  35.582  39.190  1.00  0.00     0.200 A 
ATOM     83  F   UNL A   1      40.587  37.210  38.187  1.00  0.00    -0.200 F 
ATOM     84  F   UNL A   1      39.047  36.357  40.271  1.00  0.00    -0.200 F 
ENDBRANCH  50  74
BRANCH  62  85
ATOM     85  C   UNL A   1      43.863  28.816  35.191  1.00  0.00     0.064 A 
ATOM     86  C   UNL A   1      43.695  27.726  36.056  1.00  0.00     0.173 A 
ATOM     87  C   UNL A   1      45.164  29.292  34.973  1.00  0.00     0.173 A 
ATOM     88  F   UNL A   1      42.467  27.247  36.309  1.00  0.00    -0.203 F 
ATOM     89  C   UNL A   1      44.788  27.146  36.694  1.00  0.00     0.198 A 
ATOM     90  C   UNL A   1      46.257  28.694  35.594  1.00  0.00     0.198 A 
ATOM     91  F   UNL A   1      45.376  30.330  34.150  1.00  0.00    -0.203 F 
ATOM     92  F   UNL A   1      44.601  26.130  37.548  1.00  0.00    -0.200 F 
ATOM     93  C   UNL A   1      46.068  27.626  36.457  1.00  0.00     0.200 A 
ATOM     94  F   UNL A   1      47.494  29.152  35.357  1.00  0.00    -0.200 F 
ATOM     95  F   UNL A   1      47.119  27.062  37.068  1.00  0.00    -0.200 F 
ENDBRANCH  62  85
ENDBRANCH  36  37
ENDBRANCH  28  31
ENDBRANCH  26  27
ENDBRANCH  25  26
ENDBRANCH   1  25
TORSDOF 13
ENDMDL
MODEL 3
REMARK VINA RESULT:     -13.2      5.612     11.300
REMARK SMILES CC1=C2C(=O)N(C[C@H]3CCCO3)C(=O)N=C2S[C@@H]1C(=O)NCCCCNC(=O)c1ccc(-c2c3nc(c(-c4c(F)c(F)c(F)c(F)c4F)c4ccc([nH]4)c(-c4c(F)c(F)c(F)c(F)c4F)c4nc(c(-c5c(F)c(F)c(F)c(F)c5F)c5ccc2[nH]5)C=C4)C=C3)cc1
REMARK SMILES IDX 23 1 22 2 21 3 19 4 20 5 18 7 1 8 2 9 3 10 4 11 16 12 17 13
REMARK SMILES IDX 5 14 6 15 15 16 13 17 14 18 7 19 8 20 9 21 12 22 10 23 11 24
REMARK SMILES IDX 24 25 25 26 26 27 27 28 28 30 29 31 30 32 91 33 31 34 90 35
REMARK SMILES IDX 32 36 33 37 34 38 84 39 35 40 89 41 83 42 85 43 36 44 88 45
REMARK SMILES IDX 82 46 81 47 37 49 69 50 49 51 68 52 50 53 53 54 67 55 86 56
REMARK SMILES IDX 51 57 52 58 66 60 87 61 54 62 38 63 39 64 47 65 40 66 41 67
REMARK SMILES IDX 45 68 48 69 42 70 43 71 46 72 44 73 70 74 71 75 79 76 72 77
REMARK SMILES IDX 73 78 77 79 80 80 74 81 75 82 78 83 76 84 55 85 56 86 64 87
REMARK SMILES IDX 57 88 58 89 62 90 65 91 59 92 60 93 63 94 61 95
REMARK H PARENT 21 6 26 29 85 48 53 59
REMARK Flexibility Score: inf
ROOT
ATOM      1  C   UNL A   1      37.167  21.121  24.622  1.00  0.00     0.023 C 
ENDROOT
BRANCH   1   2
ATOM      2  C   UNL A   1      35.901  21.262  25.461  1.00  0.00     0.116 C 
BRANCH   2   3
ATOM      3  N   UNL A   1      35.023  20.119  25.310  1.00  0.00    -0.355 N 
ATOM      4  C   UNL A   1      33.662  20.029  25.275  1.00  0.00     0.237 C 
ATOM      5  O   UNL A   1      33.184  18.896  25.146  1.00  0.00    -0.273 OA
ATOM      6  H   UNL A   1      35.490  19.257  25.217  1.00  0.00     0.163 HD
BRANCH   4   7
ATOM      7  C   UNL A   1      32.734  21.250  25.317  1.00  0.00     0.169 C 
ATOM      8  C   UNL A   1      32.513  21.492  22.750  1.00  0.00     0.042 C 
ATOM      9  C   UNL A   1      32.792  22.107  24.085  1.00  0.00    -0.035 C 
ATOM     10  C   UNL A   1      33.076  23.399  24.296  1.00  0.00     0.073 C 
ATOM     11  C   UNL A   1      33.275  24.473  23.330  1.00  0.00     0.264 C 
ATOM     12  C   UNL A   1      33.241  23.754  25.691  1.00  0.00     0.116 C 
ATOM     13  S   UNL A   1      33.111  22.358  26.721  1.00  0.00    -0.087 SA
ATOM     14  O   UNL A   1      33.650  24.226  22.192  1.00  0.00    -0.268 OA
ATOM     15  N   UNL A   1      33.089  25.713  23.884  1.00  0.00    -0.256 N 
ATOM     16  N   UNL A   1      33.467  24.935  26.124  1.00  0.00    -0.186 NA
ATOM     17  C   UNL A   1      33.438  25.977  25.219  1.00  0.00     0.351 C 
ATOM     18  O   UNL A   1      33.699  27.113  25.587  1.00  0.00    -0.246 OA
BRANCH  15  19
ATOM     19  C   UNL A   1      32.467  26.790  23.115  1.00  0.00     0.163 C 
BRANCH  19  20
ATOM     20  C   UNL A   1      30.938  27.006  23.125  1.00  0.00     0.138 C 
ATOM     21  C   UNL A   1      30.334  27.824  24.261  1.00  0.00     0.036 C 
ATOM     22  O   UNL A   1      30.649  27.833  21.961  1.00  0.00    -0.376 OA
ATOM     23  C   UNL A   1      30.652  29.243  23.878  1.00  0.00     0.031 C 
ATOM     24  C   UNL A   1      30.512  29.205  22.375  1.00  0.00     0.160 C 
ENDBRANCH  19  20
ENDBRANCH  15  19
ENDBRANCH   4   7
ENDBRANCH   2   3
ENDBRANCH   1   2
BRANCH   1  25
ATOM     25  C   UNL A   1      38.040  19.925  25.001  1.00  0.00     0.023 C 
BRANCH  25  26
ATOM     26  C   UNL A   1      39.310  20.268  25.773  1.00  0.00     0.116 C 
BRANCH  26  27
ATOM     27  N   UNL A   1      40.249  19.161  25.864  1.00  0.00    -0.352 N 
ATOM     28  C   UNL A   1      41.598  19.203  26.126  1.00  0.00     0.251 C 
ATOM     29  H   UNL A   1      39.869  18.265  25.719  1.00  0.00     0.163 HD
ATOM     30  O   UNL A   1      42.275  18.183  26.075  1.00  0.00    -0.269 OA
BRANCH  28  31
ATOM     31  C   UNL A   1      42.235  20.500  26.426  1.00  0.00     0.039 A 
ATOM     32  C   UNL A   1      42.750  21.255  25.369  1.00  0.00     0.014 A 
ATOM     33  C   UNL A   1      42.286  20.985  27.736  1.00  0.00     0.014 A 
ATOM     34  C   UNL A   1      43.251  22.533  25.616  1.00  0.00     0.010 A 
ATOM     35  C   UNL A   1      42.731  22.282  27.972  1.00  0.00     0.010 A 
ATOM     36  C   UNL A   1      43.209  23.070  26.913  1.00  0.00    -0.014 A 
BRANCH  36  37
ATOM     37  C   UNL A   1      43.646  24.460  27.183  1.00  0.00     0.031 A 
ATOM     38  C   UNL A   1      42.662  25.474  27.688  1.00  0.00     0.074 A 
ATOM     39  C   UNL A   1      44.911  24.825  26.899  1.00  0.00     0.049 A 
ATOM     40  N   UNL A   1      42.828  26.756  27.897  1.00  0.00    -0.248 NA
ATOM     41  C   UNL A   1      41.302  24.990  27.970  1.00  0.00     0.031 C 
ATOM     42  C   UNL A   1      45.945  23.941  26.355  1.00  0.00     0.029 A 
ATOM     43  N   UNL A   1      45.539  26.040  27.012  1.00  0.00    -0.354 N 
ATOM     44  C   UNL A   1      41.593  27.233  28.312  1.00  0.00     0.074 A 
ATOM     45  C   UNL A   1      40.676  26.112  28.290  1.00  0.00     0.031 C 
ATOM     46  C   UNL A   1      47.081  24.641  26.196  1.00  0.00     0.029 A 
ATOM     47  C   UNL A   1      46.848  26.025  26.596  1.00  0.00     0.049 A 
ATOM     48  H   UNL A   1      45.092  26.846  27.358  1.00  0.00     0.167 HD
ATOM     49  C   UNL A   1      41.260  28.487  28.696  1.00  0.00     0.037 A 
ATOM     50  C   UNL A   1      47.753  27.019  26.539  1.00  0.00     0.037 A 
ATOM     51  C   UNL A   1      42.181  29.590  28.754  1.00  0.00     0.049 A 
ATOM     52  C   UNL A   1      47.362  28.398  26.995  1.00  0.00     0.074 A 
ATOM     53  C   UNL A   1      41.956  30.882  29.194  1.00  0.00     0.029 A 
ATOM     54  N   UNL A   1      43.510  29.526  28.363  1.00  0.00    -0.354 N 
ATOM     55  N   UNL A   1      46.208  28.822  27.445  1.00  0.00    -0.248 NA
ATOM     56  C   UNL A   1      48.404  29.433  26.940  1.00  0.00     0.031 C 
ATOM     57  C   UNL A   1      43.140  31.610  29.041  1.00  0.00     0.029 A 
ATOM     58  C   UNL A   1      44.113  30.762  28.538  1.00  0.00     0.049 A 
ATOM     59  H   UNL A   1      43.959  28.724  28.011  1.00  0.00     0.167 HD
ATOM     60  C   UNL A   1      46.388  30.164  27.750  1.00  0.00     0.074 A 
ATOM     61  C   UNL A   1      47.767  30.481  27.445  1.00  0.00     0.031 C 
ATOM     62  C   UNL A   1      45.490  31.054  28.239  1.00  0.00     0.037 A 
BRANCH  49  63
ATOM     63  C   UNL A   1      39.836  28.734  29.093  1.00  0.00     0.064 A 
ATOM     64  C   UNL A   1      39.406  28.566  30.419  1.00  0.00     0.173 A 
ATOM     65  C   UNL A   1      38.900  29.181  28.149  1.00  0.00     0.173 A 
ATOM     66  F   UNL A   1      40.260  28.126  31.354  1.00  0.00    -0.203 F 
ATOM     67  C   UNL A   1      38.084  28.815  30.779  1.00  0.00     0.198 A 
ATOM     68  C   UNL A   1      37.586  29.455  28.519  1.00  0.00     0.198 A 
ATOM     69  F   UNL A   1      39.261  29.361  26.871  1.00  0.00    -0.203 F 
ATOM     70  F   UNL A   1      37.687  28.610  32.042  1.00  0.00    -0.200 F 
ATOM     71  C   UNL A   1      37.177  29.266  29.832  1.00  0.00     0.200 A 
ATOM     72  F   UNL A   1      36.712  29.898  27.605  1.00  0.00    -0.200 F 
ATOM     73  F   UNL A   1      35.908  29.513  30.182  1.00  0.00    -0.200 F 
ENDBRANCH  49  63
BRANCH  50  74
ATOM     74  C   UNL A   1      49.129  26.741  26.055  1.00  0.00     0.064 A 
ATOM     75  C   UNL A   1      49.483  26.985  24.721  1.00  0.00     0.173 A 
ATOM     76  C   UNL A   1      50.112  26.223  26.909  1.00  0.00     0.173 A 
ATOM     77  F   UNL A   1      48.568  27.461  23.863  1.00  0.00    -0.203 F 
ATOM     78  C   UNL A   1      50.764  26.703  24.253  1.00  0.00     0.198 A 
ATOM     79  C   UNL A   1      51.401  25.963  26.446  1.00  0.00     0.198 A 
ATOM     80  F   UNL A   1      49.823  25.976  28.194  1.00  0.00    -0.203 F 
ATOM     81  F   UNL A   1      51.064  26.906  22.963  1.00  0.00    -0.200 F 
ATOM     82  C   UNL A   1      51.724  26.196  25.117  1.00  0.00     0.200 A 
ATOM     83  F   UNL A   1      52.328  25.483  27.285  1.00  0.00    -0.200 F 
ATOM     84  F   UNL A   1      52.956  25.925  24.667  1.00  0.00    -0.200 F 
ENDBRANCH  50  74
BRANCH  62  85
ATOM     85  C   UNL A   1      45.980  32.446  28.501  1.00  0.00     0.064 A 
ATOM     86  C   UNL A   1      46.552  32.801  29.730  1.00  0.00     0.173 A 
ATOM     87  C   UNL A   1      45.915  33.422  27.496  1.00  0.00     0.173 A 
ATOM     88  F   UNL A   1      46.621  31.905  30.727  1.00  0.00    -0.203 F 
ATOM     89  C   UNL A   1      47.023  34.092  29.951  1.00  0.00     0.198 A 
ATOM     90  C   UNL A   1      46.409  34.705  27.712  1.00  0.00     0.198 A 
ATOM     91  F   UNL A   1      45.380  33.128  26.301  1.00  0.00    -0.203 F 
ATOM     92  F   UNL A   1      47.530  34.423  31.147  1.00  0.00    -0.200 F 
ATOM     93  C   UNL A   1      46.957  35.041  28.941  1.00  0.00     0.200 A 
ATOM     94  F   UNL A   1      46.353  35.617  26.732  1.00  0.00    -0.200 F 
ATOM     95  F   UNL A   1      47.416  36.281  29.154  1.00  0.00    -0.200 F 
ENDBRANCH  62  85
ENDBRANCH  36  37
ENDBRANCH  28  31
ENDBRANCH  26  27
ENDBRANCH  25  26
ENDBRANCH   1  25
TORSDOF 13
ENDMDL
