MODEL 1
REMARK VINA RESULT:     -12.4      0.000      0.000
REMARK SMILES CCC1C[NH+]([C@@H](Cc2c[nH]c3ccccc23)C(=O)NCCCCNC(=O)c2ccc(-c3c4nc(c(-c5c(F)c(F)c(F)c(F)c5F)c5ccc([nH]5)c(-c5c(F)c(F)c(F)c(F)c5F)c5nc(c(-c6c(F)c(F)c(F)c(F)c6F)c6ccc3[nH]6)C=C5)C=C4)cc2)C1
REMARK SMILES IDX 21 1 20 2 19 3 17 4 18 5 6 7 5 8 3 9 4 10 90 11 2 13 1 14
REMARK SMILES IDX 7 15 8 16 9 17 16 18 10 19 11 20 15 21 12 23 14 24 13 25
REMARK SMILES IDX 22 26 23 27 24 28 25 29 26 31 27 32 28 33 89 34 29 35 88 36
REMARK SMILES IDX 30 37 31 38 32 39 82 40 33 41 87 42 81 43 83 44 34 45 86 46
REMARK SMILES IDX 80 47 79 48 35 50 67 51 47 52 66 53 48 54 51 55 65 56 84 57
REMARK SMILES IDX 49 58 50 59 64 61 85 62 52 63 36 64 37 65 45 66 38 67 39 68
REMARK SMILES IDX 43 69 46 70 40 71 41 72 44 73 42 74 68 75 69 76 77 77 70 78
REMARK SMILES IDX 71 79 75 80 78 81 72 82 73 83 76 84 74 85 53 86 54 87 62 88
REMARK SMILES IDX 55 89 56 90 60 91 63 92 57 93 58 94 61 95 59 96
REMARK H PARENT 19 6 5 12 10 22 24 30 83 49 51 60
REMARK Flexibility Score: inf
ROOT
ATOM      1  C   UNL A   1      32.448  28.203  27.407  1.00  0.00     0.023 C 
ENDROOT
BRANCH   1   2
ATOM      2  C   UNL A   1      32.118  26.993  26.536  1.00  0.00     0.116 C 
BRANCH   2   3
ATOM      3  N   UNL A   1      30.804  26.445  26.785  1.00  0.00    -0.351 N 
ATOM      4  C   UNL A   1      30.043  25.588  26.044  1.00  0.00     0.278 C 
ATOM      5  O   UNL A   1      28.986  25.226  26.582  1.00  0.00    -0.268 OA
ATOM      6  H   UNL A   1      30.390  26.738  27.628  1.00  0.00     0.163 HD
BRANCH   4   7
ATOM      7  C   UNL A   1      30.426  25.059  24.632  1.00  0.00     0.278 C 
BRANCH   7   8
ATOM      8  N   UNL A   1      30.812  23.602  24.620  1.00  0.00    -0.324 N 
ATOM      9  C   UNL A   1      32.908  23.489  24.375  1.00  0.00     0.099 C 
ATOM     10  C   UNL A   1      31.679  23.140  23.512  1.00  0.00     0.272 C 
ATOM     11  C   UNL A   1      31.921  23.257  25.547  1.00  0.00     0.272 C 
ATOM     12  H   UNL A   1      29.866  23.232  24.724  1.00  0.00     0.348 HD
BRANCH   9  13
ATOM     13  C   UNL A   1      34.177  22.665  24.267  1.00  0.00     0.012 C 
ATOM     14  C   UNL A   1      35.201  23.412  23.419  1.00  0.00     0.004 C 
ENDBRANCH   9  13
ENDBRANCH   7   8
BRANCH   7  15
ATOM     15  C   UNL A   1      29.930  25.923  23.421  1.00  0.00     0.113 C 
BRANCH  15  16
ATOM     16  C   UNL A   1      30.182  27.403  23.369  1.00  0.00    -0.016 A 
ATOM     17  C   UNL A   1      31.424  28.012  23.330  1.00  0.00     0.087 A 
ATOM     18  C   UNL A   1      29.220  28.466  23.254  1.00  0.00     0.003 A 
ATOM     19  N   UNL A   1      31.248  29.367  23.419  1.00  0.00    -0.361 N 
ATOM     20  C   UNL A   1      29.908  29.668  23.419  1.00  0.00     0.046 A 
ATOM     21  C   UNL A   1      27.820  28.526  23.086  1.00  0.00     0.010 A 
ATOM     22  H   UNL A   1      31.974  30.029  23.473  1.00  0.00     0.166 HD
ATOM     23  C   UNL A   1      29.263  30.906  23.538  1.00  0.00     0.026 A 
ATOM     24  C   UNL A   1      27.158  29.754  23.187  1.00  0.00     0.001 A 
ATOM     25  C   UNL A   1      27.870  30.923  23.435  1.00  0.00     0.002 A 
ENDBRANCH  15  16
ENDBRANCH   7  15
ENDBRANCH   4   7
ENDBRANCH   2   3
ENDBRANCH   1   2
BRANCH   1  26
ATOM     26  C   UNL A   1      31.855  29.520  26.921  1.00  0.00     0.023 C 
BRANCH  26  27
ATOM     27  C   UNL A   1      32.860  30.565  26.452  1.00  0.00     0.116 C 
BRANCH  27  28
ATOM     28  N   UNL A   1      32.580  31.926  26.895  1.00  0.00    -0.352 N 
ATOM     29  C   UNL A   1      33.406  32.748  27.633  1.00  0.00     0.251 C 
ATOM     30  H   UNL A   1      31.705  32.298  26.640  1.00  0.00     0.163 HD
ATOM     31  O   UNL A   1      33.066  33.871  27.970  1.00  0.00    -0.269 OA
BRANCH  29  32
ATOM     32  C   UNL A   1      34.717  32.205  28.037  1.00  0.00     0.039 A 
ATOM     33  C   UNL A   1      35.834  33.043  28.019  1.00  0.00     0.014 A 
ATOM     34  C   UNL A   1      34.785  30.924  28.590  1.00  0.00     0.014 A 
ATOM     35  C   UNL A   1      37.009  32.628  28.648  1.00  0.00     0.010 A 
ATOM     36  C   UNL A   1      35.931  30.544  29.276  1.00  0.00     0.010 A 
ATOM     37  C   UNL A   1      37.046  31.399  29.327  1.00  0.00    -0.014 A 
BRANCH  37  38
ATOM     38  C   UNL A   1      38.230  30.966  30.109  1.00  0.00     0.031 A 
ATOM     39  C   UNL A   1      39.183  29.975  29.510  1.00  0.00     0.074 A 
ATOM     40  C   UNL A   1      38.382  31.366  31.388  1.00  0.00     0.049 A 
ATOM     41  N   UNL A   1      40.153  29.307  30.077  1.00  0.00    -0.248 NA
ATOM     42  C   UNL A   1      38.987  29.663  28.085  1.00  0.00     0.031 C 
ATOM     43  C   UNL A   1      37.504  32.296  32.099  1.00  0.00     0.029 A 
ATOM     44  N   UNL A   1      39.323  31.016  32.326  1.00  0.00    -0.354 N 
ATOM     45  C   UNL A   1      40.652  28.464  29.093  1.00  0.00     0.074 A 
ATOM     46  C   UNL A   1      39.858  28.682  27.903  1.00  0.00     0.031 C 
ATOM     47  C   UNL A   1      37.955  32.453  33.356  1.00  0.00     0.029 A 
ATOM     48  C   UNL A   1      39.126  31.603  33.551  1.00  0.00     0.049 A 
ATOM     49  H   UNL A   1      40.069  30.401  32.136  1.00  0.00     0.167 HD
ATOM     50  C   UNL A   1      41.690  27.598  29.172  1.00  0.00     0.037 A 
ATOM     51  C   UNL A   1      39.806  31.460  34.705  1.00  0.00     0.037 A 
ATOM     52  C   UNL A   1      42.511  27.426  30.339  1.00  0.00     0.049 A 
ATOM     53  C   UNL A   1      40.982  30.522  34.754  1.00  0.00     0.074 A 
ATOM     54  C   UNL A   1      43.620  26.614  30.503  1.00  0.00     0.029 A 
ATOM     55  N   UNL A   1      42.320  28.092  31.539  1.00  0.00    -0.354 N 
ATOM     56  N   UNL A   1      41.466  29.753  33.809  1.00  0.00    -0.248 NA
ATOM     57  C   UNL A   1      41.708  30.430  36.030  1.00  0.00     0.031 C 
ATOM     58  C   UNL A   1      44.088  26.775  31.810  1.00  0.00     0.029 A 
ATOM     59  C   UNL A   1      43.292  27.711  32.450  1.00  0.00     0.049 A 
ATOM     60  H   UNL A   1      41.600  28.739  31.719  1.00  0.00     0.167 HD
ATOM     61  C   UNL A   1      42.568  29.116  34.362  1.00  0.00     0.074 A 
ATOM     62  C   UNL A   1      42.684  29.587  35.726  1.00  0.00     0.031 C 
ATOM     63  C   UNL A   1      43.408  28.219  33.791  1.00  0.00     0.037 A 
BRANCH  50  64
ATOM     64  C   UNL A   1      41.992  26.776  27.956  1.00  0.00     0.064 A 
ATOM     65  C   UNL A   1      41.361  25.545  27.728  1.00  0.00     0.173 A 
ATOM     66  C   UNL A   1      42.914  27.230  27.001  1.00  0.00     0.173 A 
ATOM     67  F   UNL A   1      40.486  25.059  28.622  1.00  0.00    -0.203 F 
ATOM     68  C   UNL A   1      41.666  24.782  26.605  1.00  0.00     0.198 A 
ATOM     69  C   UNL A   1      43.195  26.479  25.864  1.00  0.00     0.198 A 
ATOM     70  F   UNL A   1      43.542  28.403  27.172  1.00  0.00    -0.203 F 
ATOM     71  F   UNL A   1      41.093  23.582  26.436  1.00  0.00    -0.200 F 
ATOM     72  C   UNL A   1      42.578  25.252  25.671  1.00  0.00     0.200 A 
ATOM     73  F   UNL A   1      44.070  26.938  24.958  1.00  0.00    -0.200 F 
ATOM     74  F   UNL A   1      42.871  24.516  24.590  1.00  0.00    -0.200 F 
ENDBRANCH  50  64
BRANCH  51  75
ATOM     75  C   UNL A   1      39.413  32.243  35.904  1.00  0.00     0.064 A 
ATOM     76  C   UNL A   1      38.454  31.745  36.797  1.00  0.00     0.173 A 
ATOM     77  C   UNL A   1      39.976  33.498  36.180  1.00  0.00     0.173 A 
ATOM     78  F   UNL A   1      37.873  30.560  36.562  1.00  0.00    -0.203 F 
ATOM     79  C   UNL A   1      38.058  32.482  37.911  1.00  0.00     0.198 A 
ATOM     80  C   UNL A   1      39.596  34.223  37.308  1.00  0.00     0.198 A 
ATOM     81  F   UNL A   1      40.900  34.014  35.358  1.00  0.00    -0.203 F 
ATOM     82  F   UNL A   1      37.109  32.000  38.726  1.00  0.00    -0.200 F 
ATOM     83  C   UNL A   1      38.632  33.717  38.168  1.00  0.00     0.200 A 
ATOM     84  F   UNL A   1      40.159  35.412  37.559  1.00  0.00    -0.200 F 
ATOM     85  F   UNL A   1      38.251  34.424  39.242  1.00  0.00    -0.200 F 
ENDBRANCH  51  75
BRANCH  63  86
ATOM     86  C   UNL A   1      44.563  27.733  34.612  1.00  0.00     0.064 A 
ATOM     87  C   UNL A   1      45.783  28.422  34.645  1.00  0.00     0.173 A 
ATOM     88  C   UNL A   1      44.420  26.601  35.427  1.00  0.00     0.173 A 
ATOM     89  F   UNL A   1      45.970  29.501  33.870  1.00  0.00    -0.203 F 
ATOM     90  C   UNL A   1      46.824  27.987  35.460  1.00  0.00     0.198 A 
ATOM     91  C   UNL A   1      45.455  26.182  36.257  1.00  0.00     0.198 A 
ATOM     92  F   UNL A   1      43.268  25.913  35.433  1.00  0.00    -0.203 F 
ATOM     93  F   UNL A   1      47.993  28.643  35.457  1.00  0.00    -0.200 F 
ATOM     94  C   UNL A   1      46.657  26.874  36.272  1.00  0.00     0.200 A 
ATOM     95  F   UNL A   1      45.288  25.113  37.047  1.00  0.00    -0.200 F 
ATOM     96  F   UNL A   1      47.656  26.466  37.064  1.00  0.00    -0.200 F 
ENDBRANCH  63  86
ENDBRANCH  37  38
ENDBRANCH  29  32
ENDBRANCH  27  28
ENDBRANCH  26  27
ENDBRANCH   1  26
TORSDOF 15
ENDMDL
MODEL 2
REMARK VINA RESULT:     -12.4      1.893      3.887
REMARK SMILES CCC1C[NH+]([C@@H](Cc2c[nH]c3ccccc23)C(=O)NCCCCNC(=O)c2ccc(-c3c4nc(c(-c5c(F)c(F)c(F)c(F)c5F)c5ccc([nH]5)c(-c5c(F)c(F)c(F)c(F)c5F)c5nc(c(-c6c(F)c(F)c(F)c(F)c6F)c6ccc3[nH]6)C=C5)C=C4)cc2)C1
REMARK SMILES IDX 21 1 20 2 19 3 17 4 18 5 6 7 5 8 3 9 4 10 90 11 2 13 1 14
REMARK SMILES IDX 7 15 8 16 9 17 16 18 10 19 11 20 15 21 12 23 14 24 13 25
REMARK SMILES IDX 22 26 23 27 24 28 25 29 26 31 27 32 28 33 89 34 29 35 88 36
REMARK SMILES IDX 30 37 31 38 32 39 82 40 33 41 87 42 81 43 83 44 34 45 86 46
REMARK SMILES IDX 80 47 79 48 35 50 67 51 47 52 66 53 48 54 51 55 65 56 84 57
REMARK SMILES IDX 49 58 50 59 64 61 85 62 52 63 36 64 37 65 45 66 38 67 39 68
REMARK SMILES IDX 43 69 46 70 40 71 41 72 44 73 42 74 68 75 69 76 77 77 70 78
REMARK SMILES IDX 71 79 75 80 78 81 72 82 73 83 76 84 74 85 53 86 54 87 62 88
REMARK SMILES IDX 55 89 56 90 60 91 63 92 57 93 58 94 61 95 59 96
REMARK H PARENT 19 6 5 12 10 22 24 30 83 49 51 60
REMARK Flexibility Score: inf
ROOT
ATOM      1  C   UNL A   1      32.511  26.983  25.621  1.00  0.00     0.023 C 
ENDROOT
BRANCH   1   2
ATOM      2  C   UNL A   1      33.761  27.018  24.746  1.00  0.00     0.116 C 
BRANCH   2   3
ATOM      3  N   UNL A   1      33.617  26.291  23.505  1.00  0.00    -0.351 N 
ATOM      4  C   UNL A   1      33.810  24.970  23.222  1.00  0.00     0.278 C 
ATOM      5  O   UNL A   1      33.507  24.631  22.068  1.00  0.00    -0.268 OA
ATOM      6  H   UNL A   1      33.332  26.838  22.739  1.00  0.00     0.163 HD
BRANCH   4   7
ATOM      7  C   UNL A   1      34.353  23.918  24.232  1.00  0.00     0.278 C 
BRANCH   7   8
ATOM      8  N   UNL A   1      35.854  23.938  24.371  1.00  0.00    -0.324 N 
ATOM      9  C   UNL A   1      36.508  21.941  24.602  1.00  0.00     0.099 C 
ATOM     10  C   UNL A   1      36.438  23.188  25.507  1.00  0.00     0.272 C 
ATOM     11  C   UNL A   1      36.563  22.995  23.467  1.00  0.00     0.272 C 
ATOM     12  H   UNL A   1      35.961  24.950  24.312  1.00  0.00     0.348 HD
BRANCH   9  13
ATOM     13  C   UNL A   1      37.633  20.937  24.770  1.00  0.00     0.012 C 
ATOM     14  C   UNL A   1      37.050  19.536  24.916  1.00  0.00     0.004 C 
ENDBRANCH   9  13
ENDBRANCH   7   8
BRANCH   7  15
ATOM     15  C   UNL A   1      33.309  23.349  25.254  1.00  0.00     0.113 C 
BRANCH  15  16
ATOM     16  C   UNL A   1      33.214  21.876  25.526  1.00  0.00    -0.016 A 
ATOM     17  C   UNL A   1      33.412  21.264  26.752  1.00  0.00     0.087 A 
ATOM     18  C   UNL A   1      32.812  20.827  24.626  1.00  0.00     0.003 A 
ATOM     19  N   UNL A   1      33.366  19.907  26.575  1.00  0.00    -0.361 N 
ATOM     20  C   UNL A   1      33.045  19.613  25.273  1.00  0.00     0.046 A 
ATOM     21  C   UNL A   1      32.330  20.786  23.300  1.00  0.00     0.010 A 
ATOM     22  H   UNL A   1      33.537  19.240  27.277  1.00  0.00     0.166 HD
ATOM     23  C   UNL A   1      32.930  18.374  24.630  1.00  0.00     0.026 A 
ATOM     24  C   UNL A   1      32.196  19.557  22.645  1.00  0.00     0.001 A 
ATOM     25  C   UNL A   1      32.516  18.370  23.296  1.00  0.00     0.002 A 
ENDBRANCH  15  16
ENDBRANCH   7  15
ENDBRANCH   4   7
ENDBRANCH   2   3
ENDBRANCH   1   2
BRANCH   1  26
ATOM     26  C   UNL A   1      32.023  28.347  26.094  1.00  0.00     0.023 C 
BRANCH  26  27
ATOM     27  C   UNL A   1      33.020  29.491  25.953  1.00  0.00     0.116 C 
BRANCH  27  28
ATOM     28  N   UNL A   1      32.552  30.777  26.457  1.00  0.00    -0.352 N 
ATOM     29  C   UNL A   1      33.244  31.659  27.259  1.00  0.00     0.251 C 
ATOM     30  H   UNL A   1      31.641  31.044  26.196  1.00  0.00     0.163 HD
ATOM     31  O   UNL A   1      32.751  32.708  27.643  1.00  0.00    -0.269 OA
BRANCH  29  32
ATOM     32  C   UNL A   1      34.607  31.273  27.673  1.00  0.00     0.039 A 
ATOM     33  C   UNL A   1      35.598  32.255  27.745  1.00  0.00     0.014 A 
ATOM     34  C   UNL A   1      34.837  29.979  28.145  1.00  0.00     0.014 A 
ATOM     35  C   UNL A   1      36.803  31.960  28.387  1.00  0.00     0.010 A 
ATOM     36  C   UNL A   1      36.006  29.713  28.844  1.00  0.00     0.010 A 
ATOM     37  C   UNL A   1      36.991  30.705  28.987  1.00  0.00    -0.014 A 
BRANCH  37  38
ATOM     38  C   UNL A   1      38.204  30.385  29.781  1.00  0.00     0.031 A 
ATOM     39  C   UNL A   1      39.208  29.417  29.228  1.00  0.00     0.074 A 
ATOM     40  C   UNL A   1      38.342  30.864  31.033  1.00  0.00     0.049 A 
ATOM     41  N   UNL A   1      40.219  28.838  29.822  1.00  0.00    -0.248 NA
ATOM     42  C   UNL A   1      39.021  29.015  27.825  1.00  0.00     0.031 C 
ATOM     43  C   UNL A   1      37.417  31.781  31.700  1.00  0.00     0.029 A 
ATOM     44  N   UNL A   1      39.308  30.622  31.979  1.00  0.00    -0.354 N 
ATOM     45  C   UNL A   1      40.758  27.971  28.881  1.00  0.00     0.074 A 
ATOM     46  C   UNL A   1      39.945  28.076  27.689  1.00  0.00     0.031 C 
ATOM     47  C   UNL A   1      37.867  32.034  32.941  1.00  0.00     0.029 A 
ATOM     48  C   UNL A   1      39.086  31.265  33.172  1.00  0.00     0.049 A 
ATOM     49  H   UNL A   1      40.086  30.041  31.817  1.00  0.00     0.167 HD
ATOM     50  C   UNL A   1      41.844  27.172  28.998  1.00  0.00     0.037 A 
ATOM     51  C   UNL A   1      39.781  31.226  34.325  1.00  0.00     0.037 A 
ATOM     52  C   UNL A   1      42.682  27.112  30.164  1.00  0.00     0.049 A 
ATOM     53  C   UNL A   1      41.009  30.360  34.414  1.00  0.00     0.074 A 
ATOM     54  C   UNL A   1      43.837  26.375  30.362  1.00  0.00     0.029 A 
ATOM     55  N   UNL A   1      42.462  27.833  31.328  1.00  0.00    -0.354 N 
ATOM     56  N   UNL A   1      41.529  29.568  33.509  1.00  0.00    -0.248 NA
ATOM     57  C   UNL A   1      41.747  30.382  35.687  1.00  0.00     0.031 C 
ATOM     58  C   UNL A   1      44.304  26.635  31.654  1.00  0.00     0.029 A 
ATOM     59  C   UNL A   1      43.460  27.559  32.248  1.00  0.00     0.049 A 
ATOM     60  H   UNL A   1      41.707  28.447  31.478  1.00  0.00     0.167 HD
ATOM     61  C   UNL A   1      42.670  29.026  34.086  1.00  0.00     0.074 A 
ATOM     62  C   UNL A   1      42.768  29.580  35.420  1.00  0.00     0.031 C 
ATOM     63  C   UNL A   1      43.556  28.148  33.557  1.00  0.00     0.037 A 
BRANCH  50  64
ATOM     64  C   UNL A   1      42.185  26.301  27.827  1.00  0.00     0.064 A 
ATOM     65  C   UNL A   1      41.563  25.059  27.631  1.00  0.00     0.173 A 
ATOM     66  C   UNL A   1      43.134  26.718  26.882  1.00  0.00     0.173 A 
ATOM     67  F   UNL A   1      40.662  24.608  28.517  1.00  0.00    -0.203 F 
ATOM     68  C   UNL A   1      41.903  24.251  26.550  1.00  0.00     0.198 A 
ATOM     69  C   UNL A   1      43.451  25.921  25.787  1.00  0.00     0.198 A 
ATOM     70  F   UNL A   1      43.755  27.899  27.023  1.00  0.00    -0.203 F 
ATOM     71  F   UNL A   1      41.337  23.044  26.414  1.00  0.00    -0.200 F 
ATOM     72  C   UNL A   1      42.843  24.685  25.626  1.00  0.00     0.200 A 
ATOM     73  F   UNL A   1      44.353  26.344  24.889  1.00  0.00    -0.200 F 
ATOM     74  F   UNL A   1      43.170  23.906  24.585  1.00  0.00    -0.200 F 
ENDBRANCH  50  64
BRANCH  51  75
ATOM     75  C   UNL A   1      39.352  32.052  35.483  1.00  0.00     0.064 A 
ATOM     76  C   UNL A   1      38.516  31.514  36.470  1.00  0.00     0.173 A 
ATOM     77  C   UNL A   1      39.759  33.386  35.624  1.00  0.00     0.173 A 
ATOM     78  F   UNL A   1      38.084  30.249  36.364  1.00  0.00    -0.203 F 
ATOM     79  C   UNL A   1      38.085  32.286  37.547  1.00  0.00     0.198 A 
ATOM     80  C   UNL A   1      39.346  34.150  36.714  1.00  0.00     0.198 A 
ATOM     81  F   UNL A   1      40.563  33.944  34.708  1.00  0.00    -0.203 F 
ATOM     82  F   UNL A   1      37.252  31.759  38.455  1.00  0.00    -0.200 F 
ATOM     83  C   UNL A   1      38.504  33.602  37.671  1.00  0.00     0.200 A 
ATOM     84  F   UNL A   1      39.761  35.418  36.837  1.00  0.00    -0.200 F 
ATOM     85  F   UNL A   1      38.091  34.343  38.708  1.00  0.00    -0.200 F 
ENDBRANCH  51  75
BRANCH  63  86
ATOM     86  C   UNL A   1      44.743  27.776  34.393  1.00  0.00     0.064 A 
ATOM     87  C   UNL A   1      44.723  26.660  35.241  1.00  0.00     0.173 A 
ATOM     88  C   UNL A   1      45.934  28.508  34.289  1.00  0.00     0.173 A 
ATOM     89  F   UNL A   1      43.601  25.939  35.382  1.00  0.00    -0.203 F 
ATOM     90  C   UNL A   1      45.856  26.295  35.963  1.00  0.00     0.198 A 
ATOM     91  C   UNL A   1      47.070  28.127  34.997  1.00  0.00     0.198 A 
ATOM     92  F   UNL A   1      46.001  29.580  33.486  1.00  0.00    -0.203 F 
ATOM     93  F   UNL A   1      45.810  25.241  36.789  1.00  0.00    -0.200 F 
ATOM     94  C   UNL A   1      47.030  27.023  35.835  1.00  0.00     0.200 A 
ATOM     95  F   UNL A   1      48.206  28.826  34.863  1.00  0.00    -0.200 F 
ATOM     96  F   UNL A   1      48.121  26.662  36.522  1.00  0.00    -0.200 F 
ENDBRANCH  63  86
ENDBRANCH  37  38
ENDBRANCH  29  32
ENDBRANCH  27  28
ENDBRANCH  26  27
ENDBRANCH   1  26
TORSDOF 15
ENDMDL
MODEL 3
REMARK VINA RESULT:     -12.3      1.669      7.539
REMARK SMILES CCC1C[NH+]([C@@H](Cc2c[nH]c3ccccc23)C(=O)NCCCCNC(=O)c2ccc(-c3c4nc(c(-c5c(F)c(F)c(F)c(F)c5F)c5ccc([nH]5)c(-c5c(F)c(F)c(F)c(F)c5F)c5nc(c(-c6c(F)c(F)c(F)c(F)c6F)c6ccc3[nH]6)C=C5)C=C4)cc2)C1
REMARK SMILES IDX 21 1 20 2 19 3 17 4 18 5 6 7 5 8 3 9 4 10 90 11 2 13 1 14
REMARK SMILES IDX 7 15 8 16 9 17 16 18 10 19 11 20 15 21 12 23 14 24 13 25
REMARK SMILES IDX 22 26 23 27 24 28 25 29 26 31 27 32 28 33 89 34 29 35 88 36
REMARK SMILES IDX 30 37 31 38 32 39 82 40 33 41 87 42 81 43 83 44 34 45 86 46
REMARK SMILES IDX 80 47 79 48 35 50 67 51 47 52 66 53 48 54 51 55 65 56 84 57
REMARK SMILES IDX 49 58 50 59 64 61 85 62 52 63 36 64 37 65 45 66 38 67 39 68
REMARK SMILES IDX 43 69 46 70 40 71 41 72 44 73 42 74 68 75 69 76 77 77 70 78
REMARK SMILES IDX 71 79 75 80 78 81 72 82 73 83 76 84 74 85 53 86 54 87 62 88
REMARK SMILES IDX 55 89 56 90 60 91 63 92 57 93 58 94 61 95 59 96
REMARK H PARENT 19 6 5 12 10 22 24 30 83 49 51 60
REMARK Flexibility Score: inf
ROOT
ATOM      1  C   UNL A   1      32.115  30.088  26.983  1.00  0.00     0.023 C 
ENDROOT
BRANCH   1   2
ATOM      2  C   UNL A   1      31.894  29.208  25.754  1.00  0.00     0.116 C 
BRANCH   2   3
ATOM      3  N   UNL A   1      33.003  29.221  24.829  1.00  0.00    -0.351 N 
ATOM      4  C   UNL A   1      33.420  28.284  23.928  1.00  0.00     0.278 C 
ATOM      5  O   UNL A   1      34.362  28.637  23.202  1.00  0.00    -0.268 OA
ATOM      6  H   UNL A   1      33.548  30.040  24.852  1.00  0.00     0.163 HD
BRANCH   4   7
ATOM      7  C   UNL A   1      32.791  26.870  23.766  1.00  0.00     0.278 C 
BRANCH   7   8
ATOM      8  N   UNL A   1      33.063  25.955  24.931  1.00  0.00    -0.324 N 
ATOM      9  C   UNL A   1      34.451  24.493  24.296  1.00  0.00     0.099 C 
ATOM     10  C   UNL A   1      32.960  24.498  24.686  1.00  0.00     0.272 C 
ATOM     11  C   UNL A   1      34.506  25.739  25.215  1.00  0.00     0.272 C 
ATOM     12  H   UNL A   1      32.431  26.413  25.588  1.00  0.00     0.348 HD
BRANCH   9  13
ATOM     13  C   UNL A   1      35.316  23.283  24.595  1.00  0.00     0.012 C 
ATOM     14  C   UNL A   1      36.258  23.026  23.424  1.00  0.00     0.004 C 
ENDBRANCH   9  13
ENDBRANCH   7   8
BRANCH   7  15
ATOM     15  C   UNL A   1      31.638  26.752  22.710  1.00  0.00     0.113 C 
BRANCH  15  16
ATOM     16  C   UNL A   1      30.220  27.095  23.070  1.00  0.00    -0.016 A 
ATOM     17  C   UNL A   1      29.318  26.256  23.700  1.00  0.00     0.087 A 
ATOM     18  C   UNL A   1      29.547  28.360  22.931  1.00  0.00     0.003 A 
ATOM     19  N   UNL A   1      28.099  26.877  23.740  1.00  0.00    -0.361 N 
ATOM     20  C   UNL A   1      28.202  28.149  23.234  1.00  0.00     0.046 A 
ATOM     21  C   UNL A   1      29.935  29.652  22.518  1.00  0.00     0.010 A 
ATOM     22  H   UNL A   1      27.270  26.472  24.082  1.00  0.00     0.166 HD
ATOM     23  C   UNL A   1      27.216  29.124  23.039  1.00  0.00     0.026 A 
ATOM     24  C   UNL A   1      28.967  30.644  22.330  1.00  0.00     0.001 A 
ATOM     25  C   UNL A   1      27.623  30.373  22.564  1.00  0.00     0.002 A 
ENDBRANCH  15  16
ENDBRANCH   7  15
ENDBRANCH   4   7
ENDBRANCH   2   3
ENDBRANCH   1   2
BRANCH   1  26
ATOM     26  C   UNL A   1      31.914  31.580  26.744  1.00  0.00     0.023 C 
BRANCH  26  27
ATOM     27  C   UNL A   1      32.973  32.495  27.346  1.00  0.00     0.116 C 
BRANCH  27  28
ATOM     28  N   UNL A   1      32.535  33.865  27.583  1.00  0.00    -0.352 N 
ATOM     29  C   UNL A   1      33.051  34.758  28.498  1.00  0.00     0.251 C 
ATOM     30  H   UNL A   1      31.788  34.188  27.029  1.00  0.00     0.163 HD
ATOM     31  O   UNL A   1      32.597  35.884  28.630  1.00  0.00    -0.269 OA
BRANCH  29  32
ATOM     32  C   UNL A   1      34.163  34.291  29.349  1.00  0.00     0.039 A 
ATOM     33  C   UNL A   1      33.871  33.584  30.518  1.00  0.00     0.014 A 
ATOM     34  C   UNL A   1      35.475  34.411  28.886  1.00  0.00     0.014 A 
ATOM     35  C   UNL A   1      34.899  32.909  31.180  1.00  0.00     0.010 A 
ATOM     36  C   UNL A   1      36.480  33.681  29.506  1.00  0.00     0.010 A 
ATOM     37  C   UNL A   1      36.198  32.910  30.647  1.00  0.00    -0.014 A 
BRANCH  37  38
ATOM     38  C   UNL A   1      37.297  32.113  31.248  1.00  0.00     0.031 A 
ATOM     39  C   UNL A   1      37.790  32.461  32.621  1.00  0.00     0.074 A 
ATOM     40  C   UNL A   1      37.925  31.167  30.521  1.00  0.00     0.049 A 
ATOM     41  N   UNL A   1      38.858  32.046  33.251  1.00  0.00    -0.248 NA
ATOM     42  C   UNL A   1      36.991  33.444  33.370  1.00  0.00     0.031 C 
ATOM     43  C   UNL A   1      37.568  30.761  29.161  1.00  0.00     0.029 A 
ATOM     44  N   UNL A   1      39.018  30.390  30.822  1.00  0.00    -0.354 N 
ATOM     45  C   UNL A   1      38.883  32.750  34.446  1.00  0.00     0.074 A 
ATOM     46  C   UNL A   1      37.743  33.642  34.441  1.00  0.00     0.031 C 
ATOM     47  C   UNL A   1      38.416  29.803  28.751  1.00  0.00     0.029 A 
ATOM     48  C   UNL A   1      39.401  29.558  29.800  1.00  0.00     0.049 A 
ATOM     49  H   UNL A   1      39.482  30.428  31.689  1.00  0.00     0.167 HD
ATOM     50  C   UNL A   1      39.771  32.650  35.464  1.00  0.00     0.037 A 
ATOM     51  C   UNL A   1      40.440  28.704  29.715  1.00  0.00     0.037 A 
ATOM     52  C   UNL A   1      40.870  31.724  35.490  1.00  0.00     0.049 A 
ATOM     53  C   UNL A   1      41.388  28.582  30.878  1.00  0.00     0.074 A 
ATOM     54  C   UNL A   1      41.793  31.507  36.497  1.00  0.00     0.029 A 
ATOM     55  N   UNL A   1      41.183  30.848  34.462  1.00  0.00    -0.354 N 
ATOM     56  N   UNL A   1      41.386  29.229  32.017  1.00  0.00    -0.248 NA
ATOM     57  C   UNL A   1      42.484  27.610  30.743  1.00  0.00     0.031 C 
ATOM     58  C   UNL A   1      42.678  30.512  36.070  1.00  0.00     0.029 A 
ATOM     59  C   UNL A   1      42.286  30.087  34.811  1.00  0.00     0.049 A 
ATOM     60  H   UNL A   1      40.695  30.778  33.609  1.00  0.00     0.167 HD
ATOM     61  C   UNL A   1      42.452  28.721  32.747  1.00  0.00     0.074 A 
ATOM     62  C   UNL A   1      43.080  27.711  31.922  1.00  0.00     0.031 C 
ATOM     63  C   UNL A   1      42.873  29.063  33.988  1.00  0.00     0.037 A 
BRANCH  50  64
ATOM     64  C   UNL A   1      39.580  33.567  36.634  1.00  0.00     0.064 A 
ATOM     65  C   UNL A   1      38.798  33.197  37.737  1.00  0.00     0.173 A 
ATOM     66  C   UNL A   1      40.197  34.827  36.658  1.00  0.00     0.173 A 
ATOM     67  F   UNL A   1      38.172  32.010  37.753  1.00  0.00    -0.203 F 
ATOM     68  C   UNL A   1      38.613  34.067  38.808  1.00  0.00     0.198 A 
ATOM     69  C   UNL A   1      40.034  35.683  37.743  1.00  0.00     0.198 A 
ATOM     70  F   UNL A   1      40.958  35.228  35.628  1.00  0.00    -0.203 F 
ATOM     71  F   UNL A   1      37.816  33.713  39.826  1.00  0.00    -0.200 F 
ATOM     72  C   UNL A   1      39.235  35.306  38.812  1.00  0.00     0.200 A 
ATOM     73  F   UNL A   1      40.643  36.877  37.750  1.00  0.00    -0.200 F 
ATOM     74  F   UNL A   1      39.057  36.143  39.844  1.00  0.00    -0.200 F 
ENDBRANCH  50  64
BRANCH  51  75
ATOM     75  C   UNL A   1      40.626  27.875  28.497  1.00  0.00     0.064 A 
ATOM     76  C   UNL A   1      41.397  28.346  27.425  1.00  0.00     0.173 A 
ATOM     77  C   UNL A   1      40.038  26.608  28.374  1.00  0.00     0.173 A 
ATOM     78  F   UNL A   1      41.959  29.561  27.490  1.00  0.00    -0.203 F 
ATOM     79  C   UNL A   1      41.557  27.589  26.267  1.00  0.00     0.198 A 
ATOM     80  C   UNL A   1      40.219  25.841  27.224  1.00  0.00     0.198 A 
ATOM     81  F   UNL A   1      39.296  26.112  29.374  1.00  0.00    -0.203 F 
ATOM     82  F   UNL A   1      42.265  28.080  25.241  1.00  0.00    -0.200 F 
ATOM     83  C   UNL A   1      40.972  26.336  26.169  1.00  0.00     0.200 A 
ATOM     84  F   UNL A   1      39.661  24.627  27.136  1.00  0.00    -0.200 F 
ATOM     85  F   UNL A   1      41.129  25.607  25.055  1.00  0.00    -0.200 F 
ENDBRANCH  51  75
BRANCH  63  86
ATOM     86  C   UNL A   1      44.029  28.300  34.561  1.00  0.00     0.064 A 
ATOM     87  C   UNL A   1      45.347  28.761  34.437  1.00  0.00     0.173 A 
ATOM     88  C   UNL A   1      43.803  27.129  35.299  1.00  0.00     0.173 A 
ATOM     89  F   UNL A   1      45.611  29.868  33.727  1.00  0.00    -0.203 F 
ATOM     90  C   UNL A   1      46.401  28.069  35.028  1.00  0.00     0.198 A 
ATOM     91  C   UNL A   1      44.856  26.453  35.906  1.00  0.00     0.198 A 
ATOM     92  F   UNL A   1      42.558  26.654  35.448  1.00  0.00    -0.203 F 
ATOM     93  F   UNL A   1      47.657  28.511  34.876  1.00  0.00    -0.200 F 
ATOM     94  C   UNL A   1      46.155  26.922  35.768  1.00  0.00     0.200 A 
ATOM     95  F   UNL A   1      44.615  25.350  36.629  1.00  0.00    -0.200 F 
ATOM     96  F   UNL A   1      47.169  26.266  36.345  1.00  0.00    -0.200 F 
ENDBRANCH  63  86
ENDBRANCH  37  38
ENDBRANCH  29  32
ENDBRANCH  27  28
ENDBRANCH  26  27
ENDBRANCH   1  26
TORSDOF 15
ENDMDL
