MODEL 1
REMARK VINA RESULT:     -12.3      0.000      0.000
REMARK SMILES O=C(CC1(CC(=O)Nc2ccc(F)cc2F)CCCCC1)NCCCCNC(=O)c1ccc(-c2c3nc(c(-c4c(F)c(F)c(F)c(F)c4F)c4ccc([nH]4)c(-c4c(F)c(F)c(F)c(F)c4F)c4nc(c(-c5c(F)c(F)c(F)c(F)c5F)c5ccc2[nH]5)C=C4)C=C3)cc1
REMARK SMILES IDX 23 1 22 2 1 3 2 4 3 6 4 7 17 8 21 9 18 10 20 11 19 12 5 13
REMARK SMILES IDX 6 14 7 15 8 16 9 18 10 19 15 20 11 21 14 22 16 23 12 24
REMARK SMILES IDX 13 25 24 26 25 27 26 28 27 29 28 30 29 32 30 33 31 34 92 35
REMARK SMILES IDX 32 36 91 37 33 38 34 39 35 40 85 41 36 42 90 43 84 44 86 45
REMARK SMILES IDX 37 46 89 47 83 48 82 49 38 51 70 52 50 53 69 54 51 55 54 56
REMARK SMILES IDX 68 57 87 58 52 59 53 60 67 62 88 63 55 64 39 65 40 66 48 67
REMARK SMILES IDX 41 68 42 69 46 70 49 71 43 72 44 73 47 74 45 75 71 76 72 77
REMARK SMILES IDX 80 78 73 79 74 80 78 81 81 82 75 83 76 84 79 85 77 86 56 87
REMARK SMILES IDX 57 88 65 89 58 90 59 91 63 92 66 93 60 94 61 95 64 96 62 97
REMARK H PARENT 22 5 8 17 27 31 86 50 54 61
REMARK Flexibility Score: inf
ROOT
ATOM      1  C   UNL A   1      32.693  30.357  26.359  1.00  0.00     0.116 C 
ENDROOT
BRANCH   1   2
ATOM      2  N   UNL A   1      33.005  29.313  25.399  1.00  0.00    -0.356 N 
ATOM      3  O   UNL A   1      34.284  28.119  26.870  1.00  0.00    -0.275 OA
ATOM      4  C   UNL A   1      33.765  28.223  25.761  1.00  0.00     0.220 C 
ATOM      5  H   UNL A   1      32.669  29.386  24.477  1.00  0.00     0.163 HD
BRANCH   4   6
ATOM      6  C   UNL A   1      33.882  27.108  24.723  1.00  0.00     0.107 C 
BRANCH   6   7
ATOM      7  C   UNL A   1      32.980  25.855  24.978  1.00  0.00    -0.012 C 
ATOM      8  C   UNL A   1      33.804  24.829  25.839  1.00  0.00     0.008 C 
ATOM      9  C   UNL A   1      31.773  26.180  25.875  1.00  0.00     0.008 C 
ATOM     10  C   UNL A   1      33.006  23.600  26.310  1.00  0.00     0.001 C 
ATOM     11  C   UNL A   1      30.880  24.969  26.134  1.00  0.00     0.001 C 
ATOM     12  C   UNL A   1      31.648  23.931  26.933  1.00  0.00     0.000 C 
BRANCH   7  13
ATOM     13  C   UNL A   1      32.595  25.180  23.630  1.00  0.00     0.108 C 
BRANCH  13  14
ATOM     14  C   UNL A   1      32.843  25.866  22.287  1.00  0.00     0.225 C 
ATOM     15  O   UNL A   1      33.843  25.553  21.628  1.00  0.00    -0.275 OA
ATOM     16  N   UNL A   1      31.922  26.677  21.691  1.00  0.00    -0.324 N 
ATOM     17  H   UNL A   1      31.932  26.651  20.707  1.00  0.00     0.170 HD
BRANCH  16  18
ATOM     18  C   UNL A   1      30.962  27.538  22.236  1.00  0.00     0.077 A 
ATOM     19  C   UNL A   1      29.758  27.056  22.748  1.00  0.00     0.032 A 
ATOM     20  C   UNL A   1      31.274  28.883  22.440  1.00  0.00     0.149 A 
ATOM     21  C   UNL A   1      28.802  27.932  23.273  1.00  0.00     0.041 A 
ATOM     22  C   UNL A   1      30.335  29.768  22.962  1.00  0.00     0.080 A 
ATOM     23  F   UNL A   1      32.486  29.341  22.096  1.00  0.00    -0.205 F 
ATOM     24  C   UNL A   1      29.090  29.287  23.343  1.00  0.00     0.126 A 
ATOM     25  F   UNL A   1      28.161  30.135  23.800  1.00  0.00    -0.207 F 
ENDBRANCH  16  18
ENDBRANCH  13  14
ENDBRANCH   7  13
ENDBRANCH   6   7
ENDBRANCH   4   6
ENDBRANCH   1   2
BRANCH   1  26
ATOM     26  C   UNL A   1      31.360  31.065  26.127  1.00  0.00     0.023 C 
BRANCH  26  27
ATOM     27  C   UNL A   1      31.263  32.510  26.622  1.00  0.00     0.023 C 
BRANCH  27  28
ATOM     28  C   UNL A   1      32.526  33.094  27.250  1.00  0.00     0.116 C 
BRANCH  28  29
ATOM     29  N   UNL A   1      32.347  34.436  27.776  1.00  0.00    -0.352 N 
ATOM     30  C   UNL A   1      33.031  35.112  28.762  1.00  0.00     0.251 C 
ATOM     31  H   UNL A   1      31.615  34.948  27.359  1.00  0.00     0.163 HD
ATOM     32  O   UNL A   1      32.640  36.216  29.121  1.00  0.00    -0.269 OA
BRANCH  30  33
ATOM     33  C   UNL A   1      34.214  34.512  29.428  1.00  0.00     0.039 A 
ATOM     34  C   UNL A   1      34.014  33.795  30.613  1.00  0.00     0.014 A 
ATOM     35  C   UNL A   1      35.510  34.672  28.931  1.00  0.00     0.014 A 
ATOM     36  C   UNL A   1      35.094  33.177  31.251  1.00  0.00     0.010 A 
ATOM     37  C   UNL A   1      36.578  33.997  29.530  1.00  0.00     0.010 A 
ATOM     38  C   UNL A   1      36.381  33.234  30.692  1.00  0.00    -0.014 A 
BRANCH  38  39
ATOM     39  C   UNL A   1      37.514  32.480  31.301  1.00  0.00     0.031 A 
ATOM     40  C   UNL A   1      38.038  32.844  32.663  1.00  0.00     0.074 A 
ATOM     41  C   UNL A   1      38.103  31.486  30.606  1.00  0.00     0.049 A 
ATOM     42  N   UNL A   1      39.048  32.335  33.325  1.00  0.00    -0.248 NA
ATOM     43  C   UNL A   1      37.350  33.934  33.371  1.00  0.00     0.031 C 
ATOM     44  C   UNL A   1      37.714  31.052  29.264  1.00  0.00     0.029 A 
ATOM     45  N   UNL A   1      39.158  30.664  30.925  1.00  0.00    -0.354 N 
ATOM     46  C   UNL A   1      39.119  33.043  34.517  1.00  0.00     0.074 A 
ATOM     47  C   UNL A   1      38.084  34.052  34.469  1.00  0.00     0.031 C 
ATOM     48  C   UNL A   1      38.497  30.029  28.886  1.00  0.00     0.029 A 
ATOM     49  C   UNL A   1      39.476  29.763  29.937  1.00  0.00     0.049 A 
ATOM     50  H   UNL A   1      39.639  30.715  31.782  1.00  0.00     0.167 HD
ATOM     51  C   UNL A   1      39.954  32.851  35.567  1.00  0.00     0.037 A 
ATOM     52  C   UNL A   1      40.451  28.835  29.873  1.00  0.00     0.037 A 
ATOM     53  C   UNL A   1      40.971  31.833  35.623  1.00  0.00     0.049 A 
ATOM     54  C   UNL A   1      41.388  28.665  31.040  1.00  0.00     0.074 A 
ATOM     55  C   UNL A   1      41.834  31.537  36.665  1.00  0.00     0.029 A 
ATOM     56  N   UNL A   1      41.265  30.946  34.598  1.00  0.00    -0.354 N 
ATOM     57  N   UNL A   1      41.408  29.306  32.183  1.00  0.00    -0.248 NA
ATOM     58  C   UNL A   1      42.434  27.641  30.912  1.00  0.00     0.031 C 
ATOM     59  C   UNL A   1      42.686  30.511  36.251  1.00  0.00     0.029 A 
ATOM     60  C   UNL A   1      42.314  30.121  34.975  1.00  0.00     0.049 A 
ATOM     61  H   UNL A   1      40.798  30.907  33.733  1.00  0.00     0.167 HD
ATOM     62  C   UNL A   1      42.445  28.748  32.918  1.00  0.00     0.074 A 
ATOM     63  C   UNL A   1      43.023  27.704  32.098  1.00  0.00     0.031 C 
ATOM     64  C   UNL A   1      42.879  29.076  34.160  1.00  0.00     0.037 A 
BRANCH  51  65
ATOM     65  C   UNL A   1      39.805  33.751  36.760  1.00  0.00     0.064 A 
ATOM     66  C   UNL A   1      38.958  33.395  37.822  1.00  0.00     0.173 A 
ATOM     67  C   UNL A   1      40.425  35.009  36.811  1.00  0.00     0.173 A 
ATOM     68  F   UNL A   1      38.333  32.208  37.820  1.00  0.00    -0.203 F 
ATOM     69  C   UNL A   1      38.727  34.270  38.879  1.00  0.00     0.198 A 
ATOM     70  C   UNL A   1      40.216  35.869  37.886  1.00  0.00     0.198 A 
ATOM     71  F   UNL A   1      41.248  35.396  35.825  1.00  0.00    -0.203 F 
ATOM     72  F   UNL A   1      37.883  33.924  39.862  1.00  0.00    -0.200 F 
ATOM     73  C   UNL A   1      39.358  35.505  38.913  1.00  0.00     0.200 A 
ATOM     74  F   UNL A   1      40.844  37.052  37.927  1.00  0.00    -0.200 F 
ATOM     75  F   UNL A   1      39.139  36.344  39.935  1.00  0.00    -0.200 F 
ENDBRANCH  51  65
BRANCH  52  76
ATOM     76  C   UNL A   1      40.575  27.977  28.664  1.00  0.00     0.064 A 
ATOM     77  C   UNL A   1      41.350  28.372  27.564  1.00  0.00     0.173 A 
ATOM     78  C   UNL A   1      39.905  26.748  28.580  1.00  0.00     0.173 A 
ATOM     79  F   UNL A   1      42.010  29.539  27.591  1.00  0.00    -0.203 F 
ATOM     80  C   UNL A   1      41.431  27.583  26.418  1.00  0.00     0.198 A 
ATOM     81  C   UNL A   1      40.013  25.945  27.446  1.00  0.00     0.198 A 
ATOM     82  F   UNL A   1      39.171  26.314  29.615  1.00  0.00    -0.203 F 
ATOM     83  F   UNL A   1      42.148  28.002  25.367  1.00  0.00    -0.200 F 
ATOM     84  C   UNL A   1      40.767  26.367  26.362  1.00  0.00     0.200 A 
ATOM     85  F   UNL A   1      39.394  24.757  27.409  1.00  0.00    -0.200 F 
ATOM     86  F   UNL A   1      40.859  25.601  25.268  1.00  0.00    -0.200 F 
ENDBRANCH  52  76
BRANCH  64  87
ATOM     87  C   UNL A   1      44.018  28.285  34.738  1.00  0.00     0.064 A 
ATOM     88  C   UNL A   1      45.344  28.690  34.522  1.00  0.00     0.173 A 
ATOM     89  C   UNL A   1      43.802  27.085  35.430  1.00  0.00     0.173 A 
ATOM     90  F   UNL A   1      45.605  29.827  33.859  1.00  0.00    -0.203 F 
ATOM     91  C   UNL A   1      46.413  27.911  34.958  1.00  0.00     0.198 A 
ATOM     92  C   UNL A   1      44.874  26.324  35.893  1.00  0.00     0.198 A 
ATOM     93  F   UNL A   1      42.554  26.659  35.673  1.00  0.00    -0.203 F 
ATOM     94  F   UNL A   1      47.669  28.296  34.702  1.00  0.00    -0.200 F 
ATOM     95  C   UNL A   1      46.176  26.731  35.647  1.00  0.00     0.200 A 
ATOM     96  F   UNL A   1      44.645  25.196  36.580  1.00  0.00    -0.200 F 
ATOM     97  F   UNL A   1      47.206  25.985  36.073  1.00  0.00    -0.200 F 
ENDBRANCH  64  87
ENDBRANCH  38  39
ENDBRANCH  30  33
ENDBRANCH  28  29
ENDBRANCH  27  28
ENDBRANCH  26  27
ENDBRANCH   1  26
TORSDOF 15
ENDMDL
MODEL 2
REMARK VINA RESULT:     -12.3      5.458      9.553
REMARK SMILES O=C(CC1(CC(=O)Nc2ccc(F)cc2F)CCCCC1)NCCCCNC(=O)c1ccc(-c2c3nc(c(-c4c(F)c(F)c(F)c(F)c4F)c4ccc([nH]4)c(-c4c(F)c(F)c(F)c(F)c4F)c4nc(c(-c5c(F)c(F)c(F)c(F)c5F)c5ccc2[nH]5)C=C4)C=C3)cc1
REMARK SMILES IDX 23 1 22 2 1 3 2 4 3 6 4 7 17 8 21 9 18 10 20 11 19 12 5 13
REMARK SMILES IDX 6 14 7 15 8 16 9 18 10 19 15 20 11 21 14 22 16 23 12 24
REMARK SMILES IDX 13 25 24 26 25 27 26 28 27 29 28 30 29 32 30 33 31 34 92 35
REMARK SMILES IDX 32 36 91 37 33 38 34 39 35 40 85 41 36 42 90 43 84 44 86 45
REMARK SMILES IDX 37 46 89 47 83 48 82 49 38 51 70 52 50 53 69 54 51 55 54 56
REMARK SMILES IDX 68 57 87 58 52 59 53 60 67 62 88 63 55 64 39 65 40 66 48 67
REMARK SMILES IDX 41 68 42 69 46 70 49 71 43 72 44 73 47 74 45 75 71 76 72 77
REMARK SMILES IDX 80 78 73 79 74 80 78 81 81 82 75 83 76 84 79 85 77 86 56 87
REMARK SMILES IDX 57 88 65 89 58 90 59 91 63 92 66 93 60 94 61 95 64 96 62 97
REMARK H PARENT 22 5 8 17 27 31 86 50 54 61
REMARK Flexibility Score: inf
ROOT
ATOM      1  C   UNL A   1      37.053  21.950  24.683  1.00  0.00     0.116 C 
ENDROOT
BRANCH   1   2
ATOM      2  N   UNL A   1      36.024  22.725  24.012  1.00  0.00    -0.356 N 
ATOM      3  O   UNL A   1      35.669  24.104  25.800  1.00  0.00    -0.275 OA
ATOM      4  C   UNL A   1      35.429  23.800  24.634  1.00  0.00     0.220 C 
ATOM      5  H   UNL A   1      35.747  22.477  23.100  1.00  0.00     0.163 HD
BRANCH   4   6
ATOM      6  C   UNL A   1      34.489  24.642  23.772  1.00  0.00     0.107 C 
BRANCH   6   7
ATOM      7  C   UNL A   1      32.966  24.501  24.104  1.00  0.00    -0.012 C 
ATOM      8  C   UNL A   1      32.718  23.046  24.644  1.00  0.00     0.008 C 
ATOM      9  C   UNL A   1      32.543  25.394  25.284  1.00  0.00     0.008 C 
ATOM     10  C   UNL A   1      31.292  22.789  25.163  1.00  0.00     0.001 C 
ATOM     11  C   UNL A   1      31.058  25.271  25.621  1.00  0.00     0.001 C 
ATOM     12  C   UNL A   1      30.763  23.865  26.113  1.00  0.00     0.000 C 
BRANCH   7  13
ATOM     13  C   UNL A   1      32.111  24.712  22.821  1.00  0.00     0.108 C 
BRANCH  13  14
ATOM     14  C   UNL A   1      32.547  25.665  21.710  1.00  0.00     0.225 C 
ATOM     15  O   UNL A   1      33.096  25.202  20.702  1.00  0.00    -0.275 OA
ATOM     16  N   UNL A   1      32.198  26.983  21.689  1.00  0.00    -0.324 N 
ATOM     17  H   UNL A   1      32.075  27.359  20.788  1.00  0.00     0.170 HD
BRANCH  16  18
ATOM     18  C   UNL A   1      31.984  27.897  22.729  1.00  0.00     0.077 A 
ATOM     19  C   UNL A   1      30.704  28.150  23.222  1.00  0.00     0.032 A 
ATOM     20  C   UNL A   1      33.073  28.436  23.414  1.00  0.00     0.149 A 
ATOM     21  C   UNL A   1      30.505  29.079  24.250  1.00  0.00     0.041 A 
ATOM     22  C   UNL A   1      32.894  29.360  24.439  1.00  0.00     0.080 A 
ATOM     23  F   UNL A   1      34.317  28.087  23.058  1.00  0.00    -0.205 F 
ATOM     24  C   UNL A   1      31.604  29.700  24.825  1.00  0.00     0.126 A 
ATOM     25  F   UNL A   1      31.416  30.624  25.775  1.00  0.00    -0.207 F 
ENDBRANCH  16  18
ENDBRANCH  13  14
ENDBRANCH   7  13
ENDBRANCH   6   7
ENDBRANCH   4   6
ENDBRANCH   1   2
BRANCH   1  26
ATOM     26  C   UNL A   1      36.708  20.478  24.900  1.00  0.00     0.023 C 
BRANCH  26  27
ATOM     27  C   UNL A   1      37.891  19.511  24.998  1.00  0.00     0.023 C 
BRANCH  27  28
ATOM     28  C   UNL A   1      39.127  20.029  25.729  1.00  0.00     0.116 C 
BRANCH  28  29
ATOM     29  N   UNL A   1      40.186  19.041  25.853  1.00  0.00    -0.352 N 
ATOM     30  C   UNL A   1      41.527  19.195  26.126  1.00  0.00     0.251 C 
ATOM     31  H   UNL A   1      39.897  18.109  25.719  1.00  0.00     0.163 HD
ATOM     32  O   UNL A   1      42.267  18.220  26.081  1.00  0.00    -0.269 OA
BRANCH  30  33
ATOM     33  C   UNL A   1      42.102  20.527  26.437  1.00  0.00     0.039 A 
ATOM     34  C   UNL A   1      42.414  21.378  25.372  1.00  0.00     0.014 A 
ATOM     35  C   UNL A   1      42.372  20.934  27.747  1.00  0.00     0.014 A 
ATOM     36  C   UNL A   1      42.918  22.659  25.620  1.00  0.00     0.010 A 
ATOM     37  C   UNL A   1      42.810  22.239  27.997  1.00  0.00     0.010 A 
ATOM     38  C   UNL A   1      43.080  23.119  26.937  1.00  0.00    -0.014 A 
BRANCH  38  39
ATOM     39  C   UNL A   1      43.503  24.522  27.211  1.00  0.00     0.031 A 
ATOM     40  C   UNL A   1      42.519  25.539  27.721  1.00  0.00     0.074 A 
ATOM     41  C   UNL A   1      44.775  24.895  26.961  1.00  0.00     0.049 A 
ATOM     42  N   UNL A   1      42.696  26.814  27.964  1.00  0.00    -0.248 NA
ATOM     43  C   UNL A   1      41.149  25.068  27.978  1.00  0.00     0.031 C 
ATOM     44  C   UNL A   1      45.822  24.018  26.437  1.00  0.00     0.029 A 
ATOM     45  N   UNL A   1      45.404  26.110  27.107  1.00  0.00    -0.354 N 
ATOM     46  C   UNL A   1      41.467  27.295  28.394  1.00  0.00     0.074 A 
ATOM     47  C   UNL A   1      40.536  26.190  28.331  1.00  0.00     0.031 C 
ATOM     48  C   UNL A   1      46.966  24.711  26.331  1.00  0.00     0.029 A 
ATOM     49  C   UNL A   1      46.726  26.095  26.733  1.00  0.00     0.049 A 
ATOM     50  H   UNL A   1      44.949  26.913  27.447  1.00  0.00     0.167 HD
ATOM     51  C   UNL A   1      41.149  28.539  28.825  1.00  0.00     0.037 A 
ATOM     52  C   UNL A   1      47.643  27.083  26.704  1.00  0.00     0.037 A 
ATOM     53  C   UNL A   1      42.081  29.636  28.907  1.00  0.00     0.049 A 
ATOM     54  C   UNL A   1      47.255  28.465  27.158  1.00  0.00     0.074 A 
ATOM     55  C   UNL A   1      41.857  30.920  29.376  1.00  0.00     0.029 A 
ATOM     56  N   UNL A   1      43.409  29.581  28.513  1.00  0.00    -0.354 N 
ATOM     57  N   UNL A   1      46.102  28.892  27.612  1.00  0.00    -0.248 NA
ATOM     58  C   UNL A   1      48.295  29.503  27.100  1.00  0.00     0.031 C 
ATOM     59  C   UNL A   1      43.032  31.657  29.212  1.00  0.00     0.029 A 
ATOM     60  C   UNL A   1      44.008  30.817  28.702  1.00  0.00     0.049 A 
ATOM     61  H   UNL A   1      43.859  28.784  28.153  1.00  0.00     0.167 HD
ATOM     62  C   UNL A   1      46.284  30.234  27.918  1.00  0.00     0.074 A 
ATOM     63  C   UNL A   1      47.663  30.550  27.612  1.00  0.00     0.031 C 
ATOM     64  C   UNL A   1      45.385  31.123  28.407  1.00  0.00     0.037 A 
BRANCH  51  65
ATOM     65  C   UNL A   1      39.735  28.796  29.261  1.00  0.00     0.064 A 
ATOM     66  C   UNL A   1      38.791  29.308  28.356  1.00  0.00     0.173 A 
ATOM     67  C   UNL A   1      39.337  28.625  30.595  1.00  0.00     0.173 A 
ATOM     68  F   UNL A   1      39.121  29.500  27.070  1.00  0.00    -0.203 F 
ATOM     69  C   UNL A   1      37.510  29.654  28.777  1.00  0.00     0.198 A 
ATOM     70  C   UNL A   1      38.045  28.942  31.005  1.00  0.00     0.198 A 
ATOM     71  F   UNL A   1      40.198  28.132  31.499  1.00  0.00    -0.203 F 
ATOM     72  F   UNL A   1      36.639  30.179  27.904  1.00  0.00    -0.200 F 
ATOM     73  C   UNL A   1      37.136  29.468  30.099  1.00  0.00     0.200 A 
ATOM     74  F   UNL A   1      37.678  28.740  32.278  1.00  0.00    -0.200 F 
ATOM     75  F   UNL A   1      35.899  29.795  30.500  1.00  0.00    -0.200 F 
ENDBRANCH  51  65
BRANCH  52  76
ATOM     76  C   UNL A   1      49.029  26.790  26.248  1.00  0.00     0.064 A 
ATOM     77  C   UNL A   1      50.004  26.311  27.135  1.00  0.00     0.173 A 
ATOM     78  C   UNL A   1      49.409  26.999  24.915  1.00  0.00     0.173 A 
ATOM     79  F   UNL A   1      49.695  26.094  28.422  1.00  0.00    -0.203 F 
ATOM     80  C   UNL A   1      51.311  26.075  26.711  1.00  0.00     0.198 A 
ATOM     81  C   UNL A   1      50.708  26.733  24.486  1.00  0.00     0.198 A 
ATOM     82  F   UNL A   1      48.507  27.433  24.022  1.00  0.00    -0.203 F 
ATOM     83  F   UNL A   1      52.232  25.654  27.588  1.00  0.00    -0.200 F 
ATOM     84  C   UNL A   1      51.660  26.281  25.385  1.00  0.00     0.200 A 
ATOM     85  F   UNL A   1      51.033  26.905  23.197  1.00  0.00    -0.200 F 
ATOM     86  F   UNL A   1      52.912  26.038  24.975  1.00  0.00    -0.200 F 
ENDBRANCH  52  76
BRANCH  64  87
ATOM     87  C   UNL A   1      45.856  32.524  28.676  1.00  0.00     0.064 A 
ATOM     88  C   UNL A   1      45.786  33.501  27.672  1.00  0.00     0.173 A 
ATOM     89  C   UNL A   1      46.454  32.877  29.894  1.00  0.00     0.173 A 
ATOM     90  F   UNL A   1      45.231  33.214  26.484  1.00  0.00    -0.203 F 
ATOM     91  C   UNL A   1      46.317  34.773  27.868  1.00  0.00     0.198 A 
ATOM     92  C   UNL A   1      46.956  34.160  30.099  1.00  0.00     0.198 A 
ATOM     93  F   UNL A   1      46.535  31.983  30.891  1.00  0.00    -0.203 F 
ATOM     94  F   UNL A   1      46.278  35.675  26.880  1.00  0.00    -0.200 F 
ATOM     95  C   UNL A   1      46.898  35.103  29.084  1.00  0.00     0.200 A 
ATOM     96  F   UNL A   1      47.495  34.485  31.283  1.00  0.00    -0.200 F 
ATOM     97  F   UNL A   1      47.402  36.330  29.276  1.00  0.00    -0.200 F 
ENDBRANCH  64  87
ENDBRANCH  38  39
ENDBRANCH  30  33
ENDBRANCH  28  29
ENDBRANCH  27  28
ENDBRANCH  26  27
ENDBRANCH   1  26
TORSDOF 15
ENDMDL
MODEL 3
REMARK VINA RESULT:     -12.2      5.146     10.196
REMARK SMILES O=C(CC1(CC(=O)Nc2ccc(F)cc2F)CCCCC1)NCCCCNC(=O)c1ccc(-c2c3nc(c(-c4c(F)c(F)c(F)c(F)c4F)c4ccc([nH]4)c(-c4c(F)c(F)c(F)c(F)c4F)c4nc(c(-c5c(F)c(F)c(F)c(F)c5F)c5ccc2[nH]5)C=C4)C=C3)cc1
REMARK SMILES IDX 23 1 22 2 1 3 2 4 3 6 4 7 17 8 21 9 18 10 20 11 19 12 5 13
REMARK SMILES IDX 6 14 7 15 8 16 9 18 10 19 15 20 11 21 14 22 16 23 12 24
REMARK SMILES IDX 13 25 24 26 25 27 26 28 27 29 28 30 29 32 30 33 31 34 92 35
REMARK SMILES IDX 32 36 91 37 33 38 34 39 35 40 85 41 36 42 90 43 84 44 86 45
REMARK SMILES IDX 37 46 89 47 83 48 82 49 38 51 70 52 50 53 69 54 51 55 54 56
REMARK SMILES IDX 68 57 87 58 52 59 53 60 67 62 88 63 55 64 39 65 40 66 48 67
REMARK SMILES IDX 41 68 42 69 46 70 49 71 43 72 44 73 47 74 45 75 71 76 72 77
REMARK SMILES IDX 80 78 73 79 74 80 78 81 81 82 75 83 76 84 79 85 77 86 56 87
REMARK SMILES IDX 57 88 65 89 58 90 59 91 63 92 66 93 60 94 61 95 64 96 62 97
REMARK H PARENT 22 5 8 17 27 31 86 50 54 61
REMARK Flexibility Score: inf
ROOT
ATOM      1  C   UNL A   1      36.986  21.895  24.924  1.00  0.00     0.116 C 
ENDROOT
BRANCH   1   2
ATOM      2  N   UNL A   1      36.024  22.728  24.223  1.00  0.00    -0.356 N 
ATOM      3  O   UNL A   1      35.474  23.940  26.081  1.00  0.00    -0.275 OA
ATOM      4  C   UNL A   1      35.358  23.742  24.873  1.00  0.00     0.220 C 
ATOM      5  H   UNL A   1      35.845  22.564  23.268  1.00  0.00     0.163 HD
BRANCH   4   6
ATOM      6  C   UNL A   1      34.504  24.660  23.999  1.00  0.00     0.107 C 
BRANCH   6   7
ATOM      7  C   UNL A   1      32.959  24.554  24.223  1.00  0.00    -0.012 C 
ATOM      8  C   UNL A   1      32.645  23.118  24.780  1.00  0.00     0.008 C 
ATOM      9  C   UNL A   1      32.469  25.485  25.346  1.00  0.00     0.008 C 
ATOM     10  C   UNL A   1      31.180  22.899  25.201  1.00  0.00     0.001 C 
ATOM     11  C   UNL A   1      30.962  25.396  25.577  1.00  0.00     0.001 C 
ATOM     12  C   UNL A   1      30.605  24.009  26.082  1.00  0.00     0.000 C 
BRANCH   7  13
ATOM     13  C   UNL A   1      32.203  24.744  22.876  1.00  0.00     0.108 C 
BRANCH  13  14
ATOM     14  C   UNL A   1      32.702  25.708  21.802  1.00  0.00     0.225 C 
ATOM     15  O   UNL A   1      33.247  25.251  20.789  1.00  0.00    -0.275 OA
ATOM     16  N   UNL A   1      32.415  27.042  21.816  1.00  0.00    -0.324 N 
ATOM     17  H   UNL A   1      32.325  27.450  20.924  1.00  0.00     0.170 HD
BRANCH  16  18
ATOM     18  C   UNL A   1      32.225  27.933  22.880  1.00  0.00     0.077 A 
ATOM     19  C   UNL A   1      33.304  28.511  23.547  1.00  0.00     0.032 A 
ATOM     20  C   UNL A   1      30.943  28.398  23.173  1.00  0.00     0.149 A 
ATOM     21  C   UNL A   1      33.097  29.385  24.619  1.00  0.00     0.041 A 
ATOM     22  C   UNL A   1      30.718  29.270  24.235  1.00  0.00     0.080 A 
ATOM     23  F   UNL A   1      29.901  27.975  22.443  1.00  0.00    -0.205 F 
ATOM     24  C   UNL A   1      31.801  29.729  24.973  1.00  0.00     0.126 A 
ATOM     25  F   UNL A   1      31.595  30.528  26.028  1.00  0.00    -0.207 F 
ENDBRANCH  16  18
ENDBRANCH  13  14
ENDBRANCH   7  13
ENDBRANCH   6   7
ENDBRANCH   4   6
ENDBRANCH   1   2
BRANCH   1  26
ATOM     26  C   UNL A   1      36.674  20.400  24.904  1.00  0.00     0.023 C 
BRANCH  26  27
ATOM     27  C   UNL A   1      37.875  19.455  25.006  1.00  0.00     0.023 C 
BRANCH  27  28
ATOM     28  C   UNL A   1      39.130  20.029  25.658  1.00  0.00     0.116 C 
BRANCH  28  29
ATOM     29  N   UNL A   1      40.216  19.070  25.771  1.00  0.00    -0.352 N 
ATOM     30  C   UNL A   1      41.539  19.250  26.109  1.00  0.00     0.251 C 
ATOM     31  H   UNL A   1      39.966  18.139  25.572  1.00  0.00     0.163 HD
ATOM     32  O   UNL A   1      42.314  18.304  26.041  1.00  0.00    -0.269 OA
BRANCH  30  33
ATOM     33  C   UNL A   1      42.056  20.579  26.520  1.00  0.00     0.039 A 
ATOM     34  C   UNL A   1      42.440  21.478  25.520  1.00  0.00     0.014 A 
ATOM     35  C   UNL A   1      42.201  20.940  27.863  1.00  0.00     0.014 A 
ATOM     36  C   UNL A   1      42.892  22.758  25.859  1.00  0.00     0.010 A 
ATOM     37  C   UNL A   1      42.586  22.241  28.200  1.00  0.00     0.010 A 
ATOM     38  C   UNL A   1      42.927  23.168  27.202  1.00  0.00    -0.014 A 
BRANCH  38  39
ATOM     39  C   UNL A   1      43.294  24.567  27.566  1.00  0.00     0.031 A 
ATOM     40  C   UNL A   1      44.735  24.991  27.641  1.00  0.00     0.074 A 
ATOM     41  C   UNL A   1      42.324  25.452  27.869  1.00  0.00     0.049 A 
ATOM     42  N   UNL A   1      45.241  26.148  27.992  1.00  0.00    -0.248 NA
ATOM     43  C   UNL A   1      45.746  23.979  27.294  1.00  0.00     0.031 C 
ATOM     44  C   UNL A   1      40.889  25.165  27.865  1.00  0.00     0.029 A 
ATOM     45  N   UNL A   1      42.394  26.773  28.248  1.00  0.00    -0.354 N 
ATOM     46  C   UNL A   1      46.619  26.001  27.913  1.00  0.00     0.074 A 
ATOM     47  C   UNL A   1      46.876  24.630  27.532  1.00  0.00     0.031 C 
ATOM     48  C   UNL A   1      40.215  26.277  28.195  1.00  0.00     0.029 A 
ATOM     49  C   UNL A   1      41.167  27.347  28.482  1.00  0.00     0.049 A 
ATOM     50  H   UNL A   1      43.243  27.261  28.341  1.00  0.00     0.167 HD
ATOM     51  C   UNL A   1      47.582  26.933  28.115  1.00  0.00     0.037 A 
ATOM     52  C   UNL A   1      40.840  28.588  28.892  1.00  0.00     0.037 A 
ATOM     53  C   UNL A   1      47.325  28.304  28.476  1.00  0.00     0.049 A 
ATOM     54  C   UNL A   1      41.932  29.595  29.143  1.00  0.00     0.074 A 
ATOM     55  C   UNL A   1      48.239  29.330  28.657  1.00  0.00     0.029 A 
ATOM     56  N   UNL A   1      46.069  28.843  28.710  1.00  0.00    -0.354 N 
ATOM     57  N   UNL A   1      43.228  29.457  29.012  1.00  0.00    -0.248 NA
ATOM     58  C   UNL A   1      41.516  30.931  29.593  1.00  0.00     0.031 C 
ATOM     59  C   UNL A   1      47.541  30.472  29.056  1.00  0.00     0.029 A 
ATOM     60  C   UNL A   1      46.187  30.179  29.060  1.00  0.00     0.049 A 
ATOM     61  H   UNL A   1      45.221  28.350  28.637  1.00  0.00     0.167 HD
ATOM     62  C   UNL A   1      43.779  30.689  29.337  1.00  0.00     0.074 A 
ATOM     63  C   UNL A   1      42.676  31.570  29.656  1.00  0.00     0.031 C 
ATOM     64  C   UNL A   1      45.084  31.054  29.367  1.00  0.00     0.037 A 
BRANCH  51  65
ATOM     65  C   UNL A   1      49.014  26.516  27.942  1.00  0.00     0.064 A 
ATOM     66  C   UNL A   1      49.822  26.253  29.061  1.00  0.00     0.173 A 
ATOM     67  C   UNL A   1      49.615  26.469  26.676  1.00  0.00     0.173 A 
ATOM     68  F   UNL A   1      49.301  26.294  30.296  1.00  0.00    -0.203 F 
ATOM     69  C   UNL A   1      51.178  25.976  28.916  1.00  0.00     0.198 A 
ATOM     70  C   UNL A   1      50.965  26.160  26.533  1.00  0.00     0.198 A 
ATOM     71  F   UNL A   1      48.887  26.705  25.573  1.00  0.00    -0.203 F 
ATOM     72  F   UNL A   1      51.938  25.769  30.001  1.00  0.00    -0.200 F 
ATOM     73  C   UNL A   1      51.749  25.926  27.653  1.00  0.00     0.200 A 
ATOM     74  F   UNL A   1      51.510  26.089  25.310  1.00  0.00    -0.200 F 
ATOM     75  F   UNL A   1      53.054  25.652  27.515  1.00  0.00    -0.200 F 
ENDBRANCH  51  65
BRANCH  52  76
ATOM     76  C   UNL A   1      39.409  28.954  29.069  1.00  0.00     0.064 A 
ATOM     77  C   UNL A   1      38.636  29.422  27.996  1.00  0.00     0.173 A 
ATOM     78  C   UNL A   1      38.789  28.856  30.323  1.00  0.00     0.173 A 
ATOM     79  F   UNL A   1      39.180  29.536  26.775  1.00  0.00    -0.203 F 
ATOM     80  C   UNL A   1      37.306  29.801  28.175  1.00  0.00     0.198 A 
ATOM     81  C   UNL A   1      37.451  29.205  30.494  1.00  0.00     0.198 A 
ATOM     82  F   UNL A   1      39.478  28.391  31.375  1.00  0.00    -0.203 F 
ATOM     83  F   UNL A   1      36.603  30.280  27.141  1.00  0.00    -0.200 F 
ATOM     84  C   UNL A   1      36.713  29.686  29.423  1.00  0.00     0.200 A 
ATOM     85  F   UNL A   1      36.873  29.064  31.695  1.00  0.00    -0.200 F 
ATOM     86  F   UNL A   1      35.431  30.033  29.592  1.00  0.00    -0.200 F 
ENDBRANCH  52  76
BRANCH  64  87
ATOM     87  C   UNL A   1      45.409  32.476  29.731  1.00  0.00     0.064 A 
ATOM     88  C   UNL A   1      45.631  32.833  31.069  1.00  0.00     0.173 A 
ATOM     89  C   UNL A   1      45.415  33.497  28.770  1.00  0.00     0.173 A 
ATOM     90  F   UNL A   1      45.627  31.895  32.030  1.00  0.00    -0.203 F 
ATOM     91  C   UNL A   1      45.825  34.162  31.436  1.00  0.00     0.198 A 
ATOM     92  C   UNL A   1      45.641  34.822  29.136  1.00  0.00     0.198 A 
ATOM     93  F   UNL A   1      45.220  33.207  27.474  1.00  0.00    -0.203 F 
ATOM     94  F   UNL A   1      45.991  34.483  32.726  1.00  0.00    -0.200 F 
ATOM     95  C   UNL A   1      45.834  35.155  30.468  1.00  0.00     0.200 A 
ATOM     96  F   UNL A   1      45.675  35.777  28.197  1.00  0.00    -0.200 F 
ATOM     97  F   UNL A   1      46.029  36.433  30.820  1.00  0.00    -0.200 F 
ENDBRANCH  64  87
ENDBRANCH  38  39
ENDBRANCH  30  33
ENDBRANCH  28  29
ENDBRANCH  27  28
ENDBRANCH  26  27
ENDBRANCH   1  26
TORSDOF 15
ENDMDL
