MODEL 1
REMARK VINA RESULT:     -12.3      0.000      0.000
REMARK SMILES O=C(C[C@H]1C[N@@H+]([C@@H]2CC(=O)NC2=O)CCO1)NCCCCNC(=O)c1ccc(-c2c3nc(c(-c4c(F)c(F)c(F)c(F)c4F)c4ccc([nH]4)c(-c4c(F)c(F)c(F)c(F)c4F)c4nc(c(-c5c(F)c(F)c(F)c(F)c5F)c5ccc2[nH]5)C=C4)C=C3)cc1
REMARK SMILES IDX 19 1 18 2 17 3 1 4 2 5 3 7 4 8 5 9 16 10 6 11 15 12 14 13
REMARK SMILES IDX 7 15 8 16 12 17 9 18 11 19 13 20 10 21 20 23 21 24 22 25
REMARK SMILES IDX 23 26 24 28 25 29 26 30 87 31 27 32 86 33 28 34 29 35 30 36
REMARK SMILES IDX 80 37 31 38 85 39 79 40 81 41 32 42 84 43 78 44 77 45 33 47
REMARK SMILES IDX 65 48 45 49 64 50 46 51 49 52 63 53 82 54 47 55 48 56 62 58
REMARK SMILES IDX 83 59 50 60 34 61 35 62 43 63 36 64 37 65 41 66 44 67 38 68
REMARK SMILES IDX 39 69 42 70 40 71 66 72 67 73 75 74 68 75 69 76 73 77 76 78
REMARK SMILES IDX 70 79 71 80 74 81 72 82 51 83 52 84 60 85 53 86 54 87 58 88
REMARK SMILES IDX 61 89 55 90 56 91 59 92 57 93
REMARK H PARENT 17 6 6 14 11 22 22 27 81 46 49 57
REMARK Flexibility Score: inf
ROOT
ATOM      1  C   UNL A   1      31.646  30.689  26.189  1.00  0.00     0.023 C 
ENDROOT
BRANCH   1   2
ATOM      2  C   UNL A   1      32.657  29.915  27.036  1.00  0.00     0.116 C 
BRANCH   2   3
ATOM      3  N   UNL A   1      33.231  28.824  26.278  1.00  0.00    -0.356 N 
ATOM      4  O   UNL A   1      31.846  27.189  27.107  1.00  0.00    -0.275 OA
ATOM      5  C   UNL A   1      32.851  27.522  26.490  1.00  0.00     0.222 C 
ATOM      6  H   UNL A   1      33.910  29.020  25.595  1.00  0.00     0.163 HD
BRANCH   5   7
ATOM      7  C   UNL A   1      33.888  26.530  26.037  1.00  0.00     0.138 C 
BRANCH   7   8
ATOM      8  C   UNL A   1      33.467  25.070  26.035  1.00  0.00     0.182 C 
ATOM      9  C   UNL A   1      32.594  24.755  24.792  1.00  0.00     0.295 C 
ATOM     10  O   UNL A   1      34.571  24.157  26.102  1.00  0.00    -0.366 OA
ATOM     11  N   UNL A   1      33.316  24.653  23.520  1.00  0.00    -0.320 N 
ATOM     12  C   UNL A   1      35.362  24.127  24.908  1.00  0.00     0.222 C 
ATOM     13  C   UNL A   1      34.524  23.832  23.651  1.00  0.00     0.291 C 
ATOM     14  H   UNL A   1      32.627  24.156  22.955  1.00  0.00     0.348 HD
BRANCH  11  15
ATOM     15  C   UNL A   1      33.350  25.748  22.539  1.00  0.00     0.284 C 
ATOM     16  C   UNL A   1      32.606  27.055  22.833  1.00  0.00     0.176 C 
ATOM     17  C   UNL A   1      32.784  25.342  21.180  1.00  0.00     0.285 C 
ATOM     18  C   UNL A   1      31.444  27.028  21.881  1.00  0.00     0.233 C 
ATOM     19  N   UNL A   1      31.673  26.083  20.936  1.00  0.00    -0.291 N 
ATOM     20  O   UNL A   1      33.199  24.462  20.441  1.00  0.00    -0.268 OA
ATOM     21  O   UNL A   1      30.461  27.745  21.930  1.00  0.00    -0.274 OA
ATOM     22  H   UNL A   1      31.092  25.949  20.153  1.00  0.00     0.173 HD
ENDBRANCH  11  15
ENDBRANCH   7   8
ENDBRANCH   5   7
ENDBRANCH   2   3
ENDBRANCH   1   2
BRANCH   1  23
ATOM     23  C   UNL A   1      31.403  32.133  26.639  1.00  0.00     0.023 C 
BRANCH  23  24
ATOM     24  C   UNL A   1      32.582  32.797  27.336  1.00  0.00     0.116 C 
BRANCH  24  25
ATOM     25  N   UNL A   1      32.338  34.198  27.634  1.00  0.00    -0.352 N 
ATOM     26  C   UNL A   1      32.965  35.006  28.548  1.00  0.00     0.251 C 
ATOM     27  H   UNL A   1      31.626  34.626  27.107  1.00  0.00     0.163 HD
ATOM     28  O   UNL A   1      32.540  36.133  28.776  1.00  0.00    -0.269 OA
BRANCH  26  29
ATOM     29  C   UNL A   1      34.138  34.496  29.288  1.00  0.00     0.039 A 
ATOM     30  C   UNL A   1      33.936  33.907  30.538  1.00  0.00     0.014 A 
ATOM     31  C   UNL A   1      35.423  34.575  28.745  1.00  0.00     0.014 A 
ATOM     32  C   UNL A   1      35.016  33.341  31.216  1.00  0.00     0.010 A 
ATOM     33  C   UNL A   1      36.484  33.941  29.385  1.00  0.00     0.010 A 
ATOM     34  C   UNL A   1      36.291  33.319  30.629  1.00  0.00    -0.014 A 
BRANCH  34  35
ATOM     35  C   UNL A   1      37.434  32.649  31.302  1.00  0.00     0.031 A 
ATOM     36  C   UNL A   1      38.137  31.500  30.635  1.00  0.00     0.074 A 
ATOM     37  C   UNL A   1      37.802  33.040  32.537  1.00  0.00     0.049 A 
ATOM     38  N   UNL A   1      39.119  30.758  31.081  1.00  0.00    -0.248 NA
ATOM     39  C   UNL A   1      37.657  31.117  29.298  1.00  0.00     0.031 C 
ATOM     40  C   UNL A   1      37.171  34.114  33.307  1.00  0.00     0.029 A 
ATOM     41  N   UNL A   1      38.793  32.577  33.366  1.00  0.00    -0.354 N 
ATOM     42  C   UNL A   1      39.363  29.817  30.090  1.00  0.00     0.074 A 
ATOM     43  C   UNL A   1      38.390  30.044  29.043  1.00  0.00     0.031 C 
ATOM     44  C   UNL A   1      37.809  34.247  34.481  1.00  0.00     0.029 A 
ATOM     45  C   UNL A   1      38.862  33.241  34.568  1.00  0.00     0.049 A 
ATOM     46  H   UNL A   1      39.398  31.839  33.124  1.00  0.00     0.167 HD
ATOM     47  C   UNL A   1      40.326  28.865  30.046  1.00  0.00     0.037 A 
ATOM     48  C   UNL A   1      39.678  33.053  35.623  1.00  0.00     0.037 A 
ATOM     49  C   UNL A   1      41.304  28.657  31.082  1.00  0.00     0.049 A 
ATOM     50  C   UNL A   1      40.724  31.972  35.557  1.00  0.00     0.074 A 
ATOM     51  C   UNL A   1      42.359  27.762  31.104  1.00  0.00     0.029 A 
ATOM     52  N   UNL A   1      41.342  29.349  32.284  1.00  0.00    -0.354 N 
ATOM     53  N   UNL A   1      40.994  31.138  34.583  1.00  0.00    -0.248 NA
ATOM     54  C   UNL A   1      41.582  31.810  36.739  1.00  0.00     0.031 C 
ATOM     55  C   UNL A   1      42.996  27.867  32.344  1.00  0.00     0.029 A 
ATOM     56  C   UNL A   1      42.383  28.877  33.069  1.00  0.00     0.049 A 
ATOM     57  H   UNL A   1      40.722  30.069  32.541  1.00  0.00     0.167 HD
ATOM     58  C   UNL A   1      42.072  30.378  35.017  1.00  0.00     0.074 A 
ATOM     59  C   UNL A   1      42.415  30.860  36.338  1.00  0.00     0.031 C 
ATOM     60  C   UNL A   1      42.719  29.372  34.380  1.00  0.00     0.037 A 
BRANCH  47  61
ATOM     61  C   UNL A   1      40.366  27.968  28.841  1.00  0.00     0.064 A 
ATOM     62  C   UNL A   1      41.108  28.299  27.697  1.00  0.00     0.173 A 
ATOM     63  C   UNL A   1      39.684  26.741  28.846  1.00  0.00     0.173 A 
ATOM     64  F   UNL A   1      41.771  29.463  27.634  1.00  0.00    -0.203 F 
ATOM     65  C   UNL A   1      41.139  27.451  26.591  1.00  0.00     0.198 A 
ATOM     66  C   UNL A   1      39.746  25.880  27.753  1.00  0.00     0.198 A 
ATOM     67  F   UNL A   1      38.964  26.371  29.915  1.00  0.00    -0.203 F 
ATOM     68  F   UNL A   1      41.811  27.814  25.490  1.00  0.00    -0.200 F 
ATOM     69  C   UNL A   1      40.465  26.240  26.624  1.00  0.00     0.200 A 
ATOM     70  F   UNL A   1      39.108  24.703  27.793  1.00  0.00    -0.200 F 
ATOM     71  F   UNL A   1      40.505  25.421  25.564  1.00  0.00    -0.200 F 
ENDBRANCH  47  61
BRANCH  48  72
ATOM     72  C   UNL A   1      39.555  33.920  36.824  1.00  0.00     0.064 A 
ATOM     73  C   UNL A   1      38.790  33.516  37.929  1.00  0.00     0.173 A 
ATOM     74  C   UNL A   1      40.182  35.173  36.891  1.00  0.00     0.173 A 
ATOM     75  F   UNL A   1      38.155  32.336  37.906  1.00  0.00    -0.203 F 
ATOM     76  C   UNL A   1      38.638  34.341  39.041  1.00  0.00     0.198 A 
ATOM     77  C   UNL A   1      40.056  35.983  38.018  1.00  0.00     0.198 A 
ATOM     78  F   UNL A   1      40.930  35.606  35.866  1.00  0.00    -0.203 F 
ATOM     79  F   UNL A   1      37.858  33.951  40.059  1.00  0.00    -0.200 F 
ATOM     80  C   UNL A   1      39.275  35.571  39.088  1.00  0.00     0.200 A 
ATOM     81  F   UNL A   1      40.687  37.164  38.066  1.00  0.00    -0.200 F 
ATOM     82  F   UNL A   1      39.130  36.364  40.158  1.00  0.00    -0.200 F 
ENDBRANCH  48  72
BRANCH  60  83
ATOM     83  C   UNL A   1      43.895  28.753  35.081  1.00  0.00     0.064 A 
ATOM     84  C   UNL A   1      43.750  27.654  35.942  1.00  0.00     0.173 A 
ATOM     85  C   UNL A   1      45.191  29.241  34.856  1.00  0.00     0.173 A 
ATOM     86  F   UNL A   1      42.531  27.158  36.204  1.00  0.00    -0.203 F 
ATOM     87  C   UNL A   1      44.854  27.089  36.574  1.00  0.00     0.198 A 
ATOM     88  C   UNL A   1      46.297  28.650  35.461  1.00  0.00     0.198 A 
ATOM     89  F   UNL A   1      45.388  30.284  34.036  1.00  0.00    -0.203 F 
ATOM     90  F   UNL A   1      44.685  26.076  37.436  1.00  0.00    -0.200 F 
ATOM     91  C   UNL A   1      46.127  27.581  36.326  1.00  0.00     0.200 A 
ATOM     92  F   UNL A   1      47.527  29.116  35.205  1.00  0.00    -0.200 F 
ATOM     93  F   UNL A   1      47.189  27.029  36.929  1.00  0.00    -0.200 F 
ENDBRANCH  60  83
ENDBRANCH  34  35
ENDBRANCH  26  29
ENDBRANCH  24  25
ENDBRANCH  23  24
ENDBRANCH   1  23
TORSDOF 13
ENDMDL
MODEL 2
REMARK VINA RESULT:     -12.3      1.047      2.454
REMARK SMILES O=C(C[C@H]1C[N@@H+]([C@@H]2CC(=O)NC2=O)CCO1)NCCCCNC(=O)c1ccc(-c2c3nc(c(-c4c(F)c(F)c(F)c(F)c4F)c4ccc([nH]4)c(-c4c(F)c(F)c(F)c(F)c4F)c4nc(c(-c5c(F)c(F)c(F)c(F)c5F)c5ccc2[nH]5)C=C4)C=C3)cc1
REMARK SMILES IDX 19 1 18 2 17 3 1 4 2 5 3 7 4 8 5 9 16 10 6 11 15 12 14 13
REMARK SMILES IDX 7 15 8 16 12 17 9 18 11 19 13 20 10 21 20 23 21 24 22 25
REMARK SMILES IDX 23 26 24 28 25 29 26 30 87 31 27 32 86 33 28 34 29 35 30 36
REMARK SMILES IDX 80 37 31 38 85 39 79 40 81 41 32 42 84 43 78 44 77 45 33 47
REMARK SMILES IDX 65 48 45 49 64 50 46 51 49 52 63 53 82 54 47 55 48 56 62 58
REMARK SMILES IDX 83 59 50 60 34 61 35 62 43 63 36 64 37 65 41 66 44 67 38 68
REMARK SMILES IDX 39 69 42 70 40 71 66 72 67 73 75 74 68 75 69 76 73 77 76 78
REMARK SMILES IDX 70 79 71 80 74 81 72 82 51 83 52 84 60 85 53 86 54 87 58 88
REMARK SMILES IDX 61 89 55 90 56 91 59 92 57 93
REMARK H PARENT 17 6 6 14 11 22 22 27 81 46 49 57
REMARK Flexibility Score: inf
ROOT
ATOM      1  C   UNL A   1      31.715  30.762  26.067  1.00  0.00     0.023 C 
ENDROOT
BRANCH   1   2
ATOM      2  C   UNL A   1      32.636  29.813  26.835  1.00  0.00     0.116 C 
BRANCH   2   3
ATOM      3  N   UNL A   1      32.612  28.490  26.251  1.00  0.00    -0.356 N 
ATOM      4  O   UNL A   1      31.035  27.617  27.674  1.00  0.00    -0.275 OA
ATOM      5  C   UNL A   1      31.899  27.464  26.820  1.00  0.00     0.222 C 
ATOM      6  H   UNL A   1      33.118  28.321  25.424  1.00  0.00     0.163 HD
BRANCH   5   7
ATOM      7  C   UNL A   1      32.407  26.106  26.417  1.00  0.00     0.138 C 
BRANCH   7   8
ATOM      8  C   UNL A   1      33.717  26.078  25.648  1.00  0.00     0.182 C 
ATOM      9  C   UNL A   1      34.271  24.631  25.566  1.00  0.00     0.295 C 
ATOM     10  O   UNL A   1      33.621  26.641  24.333  1.00  0.00    -0.366 OA
ATOM     11  N   UNL A   1      33.584  23.743  24.624  1.00  0.00    -0.320 N 
ATOM     12  C   UNL A   1      32.852  25.844  23.425  1.00  0.00     0.222 C 
ATOM     13  C   UNL A   1      33.365  24.395  23.330  1.00  0.00     0.291 C 
ATOM     14  H   UNL A   1      34.282  23.007  24.520  1.00  0.00     0.348 HD
BRANCH  11  15
ATOM     15  C   UNL A   1      32.585  22.752  25.055  1.00  0.00     0.284 C 
ATOM     16  C   UNL A   1      31.117  23.165  25.196  1.00  0.00     0.176 C 
ATOM     17  C   UNL A   1      32.897  22.157  26.426  1.00  0.00     0.285 C 
ATOM     18  C   UNL A   1      30.886  23.170  26.680  1.00  0.00     0.233 C 
ATOM     19  N   UNL A   1      31.903  22.508  27.283  1.00  0.00    -0.291 N 
ATOM     20  O   UNL A   1      33.889  21.523  26.747  1.00  0.00    -0.268 OA
ATOM     21  O   UNL A   1      29.936  23.667  27.256  1.00  0.00    -0.274 OA
ATOM     22  H   UNL A   1      31.920  22.302  28.246  1.00  0.00     0.173 HD
ENDBRANCH  11  15
ENDBRANCH   7   8
ENDBRANCH   5   7
ENDBRANCH   2   3
ENDBRANCH   1   2
BRANCH   1  23
ATOM     23  C   UNL A   1      31.422  32.087  26.775  1.00  0.00     0.023 C 
BRANCH  23  24
ATOM     24  C   UNL A   1      32.647  32.816  27.310  1.00  0.00     0.116 C 
BRANCH  24  25
ATOM     25  N   UNL A   1      32.376  34.208  27.625  1.00  0.00    -0.352 N 
ATOM     26  C   UNL A   1      32.974  35.011  28.563  1.00  0.00     0.251 C 
ATOM     27  H   UNL A   1      31.666  34.633  27.091  1.00  0.00     0.163 HD
ATOM     28  O   UNL A   1      32.528  36.128  28.799  1.00  0.00    -0.269 OA
BRANCH  26  29
ATOM     29  C   UNL A   1      34.141  34.507  29.316  1.00  0.00     0.039 A 
ATOM     30  C   UNL A   1      33.926  33.893  30.551  1.00  0.00     0.014 A 
ATOM     31  C   UNL A   1      35.435  34.618  28.799  1.00  0.00     0.014 A 
ATOM     32  C   UNL A   1      35.002  33.334  31.240  1.00  0.00     0.010 A 
ATOM     33  C   UNL A   1      36.494  33.989  29.447  1.00  0.00     0.010 A 
ATOM     34  C   UNL A   1      36.289  33.343  30.676  1.00  0.00    -0.014 A 
BRANCH  34  35
ATOM     35  C   UNL A   1      37.429  32.679  31.359  1.00  0.00     0.031 A 
ATOM     36  C   UNL A   1      38.148  31.538  30.696  1.00  0.00     0.074 A 
ATOM     37  C   UNL A   1      37.782  33.071  32.599  1.00  0.00     0.049 A 
ATOM     38  N   UNL A   1      39.132  30.802  31.151  1.00  0.00    -0.248 NA
ATOM     39  C   UNL A   1      37.685  31.154  29.354  1.00  0.00     0.031 C 
ATOM     40  C   UNL A   1      37.136  34.138  33.366  1.00  0.00     0.029 A 
ATOM     41  N   UNL A   1      38.768  32.613  33.437  1.00  0.00    -0.354 N 
ATOM     42  C   UNL A   1      39.393  29.866  30.159  1.00  0.00     0.074 A 
ATOM     43  C   UNL A   1      38.429  30.088  29.104  1.00  0.00     0.031 C 
ATOM     44  C   UNL A   1      37.760  34.273  34.546  1.00  0.00     0.029 A 
ATOM     45  C   UNL A   1      38.820  33.274  34.641  1.00  0.00     0.049 A 
ATOM     46  H   UNL A   1      39.381  31.880  33.199  1.00  0.00     0.167 HD
ATOM     47  C   UNL A   1      40.364  28.922  30.123  1.00  0.00     0.037 A 
ATOM     48  C   UNL A   1      39.627  33.090  35.703  1.00  0.00     0.037 A 
ATOM     49  C   UNL A   1      41.333  28.719  31.168  1.00  0.00     0.049 A 
ATOM     50  C   UNL A   1      40.682  32.017  35.646  1.00  0.00     0.074 A 
ATOM     51  C   UNL A   1      42.395  27.831  31.199  1.00  0.00     0.029 A 
ATOM     52  N   UNL A   1      41.353  29.408  32.373  1.00  0.00    -0.354 N 
ATOM     53  N   UNL A   1      40.968  31.188  34.672  1.00  0.00    -0.248 NA
ATOM     54  C   UNL A   1      41.529  31.859  36.836  1.00  0.00     0.031 C 
ATOM     55  C   UNL A   1      43.018  27.938  32.446  1.00  0.00     0.029 A 
ATOM     56  C   UNL A   1      42.389  28.941  33.166  1.00  0.00     0.049 A 
ATOM     57  H   UNL A   1      40.725  30.122  32.625  1.00  0.00     0.167 HD
ATOM     58  C   UNL A   1      42.048  30.436  35.116  1.00  0.00     0.074 A 
ATOM     59  C   UNL A   1      42.374  30.917  36.441  1.00  0.00     0.031 C 
ATOM     60  C   UNL A   1      42.709  29.436  34.482  1.00  0.00     0.037 A 
BRANCH  47  61
ATOM     61  C   UNL A   1      40.422  28.028  28.917  1.00  0.00     0.064 A 
ATOM     62  C   UNL A   1      39.724  26.812  28.862  1.00  0.00     0.173 A 
ATOM     63  C   UNL A   1      41.155  28.411  27.783  1.00  0.00     0.173 A 
ATOM     64  F   UNL A   1      39.015  26.391  29.921  1.00  0.00    -0.203 F 
ATOM     65  C   UNL A   1      39.784  25.998  27.733  1.00  0.00     0.198 A 
ATOM     66  C   UNL A   1      41.184  27.613  26.642  1.00  0.00     0.198 A 
ATOM     67  F   UNL A   1      41.836  29.567  27.777  1.00  0.00    -0.203 F 
ATOM     68  F   UNL A   1      39.152  24.816  27.726  1.00  0.00    -0.200 F 
ATOM     69  C   UNL A   1      40.507  26.404  26.622  1.00  0.00     0.200 A 
ATOM     70  F   UNL A   1      41.870  28.015  25.563  1.00  0.00    -0.200 F 
ATOM     71  F   UNL A   1      40.555  25.626  25.532  1.00  0.00    -0.200 F 
ENDBRANCH  47  61
BRANCH  48  72
ATOM     72  C   UNL A   1      39.485  33.953  36.906  1.00  0.00     0.064 A 
ATOM     73  C   UNL A   1      40.125  35.199  36.978  1.00  0.00     0.173 A 
ATOM     74  C   UNL A   1      38.723  33.548  38.013  1.00  0.00     0.173 A 
ATOM     75  F   UNL A   1      40.881  35.622  35.955  1.00  0.00    -0.203 F 
ATOM     76  C   UNL A   1      40.029  35.994  38.118  1.00  0.00     0.198 A 
ATOM     77  C   UNL A   1      38.601  34.360  39.139  1.00  0.00     0.198 A 
ATOM     78  F   UNL A   1      38.086  32.369  37.994  1.00  0.00    -0.203 F 
ATOM     79  F   UNL A   1      40.695  37.156  38.179  1.00  0.00    -0.200 F 
ATOM     80  C   UNL A   1      39.262  35.577  39.195  1.00  0.00     0.200 A 
ATOM     81  F   UNL A   1      37.845  33.960  40.171  1.00  0.00    -0.200 F 
ATOM     82  F   UNL A   1      39.169  36.342  40.291  1.00  0.00    -0.200 F 
ENDBRANCH  48  72
BRANCH  60  83
ATOM     83  C   UNL A   1      43.882  28.824  35.194  1.00  0.00     0.064 A 
ATOM     84  C   UNL A   1      43.737  27.720  36.049  1.00  0.00     0.173 A 
ATOM     85  C   UNL A   1      45.177  29.324  34.985  1.00  0.00     0.173 A 
ATOM     86  F   UNL A   1      42.520  27.213  36.295  1.00  0.00    -0.203 F 
ATOM     87  C   UNL A   1      44.840  27.163  36.691  1.00  0.00     0.198 A 
ATOM     88  C   UNL A   1      46.281  28.740  35.599  1.00  0.00     0.198 A 
ATOM     89  F   UNL A   1      45.373  30.372  34.171  1.00  0.00    -0.203 F 
ATOM     90  F   UNL A   1      44.670  26.144  37.546  1.00  0.00    -0.200 F 
ATOM     91  C   UNL A   1      46.111  27.667  36.459  1.00  0.00     0.200 A 
ATOM     92  F   UNL A   1      47.510  29.218  35.359  1.00  0.00    -0.200 F 
ATOM     93  F   UNL A   1      47.171  27.121  37.070  1.00  0.00    -0.200 F 
ENDBRANCH  60  83
ENDBRANCH  34  35
ENDBRANCH  26  29
ENDBRANCH  24  25
ENDBRANCH  23  24
ENDBRANCH   1  23
TORSDOF 13
ENDMDL
MODEL 3
REMARK VINA RESULT:     -12.3      1.175      7.712
REMARK SMILES O=C(C[C@H]1C[N@@H+]([C@@H]2CC(=O)NC2=O)CCO1)NCCCCNC(=O)c1ccc(-c2c3nc(c(-c4c(F)c(F)c(F)c(F)c4F)c4ccc([nH]4)c(-c4c(F)c(F)c(F)c(F)c4F)c4nc(c(-c5c(F)c(F)c(F)c(F)c5F)c5ccc2[nH]5)C=C4)C=C3)cc1
REMARK SMILES IDX 19 1 18 2 17 3 1 4 2 5 3 7 4 8 5 9 16 10 6 11 15 12 14 13
REMARK SMILES IDX 7 15 8 16 12 17 9 18 11 19 13 20 10 21 20 23 21 24 22 25
REMARK SMILES IDX 23 26 24 28 25 29 26 30 87 31 27 32 86 33 28 34 29 35 30 36
REMARK SMILES IDX 80 37 31 38 85 39 79 40 81 41 32 42 84 43 78 44 77 45 33 47
REMARK SMILES IDX 65 48 45 49 64 50 46 51 49 52 63 53 82 54 47 55 48 56 62 58
REMARK SMILES IDX 83 59 50 60 34 61 35 62 43 63 36 64 37 65 41 66 44 67 38 68
REMARK SMILES IDX 39 69 42 70 40 71 66 72 67 73 75 74 68 75 69 76 73 77 76 78
REMARK SMILES IDX 70 79 71 80 74 81 72 82 51 83 52 84 60 85 53 86 54 87 58 88
REMARK SMILES IDX 61 89 55 90 56 91 59 92 57 93
REMARK H PARENT 17 6 6 14 11 22 22 27 81 46 49 57
REMARK Flexibility Score: inf
ROOT
ATOM      1  C   UNL A   1      31.556  30.837  26.058  1.00  0.00     0.023 C 
ENDROOT
BRANCH   1   2
ATOM      2  C   UNL A   1      32.632  29.922  26.645  1.00  0.00     0.116 C 
BRANCH   2   3
ATOM      3  N   UNL A   1      32.539  28.594  26.078  1.00  0.00    -0.356 N 
ATOM      4  O   UNL A   1      31.122  27.742  27.672  1.00  0.00    -0.275 OA
ATOM      5  C   UNL A   1      31.888  27.577  26.731  1.00  0.00     0.222 C 
ATOM      6  H   UNL A   1      32.952  28.415  25.204  1.00  0.00     0.163 HD
BRANCH   5   7
ATOM      7  C   UNL A   1      32.343  26.213  26.288  1.00  0.00     0.138 C 
BRANCH   7   8
ATOM      8  C   UNL A   1      33.753  26.122  25.728  1.00  0.00     0.182 C 
ATOM      9  C   UNL A   1      34.236  24.648  25.702  1.00  0.00     0.295 C 
ATOM     10  O   UNL A   1      33.890  26.705  24.426  1.00  0.00    -0.366 OA
ATOM     11  N   UNL A   1      33.656  23.811  24.647  1.00  0.00    -0.320 N 
ATOM     12  C   UNL A   1      33.228  25.963  23.394  1.00  0.00     0.222 C 
ATOM     13  C   UNL A   1      33.674  24.490  23.349  1.00  0.00     0.291 C 
ATOM     14  H   UNL A   1      34.323  23.038  24.637  1.00  0.00     0.348 HD
BRANCH  11  15
ATOM     15  C   UNL A   1      32.553  22.871  24.900  1.00  0.00     0.284 C 
ATOM     16  C   UNL A   1      31.142  23.408  25.159  1.00  0.00     0.176 C 
ATOM     17  C   UNL A   1      32.799  21.984  26.119  1.00  0.00     0.285 C 
ATOM     18  C   UNL A   1      30.918  23.142  26.620  1.00  0.00     0.233 C 
ATOM     19  N   UNL A   1      31.855  22.265  27.054  1.00  0.00    -0.291 N 
ATOM     20  O   UNL A   1      33.714  21.192  26.282  1.00  0.00    -0.268 OA
ATOM     21  O   UNL A   1      30.033  23.617  27.308  1.00  0.00    -0.274 OA
ATOM     22  H   UNL A   1      31.852  21.871  27.956  1.00  0.00     0.173 HD
ENDBRANCH  11  15
ENDBRANCH   7   8
ENDBRANCH   5   7
ENDBRANCH   2   3
ENDBRANCH   1   2
BRANCH   1  23
ATOM     23  C   UNL A   1      31.351  32.154  26.813  1.00  0.00     0.023 C 
BRANCH  23  24
ATOM     24  C   UNL A   1      32.632  32.858  27.239  1.00  0.00     0.116 C 
BRANCH  24  25
ATOM     25  N   UNL A   1      32.403  34.231  27.655  1.00  0.00    -0.352 N 
ATOM     26  C   UNL A   1      33.038  34.951  28.636  1.00  0.00     0.251 C 
ATOM     27  H   UNL A   1      31.696  34.710  27.166  1.00  0.00     0.163 HD
ATOM     28  O   UNL A   1      32.625  36.059  28.958  1.00  0.00    -0.269 OA
BRANCH  26  29
ATOM     29  C   UNL A   1      34.204  34.366  29.330  1.00  0.00     0.039 A 
ATOM     30  C   UNL A   1      33.982  33.568  30.454  1.00  0.00     0.014 A 
ATOM     31  C   UNL A   1      35.503  34.582  28.863  1.00  0.00     0.014 A 
ATOM     32  C   UNL A   1      35.060  32.937  31.075  1.00  0.00     0.010 A 
ATOM     33  C   UNL A   1      36.566  33.888  29.434  1.00  0.00     0.010 A 
ATOM     34  C   UNL A   1      36.355  33.060  30.547  1.00  0.00    -0.014 A 
BRANCH  34  35
ATOM     35  C   UNL A   1      37.500  32.327  31.148  1.00  0.00     0.031 A 
ATOM     36  C   UNL A   1      38.003  32.698  32.515  1.00  0.00     0.074 A 
ATOM     37  C   UNL A   1      38.119  31.364  30.439  1.00  0.00     0.049 A 
ATOM     38  N   UNL A   1      39.016  32.210  33.185  1.00  0.00    -0.248 NA
ATOM     39  C   UNL A   1      37.288  33.779  33.212  1.00  0.00     0.031 C 
ATOM     40  C   UNL A   1      37.753  30.941  29.086  1.00  0.00     0.029 A 
ATOM     41  N   UNL A   1      39.192  30.568  30.754  1.00  0.00    -0.354 N 
ATOM     42  C   UNL A   1      39.067  32.931  34.372  1.00  0.00     0.074 A 
ATOM     43  C   UNL A   1      38.021  33.927  34.306  1.00  0.00     0.031 C 
ATOM     44  C   UNL A   1      38.566  29.945  28.700  1.00  0.00     0.029 A 
ATOM     45  C   UNL A   1      39.540  29.689  29.757  1.00  0.00     0.049 A 
ATOM     46  H   UNL A   1      39.670  30.622  31.614  1.00  0.00     0.167 HD
ATOM     47  C   UNL A   1      39.897  32.761  35.428  1.00  0.00     0.037 A 
ATOM     48  C   UNL A   1      40.535  28.784  29.699  1.00  0.00     0.037 A 
ATOM     49  C   UNL A   1      40.924  31.755  35.496  1.00  0.00     0.049 A 
ATOM     50  C   UNL A   1      41.458  28.633  30.878  1.00  0.00     0.074 A 
ATOM     51  C   UNL A   1      41.776  31.461  36.547  1.00  0.00     0.029 A 
ATOM     52  N   UNL A   1      41.246  30.883  34.465  1.00  0.00    -0.354 N 
ATOM     53  N   UNL A   1      41.449  29.268  32.025  1.00  0.00    -0.248 NA
ATOM     54  C   UNL A   1      42.529  27.633  30.757  1.00  0.00     0.031 C 
ATOM     55  C   UNL A   1      42.653  30.456  36.131  1.00  0.00     0.029 A 
ATOM     56  C   UNL A   1      42.305  30.073  34.845  1.00  0.00     0.049 A 
ATOM     57  H   UNL A   1      40.789  30.845  33.594  1.00  0.00     0.167 HD
ATOM     58  C   UNL A   1      42.485  28.724  32.773  1.00  0.00     0.074 A 
ATOM     59  C   UNL A   1      43.093  27.696  31.955  1.00  0.00     0.031 C 
ATOM     60  C   UNL A   1      42.896  29.047  34.023  1.00  0.00     0.037 A 
BRANCH  47  61
ATOM     61  C   UNL A   1      39.735  33.691  36.598  1.00  0.00     0.064 A 
ATOM     62  C   UNL A   1      40.387  34.933  36.651  1.00  0.00     0.173 A 
ATOM     63  C   UNL A   1      38.886  33.353  37.663  1.00  0.00     0.173 A 
ATOM     64  F   UNL A   1      41.218  35.304  35.665  1.00  0.00    -0.203 F 
ATOM     65  C   UNL A   1      40.220  35.786  37.740  1.00  0.00     0.198 A 
ATOM     66  C   UNL A   1      38.693  34.223  38.733  1.00  0.00     0.198 A 
ATOM     67  F   UNL A   1      38.233  32.181  37.661  1.00  0.00    -0.203 F 
ATOM     68  F   UNL A   1      40.894  36.942  37.793  1.00  0.00    -0.200 F 
ATOM     69  C   UNL A   1      39.367  35.433  38.775  1.00  0.00     0.200 A 
ATOM     70  F   UNL A   1      37.857  33.887  39.724  1.00  0.00    -0.200 F 
ATOM     71  F   UNL A   1      39.199  36.259  39.817  1.00  0.00    -0.200 F 
ENDBRANCH  47  61
BRANCH  48  72
ATOM     72  C   UNL A   1      40.701  27.934  28.490  1.00  0.00     0.064 A 
ATOM     73  C   UNL A   1      41.473  28.371  27.403  1.00  0.00     0.173 A 
ATOM     74  C   UNL A   1      40.083  26.679  28.386  1.00  0.00     0.173 A 
ATOM     75  F   UNL A   1      42.068  29.571  27.446  1.00  0.00    -0.203 F 
ATOM     76  C   UNL A   1      41.599  27.597  26.251  1.00  0.00     0.198 A 
ATOM     77  C   UNL A   1      40.238  25.892  27.246  1.00  0.00     0.198 A 
ATOM     78  F   UNL A   1      39.338  26.211  29.398  1.00  0.00    -0.203 F 
ATOM     79  F   UNL A   1      42.299  28.063  25.208  1.00  0.00    -0.200 F 
ATOM     80  C   UNL A   1      40.986  26.356  26.176  1.00  0.00     0.200 A 
ATOM     81  F   UNL A   1      39.657  24.686  27.185  1.00  0.00    -0.200 F 
ATOM     82  F   UNL A   1      41.109  25.611  25.069  1.00  0.00    -0.200 F 
ENDBRANCH  48  72
BRANCH  60  83
ATOM     83  C   UNL A   1      44.029  28.250  34.606  1.00  0.00     0.064 A 
ATOM     84  C   UNL A   1      45.361  28.681  34.517  1.00  0.00     0.173 A 
ATOM     85  C   UNL A   1      43.772  27.057  35.299  1.00  0.00     0.173 A 
ATOM     86  F   UNL A   1      45.662  29.807  33.852  1.00  0.00    -0.203 F 
ATOM     87  C   UNL A   1      46.395  27.932  35.072  1.00  0.00     0.198 A 
ATOM     88  C   UNL A   1      44.805  26.330  35.885  1.00  0.00     0.198 A 
ATOM     89  F   UNL A   1      42.516  26.602  35.422  1.00  0.00    -0.203 F 
ATOM     90  F   UNL A   1      47.665  28.336  34.926  1.00  0.00    -0.200 F 
ATOM     91  C   UNL A   1      46.116  26.763  35.763  1.00  0.00     0.200 A 
ATOM     92  F   UNL A   1      44.530  25.210  36.568  1.00  0.00    -0.200 F 
ATOM     93  F   UNL A   1      47.112  26.049  36.305  1.00  0.00    -0.200 F 
ENDBRANCH  60  83
ENDBRANCH  34  35
ENDBRANCH  26  29
ENDBRANCH  24  25
ENDBRANCH  23  24
ENDBRANCH   1  23
TORSDOF 13
ENDMDL
