MODEL 1
REMARK VINA RESULT:     -11.7      0.000      0.000
REMARK SMILES O=C(COc1csc(C(=O)NCCCCNC(=O)c2ccc(-c3c4nc(c(-c5c(F)c(F)c(F)c(F)c5F)c5ccc([nH]5)c(-c5c(F)c(F)c(F)c(F)c5F)c5nc(c(-c6c(F)c(F)c(F)c(F)c6F)c6ccc3[nH]6)C=C5)C=C4)cc2)c1)Nc1nccs1
REMARK SMILES IDX 12 1 11 2 9 3 10 4 8 6 5 7 6 8 82 9 7 10 4 11 3 12 2 13 1 14
REMARK SMILES IDX 83 15 84 17 85 18 88 19 86 20 87 21 13 22 14 23 15 24 16 25
REMARK SMILES IDX 17 26 18 28 19 29 20 30 81 31 21 32 80 33 22 34 23 35 24 36
REMARK SMILES IDX 74 37 25 38 79 39 73 40 75 41 26 42 78 43 72 44 71 45 27 47
REMARK SMILES IDX 59 48 39 49 58 50 40 51 43 52 57 53 76 54 41 55 42 56 56 58
REMARK SMILES IDX 77 59 44 60 28 61 29 62 37 63 30 64 31 65 35 66 38 67 32 68
REMARK SMILES IDX 33 69 36 70 34 71 60 72 61 73 69 74 62 75 63 76 67 77 70 78
REMARK SMILES IDX 64 79 65 80 68 81 66 82 45 83 46 84 54 85 47 86 48 87 52 88
REMARK SMILES IDX 55 89 49 90 50 91 53 92 51 93
REMARK H PARENT 11 5 83 16 16 27 75 46 43 57
REMARK Flexibility Score: inf
ROOT
ATOM      1  C   UNL A   1      32.992  30.162  26.566  1.00  0.00     0.116 C 
ENDROOT
BRANCH   1   2
ATOM      2  N   UNL A   1      33.642  29.690  25.364  1.00  0.00    -0.351 N 
ATOM      3  C   UNL A   1      33.500  28.539  24.628  1.00  0.00     0.261 C 
ATOM      4  O   UNL A   1      34.258  28.463  23.655  1.00  0.00    -0.268 OA
ATOM      5  H   UNL A   1      34.315  30.312  25.006  1.00  0.00     0.163 HD
BRANCH   3   6
ATOM      6  C   UNL A   1      32.503  27.524  24.952  1.00  0.00     0.096 A 
ATOM      7  C   UNL A   1      31.179  25.871  25.944  1.00  0.00     0.131 A 
ATOM      8  C   UNL A   1      30.332  26.307  24.958  1.00  0.00     0.112 A 
ATOM      9  C   UNL A   1      32.444  26.512  25.896  1.00  0.00     0.072 A 
ATOM     10  S   UNL A   1      31.058  27.518  23.999  1.00  0.00    -0.135 S 
BRANCH   7  11
ATOM     11  O   UNL A   1      30.822  25.018  26.936  1.00  0.00    -0.483 OA
BRANCH  11  12
ATOM     12  C   UNL A   1      30.857  23.649  26.542  1.00  0.00     0.329 C 
BRANCH  12  13
ATOM     13  C   UNL A   1      32.192  22.959  26.827  1.00  0.00     0.264 C 
ATOM     14  O   UNL A   1      32.502  22.648  27.971  1.00  0.00    -0.271 OA
ATOM     15  N   UNL A   1      32.918  22.750  25.674  1.00  0.00    -0.299 N 
ATOM     16  H   UNL A   1      32.479  22.893  24.804  1.00  0.00     0.172 HD
BRANCH  15  17
ATOM     17  C   UNL A   1      34.223  22.354  25.690  1.00  0.00     0.189 A 
ATOM     18  N   UNL A   1      35.299  23.048  25.947  1.00  0.00    -0.229 NA
ATOM     19  S   UNL A   1      34.457  20.730  25.212  1.00  0.00    -0.105 S 
ATOM     20  C   UNL A   1      36.410  22.259  25.734  1.00  0.00     0.125 A 
ATOM     21  C   UNL A   1      36.154  20.973  25.307  1.00  0.00     0.088 A 
ENDBRANCH  15  17
ENDBRANCH  12  13
ENDBRANCH  11  12
ENDBRANCH   7  11
ENDBRANCH   3   6
ENDBRANCH   1   2
BRANCH   1  22
ATOM     22  C   UNL A   1      31.595  30.691  26.244  1.00  0.00     0.023 C 
BRANCH  22  23
ATOM     23  C   UNL A   1      31.389  32.155  26.646  1.00  0.00     0.023 C 
BRANCH  23  24
ATOM     24  C   UNL A   1      32.640  32.861  27.160  1.00  0.00     0.116 C 
BRANCH  24  25
ATOM     25  N   UNL A   1      32.377  34.200  27.660  1.00  0.00    -0.352 N 
ATOM     26  C   UNL A   1      33.018  34.887  28.662  1.00  0.00     0.251 C 
ATOM     27  H   UNL A   1      31.640  34.681  27.220  1.00  0.00     0.163 HD
ATOM     28  O   UNL A   1      32.588  35.966  29.046  1.00  0.00    -0.269 OA
BRANCH  26  29
ATOM     29  C   UNL A   1      34.211  34.292  29.300  1.00  0.00     0.039 A 
ATOM     30  C   UNL A   1      34.028  33.385  30.344  1.00  0.00     0.014 A 
ATOM     31  C   UNL A   1      35.497  34.619  28.863  1.00  0.00     0.014 A 
ATOM     32  C   UNL A   1      35.140  32.769  30.920  1.00  0.00     0.010 A 
ATOM     33  C   UNL A   1      36.596  33.942  29.379  1.00  0.00     0.010 A 
ATOM     34  C   UNL A   1      36.430  33.022  30.425  1.00  0.00    -0.014 A 
BRANCH  34  35
ATOM     35  C   UNL A   1      37.610  32.341  31.013  1.00  0.00     0.031 A 
ATOM     36  C   UNL A   1      38.093  32.714  32.387  1.00  0.00     0.074 A 
ATOM     37  C   UNL A   1      38.261  31.403  30.298  1.00  0.00     0.049 A 
ATOM     38  N   UNL A   1      39.086  32.214  33.080  1.00  0.00    -0.248 NA
ATOM     39  C   UNL A   1      37.384  33.809  33.065  1.00  0.00     0.031 C 
ATOM     40  C   UNL A   1      37.924  30.998  28.932  1.00  0.00     0.029 A 
ATOM     41  N   UNL A   1      39.335  30.615  30.624  1.00  0.00    -0.354 N 
ATOM     42  C   UNL A   1      39.120  32.935  34.266  1.00  0.00     0.074 A 
ATOM     43  C   UNL A   1      38.098  33.954  34.171  1.00  0.00     0.031 C 
ATOM     44  C   UNL A   1      38.746  30.007  28.553  1.00  0.00     0.029 A 
ATOM     45  C   UNL A   1      39.686  29.729  29.635  1.00  0.00     0.049 A 
ATOM     46  H   UNL A   1      39.809  30.679  31.484  1.00  0.00     0.167 HD
ATOM     47  C   UNL A   1      39.907  32.744  35.353  1.00  0.00     0.037 A 
ATOM     48  C   UNL A   1      40.651  28.792  29.610  1.00  0.00     0.037 A 
ATOM     49  C   UNL A   1      40.916  31.721  35.446  1.00  0.00     0.049 A 
ATOM     50  C   UNL A   1      41.515  28.601  30.829  1.00  0.00     0.074 A 
ATOM     51  C   UNL A   1      41.743  31.417  36.514  1.00  0.00     0.029 A 
ATOM     52  N   UNL A   1      41.239  30.836  34.427  1.00  0.00    -0.354 N 
ATOM     53  N   UNL A   1      41.487  29.238  31.975  1.00  0.00    -0.248 NA
ATOM     54  C   UNL A   1      42.535  27.547  30.753  1.00  0.00     0.031 C 
ATOM     55  C   UNL A   1      42.599  30.382  36.123  1.00  0.00     0.029 A 
ATOM     56  C   UNL A   1      42.265  29.997  34.835  1.00  0.00     0.049 A 
ATOM     57  H   UNL A   1      40.804  30.809  33.544  1.00  0.00     0.167 HD
ATOM     58  C   UNL A   1      42.457  28.637  32.768  1.00  0.00     0.074 A 
ATOM     59  C   UNL A   1      43.040  27.574  31.977  1.00  0.00     0.031 C 
ATOM     60  C   UNL A   1      42.831  28.939  34.037  1.00  0.00     0.037 A 
BRANCH  47  61
ATOM     61  C   UNL A   1      39.699  33.661  36.525  1.00  0.00     0.064 A 
ATOM     62  C   UNL A   1      38.859  33.312  37.594  1.00  0.00     0.173 A 
ATOM     63  C   UNL A   1      40.359  34.898  36.590  1.00  0.00     0.173 A 
ATOM     64  F   UNL A   1      38.193  32.147  37.578  1.00  0.00    -0.203 F 
ATOM     65  C   UNL A   1      38.658  34.181  38.664  1.00  0.00     0.198 A 
ATOM     66  C   UNL A   1      40.183  35.749  37.679  1.00  0.00     0.198 A 
ATOM     67  F   UNL A   1      41.176  35.282  35.599  1.00  0.00    -0.203 F 
ATOM     68  F   UNL A   1      37.802  33.851  39.642  1.00  0.00    -0.200 F 
ATOM     69  C   UNL A   1      39.326  35.395  38.709  1.00  0.00     0.200 A 
ATOM     70  F   UNL A   1      40.840  36.916  37.728  1.00  0.00    -0.200 F 
ATOM     71  F   UNL A   1      39.134  36.228  39.742  1.00  0.00    -0.200 F 
ENDBRANCH  47  61
BRANCH  48  72
ATOM     72  C   UNL A   1      40.822  27.926  28.413  1.00  0.00     0.064 A 
ATOM     73  C   UNL A   1      41.628  28.333  27.340  1.00  0.00     0.173 A 
ATOM     74  C   UNL A   1      40.177  26.686  28.310  1.00  0.00     0.173 A 
ATOM     75  F   UNL A   1      42.252  29.520  27.383  1.00  0.00    -0.203 F 
ATOM     76  C   UNL A   1      41.758  27.546  26.197  1.00  0.00     0.198 A 
ATOM     77  C   UNL A   1      40.334  25.885  27.180  1.00  0.00     0.198 A 
ATOM     78  F   UNL A   1      39.401  26.246  29.311  1.00  0.00    -0.203 F 
ATOM     79  F   UNL A   1      42.490  27.985  25.164  1.00  0.00    -0.200 F 
ATOM     80  C   UNL A   1      41.115  26.320  26.120  1.00  0.00     0.200 A 
ATOM     81  F   UNL A   1      39.724  24.694  27.117  1.00  0.00    -0.200 F 
ATOM     82  F   UNL A   1      41.241  25.563  25.022  1.00  0.00    -0.200 F 
ENDBRANCH  48  72
BRANCH  60  83
ATOM     83  C   UNL A   1      43.885  28.069  34.663  1.00  0.00     0.064 A 
ATOM     84  C   UNL A   1      45.247  28.405  34.619  1.00  0.00     0.173 A 
ATOM     85  C   UNL A   1      43.525  26.882  35.320  1.00  0.00     0.173 A 
ATOM     86  F   UNL A   1      45.649  29.522  33.995  1.00  0.00    -0.203 F 
ATOM     87  C   UNL A   1      46.210  27.560  35.165  1.00  0.00     0.198 A 
ATOM     88  C   UNL A   1      44.487  26.060  35.898  1.00  0.00     0.198 A 
ATOM     89  F   UNL A   1      42.236  26.519  35.402  1.00  0.00    -0.203 F 
ATOM     90  F   UNL A   1      47.510  27.865  35.046  1.00  0.00    -0.200 F 
ATOM     91  C   UNL A   1      45.830  26.391  35.808  1.00  0.00     0.200 A 
ATOM     92  F   UNL A   1      44.115  24.940  36.534  1.00  0.00    -0.200 F 
ATOM     93  F   UNL A   1      46.758  25.579  36.330  1.00  0.00    -0.200 F 
ENDBRANCH  60  83
ENDBRANCH  34  35
ENDBRANCH  26  29
ENDBRANCH  24  25
ENDBRANCH  23  24
ENDBRANCH  22  23
ENDBRANCH   1  22
TORSDOF 15
ENDMDL
MODEL 2
REMARK VINA RESULT:     -11.4      2.150      8.245
REMARK SMILES O=C(COc1csc(C(=O)NCCCCNC(=O)c2ccc(-c3c4nc(c(-c5c(F)c(F)c(F)c(F)c5F)c5ccc([nH]5)c(-c5c(F)c(F)c(F)c(F)c5F)c5nc(c(-c6c(F)c(F)c(F)c(F)c6F)c6ccc3[nH]6)C=C5)C=C4)cc2)c1)Nc1nccs1
REMARK SMILES IDX 12 1 11 2 9 3 10 4 8 6 5 7 6 8 82 9 7 10 4 11 3 12 2 13 1 14
REMARK SMILES IDX 83 15 84 17 85 18 88 19 86 20 87 21 13 22 14 23 15 24 16 25
REMARK SMILES IDX 17 26 18 28 19 29 20 30 81 31 21 32 80 33 22 34 23 35 24 36
REMARK SMILES IDX 74 37 25 38 79 39 73 40 75 41 26 42 78 43 72 44 71 45 27 47
REMARK SMILES IDX 59 48 39 49 58 50 40 51 43 52 57 53 76 54 41 55 42 56 56 58
REMARK SMILES IDX 77 59 44 60 28 61 29 62 37 63 30 64 31 65 35 66 38 67 32 68
REMARK SMILES IDX 33 69 36 70 34 71 60 72 61 73 69 74 62 75 63 76 67 77 70 78
REMARK SMILES IDX 64 79 65 80 68 81 66 82 45 83 46 84 54 85 47 86 48 87 52 88
REMARK SMILES IDX 55 89 49 90 50 91 53 92 51 93
REMARK H PARENT 11 5 83 16 16 27 75 46 43 57
REMARK Flexibility Score: inf
ROOT
ATOM      1  C   UNL A   1      31.918  29.950  27.251  1.00  0.00     0.116 C 
ENDROOT
BRANCH   1   2
ATOM      2  N   UNL A   1      33.341  29.731  27.388  1.00  0.00    -0.351 N 
ATOM      3  C   UNL A   1      34.212  28.887  26.745  1.00  0.00     0.261 C 
ATOM      4  O   UNL A   1      35.377  28.955  27.151  1.00  0.00    -0.268 OA
ATOM      5  H   UNL A   1      33.765  30.295  28.074  1.00  0.00     0.163 HD
BRANCH   3   6
ATOM      6  C   UNL A   1      33.793  28.024  25.645  1.00  0.00     0.096 A 
ATOM      7  C   UNL A   1      33.240  27.079  23.578  1.00  0.00     0.131 A 
ATOM      8  C   UNL A   1      33.387  25.945  24.337  1.00  0.00     0.112 A 
ATOM      9  C   UNL A   1      33.399  28.266  24.340  1.00  0.00     0.072 A 
ATOM     10  S   UNL A   1      33.753  26.323  25.961  1.00  0.00    -0.135 S 
BRANCH   7  11
ATOM     11  O   UNL A   1      33.087  27.081  22.232  1.00  0.00    -0.483 OA
BRANCH  11  12
ATOM     12  C   UNL A   1      31.788  26.669  21.812  1.00  0.00     0.329 C 
BRANCH  12  13
ATOM     13  C   UNL A   1      30.655  27.528  22.377  1.00  0.00     0.264 C 
ATOM     14  O   UNL A   1      29.894  27.077  23.226  1.00  0.00    -0.271 OA
ATOM     15  N   UNL A   1      30.646  28.792  21.827  1.00  0.00    -0.299 N 
ATOM     16  H   UNL A   1      31.416  29.078  21.284  1.00  0.00     0.172 HD
BRANCH  15  17
ATOM     17  C   UNL A   1      29.612  29.662  22.005  1.00  0.00     0.189 A 
ATOM     18  N   UNL A   1      28.739  30.103  21.140  1.00  0.00    -0.229 NA
ATOM     19  S   UNL A   1      29.527  30.320  23.580  1.00  0.00    -0.105 S 
ATOM     20  C   UNL A   1      27.943  31.056  21.742  1.00  0.00     0.125 A 
ATOM     21  C   UNL A   1      28.237  31.328  23.062  1.00  0.00     0.088 A 
ENDBRANCH  15  17
ENDBRANCH  12  13
ENDBRANCH  11  12
ENDBRANCH   7  11
ENDBRANCH   3   6
ENDBRANCH   1   2
BRANCH   1  22
ATOM     22  C   UNL A   1      31.642  30.992  26.167  1.00  0.00     0.023 C 
BRANCH  22  23
ATOM     23  C   UNL A   1      31.404  32.401  26.722  1.00  0.00     0.023 C 
BRANCH  23  24
ATOM     24  C   UNL A   1      32.644  33.083  27.292  1.00  0.00     0.116 C 
BRANCH  24  25
ATOM     25  N   UNL A   1      32.399  34.450  27.721  1.00  0.00    -0.352 N 
ATOM     26  C   UNL A   1      32.994  35.153  28.739  1.00  0.00     0.251 C 
ATOM     27  H   UNL A   1      31.714  34.939  27.210  1.00  0.00     0.163 HD
ATOM     28  O   UNL A   1      32.581  36.262  29.049  1.00  0.00    -0.269 OA
BRANCH  26  29
ATOM     29  C   UNL A   1      34.115  34.542  29.483  1.00  0.00     0.039 A 
ATOM     30  C   UNL A   1      33.839  33.869  30.674  1.00  0.00     0.014 A 
ATOM     31  C   UNL A   1      35.425  34.624  29.003  1.00  0.00     0.014 A 
ATOM     32  C   UNL A   1      34.876  33.236  31.360  1.00  0.00     0.010 A 
ATOM     33  C   UNL A   1      36.441  33.922  29.643  1.00  0.00     0.010 A 
ATOM     34  C   UNL A   1      36.179  33.234  30.837  1.00  0.00    -0.014 A 
BRANCH  34  35
ATOM     35  C   UNL A   1      37.277  32.532  31.548  1.00  0.00     0.031 A 
ATOM     36  C   UNL A   1      37.988  31.381  30.892  1.00  0.00     0.074 A 
ATOM     37  C   UNL A   1      37.615  32.916  32.793  1.00  0.00     0.049 A 
ATOM     38  N   UNL A   1      38.987  30.661  31.340  1.00  0.00    -0.248 NA
ATOM     39  C   UNL A   1      37.498  30.965  29.569  1.00  0.00     0.031 C 
ATOM     40  C   UNL A   1      36.959  33.979  33.556  1.00  0.00     0.029 A 
ATOM     41  N   UNL A   1      38.600  32.463  33.632  1.00  0.00    -0.354 N 
ATOM     42  C   UNL A   1      39.239  29.712  30.358  1.00  0.00     0.074 A 
ATOM     43  C   UNL A   1      38.244  29.897  29.326  1.00  0.00     0.031 C 
ATOM     44  C   UNL A   1      37.588  34.126  34.733  1.00  0.00     0.029 A 
ATOM     45  C   UNL A   1      38.669  33.149  34.821  1.00  0.00     0.049 A 
ATOM     46  H   UNL A   1      39.202  31.718  33.405  1.00  0.00     0.167 HD
ATOM     47  C   UNL A   1      40.232  28.791  30.304  1.00  0.00     0.037 A 
ATOM     48  C   UNL A   1      39.515  33.010  35.857  1.00  0.00     0.037 A 
ATOM     49  C   UNL A   1      41.226  28.617  31.331  1.00  0.00     0.049 A 
ATOM     50  C   UNL A   1      40.607  31.977  35.774  1.00  0.00     0.074 A 
ATOM     51  C   UNL A   1      42.297  27.740  31.358  1.00  0.00     0.029 A 
ATOM     52  N   UNL A   1      41.268  29.335  32.518  1.00  0.00    -0.354 N 
ATOM     53  N   UNL A   1      40.884  31.135  34.807  1.00  0.00    -0.248 NA
ATOM     54  C   UNL A   1      41.516  31.888  36.925  1.00  0.00     0.031 C 
ATOM     55  C   UNL A   1      42.955  27.893  32.583  1.00  0.00     0.029 A 
ATOM     56  C   UNL A   1      42.335  28.909  33.292  1.00  0.00     0.049 A 
ATOM     57  H   UNL A   1      40.633  30.043  32.772  1.00  0.00     0.167 HD
ATOM     58  C   UNL A   1      42.019  30.445  35.215  1.00  0.00     0.074 A 
ATOM     59  C   UNL A   1      42.388  30.982  36.508  1.00  0.00     0.031 C 
ATOM     60  C   UNL A   1      42.694  29.457  34.576  1.00  0.00     0.037 A 
BRANCH  47  61
ATOM     61  C   UNL A   1      40.287  27.907  29.090  1.00  0.00     0.064 A 
ATOM     62  C   UNL A   1      41.020  28.267  27.948  1.00  0.00     0.173 A 
ATOM     63  C   UNL A   1      39.612  26.676  29.071  1.00  0.00     0.173 A 
ATOM     64  F   UNL A   1      41.673  29.439  27.907  1.00  0.00    -0.203 F 
ATOM     65  C   UNL A   1      41.045  27.449  26.821  1.00  0.00     0.198 A 
ATOM     66  C   UNL A   1      39.669  25.844  27.955  1.00  0.00     0.198 A 
ATOM     67  F   UNL A   1      38.899  26.279  30.135  1.00  0.00    -0.203 F 
ATOM     68  F   UNL A   1      41.700  27.846  25.721  1.00  0.00    -0.200 F 
ATOM     69  C   UNL A   1      40.375  26.235  26.828  1.00  0.00     0.200 A 
ATOM     70  F   UNL A   1      39.033  24.665  27.969  1.00  0.00    -0.200 F 
ATOM     71  F   UNL A   1      40.404  25.447  25.745  1.00  0.00    -0.200 F 
ENDBRANCH  47  61
BRANCH  48  72
ATOM     72  C   UNL A   1      39.399  33.902  37.041  1.00  0.00     0.064 A 
ATOM     73  C   UNL A   1      38.674  33.504  38.174  1.00  0.00     0.173 A 
ATOM     74  C   UNL A   1      39.996  35.170  37.063  1.00  0.00     0.173 A 
ATOM     75  F   UNL A   1      38.069  32.306  38.195  1.00  0.00    -0.203 F 
ATOM     76  C   UNL A   1      38.525  34.352  39.270  1.00  0.00     0.198 A 
ATOM     77  C   UNL A   1      39.874  36.004  38.172  1.00  0.00     0.198 A 
ATOM     78  F   UNL A   1      40.707  35.595  36.009  1.00  0.00    -0.203 F 
ATOM     79  F   UNL A   1      37.781  33.967  40.315  1.00  0.00    -0.200 F 
ATOM     80  C   UNL A   1      39.130  35.599  39.270  1.00  0.00     0.200 A 
ATOM     81  F   UNL A   1      40.474  37.202  38.175  1.00  0.00    -0.200 F 
ATOM     82  F   UNL A   1      38.989  36.414  40.324  1.00  0.00    -0.200 F 
ENDBRANCH  48  72
BRANCH  60  83
ATOM     83  C   UNL A   1      43.932  28.932  35.247  1.00  0.00     0.064 A 
ATOM     84  C   UNL A   1      43.888  27.864  36.158  1.00  0.00     0.173 A 
ATOM     85  C   UNL A   1      45.183  29.506  34.973  1.00  0.00     0.173 A 
ATOM     86  F   UNL A   1      42.717  27.286  36.465  1.00  0.00    -0.203 F 
ATOM     87  C   UNL A   1      45.041  27.426  36.803  1.00  0.00     0.198 A 
ATOM     88  C   UNL A   1      46.340  29.039  35.591  1.00  0.00     0.198 A 
ATOM     89  F   UNL A   1      45.285  30.521  34.102  1.00  0.00    -0.203 F 
ATOM     90  F   UNL A   1      44.963  26.454  37.723  1.00  0.00    -0.200 F 
ATOM     91  C   UNL A   1      46.266  28.010  36.516  1.00  0.00     0.200 A 
ATOM     92  F   UNL A   1      47.524  29.593  35.298  1.00  0.00    -0.200 F 
ATOM     93  F   UNL A   1      47.374  27.588  37.140  1.00  0.00    -0.200 F 
ENDBRANCH  60  83
ENDBRANCH  34  35
ENDBRANCH  26  29
ENDBRANCH  24  25
ENDBRANCH  23  24
ENDBRANCH  22  23
ENDBRANCH   1  22
TORSDOF 15
ENDMDL
MODEL 3
REMARK VINA RESULT:     -11.4      1.198      2.107
REMARK SMILES O=C(COc1csc(C(=O)NCCCCNC(=O)c2ccc(-c3c4nc(c(-c5c(F)c(F)c(F)c(F)c5F)c5ccc([nH]5)c(-c5c(F)c(F)c(F)c(F)c5F)c5nc(c(-c6c(F)c(F)c(F)c(F)c6F)c6ccc3[nH]6)C=C5)C=C4)cc2)c1)Nc1nccs1
REMARK SMILES IDX 12 1 11 2 9 3 10 4 8 6 5 7 6 8 82 9 7 10 4 11 3 12 2 13 1 14
REMARK SMILES IDX 83 15 84 17 85 18 88 19 86 20 87 21 13 22 14 23 15 24 16 25
REMARK SMILES IDX 17 26 18 28 19 29 20 30 81 31 21 32 80 33 22 34 23 35 24 36
REMARK SMILES IDX 74 37 25 38 79 39 73 40 75 41 26 42 78 43 72 44 71 45 27 47
REMARK SMILES IDX 59 48 39 49 58 50 40 51 43 52 57 53 76 54 41 55 42 56 56 58
REMARK SMILES IDX 77 59 44 60 28 61 29 62 37 63 30 64 31 65 35 66 38 67 32 68
REMARK SMILES IDX 33 69 36 70 34 71 60 72 61 73 69 74 62 75 63 76 67 77 70 78
REMARK SMILES IDX 64 79 65 80 68 81 66 82 45 83 46 84 54 85 47 86 48 87 52 88
REMARK SMILES IDX 55 89 49 90 50 91 53 92 51 93
REMARK H PARENT 11 5 83 16 16 27 75 46 43 57
REMARK Flexibility Score: inf
ROOT
ATOM      1  C   UNL A   1      32.254  30.085  25.672  1.00  0.00     0.116 C 
ENDROOT
BRANCH   1   2
ATOM      2  N   UNL A   1      31.348  29.546  24.682  1.00  0.00    -0.351 N 
ATOM      3  C   UNL A   1      31.007  28.259  24.346  1.00  0.00     0.261 C 
ATOM      4  O   UNL A   1      30.202  28.175  23.412  1.00  0.00    -0.268 OA
ATOM      5  H   UNL A   1      30.889  30.233  24.148  1.00  0.00     0.163 HD
BRANCH   3   6
ATOM      6  C   UNL A   1      31.522  27.101  25.069  1.00  0.00     0.096 A 
ATOM      7  C   UNL A   1      31.823  25.177  26.365  1.00  0.00     0.131 A 
ATOM      8  C   UNL A   1      32.988  25.172  25.640  1.00  0.00     0.112 A 
ATOM      9  C   UNL A   1      31.020  26.316  26.093  1.00  0.00     0.072 A 
ATOM     10  S   UNL A   1      33.088  26.527  24.607  1.00  0.00    -0.135 S 
BRANCH   7  11
ATOM     11  O   UNL A   1      31.412  24.157  27.157  1.00  0.00    -0.483 OA
BRANCH  11  12
ATOM     12  C   UNL A   1      32.246  23.004  27.069  1.00  0.00     0.329 C 
BRANCH  12  13
ATOM     13  C   UNL A   1      31.794  21.994  26.013  1.00  0.00     0.264 C 
ATOM     14  O   UNL A   1      30.605  21.859  25.746  1.00  0.00    -0.271 OA
ATOM     15  N   UNL A   1      32.862  21.329  25.448  1.00  0.00    -0.299 N 
ATOM     16  H   UNL A   1      33.773  21.655  25.631  1.00  0.00     0.172 HD
BRANCH  15  17
ATOM     17  C   UNL A   1      32.706  20.237  24.648  1.00  0.00     0.189 A 
ATOM     18  N   UNL A   1      32.388  20.172  23.383  1.00  0.00    -0.229 NA
ATOM     19  S   UNL A   1      32.869  18.749  25.472  1.00  0.00    -0.105 S 
ATOM     20  C   UNL A   1      32.234  18.850  23.020  1.00  0.00     0.125 A 
ATOM     21  C   UNL A   1      32.431  17.929  24.028  1.00  0.00     0.088 A 
ENDBRANCH  15  17
ENDBRANCH  12  13
ENDBRANCH  11  12
ENDBRANCH   7  11
ENDBRANCH   3   6
ENDBRANCH   1   2
BRANCH   1  22
ATOM     22  C   UNL A   1      31.473  30.763  26.797  1.00  0.00     0.023 C 
BRANCH  22  23
ATOM     23  C   UNL A   1      31.417  32.289  26.667  1.00  0.00     0.023 C 
BRANCH  23  24
ATOM     24  C   UNL A   1      32.670  33.019  27.142  1.00  0.00     0.116 C 
BRANCH  24  25
ATOM     25  N   UNL A   1      32.391  34.337  27.688  1.00  0.00    -0.352 N 
ATOM     26  C   UNL A   1      33.020  34.993  28.717  1.00  0.00     0.251 C 
ATOM     27  H   UNL A   1      31.653  34.827  27.260  1.00  0.00     0.163 HD
ATOM     28  O   UNL A   1      32.578  36.054  29.137  1.00  0.00    -0.269 OA
BRANCH  26  29
ATOM     29  C   UNL A   1      34.215  34.387  29.340  1.00  0.00     0.039 A 
ATOM     30  C   UNL A   1      34.042  33.546  30.440  1.00  0.00     0.014 A 
ATOM     31  C   UNL A   1      35.494  34.638  28.836  1.00  0.00     0.014 A 
ATOM     32  C   UNL A   1      35.152  32.918  31.006  1.00  0.00     0.010 A 
ATOM     33  C   UNL A   1      36.587  33.947  29.346  1.00  0.00     0.010 A 
ATOM     34  C   UNL A   1      36.429  33.092  30.448  1.00  0.00    -0.014 A 
BRANCH  34  35
ATOM     35  C   UNL A   1      37.606  32.397  31.026  1.00  0.00     0.031 A 
ATOM     36  C   UNL A   1      38.098  32.758  32.400  1.00  0.00     0.074 A 
ATOM     37  C   UNL A   1      38.246  31.458  30.302  1.00  0.00     0.049 A 
ATOM     38  N   UNL A   1      39.090  32.246  33.086  1.00  0.00    -0.248 NA
ATOM     39  C   UNL A   1      37.402  33.856  33.088  1.00  0.00     0.031 C 
ATOM     40  C   UNL A   1      37.899  31.064  28.936  1.00  0.00     0.029 A 
ATOM     41  N   UNL A   1      39.314  30.659  30.619  1.00  0.00    -0.354 N 
ATOM     42  C   UNL A   1      39.135  32.959  34.276  1.00  0.00     0.074 A 
ATOM     43  C   UNL A   1      38.122  33.987  34.191  1.00  0.00     0.031 C 
ATOM     44  C   UNL A   1      38.711  30.068  28.548  1.00  0.00     0.029 A 
ATOM     45  C   UNL A   1      39.653  29.776  29.624  1.00  0.00     0.049 A 
ATOM     46  H   UNL A   1      39.792  30.714  31.477  1.00  0.00     0.167 HD
ATOM     47  C   UNL A   1      39.925  32.755  35.358  1.00  0.00     0.037 A 
ATOM     48  C   UNL A   1      40.610  28.830  29.589  1.00  0.00     0.037 A 
ATOM     49  C   UNL A   1      40.926  31.723  35.441  1.00  0.00     0.049 A 
ATOM     50  C   UNL A   1      41.477  28.625  30.803  1.00  0.00     0.074 A 
ATOM     51  C   UNL A   1      41.755  31.405  36.503  1.00  0.00     0.029 A 
ATOM     52  N   UNL A   1      41.237  30.841  34.415  1.00  0.00    -0.354 N 
ATOM     53  N   UNL A   1      41.460  29.255  31.953  1.00  0.00    -0.248 NA
ATOM     54  C   UNL A   1      42.488  27.562  30.716  1.00  0.00     0.031 C 
ATOM     55  C   UNL A   1      42.600  30.366  36.102  1.00  0.00     0.029 A 
ATOM     56  C   UNL A   1      42.257  29.991  34.813  1.00  0.00     0.049 A 
ATOM     57  H   UNL A   1      40.798  30.823  33.534  1.00  0.00     0.167 HD
ATOM     58  C   UNL A   1      42.428  28.641  32.738  1.00  0.00     0.074 A 
ATOM     59  C   UNL A   1      42.998  27.578  31.938  1.00  0.00     0.031 C 
ATOM     60  C   UNL A   1      42.810  28.932  34.007  1.00  0.00     0.037 A 
BRANCH  47  61
ATOM     61  C   UNL A   1      39.730  33.667  36.537  1.00  0.00     0.064 A 
ATOM     62  C   UNL A   1      38.886  33.322  37.604  1.00  0.00     0.173 A 
ATOM     63  C   UNL A   1      40.407  34.894  36.610  1.00  0.00     0.173 A 
ATOM     64  F   UNL A   1      38.204  32.167  37.580  1.00  0.00    -0.203 F 
ATOM     65  C   UNL A   1      38.698  34.186  38.680  1.00  0.00     0.198 A 
ATOM     66  C   UNL A   1      40.244  35.740  37.704  1.00  0.00     0.198 A 
ATOM     67  F   UNL A   1      41.230  35.274  35.621  1.00  0.00    -0.203 F 
ATOM     68  F   UNL A   1      37.837  33.861  39.655  1.00  0.00    -0.200 F 
ATOM     69  C   UNL A   1      39.382  35.391  38.733  1.00  0.00     0.200 A 
ATOM     70  F   UNL A   1      40.916  36.897  37.761  1.00  0.00    -0.200 F 
ATOM     71  F   UNL A   1      39.202  36.219  39.771  1.00  0.00    -0.200 F 
ENDBRANCH  47  61
BRANCH  48  72
ATOM     72  C   UNL A   1      40.768  27.971  28.386  1.00  0.00     0.064 A 
ATOM     73  C   UNL A   1      40.134  26.722  28.305  1.00  0.00     0.173 A 
ATOM     74  C   UNL A   1      41.562  28.370  27.302  1.00  0.00     0.173 A 
ATOM     75  F   UNL A   1      39.377  26.288  29.324  1.00  0.00    -0.203 F 
ATOM     76  C   UNL A   1      40.312  25.893  27.199  1.00  0.00     0.198 A 
ATOM     77  C   UNL A   1      41.714  27.554  26.182  1.00  0.00     0.198 A 
ATOM     78  F   UNL A   1      42.184  29.557  27.326  1.00  0.00    -0.203 F 
ATOM     79  F   UNL A   1      39.739  24.683  27.172  1.00  0.00    -0.200 F 
ATOM     80  C   UNL A   1      41.098  26.312  26.136  1.00  0.00     0.200 A 
ATOM     81  F   UNL A   1      42.460  27.969  25.150  1.00  0.00    -0.200 F 
ATOM     82  F   UNL A   1      41.268  25.516  25.072  1.00  0.00    -0.200 F 
ENDBRANCH  48  72
BRANCH  60  83
ATOM     83  C   UNL A   1      43.859  28.050  34.624  1.00  0.00     0.064 A 
ATOM     84  C   UNL A   1      43.532  26.855  35.283  1.00  0.00     0.173 A 
ATOM     85  C   UNL A   1      45.215  28.406  34.551  1.00  0.00     0.173 A 
ATOM     86  F   UNL A   1      42.251  26.472  35.392  1.00  0.00    -0.203 F 
ATOM     87  C   UNL A   1      44.516  26.077  35.887  1.00  0.00     0.198 A 
ATOM     88  C   UNL A   1      46.200  27.607  35.122  1.00  0.00     0.198 A 
ATOM     89  F   UNL A   1      45.586  29.532  33.922  1.00  0.00    -0.203 F 
ATOM     90  F   UNL A   1      44.172  24.979  36.574  1.00  0.00    -0.200 F 
ATOM     91  C   UNL A   1      45.849  26.451  35.803  1.00  0.00     0.200 A 
ATOM     92  F   UNL A   1      47.489  27.960  35.023  1.00  0.00    -0.200 F 
ATOM     93  F   UNL A   1      46.795  25.703  36.387  1.00  0.00    -0.200 F 
ENDBRANCH  60  83
ENDBRANCH  34  35
ENDBRANCH  26  29
ENDBRANCH  24  25
ENDBRANCH  23  24
ENDBRANCH  22  23
ENDBRANCH   1  22
TORSDOF 15
ENDMDL
