MODEL 1
REMARK VINA RESULT:     -11.0      0.000      0.000
REMARK SMILES CSCc1ccc(C(=O)N[C@H]2C=C[C@@H](C(=O)NCCCCNC(=O)c3ccc(-c4c5nc(c(-c6c(F)c(F)c(F)c(F)c6F)c6ccc([nH]6)c(-c6c(F)c(F)c(F)c(F)c6F)c6nc(c(-c7c(F)c(F)c(F)c(F)c7F)c7ccc4[nH]7)C=C6)C=C5)cc3)C2)o1
REMARK SMILES IDX 18 1 17 2 15 3 16 4 14 6 11 7 12 8 88 9 13 10 10 11 8 12
REMARK SMILES IDX 9 13 7 15 4 16 5 17 89 18 6 19 3 20 2 21 1 22 19 23 20 24
REMARK SMILES IDX 21 25 22 26 23 27 24 29 25 30 26 31 87 32 27 33 86 34 28 35
REMARK SMILES IDX 29 36 30 37 80 38 31 39 85 40 79 41 81 42 32 43 84 44 78 45
REMARK SMILES IDX 77 46 33 48 65 49 45 50 64 51 46 52 49 53 63 54 82 55 47 56
REMARK SMILES IDX 48 57 62 59 83 60 50 61 34 62 35 63 43 64 36 65 37 66 41 67
REMARK SMILES IDX 44 68 38 69 39 70 42 71 40 72 66 73 67 74 75 75 68 76 69 77
REMARK SMILES IDX 73 78 76 79 70 80 71 81 74 82 72 83 51 84 52 85 60 86 53 87
REMARK SMILES IDX 54 88 58 89 61 90 55 91 56 92 59 93 57 94
REMARK H PARENT 17 5 10 14 22 28 81 47 49 58
REMARK Flexibility Score: inf
ROOT
ATOM      1  C   UNL A   1      34.354  31.860  28.536  1.00  0.00     0.116 C 
ENDROOT
BRANCH   1   2
ATOM      2  N   UNL A   1      33.226  31.838  27.623  1.00  0.00    -0.356 N 
ATOM      3  C   UNL A   1      32.651  30.803  26.952  1.00  0.00     0.227 C 
ATOM      4  O   UNL A   1      31.720  31.069  26.185  1.00  0.00    -0.274 OA
ATOM      5  H   UNL A   1      32.808  32.715  27.465  1.00  0.00     0.163 HD
BRANCH   3   6
ATOM      6  C   UNL A   1      33.086  29.358  27.164  1.00  0.00     0.103 C 
ATOM      7  C   UNL A   1      32.562  27.056  26.609  1.00  0.00     0.106 C 
ATOM      8  C   UNL A   1      33.556  27.639  25.652  1.00  0.00    -0.006 C 
ATOM      9  C   UNL A   1      31.965  28.312  27.263  1.00  0.00     0.047 C 
ATOM     10  C   UNL A   1      33.903  28.880  26.001  1.00  0.00    -0.016 C 
BRANCH   7  11
ATOM     11  N   UNL A   1      31.609  26.215  25.933  1.00  0.00    -0.343 N 
ATOM     12  C   UNL A   1      31.651  24.848  25.725  1.00  0.00     0.287 C 
ATOM     13  O   UNL A   1      30.659  24.346  25.195  1.00  0.00    -0.266 OA
ATOM     14  H   UNL A   1      30.819  26.676  25.569  1.00  0.00     0.164 HD
BRANCH  12  15
ATOM     15  C   UNL A   1      32.843  24.086  26.069  1.00  0.00     0.191 A 
ATOM     16  C   UNL A   1      34.961  23.498  25.769  1.00  0.00     0.114 A 
ATOM     17  C   UNL A   1      34.563  22.924  26.955  1.00  0.00     0.047 A 
ATOM     18  O   UNL A   1      33.926  24.206  25.233  1.00  0.00    -0.455 OA
ATOM     19  C   UNL A   1      33.195  23.246  27.113  1.00  0.00     0.056 A 
BRANCH  16  20
ATOM     20  C   UNL A   1      36.272  23.476  25.063  1.00  0.00     0.144 C 
BRANCH  20  21
ATOM     21  S   UNL A   1      37.754  23.681  26.088  1.00  0.00    -0.157 SA
ATOM     22  C   UNL A   1      38.536  22.072  25.817  1.00  0.00     0.085 C 
ENDBRANCH  20  21
ENDBRANCH  16  20
ENDBRANCH  12  15
ENDBRANCH   7  11
ENDBRANCH   3   6
ENDBRANCH   1   2
BRANCH   1  23
ATOM     23  C   UNL A   1      34.564  33.260  29.101  1.00  0.00     0.023 C 
BRANCH  23  24
ATOM     24  C   UNL A   1      33.363  34.185  28.910  1.00  0.00     0.023 C 
BRANCH  24  25
ATOM     25  C   UNL A   1      33.592  35.617  29.372  1.00  0.00     0.116 C 
BRANCH  25  26
ATOM     26  N   UNL A   1      32.631  36.050  30.376  1.00  0.00    -0.352 N 
ATOM     27  C   UNL A   1      32.625  35.783  31.726  1.00  0.00     0.251 C 
ATOM     28  H   UNL A   1      31.889  36.606  30.046  1.00  0.00     0.163 HD
ATOM     29  O   UNL A   1      31.683  36.096  32.429  1.00  0.00    -0.269 OA
BRANCH  27  30
ATOM     30  C   UNL A   1      33.785  35.071  32.301  1.00  0.00     0.039 A 
ATOM     31  C   UNL A   1      33.612  33.770  32.776  1.00  0.00     0.014 A 
ATOM     32  C   UNL A   1      35.045  35.673  32.297  1.00  0.00     0.014 A 
ATOM     33  C   UNL A   1      34.727  33.041  33.189  1.00  0.00     0.010 A 
ATOM     34  C   UNL A   1      36.162  34.918  32.631  1.00  0.00     0.010 A 
ATOM     35  C   UNL A   1      36.013  33.597  33.084  1.00  0.00    -0.014 A 
BRANCH  35  36
ATOM     36  C   UNL A   1      37.223  32.829  33.461  1.00  0.00     0.031 A 
ATOM     37  C   UNL A   1      37.922  33.137  34.754  1.00  0.00     0.074 A 
ATOM     38  C   UNL A   1      37.740  31.927  32.607  1.00  0.00     0.049 A 
ATOM     39  N   UNL A   1      39.053  32.670  35.218  1.00  0.00    -0.248 NA
ATOM     40  C   UNL A   1      37.280  34.134  35.626  1.00  0.00     0.031 C 
ATOM     41  C   UNL A   1      37.180  31.580  31.300  1.00  0.00     0.029 A 
ATOM     42  N   UNL A   1      38.865  31.147  32.705  1.00  0.00    -0.354 N 
ATOM     43  C   UNL A   1      39.267  33.333  36.420  1.00  0.00     0.074 A 
ATOM     44  C   UNL A   1      38.183  34.276  36.583  1.00  0.00     0.031 C 
ATOM     45  C   UNL A   1      37.955  30.646  30.725  1.00  0.00     0.029 A 
ATOM     46  C   UNL A   1      39.084  30.357  31.604  1.00  0.00     0.049 A 
ATOM     47  H   UNL A   1      39.458  31.154  33.490  1.00  0.00     0.167 HD
ATOM     48  C   UNL A   1      40.264  33.151  37.317  1.00  0.00     0.037 A 
ATOM     49  C   UNL A   1      40.089  29.503  31.333  1.00  0.00     0.037 A 
ATOM     50  C   UNL A   1      41.322  32.190  37.162  1.00  0.00     0.049 A 
ATOM     51  C   UNL A   1      41.181  29.309  32.350  1.00  0.00     0.074 A 
ATOM     52  C   UNL A   1      42.345  31.882  38.040  1.00  0.00     0.029 A 
ATOM     53  N   UNL A   1      41.489  31.377  36.049  1.00  0.00    -0.354 N 
ATOM     54  N   UNL A   1      41.341  29.892  33.513  1.00  0.00    -0.248 NA
ATOM     55  C   UNL A   1      42.228  28.332  32.019  1.00  0.00     0.031 C 
ATOM     56  C   UNL A   1      43.157  30.913  37.441  1.00  0.00     0.029 A 
ATOM     57  C   UNL A   1      42.611  30.580  36.210  1.00  0.00     0.049 A 
ATOM     58  H   UNL A   1      40.899  31.368  35.261  1.00  0.00     0.167 HD
ATOM     59  C   UNL A   1      42.486  29.336  34.066  1.00  0.00     0.074 A 
ATOM     60  C   UNL A   1      42.976  28.359  33.114  1.00  0.00     0.031 C 
ATOM     61  C   UNL A   1      43.077  29.607  35.255  1.00  0.00     0.037 A 
BRANCH  48  62
ATOM     62  C   UNL A   1      40.249  34.016  38.544  1.00  0.00     0.064 A 
ATOM     63  C   UNL A   1      39.541  33.647  39.698  1.00  0.00     0.173 A 
ATOM     64  C   UNL A   1      40.954  35.229  38.569  1.00  0.00     0.173 A 
ATOM     65  F   UNL A   1      38.839  32.504  39.722  1.00  0.00    -0.203 F 
ATOM     66  C   UNL A   1      39.503  34.478  40.815  1.00  0.00     0.198 A 
ATOM     67  C   UNL A   1      40.943  36.042  39.700  1.00  0.00     0.198 A 
ATOM     68  F   UNL A   1      41.652  35.629  37.496  1.00  0.00    -0.203 F 
ATOM     69  F   UNL A   1      38.765  34.134  41.879  1.00  0.00    -0.200 F 
ATOM     70  C   UNL A   1      40.208  35.672  40.817  1.00  0.00     0.200 A 
ATOM     71  F   UNL A   1      41.634  37.189  39.706  1.00  0.00    -0.200 F 
ATOM     72  F   UNL A   1      40.171  36.471  41.891  1.00  0.00    -0.200 F 
ENDBRANCH  48  62
BRANCH  49  73
ATOM     73  C   UNL A   1      40.088  28.746  30.054  1.00  0.00     0.064 A 
ATOM     74  C   UNL A   1      39.480  27.486  29.966  1.00  0.00     0.173 A 
ATOM     75  C   UNL A   1      40.674  29.271  28.894  1.00  0.00     0.173 A 
ATOM     76  F   UNL A   1      38.922  26.935  31.054  1.00  0.00    -0.203 F 
ATOM     77  C   UNL A   1      39.471  26.773  28.769  1.00  0.00     0.198 A 
ATOM     78  C   UNL A   1      40.642  28.568  27.690  1.00  0.00     0.198 A 
ATOM     79  F   UNL A   1      41.262  30.476  28.924  1.00  0.00    -0.203 F 
ATOM     80  F   UNL A   1      38.915  25.555  28.722  1.00  0.00    -0.200 F 
ATOM     81  C   UNL A   1      40.046  27.318  27.630  1.00  0.00     0.200 A 
ATOM     82  F   UNL A   1      41.185  29.105  26.589  1.00  0.00    -0.200 F 
ATOM     83  F   UNL A   1      40.029  26.636  26.477  1.00  0.00    -0.200 F 
ENDBRANCH  49  73
BRANCH  61  84
ATOM     84  C   UNL A   1      44.297  28.810  35.617  1.00  0.00     0.064 A 
ATOM     85  C   UNL A   1      44.206  27.600  36.318  1.00  0.00     0.173 A 
ATOM     86  C   UNL A   1      45.568  29.242  35.206  1.00  0.00     0.173 A 
ATOM     87  F   UNL A   1      43.015  27.154  36.744  1.00  0.00    -0.203 F 
ATOM     88  C   UNL A   1      45.348  26.859  36.613  1.00  0.00     0.198 A 
ATOM     89  C   UNL A   1      46.703  28.483  35.479  1.00  0.00     0.198 A 
ATOM     90  F   UNL A   1      45.707  30.389  34.527  1.00  0.00    -0.203 F 
ATOM     91  F   UNL A   1      45.243  25.726  37.321  1.00  0.00    -0.200 F 
ATOM     92  C   UNL A   1      46.593  27.296  36.186  1.00  0.00     0.200 A 
ATOM     93  F   UNL A   1      47.904  28.900  35.052  1.00  0.00    -0.200 F 
ATOM     94  F   UNL A   1      47.689  26.575  36.462  1.00  0.00    -0.200 F 
ENDBRANCH  61  84
ENDBRANCH  35  36
ENDBRANCH  27  30
ENDBRANCH  25  26
ENDBRANCH  24  25
ENDBRANCH  23  24
ENDBRANCH   1  23
TORSDOF 15
ENDMDL
MODEL 2
REMARK VINA RESULT:     -10.9      2.245      7.827
REMARK SMILES CSCc1ccc(C(=O)N[C@H]2C=C[C@@H](C(=O)NCCCCNC(=O)c3ccc(-c4c5nc(c(-c6c(F)c(F)c(F)c(F)c6F)c6ccc([nH]6)c(-c6c(F)c(F)c(F)c(F)c6F)c6nc(c(-c7c(F)c(F)c(F)c(F)c7F)c7ccc4[nH]7)C=C6)C=C5)cc3)C2)o1
REMARK SMILES IDX 18 1 17 2 15 3 16 4 14 6 11 7 12 8 88 9 13 10 10 11 8 12
REMARK SMILES IDX 9 13 7 15 4 16 5 17 89 18 6 19 3 20 2 21 1 22 19 23 20 24
REMARK SMILES IDX 21 25 22 26 23 27 24 29 25 30 26 31 87 32 27 33 86 34 28 35
REMARK SMILES IDX 29 36 30 37 80 38 31 39 85 40 79 41 81 42 32 43 84 44 78 45
REMARK SMILES IDX 77 46 33 48 65 49 45 50 64 51 46 52 49 53 63 54 82 55 47 56
REMARK SMILES IDX 48 57 62 59 83 60 50 61 34 62 35 63 43 64 36 65 37 66 41 67
REMARK SMILES IDX 44 68 38 69 39 70 42 71 40 72 66 73 67 74 75 75 68 76 69 77
REMARK SMILES IDX 73 78 76 79 70 80 71 81 74 82 72 83 51 84 52 85 60 86 53 87
REMARK SMILES IDX 54 88 58 89 61 90 55 91 56 92 59 93 57 94
REMARK H PARENT 17 5 10 14 22 28 81 47 49 58
REMARK Flexibility Score: inf
ROOT
ATOM      1  C   UNL A   1      31.115  29.715  24.974  1.00  0.00     0.116 C 
ENDROOT
BRANCH   1   2
ATOM      2  N   UNL A   1      32.266  29.693  24.092  1.00  0.00    -0.356 N 
ATOM      3  C   UNL A   1      33.113  28.679  23.766  1.00  0.00     0.227 C 
ATOM      4  O   UNL A   1      34.060  28.944  23.020  1.00  0.00    -0.274 OA
ATOM      5  H   UNL A   1      32.467  30.553  23.656  1.00  0.00     0.163 HD
BRANCH   3   6
ATOM      6  C   UNL A   1      32.890  27.251  24.249  1.00  0.00     0.103 C 
ATOM      7  C   UNL A   1      33.960  25.094  24.540  1.00  0.00     0.106 C 
ATOM      8  C   UNL A   1      34.059  25.927  25.781  1.00  0.00    -0.006 C 
ATOM      9  C   UNL A   1      33.615  26.142  23.471  1.00  0.00     0.047 C 
ATOM     10  C   UNL A   1      33.403  27.083  25.648  1.00  0.00    -0.016 C 
BRANCH   7  11
ATOM     11  N   UNL A   1      35.176  24.361  24.299  1.00  0.00    -0.343 N 
ATOM     12  C   UNL A   1      35.333  23.050  23.887  1.00  0.00     0.287 C 
ATOM     13  O   UNL A   1      36.487  22.684  23.661  1.00  0.00    -0.266 OA
ATOM     14  H   UNL A   1      36.011  24.863  24.447  1.00  0.00     0.164 HD
BRANCH  12  15
ATOM     15  C   UNL A   1      34.182  22.163  23.796  1.00  0.00     0.191 A 
ATOM     16  C   UNL A   1      33.053  20.337  24.353  1.00  0.00     0.114 A 
ATOM     17  C   UNL A   1      32.202  21.101  23.586  1.00  0.00     0.047 A 
ATOM     18  O   UNL A   1      34.249  20.978  24.486  1.00  0.00    -0.455 OA
ATOM     19  C   UNL A   1      32.944  22.233  23.178  1.00  0.00     0.056 A 
BRANCH  16  20
ATOM     20  C   UNL A   1      32.850  19.023  25.025  1.00  0.00     0.144 C 
BRANCH  20  21
ATOM     21  S   UNL A   1      33.549  17.568  24.199  1.00  0.00    -0.157 SA
ATOM     22  C   UNL A   1      33.467  16.378  25.560  1.00  0.00     0.085 C 
ENDBRANCH  20  21
ENDBRANCH  16  20
ENDBRANCH  12  15
ENDBRANCH   7  11
ENDBRANCH   3   6
ENDBRANCH   1   2
BRANCH   1  23
ATOM     23  C   UNL A   1      31.499  30.251  26.349  1.00  0.00     0.023 C 
BRANCH  23  24
ATOM     24  C   UNL A   1      31.271  31.753  26.507  1.00  0.00     0.023 C 
BRANCH  24  25
ATOM     25  C   UNL A   1      32.542  32.564  26.715  1.00  0.00     0.116 C 
BRANCH  25  26
ATOM     26  N   UNL A   1      32.293  33.865  27.320  1.00  0.00    -0.352 N 
ATOM     27  C   UNL A   1      32.970  34.473  28.353  1.00  0.00     0.251 C 
ATOM     28  H   UNL A   1      31.542  34.377  26.940  1.00  0.00     0.163 HD
ATOM     29  O   UNL A   1      32.569  35.506  28.851  1.00  0.00    -0.269 OA
BRANCH  27  30
ATOM     30  C   UNL A   1      34.189  33.814  28.868  1.00  0.00     0.039 A 
ATOM     31  C   UNL A   1      35.437  34.331  28.516  1.00  0.00     0.014 A 
ATOM     32  C   UNL A   1      34.080  32.737  29.750  1.00  0.00     0.014 A 
ATOM     33  C   UNL A   1      36.585  33.804  29.108  1.00  0.00     0.010 A 
ATOM     34  C   UNL A   1      35.216  32.271  30.400  1.00  0.00     0.010 A 
ATOM     35  C   UNL A   1      36.479  32.797  30.081  1.00  0.00    -0.014 A 
BRANCH  35  36
ATOM     36  C   UNL A   1      37.674  32.256  30.771  1.00  0.00     0.031 A 
ATOM     37  C   UNL A   1      38.478  31.170  30.116  1.00  0.00     0.074 A 
ATOM     38  C   UNL A   1      37.981  32.673  32.013  1.00  0.00     0.049 A 
ATOM     39  N   UNL A   1      39.482  30.479  30.591  1.00  0.00    -0.248 NA
ATOM     40  C   UNL A   1      38.071  30.782  28.756  1.00  0.00     0.031 C 
ATOM     41  C   UNL A   1      37.244  33.685  32.772  1.00  0.00     0.029 A 
ATOM     42  N   UNL A   1      38.985  32.285  32.863  1.00  0.00    -0.354 N 
ATOM     43  C   UNL A   1      39.810  29.563  29.600  1.00  0.00     0.074 A 
ATOM     44  C   UNL A   1      38.860  29.745  28.524  1.00  0.00     0.031 C 
ATOM     45  C   UNL A   1      37.831  33.848  33.969  1.00  0.00     0.029 A 
ATOM     46  C   UNL A   1      38.959  32.928  34.076  1.00  0.00     0.049 A 
ATOM     47  H   UNL A   1      39.661  31.610  32.626  1.00  0.00     0.167 HD
ATOM     48  C   UNL A   1      40.827  28.670  29.579  1.00  0.00     0.037 A 
ATOM     49  C   UNL A   1      39.752  32.783  35.154  1.00  0.00     0.037 A 
ATOM     50  C   UNL A   1      41.785  28.516  30.639  1.00  0.00     0.049 A 
ATOM     51  C   UNL A   1      40.883  31.792  35.104  1.00  0.00     0.074 A 
ATOM     52  C   UNL A   1      42.890  27.686  30.692  1.00  0.00     0.029 A 
ATOM     53  N   UNL A   1      41.751  29.215  31.838  1.00  0.00    -0.354 N 
ATOM     54  N   UNL A   1      41.226  30.975  34.137  1.00  0.00    -0.248 NA
ATOM     55  C   UNL A   1      41.743  31.708  36.293  1.00  0.00     0.031 C 
ATOM     56  C   UNL A   1      43.500  27.851  31.939  1.00  0.00     0.029 A 
ATOM     57  C   UNL A   1      42.805  28.821  32.645  1.00  0.00     0.049 A 
ATOM     58  H   UNL A   1      41.076  29.890  32.080  1.00  0.00     0.167 HD
ATOM     59  C   UNL A   1      42.353  30.302  34.586  1.00  0.00     0.074 A 
ATOM     60  C   UNL A   1      42.645  30.813  35.910  1.00  0.00     0.031 C 
ATOM     61  C   UNL A   1      43.084  29.349  33.957  1.00  0.00     0.037 A 
BRANCH  48  62
ATOM     62  C   UNL A   1      40.946  27.794  28.366  1.00  0.00     0.064 A 
ATOM     63  C   UNL A   1      40.303  26.548  28.289  1.00  0.00     0.173 A 
ATOM     64  C   UNL A   1      41.709  28.204  27.263  1.00  0.00     0.173 A 
ATOM     65  F   UNL A   1      39.572  26.102  29.322  1.00  0.00    -0.203 F 
ATOM     66  C   UNL A   1      40.455  25.728  27.174  1.00  0.00     0.198 A 
ATOM     67  C   UNL A   1      41.831  27.397  26.134  1.00  0.00     0.198 A 
ATOM     68  F   UNL A   1      42.341  29.388  27.279  1.00  0.00    -0.203 F 
ATOM     69  F   UNL A   1      39.886  24.515  27.154  1.00  0.00    -0.200 F 
ATOM     70  C   UNL A   1      41.213  26.156  26.095  1.00  0.00     0.200 A 
ATOM     71  F   UNL A   1      42.554  27.816  25.087  1.00  0.00    -0.200 F 
ATOM     72  F   UNL A   1      41.360  25.366  25.023  1.00  0.00    -0.200 F 
ENDBRANCH  48  62
BRANCH  49  73
ATOM     73  C   UNL A   1      39.519  33.621  36.359  1.00  0.00     0.064 A 
ATOM     74  C   UNL A   1      38.751  33.142  37.429  1.00  0.00     0.173 A 
ATOM     75  C   UNL A   1      40.073  34.904  36.474  1.00  0.00     0.173 A 
ATOM     76  F   UNL A   1      38.186  31.928  37.356  1.00  0.00    -0.203 F 
ATOM     77  C   UNL A   1      38.533  33.921  38.563  1.00  0.00     0.198 A 
ATOM     78  C   UNL A   1      39.875  35.672  37.620  1.00  0.00     0.198 A 
ATOM     79  F   UNL A   1      40.822  35.405  35.481  1.00  0.00    -0.203 F 
ATOM     80  F   UNL A   1      37.764  33.454  39.556  1.00  0.00    -0.200 F 
ATOM     81  C   UNL A   1      39.101  35.183  38.661  1.00  0.00     0.200 A 
ATOM     82  F   UNL A   1      40.439  36.884  37.717  1.00  0.00    -0.200 F 
ATOM     83  F   UNL A   1      38.898  35.927  39.756  1.00  0.00    -0.200 F 
ENDBRANCH  49  73
BRANCH  61  84
ATOM     84  C   UNL A   1      44.293  28.822  34.674  1.00  0.00     0.064 A 
ATOM     85  C   UNL A   1      44.228  27.681  35.487  1.00  0.00     0.173 A 
ATOM     86  C   UNL A   1      45.542  29.437  34.497  1.00  0.00     0.173 A 
ATOM     87  F   UNL A   1      43.055  27.067  35.697  1.00  0.00    -0.203 F 
ATOM     88  C   UNL A   1      45.369  27.188  36.115  1.00  0.00     0.198 A 
ATOM     89  C   UNL A   1      46.685  28.923  35.105  1.00  0.00     0.198 A 
ATOM     90  F   UNL A   1      45.657  30.526  33.724  1.00  0.00    -0.203 F 
ATOM     91  F   UNL A   1      45.278  26.121  36.922  1.00  0.00    -0.200 F 
ATOM     92  C   UNL A   1      46.597  27.803  35.917  1.00  0.00     0.200 A 
ATOM     93  F   UNL A   1      47.872  29.511  34.899  1.00  0.00    -0.200 F 
ATOM     94  F   UNL A   1      47.695  27.320  36.514  1.00  0.00    -0.200 F 
ENDBRANCH  61  84
ENDBRANCH  35  36
ENDBRANCH  27  30
ENDBRANCH  25  26
ENDBRANCH  24  25
ENDBRANCH  23  24
ENDBRANCH   1  23
TORSDOF 15
ENDMDL
MODEL 3
REMARK VINA RESULT:     -10.9      6.648     12.493
REMARK SMILES CSCc1ccc(C(=O)N[C@H]2C=C[C@@H](C(=O)NCCCCNC(=O)c3ccc(-c4c5nc(c(-c6c(F)c(F)c(F)c(F)c6F)c6ccc([nH]6)c(-c6c(F)c(F)c(F)c(F)c6F)c6nc(c(-c7c(F)c(F)c(F)c(F)c7F)c7ccc4[nH]7)C=C6)C=C5)cc3)C2)o1
REMARK SMILES IDX 18 1 17 2 15 3 16 4 14 6 11 7 12 8 88 9 13 10 10 11 8 12
REMARK SMILES IDX 9 13 7 15 4 16 5 17 89 18 6 19 3 20 2 21 1 22 19 23 20 24
REMARK SMILES IDX 21 25 22 26 23 27 24 29 25 30 26 31 87 32 27 33 86 34 28 35
REMARK SMILES IDX 29 36 30 37 80 38 31 39 85 40 79 41 81 42 32 43 84 44 78 45
REMARK SMILES IDX 77 46 33 48 65 49 45 50 64 51 46 52 49 53 63 54 82 55 47 56
REMARK SMILES IDX 48 57 62 59 83 60 50 61 34 62 35 63 43 64 36 65 37 66 41 67
REMARK SMILES IDX 44 68 38 69 39 70 42 71 40 72 66 73 67 74 75 75 68 76 69 77
REMARK SMILES IDX 73 78 76 79 70 80 71 81 74 82 72 83 51 84 52 85 60 86 53 87
REMARK SMILES IDX 54 88 58 89 61 90 55 91 56 92 59 93 57 94
REMARK H PARENT 17 5 10 14 22 28 81 47 49 58
REMARK Flexibility Score: inf
ROOT
ATOM      1  C   UNL A   1      39.858  22.248  26.287  1.00  0.00     0.116 C 
ENDROOT
BRANCH   1   2
ATOM      2  N   UNL A   1      38.890  21.269  25.830  1.00  0.00    -0.356 N 
ATOM      3  C   UNL A   1      37.676  21.433  25.239  1.00  0.00     0.227 C 
ATOM      4  O   UNL A   1      37.018  20.417  24.993  1.00  0.00    -0.274 OA
ATOM      5  H   UNL A   1      39.156  20.331  25.970  1.00  0.00     0.163 HD
BRANCH   3   6
ATOM      6  C   UNL A   1      37.150  22.806  24.835  1.00  0.00     0.103 C 
ATOM      7  C   UNL A   1      35.208  23.986  23.991  1.00  0.00     0.106 C 
ATOM      8  C   UNL A   1      35.247  23.995  25.488  1.00  0.00    -0.006 C 
ATOM      9  C   UNL A   1      36.178  22.846  23.647  1.00  0.00     0.047 C 
ATOM     10  C   UNL A   1      36.356  23.413  25.952  1.00  0.00    -0.016 C 
BRANCH   7  11
ATOM     11  N   UNL A   1      33.866  23.809  23.500  1.00  0.00    -0.343 N 
ATOM     12  C   UNL A   1      32.890  24.762  23.274  1.00  0.00     0.287 C 
ATOM     13  O   UNL A   1      31.846  24.362  22.758  1.00  0.00    -0.266 OA
ATOM     14  H   UNL A   1      33.607  22.880  23.297  1.00  0.00     0.164 HD
BRANCH  12  15
ATOM     15  C   UNL A   1      33.097  26.142  23.690  1.00  0.00     0.191 A 
ATOM     16  C   UNL A   1      33.197  27.744  25.221  1.00  0.00     0.114 A 
ATOM     17  C   UNL A   1      33.658  28.298  24.048  1.00  0.00     0.047 A 
ATOM     18  O   UNL A   1      32.862  26.439  25.010  1.00  0.00    -0.455 OA
ATOM     19  C   UNL A   1      33.533  27.296  23.059  1.00  0.00     0.056 A 
BRANCH  16  20
ATOM     20  C   UNL A   1      33.053  28.322  26.586  1.00  0.00     0.144 C 
BRANCH  20  21
ATOM     21  S   UNL A   1      32.829  30.119  26.691  1.00  0.00    -0.157 SA
ATOM     22  C   UNL A   1      34.331  30.559  27.599  1.00  0.00     0.085 C 
ENDBRANCH  20  21
ENDBRANCH  16  20
ENDBRANCH  12  15
ENDBRANCH   7  11
ENDBRANCH   3   6
ENDBRANCH   1   2
BRANCH   1  23
ATOM     23  C   UNL A   1      41.185  21.578  26.625  1.00  0.00     0.023 C 
BRANCH  23  24
ATOM     24  C   UNL A   1      41.312  20.157  26.080  1.00  0.00     0.023 C 
BRANCH  24  25
ATOM     25  C   UNL A   1      42.536  19.400  26.574  1.00  0.00     0.116 C 
BRANCH  25  26
ATOM     26  N   UNL A   1      43.323  18.825  25.493  1.00  0.00    -0.352 N 
ATOM     27  C   UNL A   1      44.224  19.454  24.662  1.00  0.00     0.251 C 
ATOM     28  H   UNL A   1      43.196  17.862  25.336  1.00  0.00     0.163 HD
ATOM     29  O   UNL A   1      44.712  18.879  23.709  1.00  0.00    -0.269 OA
BRANCH  27  30
ATOM     30  C   UNL A   1      44.559  20.866  24.940  1.00  0.00     0.039 A 
ATOM     31  C   UNL A   1      44.155  21.847  24.033  1.00  0.00     0.014 A 
ATOM     32  C   UNL A   1      45.206  21.209  26.129  1.00  0.00     0.014 A 
ATOM     33  C   UNL A   1      44.343  23.192  24.354  1.00  0.00     0.010 A 
ATOM     34  C   UNL A   1      45.317  22.548  26.482  1.00  0.00     0.010 A 
ATOM     35  C   UNL A   1      44.891  23.551  25.597  1.00  0.00    -0.014 A 
BRANCH  35  36
ATOM     36  C   UNL A   1      45.051  24.970  25.992  1.00  0.00     0.031 A 
ATOM     37  C   UNL A   1      46.405  25.614  25.905  1.00  0.00     0.074 A 
ATOM     38  C   UNL A   1      44.009  25.646  26.510  1.00  0.00     0.049 A 
ATOM     39  N   UNL A   1      46.788  26.799  26.307  1.00  0.00    -0.248 NA
ATOM     40  C   UNL A   1      47.483  24.800  25.321  1.00  0.00     0.031 C 
ATOM     41  C   UNL A   1      42.659  25.110  26.693  1.00  0.00     0.029 A 
ATOM     42  N   UNL A   1      43.927  26.927  26.995  1.00  0.00    -0.354 N 
ATOM     43  C   UNL A   1      48.150  26.861  26.046  1.00  0.00     0.074 A 
ATOM     44  C   UNL A   1      48.539  25.576  25.508  1.00  0.00     0.031 C 
ATOM     45  C   UNL A   1      41.880  26.061  27.235  1.00  0.00     0.029 A 
ATOM     46  C   UNL A   1      42.683  27.257  27.472  1.00  0.00     0.049 A 
ATOM     47  H   UNL A   1      44.689  27.551  26.998  1.00  0.00     0.167 HD
ATOM     48  C   UNL A   1      48.995  27.905  26.216  1.00  0.00     0.037 A 
ATOM     49  C   UNL A   1      42.244  28.394  28.044  1.00  0.00     0.037 A 
ATOM     50  C   UNL A   1      48.596  29.190  26.722  1.00  0.00     0.049 A 
ATOM     51  C   UNL A   1      43.198  29.545  28.212  1.00  0.00     0.074 A 
ATOM     52  C   UNL A   1      49.358  30.334  26.874  1.00  0.00     0.029 A 
ATOM     53  N   UNL A   1      47.315  29.500  27.159  1.00  0.00    -0.354 N 
ATOM     54  N   UNL A   1      44.470  29.618  27.903  1.00  0.00    -0.248 NA
ATOM     55  C   UNL A   1      42.654  30.776  28.803  1.00  0.00     0.031 C 
ATOM     56  C   UNL A   1      48.550  31.324  27.442  1.00  0.00     0.029 A 
ATOM     57  C   UNL A   1      47.270  30.813  27.598  1.00  0.00     0.049 A 
ATOM     58  H   UNL A   1      46.551  28.879  27.158  1.00  0.00     0.167 HD
ATOM     59  C   UNL A   1      44.872  30.905  28.232  1.00  0.00     0.074 A 
ATOM     60  C   UNL A   1      43.704  31.584  28.757  1.00  0.00     0.031 C 
ATOM     61  C   UNL A   1      46.096  31.474  28.108  1.00  0.00     0.037 A 
BRANCH  48  62
ATOM     62  C   UNL A   1      50.434  27.690  25.847  1.00  0.00     0.064 A 
ATOM     63  C   UNL A   1      50.886  27.828  24.525  1.00  0.00     0.173 A 
ATOM     64  C   UNL A   1      51.376  27.345  26.827  1.00  0.00     0.173 A 
ATOM     65  F   UNL A   1      50.023  28.144  23.547  1.00  0.00    -0.203 F 
ATOM     66  C   UNL A   1      52.216  27.587  24.191  1.00  0.00     0.198 A 
ATOM     67  C   UNL A   1      52.714  27.138  26.495  1.00  0.00     0.198 A 
ATOM     68  F   UNL A   1      51.002  27.205  28.107  1.00  0.00    -0.203 F 
ATOM     69  F   UNL A   1      52.607  27.660  22.911  1.00  0.00    -0.200 F 
ATOM     70  C   UNL A   1      53.130  27.248  25.177  1.00  0.00     0.200 A 
ATOM     71  F   UNL A   1      53.598  26.822  27.451  1.00  0.00    -0.200 F 
ATOM     72  F   UNL A   1      54.409  27.014  24.855  1.00  0.00    -0.200 F 
ENDBRANCH  48  62
BRANCH  49  73
ATOM     73  C   UNL A   1      40.825  28.505  28.470  1.00  0.00     0.064 A 
ATOM     74  C   UNL A   1      40.436  28.149  29.769  1.00  0.00     0.173 A 
ATOM     75  C   UNL A   1      39.837  28.985  27.600  1.00  0.00     0.173 A 
ATOM     76  F   UNL A   1      41.343  27.668  30.631  1.00  0.00    -0.203 F 
ATOM     77  C   UNL A   1      39.108  28.255  30.176  1.00  0.00     0.198 A 
ATOM     78  C   UNL A   1      38.513  29.115  28.017  1.00  0.00     0.198 A 
ATOM     79  F   UNL A   1      40.160  29.345  26.349  1.00  0.00    -0.203 F 
ATOM     80  F   UNL A   1      38.756  27.875  31.412  1.00  0.00    -0.200 F 
ATOM     81  C   UNL A   1      38.148  28.745  29.302  1.00  0.00     0.200 A 
ATOM     82  F   UNL A   1      37.592  29.603  27.174  1.00  0.00    -0.200 F 
ATOM     83  F   UNL A   1      36.873  28.856  29.698  1.00  0.00    -0.200 F 
ENDBRANCH  49  73
BRANCH  61  84
ATOM     84  C   UNL A   1      46.231  32.915  28.510  1.00  0.00     0.064 A 
ATOM     85  C   UNL A   1      46.007  33.957  27.599  1.00  0.00     0.173 A 
ATOM     86  C   UNL A   1      46.535  33.251  29.838  1.00  0.00     0.173 A 
ATOM     87  F   UNL A   1      45.728  33.685  26.316  1.00  0.00    -0.203 F 
ATOM     88  C   UNL A   1      46.103  35.287  28.001  1.00  0.00     0.198 A 
ATOM     89  C   UNL A   1      46.601  34.582  30.240  1.00  0.00     0.198 A 
ATOM     90  F   UNL A   1      46.751  32.291  30.747  1.00  0.00    -0.203 F 
ATOM     91  F   UNL A   1      45.926  36.268  27.105  1.00  0.00    -0.200 F 
ATOM     92  C   UNL A   1      46.391  35.599  29.321  1.00  0.00     0.200 A 
ATOM     93  F   UNL A   1      46.866  34.880  31.520  1.00  0.00    -0.200 F 
ATOM     94  F   UNL A   1      46.472  36.879  29.707  1.00  0.00    -0.200 F 
ENDBRANCH  61  84
ENDBRANCH  35  36
ENDBRANCH  27  30
ENDBRANCH  25  26
ENDBRANCH  24  25
ENDBRANCH  23  24
ENDBRANCH   1  23
TORSDOF 15
ENDMDL
