MODEL 1
REMARK VINA RESULT:     -14.3      0.000      0.000
REMARK SMILES COc1ccc([C@H]2[NH2+][C@@H](C(=O)NCCCCNC(=O)c3ccc(-c4c5nc(c(-c6c(F)c(F)c(F)c(F)c6F)c6ccc([nH]6)c(-c6c(F)c(F)c(F)c(F)c6F)c6nc(c(-c7c(F)c(F)c(F)c(F)c7F)c7ccc4[nH]7)C=C6)C=C5)cc3)CC3=c4ccccc4=N[C@H]32)cc1Cn1cc([N+](=O)[O-])cn1
REMARK SMILES IDX 13 1 12 2 10 3 11 4 9 6 7 7 8 8 92 9 84 12 91 13 83 14 85 15
REMARK SMILES IDX 90 16 86 17 89 18 87 19 88 20 6 21 3 22 4 23 94 24 5 25
REMARK SMILES IDX 93 26 2 27 1 28 95 29 96 30 97 31 103 32 98 33 102 34 99 35
REMARK SMILES IDX 100 36 101 37 14 38 15 39 16 40 17 41 18 42 19 44 20 45
REMARK SMILES IDX 21 46 82 47 22 48 81 49 23 50 24 51 25 52 75 53 26 54 80 55
REMARK SMILES IDX 74 56 76 57 27 58 79 59 73 60 72 61 28 63 60 64 40 65 59 66
REMARK SMILES IDX 41 67 44 68 58 69 77 70 42 71 43 72 57 74 78 75 45 76 29 77
REMARK SMILES IDX 30 78 38 79 31 80 32 81 36 82 39 83 33 84 34 85 37 86 35 87
REMARK SMILES IDX 61 88 62 89 70 90 63 91 64 92 68 93 71 94 65 95 66 96 69 97
REMARK SMILES IDX 67 98 46 99 47 100 55 101 48 102 49 103 53 104 56 105 50 106
REMARK SMILES IDX 51 107 54 108 52 109
REMARK H PARENT 12 5 8 10 8 11 17 43 76 62 44 73
REMARK Flexibility Score: inf
ROOT
ATOM      1  C   UNL A   1      31.045  26.588  26.216  1.00  0.00     0.116 C 
ENDROOT
BRANCH   1   2
ATOM      2  N   UNL A   1      31.166  25.156  26.428  1.00  0.00    -0.351 N 
ATOM      3  C   UNL A   1      31.197  24.094  25.568  1.00  0.00     0.278 C 
ATOM      4  O   UNL A   1      31.723  23.073  26.043  1.00  0.00    -0.268 OA
ATOM      5  H   UNL A   1      31.239  24.901  27.376  1.00  0.00     0.163 HD
BRANCH   3   6
ATOM      6  C   UNL A   1      30.678  24.024  24.093  1.00  0.00     0.277 C 
ATOM      7  C   UNL A   1      32.675  23.498  22.645  1.00  0.00     0.243 C 
ATOM      8  N   UNL A   1      31.366  23.066  23.190  1.00  0.00    -0.327 N 
ATOM      9  C   UNL A   1      32.473  24.936  21.962  1.00  0.00     0.196 C 
ATOM     10  H   UNL A   1      31.517  22.203  23.712  1.00  0.00     0.347 HD
ATOM     11  H   UNL A   1      30.754  22.969  22.381  1.00  0.00     0.347 HD
ATOM     12  C   UNL A   1      31.493  25.865  22.638  1.00  0.00    -0.024 C 
ATOM     13  N   UNL A   1      33.686  25.794  21.753  1.00  0.00    -0.270 NA
ATOM     14  C   UNL A   1      30.328  25.323  23.382  1.00  0.00     0.109 C 
ATOM     15  C   UNL A   1      31.913  27.124  22.627  1.00  0.00     0.002 A 
ATOM     16  C   UNL A   1      33.260  26.994  22.047  1.00  0.00     0.066 A 
ATOM     17  C   UNL A   1      31.459  28.309  23.285  1.00  0.00     0.010 A 
ATOM     18  C   UNL A   1      34.029  28.265  21.988  1.00  0.00     0.028 A 
ATOM     19  C   UNL A   1      32.278  29.371  23.321  1.00  0.00     0.001 A 
ATOM     20  C   UNL A   1      33.552  29.354  22.623  1.00  0.00     0.002 A 
BRANCH   7  21
ATOM     21  C   UNL A   1      33.834  23.148  23.598  1.00  0.00     0.012 A 
ATOM     22  C   UNL A   1      36.161  22.559  25.058  1.00  0.00     0.123 A 
ATOM     23  C   UNL A   1      35.691  23.860  25.027  1.00  0.00     0.047 A 
ATOM     24  C   UNL A   1      35.386  21.492  24.563  1.00  0.00     0.016 A 
ATOM     25  C   UNL A   1      34.523  24.139  24.331  1.00  0.00     0.014 A 
ATOM     26  C   UNL A   1      34.205  21.815  23.857  1.00  0.00     0.019 A 
BRANCH  22  27
ATOM     27  O   UNL A   1      37.373  22.321  25.653  1.00  0.00    -0.496 OA
ATOM     28  C   UNL A   1      37.995  23.549  26.056  1.00  0.00     0.278 C 
ENDBRANCH  22  27
BRANCH  24  29
ATOM     29  C   UNL A   1      35.887  20.106  24.902  1.00  0.00     0.183 C 
BRANCH  29  30
ATOM     30  N   UNL A   1      35.014  18.929  24.929  1.00  0.00    -0.261 N 
ATOM     31  C   UNL A   1      35.285  17.593  24.875  1.00  0.00     0.194 A 
ATOM     32  N   UNL A   1      33.710  19.170  25.230  1.00  0.00    -0.174 NA
ATOM     33  C   UNL A   1      34.084  16.940  25.052  1.00  0.00     0.307 A 
ATOM     34  C   UNL A   1      33.153  17.957  25.298  1.00  0.00     0.220 A 
BRANCH  33  35
ATOM     35  N   UNL A   1      33.850  15.531  25.020  1.00  0.00     0.066 N 
ATOM     36  O   UNL A   1      34.798  14.801  25.311  1.00  0.00    -0.258 OA
ATOM     37  O   UNL A   1      32.700  15.160  24.729  1.00  0.00    -0.258 OA
ENDBRANCH  33  35
ENDBRANCH  29  30
ENDBRANCH  24  29
ENDBRANCH   7  21
ENDBRANCH   3   6
ENDBRANCH   1   2
BRANCH   1  38
ATOM     38  C   UNL A   1      32.157  27.463  26.806  1.00  0.00     0.023 C 
BRANCH  38  39
ATOM     39  C   UNL A   1      31.754  28.908  27.225  1.00  0.00     0.023 C 
BRANCH  39  40
ATOM     40  C   UNL A   1      32.254  30.055  26.344  1.00  0.00     0.116 C 
BRANCH  40  41
ATOM     41  N   UNL A   1      32.469  31.329  27.015  1.00  0.00    -0.352 N 
ATOM     42  C   UNL A   1      33.517  31.993  27.595  1.00  0.00     0.251 C 
ATOM     43  H   UNL A   1      31.637  31.855  27.065  1.00  0.00     0.163 HD
ATOM     44  O   UNL A   1      33.341  33.200  27.790  1.00  0.00    -0.269 OA
BRANCH  42  45
ATOM     45  C   UNL A   1      34.809  31.392  28.027  1.00  0.00     0.039 A 
ATOM     46  C   UNL A   1      35.899  32.267  28.201  1.00  0.00     0.014 A 
ATOM     47  C   UNL A   1      35.004  30.045  28.312  1.00  0.00     0.014 A 
ATOM     48  C   UNL A   1      37.131  31.808  28.683  1.00  0.00     0.010 A 
ATOM     49  C   UNL A   1      36.238  29.570  28.773  1.00  0.00     0.010 A 
ATOM     50  C   UNL A   1      37.298  30.454  28.999  1.00  0.00    -0.014 A 
BRANCH  50  51
ATOM     51  C   UNL A   1      38.454  30.007  29.811  1.00  0.00     0.031 A 
ATOM     52  C   UNL A   1      38.707  30.505  31.200  1.00  0.00     0.074 A 
ATOM     53  C   UNL A   1      39.345  29.205  29.198  1.00  0.00     0.049 A 
ATOM     54  N   UNL A   1      39.651  30.152  32.036  1.00  0.00    -0.248 NA
ATOM     55  C   UNL A   1      37.811  31.552  31.706  1.00  0.00     0.031 C 
ATOM     56  C   UNL A   1      39.246  28.765  27.802  1.00  0.00     0.029 A 
ATOM     57  N   UNL A   1      40.506  28.634  29.644  1.00  0.00    -0.354 N 
ATOM     58  C   UNL A   1      39.461  30.925  33.176  1.00  0.00     0.074 A 
ATOM     59  C   UNL A   1      38.338  31.800  32.900  1.00  0.00     0.031 C 
ATOM     60  C   UNL A   1      40.296  27.985  27.510  1.00  0.00     0.029 A 
ATOM     61  C   UNL A   1      41.138  27.869  28.694  1.00  0.00     0.049 A 
ATOM     62  H   UNL A   1      40.854  28.759  30.556  1.00  0.00     0.167 HD
ATOM     63  C   UNL A   1      40.158  30.888  34.339  1.00  0.00     0.037 A 
ATOM     64  C   UNL A   1      42.261  27.134  28.776  1.00  0.00     0.037 A 
ATOM     65  C   UNL A   1      41.285  30.014  34.575  1.00  0.00     0.049 A 
ATOM     66  C   UNL A   1      42.963  27.048  30.098  1.00  0.00     0.074 A 
ATOM     67  C   UNL A   1      42.013  29.828  35.739  1.00  0.00     0.029 A 
ATOM     68  N   UNL A   1      41.862  29.190  33.615  1.00  0.00    -0.354 N 
ATOM     69  N   UNL A   1      42.691  27.671  31.219  1.00  0.00    -0.248 NA
ATOM     70  C   UNL A   1      44.104  26.130  30.179  1.00  0.00     0.031 C 
ATOM     71  C   UNL A   1      43.057  28.935  35.469  1.00  0.00     0.029 A 
ATOM     72  C   UNL A   1      42.947  28.513  34.153  1.00  0.00     0.049 A 
ATOM     73  H   UNL A   1      41.546  29.100  32.687  1.00  0.00     0.167 HD
ATOM     74  C   UNL A   1      43.609  27.204  32.148  1.00  0.00     0.074 A 
ATOM     75  C   UNL A   1      44.427  26.223  31.461  1.00  0.00     0.031 C 
ATOM     76  C   UNL A   1      43.760  27.553  33.449  1.00  0.00     0.037 A 
BRANCH  63  77
ATOM     77  C   UNL A   1      39.728  31.804  35.454  1.00  0.00     0.064 A 
ATOM     78  C   UNL A   1      40.288  33.082  35.614  1.00  0.00     0.173 A 
ATOM     79  C   UNL A   1      38.689  31.438  36.327  1.00  0.00     0.173 A 
ATOM     80  F   UNL A   1      41.280  33.489  34.807  1.00  0.00    -0.203 F 
ATOM     81  C   UNL A   1      39.847  33.943  36.618  1.00  0.00     0.198 A 
ATOM     82  C   UNL A   1      38.229  32.314  37.310  1.00  0.00     0.198 A 
ATOM     83  F   UNL A   1      38.102  30.237  36.215  1.00  0.00    -0.203 F 
ATOM     84  F   UNL A   1      40.426  35.142  36.771  1.00  0.00    -0.200 F 
ATOM     85  C   UNL A   1      38.813  33.562  37.458  1.00  0.00     0.200 A 
ATOM     86  F   UNL A   1      37.215  31.952  38.107  1.00  0.00    -0.200 F 
ATOM     87  F   UNL A   1      38.379  34.399  38.412  1.00  0.00    -0.200 F 
ENDBRANCH  63  77
BRANCH  64  88
ATOM     88  C   UNL A   1      42.714  26.360  27.593  1.00  0.00     0.064 A 
ATOM     89  C   UNL A   1      43.704  26.865  26.739  1.00  0.00     0.173 A 
ATOM     90  C   UNL A   1      42.210  25.079  27.322  1.00  0.00     0.173 A 
ATOM     91  F   UNL A   1      44.215  28.086  26.956  1.00  0.00    -0.203 F 
ATOM     92  C   UNL A   1      44.157  26.129  25.647  1.00  0.00     0.198 A 
ATOM     93  C   UNL A   1      42.687  24.331  26.247  1.00  0.00     0.198 A 
ATOM     94  F   UNL A   1      41.279  24.540  28.123  1.00  0.00    -0.203 F 
ATOM     95  F   UNL A   1      45.079  26.652  24.827  1.00  0.00    -0.200 F 
ATOM     96  C   UNL A   1      43.654  24.860  25.407  1.00  0.00     0.200 A 
ATOM     97  F   UNL A   1      42.215  23.095  26.032  1.00  0.00    -0.200 F 
ATOM     98  F   UNL A   1      44.102  24.147  24.365  1.00  0.00    -0.200 F 
ENDBRANCH  64  88
BRANCH  76  99
ATOM     99  C   UNL A   1      44.847  26.849  34.209  1.00  0.00     0.064 A 
ATOM    100  C   UNL A   1      46.154  27.358  34.270  1.00  0.00     0.173 A 
ATOM    101  C   UNL A   1      44.582  25.641  34.871  1.00  0.00     0.173 A 
ATOM    102  F   UNL A   1      46.464  28.501  33.640  1.00  0.00    -0.203 F 
ATOM    103  C   UNL A   1      47.164  26.659  34.925  1.00  0.00     0.198 A 
ATOM    104  C   UNL A   1      45.587  24.963  35.555  1.00  0.00     0.198 A 
ATOM    105  F   UNL A   1      43.349  25.113  34.849  1.00  0.00    -0.203 F 
ATOM    106  F   UNL A   1      48.420  27.126  34.905  1.00  0.00    -0.200 F 
ATOM    107  C   UNL A   1      46.879  25.464  35.570  1.00  0.00     0.200 A 
ATOM    108  F   UNL A   1      45.308  23.815  36.188  1.00  0.00    -0.200 F 
ATOM    109  F   UNL A   1      47.855  24.789  36.192  1.00  0.00    -0.200 F 
ENDBRANCH  76  99
ENDBRANCH  50  51
ENDBRANCH  42  45
ENDBRANCH  40  41
ENDBRANCH  39  40
ENDBRANCH  38  39
ENDBRANCH   1  38
TORSDOF 16
ENDMDL
MODEL 2
REMARK VINA RESULT:     -13.9      0.759      6.946
REMARK SMILES COc1ccc([C@H]2[NH2+][C@@H](C(=O)NCCCCNC(=O)c3ccc(-c4c5nc(c(-c6c(F)c(F)c(F)c(F)c6F)c6ccc([nH]6)c(-c6c(F)c(F)c(F)c(F)c6F)c6nc(c(-c7c(F)c(F)c(F)c(F)c7F)c7ccc4[nH]7)C=C6)C=C5)cc3)CC3=c4ccccc4=N[C@H]32)cc1Cn1cc([N+](=O)[O-])cn1
REMARK SMILES IDX 13 1 12 2 10 3 11 4 9 6 7 7 8 8 92 9 84 12 91 13 83 14 85 15
REMARK SMILES IDX 90 16 86 17 89 18 87 19 88 20 6 21 3 22 4 23 94 24 5 25
REMARK SMILES IDX 93 26 2 27 1 28 95 29 96 30 97 31 103 32 98 33 102 34 99 35
REMARK SMILES IDX 100 36 101 37 14 38 15 39 16 40 17 41 18 42 19 44 20 45
REMARK SMILES IDX 21 46 82 47 22 48 81 49 23 50 24 51 25 52 75 53 26 54 80 55
REMARK SMILES IDX 74 56 76 57 27 58 79 59 73 60 72 61 28 63 60 64 40 65 59 66
REMARK SMILES IDX 41 67 44 68 58 69 77 70 42 71 43 72 57 74 78 75 45 76 29 77
REMARK SMILES IDX 30 78 38 79 31 80 32 81 36 82 39 83 33 84 34 85 37 86 35 87
REMARK SMILES IDX 61 88 62 89 70 90 63 91 64 92 68 93 71 94 65 95 66 96 69 97
REMARK SMILES IDX 67 98 46 99 47 100 55 101 48 102 49 103 53 104 56 105 50 106
REMARK SMILES IDX 51 107 54 108 52 109
REMARK H PARENT 12 5 8 10 8 11 17 43 76 62 44 73
REMARK Flexibility Score: inf
ROOT
ATOM      1  C   UNL A   1      30.884  26.631  26.172  1.00  0.00     0.116 C 
ENDROOT
BRANCH   1   2
ATOM      2  N   UNL A   1      30.949  25.195  26.383  1.00  0.00    -0.351 N 
ATOM      3  C   UNL A   1      30.966  24.135  25.520  1.00  0.00     0.278 C 
ATOM      4  O   UNL A   1      31.444  23.095  26.005  1.00  0.00    -0.268 OA
ATOM      5  H   UNL A   1      30.987  24.935  27.331  1.00  0.00     0.163 HD
BRANCH   3   6
ATOM      6  C   UNL A   1      30.486  24.087  24.031  1.00  0.00     0.277 C 
ATOM      7  C   UNL A   1      32.484  23.421  22.644  1.00  0.00     0.243 C 
ATOM      8  N   UNL A   1      31.135  23.079  23.154  1.00  0.00    -0.327 N 
ATOM      9  C   UNL A   1      32.395  24.864  21.946  1.00  0.00     0.196 C 
ATOM     10  H   UNL A   1      31.214  22.212  23.686  1.00  0.00     0.347 HD
ATOM     11  H   UNL A   1      30.540  23.016  22.328  1.00  0.00     0.347 HD
ATOM     12  C   UNL A   1      31.459  25.859  22.588  1.00  0.00    -0.024 C 
ATOM     13  N   UNL A   1      33.667  25.639  21.766  1.00  0.00    -0.270 NA
ATOM     14  C   UNL A   1      30.241  25.400  23.302  1.00  0.00     0.109 C 
ATOM     15  C   UNL A   1      31.961  27.088  22.582  1.00  0.00     0.002 A 
ATOM     16  C   UNL A   1      33.312  26.867  22.041  1.00  0.00     0.066 A 
ATOM     17  C   UNL A   1      31.567  28.306  23.218  1.00  0.00     0.010 A 
ATOM     18  C   UNL A   1      34.164  28.084  21.996  1.00  0.00     0.028 A 
ATOM     19  C   UNL A   1      32.452  29.312  23.272  1.00  0.00     0.001 A 
ATOM     20  C   UNL A   1      33.742  29.207  22.610  1.00  0.00     0.002 A 
BRANCH   7  21
ATOM     21  C   UNL A   1      33.591  23.004  23.631  1.00  0.00     0.012 A 
ATOM     22  C   UNL A   1      35.834  22.290  25.164  1.00  0.00     0.123 A 
ATOM     23  C   UNL A   1      35.417  23.609  25.145  1.00  0.00     0.047 A 
ATOM     24  C   UNL A   1      35.036  21.266  24.616  1.00  0.00     0.016 A 
ATOM     25  C   UNL A   1      34.290  23.950  24.412  1.00  0.00     0.014 A 
ATOM     26  C   UNL A   1      33.898  21.651  23.874  1.00  0.00     0.019 A 
BRANCH  22  27
ATOM     27  O   UNL A   1      37.012  21.990  25.799  1.00  0.00    -0.496 OA
ATOM     28  C   UNL A   1      37.865  23.140  25.864  1.00  0.00     0.278 C 
ENDBRANCH  22  27
BRANCH  24  29
ATOM     29  C   UNL A   1      35.468  19.854  24.942  1.00  0.00     0.183 C 
BRANCH  29  30
ATOM     30  N   UNL A   1      34.522  18.741  25.067  1.00  0.00    -0.261 N 
ATOM     31  C   UNL A   1      34.698  17.388  25.038  1.00  0.00     0.194 A 
ATOM     32  N   UNL A   1      33.262  19.080  25.450  1.00  0.00    -0.174 NA
ATOM     33  C   UNL A   1      33.472  16.826  25.319  1.00  0.00     0.307 A 
ATOM     34  C   UNL A   1      32.631  17.911  25.594  1.00  0.00     0.220 A 
BRANCH  33  35
ATOM     35  N   UNL A   1      33.142  15.436  25.348  1.00  0.00     0.066 N 
ATOM     36  O   UNL A   1      31.945  15.147  25.344  1.00  0.00    -0.258 OA
ATOM     37  O   UNL A   1      34.091  14.633  25.346  1.00  0.00    -0.258 OA
ENDBRANCH  33  35
ENDBRANCH  29  30
ENDBRANCH  24  29
ENDBRANCH   7  21
ENDBRANCH   3   6
ENDBRANCH   1   2
BRANCH   1  38
ATOM     38  C   UNL A   1      32.080  27.450  26.670  1.00  0.00     0.023 C 
BRANCH  38  39
ATOM     39  C   UNL A   1      31.768  28.877  27.209  1.00  0.00     0.023 C 
BRANCH  39  40
ATOM     40  C   UNL A   1      32.172  30.061  26.327  1.00  0.00     0.116 C 
BRANCH  40  41
ATOM     41  N   UNL A   1      32.374  31.330  27.013  1.00  0.00    -0.352 N 
ATOM     42  C   UNL A   1      33.420  32.009  27.577  1.00  0.00     0.251 C 
ATOM     43  H   UNL A   1      31.532  31.835  27.091  1.00  0.00     0.163 HD
ATOM     44  O   UNL A   1      33.221  33.208  27.796  1.00  0.00    -0.269 OA
BRANCH  42  45
ATOM     45  C   UNL A   1      34.737  31.432  27.968  1.00  0.00     0.039 A 
ATOM     46  C   UNL A   1      35.813  32.328  28.115  1.00  0.00     0.014 A 
ATOM     47  C   UNL A   1      34.967  30.088  28.239  1.00  0.00     0.014 A 
ATOM     48  C   UNL A   1      37.068  31.892  28.558  1.00  0.00     0.010 A 
ATOM     49  C   UNL A   1      36.223  29.636  28.662  1.00  0.00     0.010 A 
ATOM     50  C   UNL A   1      37.271  30.540  28.862  1.00  0.00    -0.014 A 
BRANCH  50  51
ATOM     51  C   UNL A   1      38.459  30.113  29.637  1.00  0.00     0.031 A 
ATOM     52  C   UNL A   1      39.446  29.114  29.118  1.00  0.00     0.074 A 
ATOM     53  C   UNL A   1      38.559  30.586  30.894  1.00  0.00     0.049 A 
ATOM     54  N   UNL A   1      40.556  28.694  29.674  1.00  0.00    -0.248 NA
ATOM     55  C   UNL A   1      39.137  28.478  27.831  1.00  0.00     0.031 C 
ATOM     56  C   UNL A   1      37.578  31.470  31.531  1.00  0.00     0.029 A 
ATOM     57  N   UNL A   1      39.502  30.382  31.865  1.00  0.00    -0.354 N 
ATOM     58  C   UNL A   1      41.088  27.752  28.801  1.00  0.00     0.074 A 
ATOM     59  C   UNL A   1      40.150  27.629  27.702  1.00  0.00     0.031 C 
ATOM     60  C   UNL A   1      37.976  31.742  32.780  1.00  0.00     0.029 A 
ATOM     61  C   UNL A   1      39.236  31.055  33.032  1.00  0.00     0.049 A 
ATOM     62  H   UNL A   1      40.294  29.811  31.739  1.00  0.00     0.167 HD
ATOM     63  C   UNL A   1      42.257  27.072  28.915  1.00  0.00     0.037 A 
ATOM     64  C   UNL A   1      39.944  31.130  34.173  1.00  0.00     0.037 A 
ATOM     65  C   UNL A   1      43.161  27.207  30.034  1.00  0.00     0.049 A 
ATOM     66  C   UNL A   1      41.271  30.434  34.237  1.00  0.00     0.074 A 
ATOM     67  C   UNL A   1      44.410  26.636  30.216  1.00  0.00     0.029 A 
ATOM     68  N   UNL A   1      42.902  27.957  31.175  1.00  0.00    -0.354 N 
ATOM     69  N   UNL A   1      41.839  29.658  33.346  1.00  0.00    -0.248 NA
ATOM     70  C   UNL A   1      42.071  30.651  35.447  1.00  0.00     0.031 C 
ATOM     71  C   UNL A   1      44.880  26.997  31.485  1.00  0.00     0.029 A 
ATOM     72  C   UNL A   1      43.954  27.844  32.072  1.00  0.00     0.049 A 
ATOM     73  H   UNL A   1      42.088  28.490  31.326  1.00  0.00     0.167 HD
ATOM     74  C   UNL A   1      43.075  29.314  33.873  1.00  0.00     0.074 A 
ATOM     75  C   UNL A   1      43.181  29.991  35.151  1.00  0.00     0.031 C 
ATOM     76  C   UNL A   1      44.035  28.513  33.347  1.00  0.00     0.037 A 
BRANCH  63  77
ATOM     77  C   UNL A   1      42.638  26.128  27.806  1.00  0.00     0.064 A 
ATOM     78  C   UNL A   1      43.538  26.505  26.795  1.00  0.00     0.173 A 
ATOM     79  C   UNL A   1      42.166  24.805  27.791  1.00  0.00     0.173 A 
ATOM     80  F   UNL A   1      44.028  27.753  26.759  1.00  0.00    -0.203 F 
ATOM     81  C   UNL A   1      43.926  25.607  25.802  1.00  0.00     0.198 A 
ATOM     82  C   UNL A   1      42.580  23.900  26.814  1.00  0.00     0.198 A 
ATOM     83  F   UNL A   1      41.316  24.379  28.739  1.00  0.00    -0.203 F 
ATOM     84  F   UNL A   1      44.756  26.005  24.828  1.00  0.00    -0.200 F 
ATOM     85  C   UNL A   1      43.454  24.303  25.817  1.00  0.00     0.200 A 
ATOM     86  F   UNL A   1      42.139  22.635  26.844  1.00  0.00    -0.200 F 
ATOM     87  F   UNL A   1      43.841  23.437  24.870  1.00  0.00    -0.200 F 
ENDBRANCH  63  77
BRANCH  64  88
ATOM     88  C   UNL A   1      39.443  31.970  35.289  1.00  0.00     0.064 A 
ATOM     89  C   UNL A   1      38.601  31.432  36.272  1.00  0.00     0.173 A 
ATOM     90  C   UNL A   1      39.836  33.309  35.429  1.00  0.00     0.173 A 
ATOM     91  F   UNL A   1      38.196  30.157  36.181  1.00  0.00    -0.203 F 
ATOM     92  C   UNL A   1      38.154  32.207  37.340  1.00  0.00     0.198 A 
ATOM     93  C   UNL A   1      39.413  34.074  36.515  1.00  0.00     0.198 A 
ATOM     94  F   UNL A   1      40.660  33.866  34.528  1.00  0.00    -0.203 F 
ATOM     95  F   UNL A   1      37.321  31.675  38.246  1.00  0.00    -0.200 F 
ATOM     96  C   UNL A   1      38.567  33.524  37.464  1.00  0.00     0.200 A 
ATOM     97  F   UNL A   1      39.834  35.340  36.644  1.00  0.00    -0.200 F 
ATOM     98  F   UNL A   1      38.149  34.263  38.501  1.00  0.00    -0.200 F 
ENDBRANCH  64  88
BRANCH  76  99
ATOM     99  C   UNL A   1      45.287  28.346  34.159  1.00  0.00     0.064 A 
ATOM    100  C   UNL A   1      45.421  27.320  35.107  1.00  0.00     0.173 A 
ATOM    101  C   UNL A   1      46.360  29.236  34.000  1.00  0.00     0.173 A 
ATOM    102  F   UNL A   1      44.417  26.453  35.311  1.00  0.00    -0.203 F 
ATOM    103  C   UNL A   1      46.563  27.219  35.897  1.00  0.00     0.198 A 
ATOM    104  C   UNL A   1      47.515  29.110  34.767  1.00  0.00     0.198 A 
ATOM    105  F   UNL A   1      46.287  30.232  33.104  1.00  0.00    -0.203 F 
ATOM    106  F   UNL A   1      46.636  26.277  36.848  1.00  0.00    -0.200 F 
ATOM    107  C   UNL A   1      47.610  28.112  35.724  1.00  0.00     0.200 A 
ATOM    108  F   UNL A   1      48.531  29.966  34.589  1.00  0.00    -0.200 F 
ATOM    109  F   UNL A   1      48.704  28.019  36.491  1.00  0.00    -0.200 F 
ENDBRANCH  76  99
ENDBRANCH  50  51
ENDBRANCH  42  45
ENDBRANCH  40  41
ENDBRANCH  39  40
ENDBRANCH  38  39
ENDBRANCH   1  38
TORSDOF 16
ENDMDL
MODEL 3
REMARK VINA RESULT:     -13.3      0.730      1.973
REMARK SMILES COc1ccc([C@H]2[NH2+][C@@H](C(=O)NCCCCNC(=O)c3ccc(-c4c5nc(c(-c6c(F)c(F)c(F)c(F)c6F)c6ccc([nH]6)c(-c6c(F)c(F)c(F)c(F)c6F)c6nc(c(-c7c(F)c(F)c(F)c(F)c7F)c7ccc4[nH]7)C=C6)C=C5)cc3)CC3=c4ccccc4=N[C@H]32)cc1Cn1cc([N+](=O)[O-])cn1
REMARK SMILES IDX 13 1 12 2 10 3 11 4 9 6 7 7 8 8 92 9 84 12 91 13 83 14 85 15
REMARK SMILES IDX 90 16 86 17 89 18 87 19 88 20 6 21 3 22 4 23 94 24 5 25
REMARK SMILES IDX 93 26 2 27 1 28 95 29 96 30 97 31 103 32 98 33 102 34 99 35
REMARK SMILES IDX 100 36 101 37 14 38 15 39 16 40 17 41 18 42 19 44 20 45
REMARK SMILES IDX 21 46 82 47 22 48 81 49 23 50 24 51 25 52 75 53 26 54 80 55
REMARK SMILES IDX 74 56 76 57 27 58 79 59 73 60 72 61 28 63 60 64 40 65 59 66
REMARK SMILES IDX 41 67 44 68 58 69 77 70 42 71 43 72 57 74 78 75 45 76 29 77
REMARK SMILES IDX 30 78 38 79 31 80 32 81 36 82 39 83 33 84 34 85 37 86 35 87
REMARK SMILES IDX 61 88 62 89 70 90 63 91 64 92 68 93 71 94 65 95 66 96 69 97
REMARK SMILES IDX 67 98 46 99 47 100 55 101 48 102 49 103 53 104 56 105 50 106
REMARK SMILES IDX 51 107 54 108 52 109
REMARK H PARENT 12 5 8 10 8 11 17 43 76 62 44 73
REMARK Flexibility Score: inf
ROOT
ATOM      1  C   UNL A   1      31.300  25.768  25.842  1.00  0.00     0.116 C 
ENDROOT
BRANCH   1   2
ATOM      2  N   UNL A   1      30.952  24.358  25.871  1.00  0.00    -0.351 N 
ATOM      3  C   UNL A   1      30.838  23.415  24.888  1.00  0.00     0.278 C 
ATOM      4  O   UNL A   1      30.940  22.244  25.295  1.00  0.00    -0.268 OA
ATOM      5  H   UNL A   1      30.762  24.015  26.774  1.00  0.00     0.163 HD
BRANCH   3   6
ATOM      6  C   UNL A   1      30.620  23.632  23.354  1.00  0.00     0.277 C 
ATOM      7  C   UNL A   1      32.900  23.980  22.337  1.00  0.00     0.243 C 
ATOM      8  N   UNL A   1      31.689  23.135  22.452  1.00  0.00    -0.327 N 
ATOM      9  C   UNL A   1      32.429  25.466  21.956  1.00  0.00     0.196 C 
ATOM     10  H   UNL A   1      31.980  22.218  22.793  1.00  0.00     0.347 HD
ATOM     11  H   UNL A   1      31.275  23.126  21.520  1.00  0.00     0.347 HD
ATOM     12  C   UNL A   1      31.130  25.932  22.568  1.00  0.00    -0.024 C 
ATOM     13  N   UNL A   1      33.375  26.598  22.229  1.00  0.00    -0.270 NA
ATOM     14  C   UNL A   1      30.051  24.962  22.881  1.00  0.00     0.109 C 
ATOM     15  C   UNL A   1      31.182  27.208  22.931  1.00  0.00     0.002 A 
ATOM     16  C   UNL A   1      32.591  27.546  22.670  1.00  0.00     0.066 A 
ATOM     17  C   UNL A   1      30.313  28.038  23.705  1.00  0.00     0.010 A 
ATOM     18  C   UNL A   1      32.978  28.925  23.071  1.00  0.00     0.028 A 
ATOM     19  C   UNL A   1      30.788  29.205  24.164  1.00  0.00     0.001 A 
ATOM     20  C   UNL A   1      32.118  29.665  23.798  1.00  0.00     0.002 A 
BRANCH   7  21
ATOM     21  C   UNL A   1      33.931  23.654  23.435  1.00  0.00     0.012 A 
ATOM     22  C   UNL A   1      36.049  23.049  25.179  1.00  0.00     0.123 A 
ATOM     23  C   UNL A   1      35.730  24.373  24.933  1.00  0.00     0.047 A 
ATOM     24  C   UNL A   1      35.204  22.005  24.754  1.00  0.00     0.016 A 
ATOM     25  C   UNL A   1      34.662  24.666  24.096  1.00  0.00     0.014 A 
ATOM     26  C   UNL A   1      34.129  22.340  23.901  1.00  0.00     0.019 A 
BRANCH  22  27
ATOM     27  O   UNL A   1      37.174  22.779  25.915  1.00  0.00    -0.496 OA
ATOM     28  C   UNL A   1      37.896  23.983  26.208  1.00  0.00     0.278 C 
ENDBRANCH  22  27
BRANCH  24  29
ATOM     29  C   UNL A   1      35.519  20.638  25.318  1.00  0.00     0.183 C 
BRANCH  29  30
ATOM     30  N   UNL A   1      34.639  19.480  25.136  1.00  0.00    -0.261 N 
ATOM     31  C   UNL A   1      34.854  18.249  24.587  1.00  0.00     0.194 A 
ATOM     32  N   UNL A   1      33.435  19.551  25.767  1.00  0.00    -0.174 NA
ATOM     33  C   UNL A   1      33.700  17.523  24.787  1.00  0.00     0.307 A 
ATOM     34  C   UNL A   1      32.872  18.360  25.545  1.00  0.00     0.220 A 
BRANCH  33  35
ATOM     35  N   UNL A   1      33.424  16.194  24.340  1.00  0.00     0.066 N 
ATOM     36  O   UNL A   1      34.233  15.688  23.561  1.00  0.00    -0.258 OA
ATOM     37  O   UNL A   1      32.406  15.648  24.798  1.00  0.00    -0.258 OA
ENDBRANCH  33  35
ENDBRANCH  29  30
ENDBRANCH  24  29
ENDBRANCH   7  21
ENDBRANCH   3   6
ENDBRANCH   1   2
BRANCH   1  38
ATOM     38  C   UNL A   1      32.648  26.153  26.463  1.00  0.00     0.023 C 
BRANCH  38  39
ATOM     39  C   UNL A   1      32.962  27.676  26.548  1.00  0.00     0.023 C 
BRANCH  39  40
ATOM     40  C   UNL A   1      32.054  28.526  27.439  1.00  0.00     0.116 C 
BRANCH  40  41
ATOM     41  N   UNL A   1      32.199  29.970  27.307  1.00  0.00    -0.352 N 
ATOM     42  C   UNL A   1      33.222  30.879  27.309  1.00  0.00     0.251 C 
ATOM     43  H   UNL A   1      31.326  30.409  27.180  1.00  0.00     0.163 HD
ATOM     44  O   UNL A   1      32.944  31.996  26.863  1.00  0.00    -0.269 OA
BRANCH  42  45
ATOM     45  C   UNL A   1      34.602  30.649  27.820  1.00  0.00     0.039 A 
ATOM     46  C   UNL A   1      35.136  31.620  28.690  1.00  0.00     0.014 A 
ATOM     47  C   UNL A   1      35.379  29.531  27.539  1.00  0.00     0.014 A 
ATOM     48  C   UNL A   1      36.391  31.453  29.287  1.00  0.00     0.010 A 
ATOM     49  C   UNL A   1      36.646  29.363  28.112  1.00  0.00     0.010 A 
ATOM     50  C   UNL A   1      37.144  30.302  29.019  1.00  0.00    -0.014 A 
BRANCH  50  51
ATOM     51  C   UNL A   1      38.299  29.942  29.875  1.00  0.00     0.031 A 
ATOM     52  C   UNL A   1      38.476  30.479  31.261  1.00  0.00     0.074 A 
ATOM     53  C   UNL A   1      39.255  29.185  29.306  1.00  0.00     0.049 A 
ATOM     54  N   UNL A   1      39.413  30.201  32.133  1.00  0.00    -0.248 NA
ATOM     55  C   UNL A   1      37.502  31.479  31.718  1.00  0.00     0.031 C 
ATOM     56  C   UNL A   1      39.229  28.715  27.917  1.00  0.00     0.029 A 
ATOM     57  N   UNL A   1      40.435  28.695  29.799  1.00  0.00    -0.354 N 
ATOM     58  C   UNL A   1      39.139  30.981  33.250  1.00  0.00     0.074 A 
ATOM     59  C   UNL A   1      37.974  31.780  32.923  1.00  0.00     0.031 C 
ATOM     60  C   UNL A   1      40.333  27.996  27.674  1.00  0.00     0.029 A 
ATOM     61  C   UNL A   1      41.142  27.953  28.885  1.00  0.00     0.049 A 
ATOM     62  H   UNL A   1      40.745  28.857  30.719  1.00  0.00     0.167 HD
ATOM     63  C   UNL A   1      39.800  31.008  34.435  1.00  0.00     0.037 A 
ATOM     64  C   UNL A   1      42.304  27.290  29.017  1.00  0.00     0.037 A 
ATOM     65  C   UNL A   1      40.970  30.210  34.723  1.00  0.00     0.049 A 
ATOM     66  C   UNL A   1      42.968  27.271  30.361  1.00  0.00     0.074 A 
ATOM     67  C   UNL A   1      41.670  30.089  35.913  1.00  0.00     0.029 A 
ATOM     68  N   UNL A   1      41.626  29.405  33.799  1.00  0.00    -0.354 N 
ATOM     69  N   UNL A   1      42.622  27.897  31.460  1.00  0.00    -0.248 NA
ATOM     70  C   UNL A   1      44.160  26.427  30.496  1.00  0.00     0.031 C 
ATOM     71  C   UNL A   1      42.775  29.258  35.693  1.00  0.00     0.029 A 
ATOM     72  C   UNL A   1      42.732  28.807  34.384  1.00  0.00     0.049 A 
ATOM     73  H   UNL A   1      41.346  29.280  32.863  1.00  0.00     0.167 HD
ATOM     74  C   UNL A   1      43.537  27.504  32.426  1.00  0.00     0.074 A 
ATOM     75  C   UNL A   1      44.435  26.563  31.784  1.00  0.00     0.031 C 
ATOM     76  C   UNL A   1      43.624  27.885  33.724  1.00  0.00     0.037 A 
BRANCH  63  77
ATOM     77  C   UNL A   1      39.279  31.916  35.518  1.00  0.00     0.064 A 
ATOM     78  C   UNL A   1      38.429  31.442  36.531  1.00  0.00     0.173 A 
ATOM     79  C   UNL A   1      39.693  33.256  35.595  1.00  0.00     0.173 A 
ATOM     80  F   UNL A   1      38.004  30.169  36.513  1.00  0.00    -0.203 F 
ATOM     81  C   UNL A   1      37.994  32.277  37.558  1.00  0.00     0.198 A 
ATOM     82  C   UNL A   1      39.280  34.081  36.641  1.00  0.00     0.198 A 
ATOM     83  F   UNL A   1      40.517  33.764  34.667  1.00  0.00    -0.203 F 
ATOM     84  F   UNL A   1      37.153  31.808  38.490  1.00  0.00    -0.200 F 
ATOM     85  C   UNL A   1      38.426  33.593  37.617  1.00  0.00     0.200 A 
ATOM     86  F   UNL A   1      39.717  35.346  36.708  1.00  0.00    -0.200 F 
ATOM     87  F   UNL A   1      38.020  34.391  38.616  1.00  0.00    -0.200 F 
ENDBRANCH  63  77
BRANCH  64  88
ATOM     88  C   UNL A   1      42.842  26.524  27.864  1.00  0.00     0.064 A 
ATOM     89  C   UNL A   1      42.505  25.177  27.676  1.00  0.00     0.173 A 
ATOM     90  C   UNL A   1      43.656  27.133  26.899  1.00  0.00     0.173 A 
ATOM     91  F   UNL A   1      41.730  24.550  28.574  1.00  0.00    -0.203 F 
ATOM     92  C   UNL A   1      42.979  24.462  26.579  1.00  0.00     0.198 A 
ATOM     93  C   UNL A   1      44.105  26.425  25.785  1.00  0.00     0.198 A 
ATOM     94  F   UNL A   1      43.989  28.427  27.019  1.00  0.00    -0.203 F 
ATOM     95  F   UNL A   1      42.669  23.165  26.444  1.00  0.00    -0.200 F 
ATOM     96  C   UNL A   1      43.772  25.089  25.631  1.00  0.00     0.200 A 
ATOM     97  F   UNL A   1      44.851  27.041  24.858  1.00  0.00    -0.200 F 
ATOM     98  F   UNL A   1      44.215  24.404  24.568  1.00  0.00    -0.200 F 
ENDBRANCH  64  88
BRANCH  76  99
ATOM     99  C   UNL A   1      44.728  27.264  34.532  1.00  0.00     0.064 A 
ATOM    100  C   UNL A   1      44.544  26.059  35.228  1.00  0.00     0.173 A 
ATOM    101  C   UNL A   1      45.979  27.891  34.625  1.00  0.00     0.173 A 
ATOM    102  F   UNL A   1      43.361  25.428  35.186  1.00  0.00    -0.203 F 
ATOM    103  C   UNL A   1      45.557  25.530  36.024  1.00  0.00     0.198 A 
ATOM    104  C   UNL A   1      47.001  27.340  35.393  1.00  0.00     0.198 A 
ATOM    105  F   UNL A   1      46.210  29.042  33.976  1.00  0.00    -0.203 F 
ATOM    106  F   UNL A   1      45.333  24.419  36.738  1.00  0.00    -0.200 F 
ATOM    107  C   UNL A   1      46.785  26.169  36.103  1.00  0.00     0.200 A 
ATOM    108  F   UNL A   1      48.191  27.953  35.459  1.00  0.00    -0.200 F 
ATOM    109  F   UNL A   1      47.755  25.664  36.876  1.00  0.00    -0.200 F 
ENDBRANCH  76  99
ENDBRANCH  50  51
ENDBRANCH  42  45
ENDBRANCH  40  41
ENDBRANCH  39  40
ENDBRANCH  38  39
ENDBRANCH   1  38
TORSDOF 16
ENDMDL
