MODEL 1
REMARK VINA RESULT:     -11.5      0.000      0.000
REMARK SMILES CC1([C@@]2(C)C[C@@H]2C(=O)NCCCCNC(=O)c2ccc(-c3c4nc(c(-c5c(F)c(F)c(F)c(F)c5F)c5ccc([nH]5)c(-c5c(F)c(F)c(F)c(F)c5F)c5nc(c(-c6c(F)c(F)c(F)c(F)c6F)c6ccc3[nH]6)C=C5)C=C4)cc2)CC1
REMARK SMILES IDX 12 1 11 2 10 3 9 4 7 5 8 6 6 8 3 9 4 10 5 11 2 12 1 13 80 14
REMARK SMILES IDX 81 15 13 16 14 17 15 18 16 20 17 21 18 22 79 23 19 24 78 25
REMARK SMILES IDX 20 26 21 27 22 28 72 29 23 30 77 31 71 32 73 33 24 34 76 35
REMARK SMILES IDX 70 36 69 37 25 39 57 40 37 41 56 42 38 43 41 44 55 45 74 46
REMARK SMILES IDX 39 47 40 48 54 50 75 51 42 52 26 53 27 54 35 55 28 56 29 57
REMARK SMILES IDX 33 58 36 59 30 60 31 61 34 62 32 63 58 64 59 65 67 66 60 67
REMARK SMILES IDX 61 68 65 69 68 70 62 71 63 72 66 73 64 74 43 75 44 76 52 77
REMARK SMILES IDX 45 78 46 79 50 80 53 81 47 82 48 83 51 84 49 85
REMARK H PARENT 9 7 14 19 73 38 41 49
REMARK Flexibility Score: inf
ROOT
ATOM      1  C   UNL A   1      31.547  32.002  26.794  1.00  0.00     0.023 C 
ENDROOT
BRANCH   1   2
ATOM      2  C   UNL A   1      31.723  30.483  26.722  1.00  0.00     0.023 C 
BRANCH   2   3
ATOM      3  C   UNL A   1      32.242  29.947  25.387  1.00  0.00     0.116 C 
BRANCH   3   4
ATOM      4  N   UNL A   1      31.207  29.909  24.374  1.00  0.00    -0.356 N 
ATOM      5  C   UNL A   1      30.596  28.815  23.826  1.00  0.00     0.223 C 
ATOM      6  O   UNL A   1      29.776  28.950  22.926  1.00  0.00    -0.275 OA
ATOM      7  H   UNL A   1      30.904  30.784  24.036  1.00  0.00     0.163 HD
BRANCH   5   8
ATOM      8  C   UNL A   1      30.987  27.477  24.325  1.00  0.00     0.085 C 
ATOM      9  C   UNL A   1      32.123  26.660  23.687  1.00  0.00    -0.015 C 
ATOM     10  C   UNL A   1      32.770  27.155  22.408  1.00  0.00     0.013 C 
ATOM     11  C   UNL A   1      30.677  26.229  23.544  1.00  0.00     0.022 C 
BRANCH   9  12
ATOM     12  C   UNL A   1      33.127  25.966  24.663  1.00  0.00    -0.026 C 
ATOM     13  C   UNL A   1      34.026  24.949  23.989  1.00  0.00     0.012 C 
ATOM     14  C   UNL A   1      32.684  25.620  26.075  1.00  0.00     0.008 C 
ATOM     15  C   UNL A   1      33.710  26.687  25.871  1.00  0.00     0.008 C 
ENDBRANCH   9  12
ENDBRANCH   5   8
ENDBRANCH   3   4
ENDBRANCH   2   3
ENDBRANCH   1   2
BRANCH   1  16
ATOM     16  C   UNL A   1      32.771  32.789  27.249  1.00  0.00     0.116 C 
BRANCH  16  17
ATOM     17  N   UNL A   1      32.458  34.153  27.641  1.00  0.00    -0.352 N 
ATOM     18  C   UNL A   1      33.023  34.937  28.619  1.00  0.00     0.251 C 
ATOM     19  H   UNL A   1      31.733  34.580  27.130  1.00  0.00     0.163 HD
ATOM     20  O   UNL A   1      32.533  36.030  28.886  1.00  0.00    -0.269 OA
BRANCH  18  21
ATOM     21  C   UNL A   1      34.198  34.456  29.382  1.00  0.00     0.039 A 
ATOM     22  C   UNL A   1      33.990  33.871  30.635  1.00  0.00     0.014 A 
ATOM     23  C   UNL A   1      35.495  34.578  28.877  1.00  0.00     0.014 A 
ATOM     24  C   UNL A   1      35.070  33.338  31.343  1.00  0.00     0.010 A 
ATOM     25  C   UNL A   1      36.562  33.987  29.552  1.00  0.00     0.010 A 
ATOM     26  C   UNL A   1      36.360  33.352  30.788  1.00  0.00    -0.014 A 
BRANCH  26  27
ATOM     27  C   UNL A   1      37.500  32.685  31.470  1.00  0.00     0.031 A 
ATOM     28  C   UNL A   1      38.189  31.511  30.832  1.00  0.00     0.074 A 
ATOM     29  C   UNL A   1      37.871  33.094  32.698  1.00  0.00     0.049 A 
ATOM     30  N   UNL A   1      39.142  30.750  31.309  1.00  0.00    -0.248 NA
ATOM     31  C   UNL A   1      37.731  31.125  29.489  1.00  0.00     0.031 C 
ATOM     32  C   UNL A   1      37.257  34.193  33.445  1.00  0.00     0.029 A 
ATOM     33  N   UNL A   1      38.845  32.624  33.545  1.00  0.00    -0.354 N 
ATOM     34  C   UNL A   1      39.388  29.793  30.335  1.00  0.00     0.074 A 
ATOM     35  C   UNL A   1      38.453  30.038  29.258  1.00  0.00     0.031 C 
ATOM     36  C   UNL A   1      37.876  34.323  34.629  1.00  0.00     0.029 A 
ATOM     37  C   UNL A   1      38.905  33.293  34.744  1.00  0.00     0.049 A 
ATOM     38  H   UNL A   1      39.444  31.877  33.315  1.00  0.00     0.167 HD
ATOM     39  C   UNL A   1      40.323  28.812  30.329  1.00  0.00     0.037 A 
ATOM     40  C   UNL A   1      39.688  33.091  35.820  1.00  0.00     0.037 A 
ATOM     41  C   UNL A   1      41.269  28.583  31.391  1.00  0.00     0.049 A 
ATOM     42  C   UNL A   1      40.706  31.983  35.793  1.00  0.00     0.074 A 
ATOM     43  C   UNL A   1      42.290  27.650  31.449  1.00  0.00     0.029 A 
ATOM     44  N   UNL A   1      41.306  29.290  32.583  1.00  0.00    -0.354 N 
ATOM     45  N   UNL A   1      40.973  31.127  34.837  1.00  0.00    -0.248 NA
ATOM     46  C   UNL A   1      41.537  31.817  36.995  1.00  0.00     0.031 C 
ATOM     47  C   UNL A   1      42.917  27.763  32.695  1.00  0.00     0.029 A 
ATOM     48  C   UNL A   1      42.319  28.800  33.392  1.00  0.00     0.049 A 
ATOM     49  H   UNL A   1      40.703  30.032  32.818  1.00  0.00     0.167 HD
ATOM     50  C   UNL A   1      42.016  30.341  35.308  1.00  0.00     0.074 A 
ATOM     51  C   UNL A   1      42.345  30.833  36.631  1.00  0.00     0.031 C 
ATOM     52  C   UNL A   1      42.643  29.305  34.702  1.00  0.00     0.037 A 
BRANCH  39  53
ATOM     53  C   UNL A   1      40.378  27.909  29.130  1.00  0.00     0.064 A 
ATOM     54  C   UNL A   1      39.640  26.718  29.074  1.00  0.00     0.173 A 
ATOM     55  C   UNL A   1      41.133  28.267  28.003  1.00  0.00     0.173 A 
ATOM     56  F   UNL A   1      38.909  26.326  30.129  1.00  0.00    -0.203 F 
ATOM     57  C   UNL A   1      39.676  25.905  27.944  1.00  0.00     0.198 A 
ATOM     58  C   UNL A   1      41.144  27.466  26.864  1.00  0.00     0.198 A 
ATOM     59  F   UNL A   1      41.852  29.400  28.001  1.00  0.00    -0.203 F 
ATOM     60  F   UNL A   1      38.996  24.750  27.930  1.00  0.00    -0.200 F 
ATOM     61  C   UNL A   1      40.420  26.284  26.837  1.00  0.00     0.200 A 
ATOM     62  F   UNL A   1      41.852  27.840  25.790  1.00  0.00    -0.200 F 
ATOM     63  F   UNL A   1      40.444  25.505  25.746  1.00  0.00    -0.200 F 
ENDBRANCH  39  53
BRANCH  40  64
ATOM     64  C   UNL A   1      39.554  33.966  37.015  1.00  0.00     0.064 A 
ATOM     65  C   UNL A   1      38.760  33.580  38.104  1.00  0.00     0.173 A 
ATOM     66  C   UNL A   1      40.199  35.210  37.085  1.00  0.00     0.173 A 
ATOM     67  F   UNL A   1      38.106  32.410  38.072  1.00  0.00    -0.203 F 
ATOM     68  C   UNL A   1      38.598  34.414  39.207  1.00  0.00     0.198 A 
ATOM     69  C   UNL A   1      40.059  36.030  38.203  1.00  0.00     0.198 A 
ATOM     70  F   UNL A   1      40.972  35.624  36.071  1.00  0.00    -0.203 F 
ATOM     71  F   UNL A   1      37.793  34.042  40.211  1.00  0.00    -0.200 F 
ATOM     72  C   UNL A   1      39.251  35.636  39.259  1.00  0.00     0.200 A 
ATOM     73  F   UNL A   1      40.703  37.204  38.253  1.00  0.00    -0.200 F 
ATOM     74  F   UNL A   1      39.095  36.437  40.320  1.00  0.00    -0.200 F 
ENDBRANCH  40  64
BRANCH  52  75
ATOM     75  C   UNL A   1      43.773  28.652  35.444  1.00  0.00     0.064 A 
ATOM     76  C   UNL A   1      43.551  27.609  36.354  1.00  0.00     0.173 A 
ATOM     77  C   UNL A   1      45.099  29.050  35.212  1.00  0.00     0.173 A 
ATOM     78  F   UNL A   1      42.301  27.202  36.623  1.00  0.00    -0.203 F 
ATOM     79  C   UNL A   1      44.612  27.004  37.023  1.00  0.00     0.198 A 
ATOM     80  C   UNL A   1      46.159  28.424  35.859  1.00  0.00     0.198 A 
ATOM     81  F   UNL A   1      45.365  30.040  34.346  1.00  0.00    -0.203 F 
ATOM     82  F   UNL A   1      44.373  26.041  37.924  1.00  0.00    -0.200 F 
ATOM     83  C   UNL A   1      45.915  27.407  36.769  1.00  0.00     0.200 A 
ATOM     84  F   UNL A   1      47.419  28.806  35.603  1.00  0.00    -0.200 F 
ATOM     85  F   UNL A   1      46.936  26.820  37.408  1.00  0.00    -0.200 F 
ENDBRANCH  52  75
ENDBRANCH  26  27
ENDBRANCH  18  21
ENDBRANCH  16  17
ENDBRANCH   1  16
TORSDOF 12
ENDMDL
MODEL 2
REMARK VINA RESULT:     -11.5      0.884      2.146
REMARK SMILES CC1([C@@]2(C)C[C@@H]2C(=O)NCCCCNC(=O)c2ccc(-c3c4nc(c(-c5c(F)c(F)c(F)c(F)c5F)c5ccc([nH]5)c(-c5c(F)c(F)c(F)c(F)c5F)c5nc(c(-c6c(F)c(F)c(F)c(F)c6F)c6ccc3[nH]6)C=C5)C=C4)cc2)CC1
REMARK SMILES IDX 12 1 11 2 10 3 9 4 7 5 8 6 6 8 3 9 4 10 5 11 2 12 1 13 80 14
REMARK SMILES IDX 81 15 13 16 14 17 15 18 16 20 17 21 18 22 79 23 19 24 78 25
REMARK SMILES IDX 20 26 21 27 22 28 72 29 23 30 77 31 71 32 73 33 24 34 76 35
REMARK SMILES IDX 70 36 69 37 25 39 57 40 37 41 56 42 38 43 41 44 55 45 74 46
REMARK SMILES IDX 39 47 40 48 54 50 75 51 42 52 26 53 27 54 35 55 28 56 29 57
REMARK SMILES IDX 33 58 36 59 30 60 31 61 34 62 32 63 58 64 59 65 67 66 60 67
REMARK SMILES IDX 61 68 65 69 68 70 62 71 63 72 66 73 64 74 43 75 44 76 52 77
REMARK SMILES IDX 45 78 46 79 50 80 53 81 47 82 48 83 51 84 49 85
REMARK H PARENT 9 7 14 19 73 38 41 49
REMARK Flexibility Score: inf
ROOT
ATOM      1  C   UNL A   1      31.426  32.182  26.537  1.00  0.00     0.023 C 
ENDROOT
BRANCH   1   2
ATOM      2  C   UNL A   1      31.623  30.710  26.167  1.00  0.00     0.023 C 
BRANCH   2   3
ATOM      3  C   UNL A   1      32.590  29.935  27.063  1.00  0.00     0.116 C 
BRANCH   3   4
ATOM      4  N   UNL A   1      32.032  28.674  27.507  1.00  0.00    -0.356 N 
ATOM      5  C   UNL A   1      32.060  27.463  26.872  1.00  0.00     0.223 C 
ATOM      6  O   UNL A   1      31.482  26.497  27.354  1.00  0.00    -0.275 OA
ATOM      7  H   UNL A   1      31.573  28.690  28.379  1.00  0.00     0.163 HD
BRANCH   5   8
ATOM      8  C   UNL A   1      32.770  27.374  25.575  1.00  0.00     0.085 C 
ATOM      9  C   UNL A   1      32.023  27.325  24.230  1.00  0.00    -0.015 C 
ATOM     10  C   UNL A   1      30.512  27.205  24.220  1.00  0.00     0.013 C 
ATOM     11  C   UNL A   1      32.756  26.109  24.760  1.00  0.00     0.022 C 
BRANCH   9  12
ATOM     12  C   UNL A   1      32.583  28.224  23.080  1.00  0.00    -0.026 C 
ATOM     13  C   UNL A   1      31.550  29.154  22.478  1.00  0.00     0.012 C 
ATOM     14  C   UNL A   1      33.599  27.649  22.106  1.00  0.00     0.008 C 
ATOM     15  C   UNL A   1      34.025  28.713  23.066  1.00  0.00     0.008 C 
ENDBRANCH   9  12
ENDBRANCH   5   8
ENDBRANCH   3   4
ENDBRANCH   2   3
ENDBRANCH   1   2
BRANCH   1  16
ATOM     16  C   UNL A   1      32.558  32.822  27.333  1.00  0.00     0.116 C 
BRANCH  16  17
ATOM     17  N   UNL A   1      32.295  34.207  27.687  1.00  0.00    -0.352 N 
ATOM     18  C   UNL A   1      32.926  35.014  28.603  1.00  0.00     0.251 C 
ATOM     19  H   UNL A   1      31.554  34.631  27.196  1.00  0.00     0.163 HD
ATOM     20  O   UNL A   1      32.473  36.128  28.851  1.00  0.00    -0.269 OA
BRANCH  18  21
ATOM     21  C   UNL A   1      34.128  34.535  29.324  1.00  0.00     0.039 A 
ATOM     22  C   UNL A   1      33.975  34.034  30.621  1.00  0.00     0.014 A 
ATOM     23  C   UNL A   1      35.395  34.579  28.738  1.00  0.00     0.014 A 
ATOM     24  C   UNL A   1      35.078  33.504  31.297  1.00  0.00     0.010 A 
ATOM     25  C   UNL A   1      36.480  33.988  29.386  1.00  0.00     0.010 A 
ATOM     26  C   UNL A   1      36.331  33.436  30.667  1.00  0.00    -0.014 A 
BRANCH  26  27
ATOM     27  C   UNL A   1      37.487  32.768  31.321  1.00  0.00     0.031 A 
ATOM     28  C   UNL A   1      38.179  31.613  30.652  1.00  0.00     0.074 A 
ATOM     29  C   UNL A   1      37.870  33.157  32.553  1.00  0.00     0.049 A 
ATOM     30  N   UNL A   1      39.147  30.854  31.103  1.00  0.00    -0.248 NA
ATOM     31  C   UNL A   1      37.707  31.248  29.308  1.00  0.00     0.031 C 
ATOM     32  C   UNL A   1      37.255  34.236  33.328  1.00  0.00     0.029 A 
ATOM     33  N   UNL A   1      38.860  32.681  33.378  1.00  0.00    -0.354 N 
ATOM     34  C   UNL A   1      39.389  29.918  30.107  1.00  0.00     0.074 A 
ATOM     35  C   UNL A   1      38.437  30.173  29.047  1.00  0.00     0.031 C 
ATOM     36  C   UNL A   1      37.889  34.350  34.506  1.00  0.00     0.029 A 
ATOM     37  C   UNL A   1      38.929  33.328  34.587  1.00  0.00     0.049 A 
ATOM     38  H   UNL A   1      39.463  31.945  33.125  1.00  0.00     0.167 HD
ATOM     39  C   UNL A   1      40.334  28.947  30.070  1.00  0.00     0.037 A 
ATOM     40  C   UNL A   1      39.729  33.114  35.649  1.00  0.00     0.037 A 
ATOM     41  C   UNL A   1      41.296  28.707  31.115  1.00  0.00     0.049 A 
ATOM     42  C   UNL A   1      40.758  32.018  35.588  1.00  0.00     0.074 A 
ATOM     43  C   UNL A   1      42.327  27.784  31.142  1.00  0.00     0.029 A 
ATOM     44  N   UNL A   1      41.342  29.392  32.319  1.00  0.00    -0.354 N 
ATOM     45  N   UNL A   1      41.020  31.183  34.612  1.00  0.00    -0.248 NA
ATOM     46  C   UNL A   1      41.606  31.838  36.775  1.00  0.00     0.031 C 
ATOM     47  C   UNL A   1      42.969  27.880  32.381  1.00  0.00     0.029 A 
ATOM     48  C   UNL A   1      42.370  28.898  33.106  1.00  0.00     0.049 A 
ATOM     49  H   UNL A   1      40.734  30.123  32.577  1.00  0.00     0.167 HD
ATOM     50  C   UNL A   1      42.077  30.399  35.055  1.00  0.00     0.074 A 
ATOM     51  C   UNL A   1      42.419  30.869  36.382  1.00  0.00     0.031 C 
ATOM     52  C   UNL A   1      42.707  29.381  34.421  1.00  0.00     0.037 A 
BRANCH  39  53
ATOM     53  C   UNL A   1      40.382  28.067  28.853  1.00  0.00     0.064 A 
ATOM     54  C   UNL A   1      41.146  28.413  27.729  1.00  0.00     0.173 A 
ATOM     55  C   UNL A   1      39.703  26.841  28.833  1.00  0.00     0.173 A 
ATOM     56  F   UNL A   1      41.808  29.579  27.695  1.00  0.00    -0.203 F 
ATOM     57  C   UNL A   1      41.207  27.575  26.619  1.00  0.00     0.198 A 
ATOM     58  C   UNL A   1      39.790  25.991  27.733  1.00  0.00     0.198 A 
ATOM     59  F   UNL A   1      38.964  26.458  29.886  1.00  0.00    -0.203 F 
ATOM     60  F   UNL A   1      41.910  27.945  25.539  1.00  0.00    -0.200 F 
ATOM     61  C   UNL A   1      40.537  26.361  26.626  1.00  0.00     0.200 A 
ATOM     62  F   UNL A   1      39.152  24.812  27.746  1.00  0.00    -0.200 F 
ATOM     63  F   UNL A   1      40.607  25.550  25.561  1.00  0.00    -0.200 F 
ENDBRANCH  39  53
BRANCH  40  64
ATOM     64  C   UNL A   1      39.602  33.965  36.862  1.00  0.00     0.064 A 
ATOM     65  C   UNL A   1      38.830  33.549  37.955  1.00  0.00     0.173 A 
ATOM     66  C   UNL A   1      40.232  35.215  36.946  1.00  0.00     0.173 A 
ATOM     67  F   UNL A   1      38.190  32.371  37.912  1.00  0.00    -0.203 F 
ATOM     68  C   UNL A   1      38.673  34.360  39.077  1.00  0.00     0.198 A 
ATOM     69  C   UNL A   1      40.099  36.013  38.081  1.00  0.00     0.198 A 
ATOM     70  F   UNL A   1      40.985  35.658  35.929  1.00  0.00    -0.203 F 
ATOM     71  F   UNL A   1      37.889  33.959  40.086  1.00  0.00    -0.200 F 
ATOM     72  C   UNL A   1      39.312  35.589  39.142  1.00  0.00     0.200 A 
ATOM     73  F   UNL A   1      40.728  37.194  38.144  1.00  0.00    -0.200 F 
ATOM     74  F   UNL A   1      39.162  36.368  40.220  1.00  0.00    -0.200 F 
ENDBRANCH  40  64
BRANCH  52  75
ATOM     75  C   UNL A   1      43.853  28.726  35.135  1.00  0.00     0.064 A 
ATOM     76  C   UNL A   1      45.163  29.214  35.027  1.00  0.00     0.173 A 
ATOM     77  C   UNL A   1      43.632  27.618  35.967  1.00  0.00     0.173 A 
ATOM     78  F   UNL A   1      45.430  30.260  34.231  1.00  0.00    -0.203 F 
ATOM     79  C   UNL A   1      46.213  28.602  35.708  1.00  0.00     0.198 A 
ATOM     80  C   UNL A   1      44.677  27.028  36.670  1.00  0.00     0.198 A 
ATOM     81  F   UNL A   1      42.396  27.116  36.109  1.00  0.00    -0.203 F 
ATOM     82  F   UNL A   1      47.465  29.057  35.553  1.00  0.00    -0.200 F 
ATOM     83  C   UNL A   1      45.968  27.516  36.534  1.00  0.00     0.200 A 
ATOM     84  F   UNL A   1      44.437  25.986  37.479  1.00  0.00    -0.200 F 
ATOM     85  F   UNL A   1      46.978  26.934  37.194  1.00  0.00    -0.200 F 
ENDBRANCH  52  75
ENDBRANCH  26  27
ENDBRANCH  18  21
ENDBRANCH  16  17
ENDBRANCH   1  16
TORSDOF 12
ENDMDL
MODEL 3
REMARK VINA RESULT:     -11.5      0.399      1.293
REMARK SMILES CC1([C@@]2(C)C[C@@H]2C(=O)NCCCCNC(=O)c2ccc(-c3c4nc(c(-c5c(F)c(F)c(F)c(F)c5F)c5ccc([nH]5)c(-c5c(F)c(F)c(F)c(F)c5F)c5nc(c(-c6c(F)c(F)c(F)c(F)c6F)c6ccc3[nH]6)C=C5)C=C4)cc2)CC1
REMARK SMILES IDX 12 1 11 2 10 3 9 4 7 5 8 6 6 8 3 9 4 10 5 11 2 12 1 13 80 14
REMARK SMILES IDX 81 15 13 16 14 17 15 18 16 20 17 21 18 22 79 23 19 24 78 25
REMARK SMILES IDX 20 26 21 27 22 28 72 29 23 30 77 31 71 32 73 33 24 34 76 35
REMARK SMILES IDX 70 36 69 37 25 39 57 40 37 41 56 42 38 43 41 44 55 45 74 46
REMARK SMILES IDX 39 47 40 48 54 50 75 51 42 52 26 53 27 54 35 55 28 56 29 57
REMARK SMILES IDX 33 58 36 59 30 60 31 61 34 62 32 63 58 64 59 65 67 66 60 67
REMARK SMILES IDX 61 68 65 69 68 70 62 71 63 72 66 73 64 74 43 75 44 76 52 77
REMARK SMILES IDX 45 78 46 79 50 80 53 81 47 82 48 83 51 84 49 85
REMARK H PARENT 9 7 14 19 73 38 41 49
REMARK Flexibility Score: inf
ROOT
ATOM      1  C   UNL A   1      31.457  32.075  26.550  1.00  0.00     0.023 C 
ENDROOT
BRANCH   1   2
ATOM      2  C   UNL A   1      31.477  30.544  26.535  1.00  0.00     0.023 C 
BRANCH   2   3
ATOM      3  C   UNL A   1      32.136  29.911  25.310  1.00  0.00     0.116 C 
BRANCH   3   4
ATOM      4  N   UNL A   1      31.230  29.829  24.183  1.00  0.00    -0.356 N 
ATOM      5  C   UNL A   1      30.547  28.738  23.721  1.00  0.00     0.223 C 
ATOM      6  O   UNL A   1      29.862  28.818  22.708  1.00  0.00    -0.275 OA
ATOM      7  H   UNL A   1      31.087  30.667  23.685  1.00  0.00     0.163 HD
BRANCH   5   8
ATOM      8  C   UNL A   1      30.697  27.460  24.455  1.00  0.00     0.085 C 
ATOM      9  C   UNL A   1      31.824  26.460  24.144  1.00  0.00    -0.015 C 
ATOM     10  C   UNL A   1      32.723  26.698  22.947  1.00  0.00     0.013 C 
ATOM     11  C   UNL A   1      30.382  26.141  23.805  1.00  0.00     0.022 C 
BRANCH   9  12
ATOM     12  C   UNL A   1      32.570  25.835  25.367  1.00  0.00    -0.026 C 
ATOM     13  C   UNL A   1      33.791  26.621  25.802  1.00  0.00     0.012 C 
ATOM     14  C   UNL A   1      32.684  24.323  25.485  1.00  0.00     0.008 C 
ATOM     15  C   UNL A   1      31.834  25.072  26.460  1.00  0.00     0.008 C 
ENDBRANCH   9  12
ENDBRANCH   5   8
ENDBRANCH   3   4
ENDBRANCH   2   3
ENDBRANCH   1   2
BRANCH   1  16
ATOM     16  C   UNL A   1      32.612  32.745  27.288  1.00  0.00     0.116 C 
BRANCH  16  17
ATOM     17  N   UNL A   1      32.340  34.131  27.632  1.00  0.00    -0.352 N 
ATOM     18  C   UNL A   1      32.960  34.944  28.551  1.00  0.00     0.251 C 
ATOM     19  H   UNL A   1      31.602  34.549  27.132  1.00  0.00     0.163 HD
ATOM     20  O   UNL A   1      32.501  36.057  28.790  1.00  0.00    -0.269 OA
BRANCH  18  21
ATOM     21  C   UNL A   1      34.156  34.472  29.286  1.00  0.00     0.039 A 
ATOM     22  C   UNL A   1      33.981  33.879  30.540  1.00  0.00     0.014 A 
ATOM     23  C   UNL A   1      35.440  34.612  28.753  1.00  0.00     0.014 A 
ATOM     24  C   UNL A   1      35.083  33.354  31.222  1.00  0.00     0.010 A 
ATOM     25  C   UNL A   1      36.528  34.028  29.403  1.00  0.00     0.010 A 
ATOM     26  C   UNL A   1      36.360  33.385  30.639  1.00  0.00    -0.014 A 
BRANCH  26  27
ATOM     27  C   UNL A   1      37.522  32.727  31.293  1.00  0.00     0.031 A 
ATOM     28  C   UNL A   1      38.219  31.574  30.626  1.00  0.00     0.074 A 
ATOM     29  C   UNL A   1      37.906  33.125  32.521  1.00  0.00     0.049 A 
ATOM     30  N   UNL A   1      39.193  30.823  31.077  1.00  0.00    -0.248 NA
ATOM     31  C   UNL A   1      37.746  31.200  29.285  1.00  0.00     0.031 C 
ATOM     32  C   UNL A   1      37.286  34.203  33.294  1.00  0.00     0.029 A 
ATOM     33  N   UNL A   1      38.901  32.658  33.345  1.00  0.00    -0.354 N 
ATOM     34  C   UNL A   1      39.439  29.885  30.085  1.00  0.00     0.074 A 
ATOM     35  C   UNL A   1      38.482  30.129  29.027  1.00  0.00     0.031 C 
ATOM     36  C   UNL A   1      37.922  34.326  34.469  1.00  0.00     0.029 A 
ATOM     37  C   UNL A   1      38.970  33.311  34.552  1.00  0.00     0.049 A 
ATOM     38  H   UNL A   1      39.508  31.926  33.094  1.00  0.00     0.167 HD
ATOM     39  C   UNL A   1      40.389  28.919  30.050  1.00  0.00     0.037 A 
ATOM     40  C   UNL A   1      39.774  33.107  35.612  1.00  0.00     0.037 A 
ATOM     41  C   UNL A   1      41.356  28.690  31.092  1.00  0.00     0.049 A 
ATOM     42  C   UNL A   1      40.809  32.017  35.553  1.00  0.00     0.074 A 
ATOM     43  C   UNL A   1      42.393  27.774  31.120  1.00  0.00     0.029 A 
ATOM     44  N   UNL A   1      41.401  29.381  32.294  1.00  0.00    -0.354 N 
ATOM     45  N   UNL A   1      41.075  31.179  34.580  1.00  0.00    -0.248 NA
ATOM     46  C   UNL A   1      41.662  31.847  36.738  1.00  0.00     0.031 C 
ATOM     47  C   UNL A   1      43.038  27.880  32.357  1.00  0.00     0.029 A 
ATOM     48  C   UNL A   1      42.435  28.897  33.080  1.00  0.00     0.049 A 
ATOM     49  H   UNL A   1      40.789  30.109  32.550  1.00  0.00     0.167 HD
ATOM     50  C   UNL A   1      42.138  30.404  35.023  1.00  0.00     0.074 A 
ATOM     51  C   UNL A   1      42.480  30.882  36.347  1.00  0.00     0.031 C 
ATOM     52  C   UNL A   1      42.772  29.387  34.391  1.00  0.00     0.037 A 
BRANCH  39  53
ATOM     53  C   UNL A   1      40.440  28.035  28.836  1.00  0.00     0.064 A 
ATOM     54  C   UNL A   1      41.210  28.374  27.714  1.00  0.00     0.173 A 
ATOM     55  C   UNL A   1      39.757  26.811  28.818  1.00  0.00     0.173 A 
ATOM     56  F   UNL A   1      41.875  29.539  27.677  1.00  0.00    -0.203 F 
ATOM     57  C   UNL A   1      41.273  27.531  26.607  1.00  0.00     0.198 A 
ATOM     58  C   UNL A   1      39.846  25.956  27.722  1.00  0.00     0.198 A 
ATOM     59  F   UNL A   1      39.012  26.434  29.869  1.00  0.00    -0.203 F 
ATOM     60  F   UNL A   1      41.980  27.896  25.529  1.00  0.00    -0.200 F 
ATOM     61  C   UNL A   1      40.599  26.320  26.616  1.00  0.00     0.200 A 
ATOM     62  F   UNL A   1      39.205  24.780  27.737  1.00  0.00    -0.200 F 
ATOM     63  F   UNL A   1      40.670  25.504  25.554  1.00  0.00    -0.200 F 
ENDBRANCH  39  53
BRANCH  40  64
ATOM     64  C   UNL A   1      39.644  33.962  36.822  1.00  0.00     0.064 A 
ATOM     65  C   UNL A   1      38.854  33.559  37.907  1.00  0.00     0.173 A 
ATOM     66  C   UNL A   1      40.292  35.203  36.911  1.00  0.00     0.173 A 
ATOM     67  F   UNL A   1      38.197  32.391  37.858  1.00  0.00    -0.203 F 
ATOM     68  C   UNL A   1      38.696  34.375  39.024  1.00  0.00     0.198 A 
ATOM     69  C   UNL A   1      40.157  36.005  38.043  1.00  0.00     0.198 A 
ATOM     70  F   UNL A   1      41.063  35.633  35.902  1.00  0.00    -0.203 F 
ATOM     71  F   UNL A   1      37.893  33.988  40.025  1.00  0.00    -0.200 F 
ATOM     72  C   UNL A   1      39.351  35.595  39.095  1.00  0.00     0.200 A 
ATOM     73  F   UNL A   1      40.802  37.177  38.111  1.00  0.00    -0.200 F 
ATOM     74  F   UNL A   1      39.200  36.379  40.170  1.00  0.00    -0.200 F 
ENDBRANCH  40  64
BRANCH  52  75
ATOM     75  C   UNL A   1      43.925  28.743  35.105  1.00  0.00     0.064 A 
ATOM     76  C   UNL A   1      43.745  27.625  35.934  1.00  0.00     0.173 A 
ATOM     77  C   UNL A   1      45.230  29.226  34.928  1.00  0.00     0.173 A 
ATOM     78  F   UNL A   1      42.516  27.135  36.149  1.00  0.00    -0.203 F 
ATOM     79  C   UNL A   1      44.828  27.031  36.577  1.00  0.00     0.198 A 
ATOM     80  C   UNL A   1      46.313  28.612  35.548  1.00  0.00     0.198 A 
ATOM     81  F   UNL A   1      45.455  30.289  34.141  1.00  0.00    -0.203 F 
ATOM     82  F   UNL A   1      44.628  25.993  37.401  1.00  0.00    -0.200 F 
ATOM     83  C   UNL A   1      46.111  27.520  36.377  1.00  0.00     0.200 A 
ATOM     84  F   UNL A   1      47.554  29.077  35.344  1.00  0.00    -0.200 F 
ATOM     85  F   UNL A   1      47.152  26.942  36.991  1.00  0.00    -0.200 F 
ENDBRANCH  52  75
ENDBRANCH  26  27
ENDBRANCH  18  21
ENDBRANCH  16  17
ENDBRANCH   1  16
TORSDOF 12
ENDMDL
