MODEL 1
REMARK VINA RESULT:     -12.4      0.000      0.000
REMARK SMILES O=C(NCCCCNC(=O)[C@@H]1CCCC[C@@H]1Sc1ccncc1)c1ccc(-c2c3nc(c(-c4c(F)c(F)c(F)c(F)c4F)c4ccc([nH]4)c(-c4c(F)c(F)c(F)c(F)c4F)c4nc(c(-c5c(F)c(F)c(F)c(F)c5F)c5ccc2[nH]5)C=C4)C=C3)cc1
REMARK SMILES IDX 5 1 4 2 3 3 1 4 2 5 24 7 25 8 86 9 26 10 85 11 27 12 28 13
REMARK SMILES IDX 29 14 79 15 30 16 84 17 78 18 80 19 31 20 83 21 77 22 76 23
REMARK SMILES IDX 32 25 64 26 44 27 63 28 45 29 48 30 62 31 81 32 46 33 47 34
REMARK SMILES IDX 61 36 82 37 49 38 33 39 34 40 42 41 35 42 36 43 40 44 43 45
REMARK SMILES IDX 37 46 38 47 41 48 39 49 65 50 66 51 74 52 67 53 68 54 72 55
REMARK SMILES IDX 75 56 69 57 70 58 73 59 71 60 50 61 51 62 59 63 52 64 53 65
REMARK SMILES IDX 57 66 60 67 54 68 55 69 58 70 56 71 6 72 7 73 8 74 9 75
REMARK SMILES IDX 10 77 11 78 12 79 16 80 13 81 15 82 14 83 17 84 18 85 19 86
REMARK SMILES IDX 23 87 20 88 22 89 21 90
REMARK H PARENT 3 6 80 24 48 35 8 76
REMARK Flexibility Score: inf
ROOT
ATOM      1  C   UNL A   1      31.288  32.251  26.503  1.00  0.00     0.023 C 
ENDROOT
BRANCH   1   2
ATOM      2  C   UNL A   1      32.522  32.837  27.180  1.00  0.00     0.116 C 
BRANCH   2   3
ATOM      3  N   UNL A   1      32.315  34.205  27.628  1.00  0.00    -0.352 N 
ATOM      4  O   UNL A   1      32.537  36.003  28.967  1.00  0.00    -0.269 OA
ATOM      5  C   UNL A   1      32.963  34.907  28.611  1.00  0.00     0.251 C 
ATOM      6  H   UNL A   1      31.606  34.699  27.156  1.00  0.00     0.163 HD
BRANCH   5   7
ATOM      7  C   UNL A   1      34.159  34.336  29.263  1.00  0.00     0.039 A 
ATOM      8  C   UNL A   1      35.440  34.570  28.752  1.00  0.00     0.014 A 
ATOM      9  C   UNL A   1      33.992  33.568  30.418  1.00  0.00     0.014 A 
ATOM     10  C   UNL A   1      36.540  33.937  29.321  1.00  0.00     0.010 A 
ATOM     11  C   UNL A   1      35.106  32.992  31.031  1.00  0.00     0.010 A 
ATOM     12  C   UNL A   1      36.385  33.150  30.473  1.00  0.00    -0.014 A 
BRANCH  12  13
ATOM     13  C   UNL A   1      37.563  32.528  31.124  1.00  0.00     0.031 A 
ATOM     14  C   UNL A   1      38.277  31.379  30.473  1.00  0.00     0.074 A 
ATOM     15  C   UNL A   1      37.958  32.973  32.330  1.00  0.00     0.049 A 
ATOM     16  N   UNL A   1      39.250  30.636  30.940  1.00  0.00    -0.248 NA
ATOM     17  C   UNL A   1      37.832  31.009  29.122  1.00  0.00     0.031 C 
ATOM     18  C   UNL A   1      37.344  34.083  33.058  1.00  0.00     0.029 A 
ATOM     19  N   UNL A   1      38.956  32.536  33.165  1.00  0.00    -0.354 N 
ATOM     20  C   UNL A   1      39.514  29.696  29.953  1.00  0.00     0.074 A 
ATOM     21  C   UNL A   1      38.582  29.945  28.874  1.00  0.00     0.031 C 
ATOM     22  C   UNL A   1      37.975  34.242  34.230  1.00  0.00     0.029 A 
ATOM     23  C   UNL A   1      38.993  33.205  34.364  1.00  0.00     0.049 A 
ATOM     24  H   UNL A   1      39.582  31.814  32.928  1.00  0.00     0.167 HD
ATOM     25  C   UNL A   1      40.452  28.717  29.952  1.00  0.00     0.037 A 
ATOM     26  C   UNL A   1      39.733  32.983  35.465  1.00  0.00     0.037 A 
ATOM     27  C   UNL A   1      41.372  28.480  31.035  1.00  0.00     0.049 A 
ATOM     28  C   UNL A   1      40.731  31.860  35.465  1.00  0.00     0.074 A 
ATOM     29  C   UNL A   1      42.386  27.541  31.118  1.00  0.00     0.029 A 
ATOM     30  N   UNL A   1      41.379  29.179  32.235  1.00  0.00    -0.354 N 
ATOM     31  N   UNL A   1      41.000  30.997  34.516  1.00  0.00    -0.248 NA
ATOM     32  C   UNL A   1      41.528  31.679  36.685  1.00  0.00     0.031 C 
ATOM     33  C   UNL A   1      42.959  27.626  32.391  1.00  0.00     0.029 A 
ATOM     34  C   UNL A   1      42.356  28.669  33.076  1.00  0.00     0.049 A 
ATOM     35  H   UNL A   1      40.778  29.927  32.457  1.00  0.00     0.167 HD
ATOM     36  C   UNL A   1      42.020  30.194  35.007  1.00  0.00     0.074 A 
ATOM     37  C   UNL A   1      42.318  30.671  36.342  1.00  0.00     0.031 C 
ATOM     38  C   UNL A   1      42.654  29.161  34.399  1.00  0.00     0.037 A 
BRANCH  25  39
ATOM     39  C   UNL A   1      40.498  27.802  28.760  1.00  0.00     0.064 A 
ATOM     40  C   UNL A   1      41.275  28.092  27.627  1.00  0.00     0.173 A 
ATOM     41  C   UNL A   1      39.759  26.608  28.754  1.00  0.00     0.173 A 
ATOM     42  F   UNL A   1      41.999  29.222  27.574  1.00  0.00    -0.203 F 
ATOM     43  C   UNL A   1      41.270  27.250  26.517  1.00  0.00     0.198 A 
ATOM     44  C   UNL A   1      39.786  25.750  27.658  1.00  0.00     0.198 A 
ATOM     45  F   UNL A   1      39.007  26.272  29.813  1.00  0.00    -0.203 F 
ATOM     46  F   UNL A   1      41.965  27.585  25.421  1.00  0.00    -0.200 F 
ATOM     47  C   UNL A   1      40.529  26.077  26.535  1.00  0.00     0.200 A 
ATOM     48  F   UNL A   1      39.082  24.609  27.685  1.00  0.00    -0.200 F 
ATOM     49  F   UNL A   1      40.523  25.270  25.466  1.00  0.00    -0.200 F 
ENDBRANCH  25  39
BRANCH  26  50
ATOM     50  C   UNL A   1      39.535  33.849  36.655  1.00  0.00     0.064 A 
ATOM     51  C   UNL A   1      38.725  33.437  37.720  1.00  0.00     0.173 A 
ATOM     52  C   UNL A   1      40.196  35.081  36.774  1.00  0.00     0.173 A 
ATOM     53  F   UNL A   1      38.061  32.273  37.646  1.00  0.00    -0.203 F 
ATOM     54  C   UNL A   1      38.581  34.226  38.859  1.00  0.00     0.198 A 
ATOM     55  C   UNL A   1      40.074  35.854  37.925  1.00  0.00     0.198 A 
ATOM     56  F   UNL A   1      40.991  35.515  35.785  1.00  0.00    -0.203 F 
ATOM     57  F   UNL A   1      37.779  33.821  39.854  1.00  0.00    -0.200 F 
ATOM     58  C   UNL A   1      39.263  35.428  38.966  1.00  0.00     0.200 A 
ATOM     59  F   UNL A   1      40.753  37.005  38.032  1.00  0.00    -0.200 F 
ATOM     60  F   UNL A   1      39.140  36.176  40.070  1.00  0.00    -0.200 F 
ENDBRANCH  26  50
BRANCH  38  61
ATOM     61  C   UNL A   1      43.782  28.503  35.141  1.00  0.00     0.064 A 
ATOM     62  C   UNL A   1      45.097  28.980  35.074  1.00  0.00     0.173 A 
ATOM     63  C   UNL A   1      43.519  27.420  35.997  1.00  0.00     0.173 A 
ATOM     64  F   UNL A   1      45.404  30.001  34.259  1.00  0.00    -0.203 F 
ATOM     65  C   UNL A   1      46.110  28.395  35.830  1.00  0.00     0.198 A 
ATOM     66  C   UNL A   1      44.527  26.857  36.773  1.00  0.00     0.198 A 
ATOM     67  F   UNL A   1      42.275  26.926  36.099  1.00  0.00    -0.203 F 
ATOM     68  F   UNL A   1      47.368  28.847  35.727  1.00  0.00    -0.200 F 
ATOM     69  C   UNL A   1      45.822  27.343  36.688  1.00  0.00     0.200 A 
ATOM     70  F   UNL A   1      44.241  25.852  37.612  1.00  0.00    -0.200 F 
ATOM     71  F   UNL A   1      46.794  26.796  37.431  1.00  0.00    -0.200 F 
ENDBRANCH  38  61
ENDBRANCH  12  13
ENDBRANCH   5   7
ENDBRANCH   2   3
ENDBRANCH   1   2
BRANCH   1  72
ATOM     72  C   UNL A   1      31.433  30.802  26.027  1.00  0.00     0.023 C 
BRANCH  72  73
ATOM     73  C   UNL A   1      32.845  30.230  26.133  1.00  0.00     0.116 C 
BRANCH  73  74
ATOM     74  N   UNL A   1      33.296  29.693  24.862  1.00  0.00    -0.356 N 
ATOM     75  C   UNL A   1      33.392  28.415  24.404  1.00  0.00     0.224 C 
ATOM     76  H   UNL A   1      33.583  30.377  24.215  1.00  0.00     0.163 HD
ATOM     77  O   UNL A   1      33.963  28.262  23.326  1.00  0.00    -0.275 OA
BRANCH  75  78
ATOM     78  C   UNL A   1      32.843  27.257  25.233  1.00  0.00     0.092 C 
ATOM     79  C   UNL A   1      33.597  25.960  24.912  1.00  0.00     0.014 C 
ATOM     80  C   UNL A   1      31.303  27.099  25.152  1.00  0.00     0.064 C 
ATOM     81  C   UNL A   1      33.146  24.823  25.829  1.00  0.00     0.001 C 
ATOM     82  C   UNL A   1      30.903  25.969  26.126  1.00  0.00     0.015 C 
ATOM     83  C   UNL A   1      31.630  24.651  25.851  1.00  0.00     0.001 C 
BRANCH  80  84
ATOM     84  S   UNL A   1      30.689  26.733  23.447  1.00  0.00    -0.122 SA
BRANCH  84  85
ATOM     85  C   UNL A   1      29.793  28.182  22.916  1.00  0.00     0.011 A 
ATOM     86  C   UNL A   1      30.342  29.325  22.342  1.00  0.00     0.035 A 
ATOM     87  C   UNL A   1      28.411  28.149  23.125  1.00  0.00     0.035 A 
ATOM     88  C   UNL A   1      29.504  30.394  22.057  1.00  0.00     0.112 A 
ATOM     89  C   UNL A   1      27.654  29.259  22.793  1.00  0.00     0.112 A 
ATOM     90  N   UNL A   1      28.173  30.388  22.273  1.00  0.00    -0.265 NA
ENDBRANCH  84  85
ENDBRANCH  80  84
ENDBRANCH  75  78
ENDBRANCH  73  74
ENDBRANCH  72  73
ENDBRANCH   1  72
TORSDOF 13
ENDMDL
MODEL 2
REMARK VINA RESULT:     -12.4      0.287      1.644
REMARK SMILES O=C(NCCCCNC(=O)[C@@H]1CCCC[C@@H]1Sc1ccncc1)c1ccc(-c2c3nc(c(-c4c(F)c(F)c(F)c(F)c4F)c4ccc([nH]4)c(-c4c(F)c(F)c(F)c(F)c4F)c4nc(c(-c5c(F)c(F)c(F)c(F)c5F)c5ccc2[nH]5)C=C4)C=C3)cc1
REMARK SMILES IDX 5 1 4 2 3 3 1 4 2 5 24 7 25 8 86 9 26 10 85 11 27 12 28 13
REMARK SMILES IDX 29 14 79 15 30 16 84 17 78 18 80 19 31 20 83 21 77 22 76 23
REMARK SMILES IDX 32 25 64 26 44 27 63 28 45 29 48 30 62 31 81 32 46 33 47 34
REMARK SMILES IDX 61 36 82 37 49 38 33 39 34 40 42 41 35 42 36 43 40 44 43 45
REMARK SMILES IDX 37 46 38 47 41 48 39 49 65 50 66 51 74 52 67 53 68 54 72 55
REMARK SMILES IDX 75 56 69 57 70 58 73 59 71 60 50 61 51 62 59 63 52 64 53 65
REMARK SMILES IDX 57 66 60 67 54 68 55 69 58 70 56 71 6 72 7 73 8 74 9 75
REMARK SMILES IDX 10 77 11 78 12 79 16 80 13 81 15 82 14 83 17 84 18 85 19 86
REMARK SMILES IDX 23 87 20 88 22 89 21 90
REMARK H PARENT 3 6 80 24 48 35 8 76
REMARK Flexibility Score: inf
ROOT
ATOM      1  C   UNL A   1      31.381  32.296  26.505  1.00  0.00     0.023 C 
ENDROOT
BRANCH   1   2
ATOM      2  C   UNL A   1      32.609  32.896  27.179  1.00  0.00     0.116 C 
BRANCH   2   3
ATOM      3  N   UNL A   1      32.373  34.244  27.672  1.00  0.00    -0.352 N 
ATOM      4  O   UNL A   1      32.559  36.003  29.068  1.00  0.00    -0.269 OA
ATOM      5  C   UNL A   1      33.009  34.929  28.675  1.00  0.00     0.251 C 
ATOM      6  H   UNL A   1      31.650  34.736  27.219  1.00  0.00     0.163 HD
BRANCH   5   7
ATOM      7  C   UNL A   1      34.221  34.365  29.304  1.00  0.00     0.039 A 
ATOM      8  C   UNL A   1      35.493  34.650  28.798  1.00  0.00     0.014 A 
ATOM      9  C   UNL A   1      34.076  33.553  30.431  1.00  0.00     0.014 A 
ATOM     10  C   UNL A   1      36.611  34.024  29.343  1.00  0.00     0.010 A 
ATOM     11  C   UNL A   1      35.206  32.984  31.021  1.00  0.00     0.010 A 
ATOM     12  C   UNL A   1      36.479  33.194  30.466  1.00  0.00    -0.014 A 
BRANCH  12  13
ATOM     13  C   UNL A   1      37.674  32.578  31.092  1.00  0.00     0.031 A 
ATOM     14  C   UNL A   1      38.401  31.455  30.411  1.00  0.00     0.074 A 
ATOM     15  C   UNL A   1      38.075  33.006  32.303  1.00  0.00     0.049 A 
ATOM     16  N   UNL A   1      39.390  30.719  30.852  1.00  0.00    -0.248 NA
ATOM     17  C   UNL A   1      37.947  31.105  29.058  1.00  0.00     0.031 C 
ATOM     18  C   UNL A   1      37.450  34.091  33.060  1.00  0.00     0.029 A 
ATOM     19  N   UNL A   1      39.088  32.569  33.118  1.00  0.00    -0.354 N 
ATOM     20  C   UNL A   1      39.659  29.803  29.844  1.00  0.00     0.074 A 
ATOM     21  C   UNL A   1      38.712  30.058  28.780  1.00  0.00     0.031 C 
ATOM     22  C   UNL A   1      38.091  34.236  34.228  1.00  0.00     0.029 A 
ATOM     23  C   UNL A   1      39.127  33.214  34.330  1.00  0.00     0.049 A 
ATOM     24  H   UNL A   1      39.724  31.863  32.860  1.00  0.00     0.167 HD
ATOM     25  C   UNL A   1      40.614  28.841  29.813  1.00  0.00     0.037 A 
ATOM     26  C   UNL A   1      39.883  32.983  35.419  1.00  0.00     0.037 A 
ATOM     27  C   UNL A   1      41.549  28.598  30.882  1.00  0.00     0.049 A 
ATOM     28  C   UNL A   1      40.899  31.877  35.386  1.00  0.00     0.074 A 
ATOM     29  C   UNL A   1      42.580  27.675  30.935  1.00  0.00     0.029 A 
ATOM     30  N   UNL A   1      41.557  29.273  32.096  1.00  0.00    -0.354 N 
ATOM     31  N   UNL A   1      41.173  31.038  34.417  1.00  0.00    -0.248 NA
ATOM     32  C   UNL A   1      41.713  31.685  36.593  1.00  0.00     0.031 C 
ATOM     33  C   UNL A   1      43.164  27.744  32.204  1.00  0.00     0.029 A 
ATOM     34  C   UNL A   1      42.552  28.763  32.916  1.00  0.00     0.049 A 
ATOM     35  H   UNL A   1      40.947  30.006  32.339  1.00  0.00     0.167 HD
ATOM     36  C   UNL A   1      42.211  30.242  34.881  1.00  0.00     0.074 A 
ATOM     37  C   UNL A   1      42.515  30.697  36.222  1.00  0.00     0.031 C 
ATOM     38  C   UNL A   1      42.856  29.233  34.246  1.00  0.00     0.037 A 
BRANCH  25  39
ATOM     39  C   UNL A   1      40.662  27.951  28.603  1.00  0.00     0.064 A 
ATOM     40  C   UNL A   1      41.423  28.276  27.468  1.00  0.00     0.173 A 
ATOM     41  C   UNL A   1      39.941  26.746  28.580  1.00  0.00     0.173 A 
ATOM     42  F   UNL A   1      42.128  29.418  27.432  1.00  0.00    -0.203 F 
ATOM     43  C   UNL A   1      41.420  27.456  26.342  1.00  0.00     0.198 A 
ATOM     44  C   UNL A   1      39.971  25.910  27.466  1.00  0.00     0.198 A 
ATOM     45  F   UNL A   1      39.206  26.377  29.639  1.00  0.00    -0.203 F 
ATOM     46  F   UNL A   1      42.098  27.824  25.246  1.00  0.00    -0.200 F 
ATOM     47  C   UNL A   1      40.698  26.272  26.343  1.00  0.00     0.200 A 
ATOM     48  F   UNL A   1      39.286  24.758  27.477  1.00  0.00    -0.200 F 
ATOM     49  F   UNL A   1      40.694  25.486  25.258  1.00  0.00    -0.200 F 
ENDBRANCH  25  39
BRANCH  26  50
ATOM     50  C   UNL A   1      39.683  33.821  36.628  1.00  0.00     0.064 A 
ATOM     51  C   UNL A   1      40.276  35.085  36.737  1.00  0.00     0.173 A 
ATOM     52  C   UNL A   1      38.849  33.397  37.674  1.00  0.00     0.173 A 
ATOM     53  F   UNL A   1      41.093  35.527  35.769  1.00  0.00    -0.203 F 
ATOM     54  C   UNL A   1      40.045  35.893  37.848  1.00  0.00     0.198 A 
ATOM     55  C   UNL A   1      38.596  34.218  38.770  1.00  0.00     0.198 A 
ATOM     56  F   UNL A   1      38.250  32.198  37.612  1.00  0.00    -0.203 F 
ATOM     57  F   UNL A   1      40.644  37.087  37.940  1.00  0.00    -0.200 F 
ATOM     58  C   UNL A   1      39.197  35.463  38.858  1.00  0.00     0.200 A 
ATOM     59  F   UNL A   1      37.759  33.807  39.733  1.00  0.00    -0.200 F 
ATOM     60  F   UNL A   1      38.960  36.250  39.916  1.00  0.00    -0.200 F 
ENDBRANCH  26  50
BRANCH  38  61
ATOM     61  C   UNL A   1      44.002  28.579  34.962  1.00  0.00     0.064 A 
ATOM     62  C   UNL A   1      43.835  27.420  35.732  1.00  0.00     0.173 A 
ATOM     63  C   UNL A   1      45.304  29.082  34.807  1.00  0.00     0.173 A 
ATOM     64  F   UNL A   1      42.610  26.909  35.926  1.00  0.00    -0.203 F 
ATOM     65  C   UNL A   1      44.928  26.793  36.327  1.00  0.00     0.198 A 
ATOM     66  C   UNL A   1      46.397  28.436  35.376  1.00  0.00     0.198 A 
ATOM     67  F   UNL A   1      45.518  30.188  34.078  1.00  0.00    -0.203 F 
ATOM     68  F   UNL A   1      44.742  25.703  37.085  1.00  0.00    -0.200 F 
ATOM     69  C   UNL A   1      46.208  27.294  36.138  1.00  0.00     0.200 A 
ATOM     70  F   UNL A   1      47.633  28.913  35.178  1.00  0.00    -0.200 F 
ATOM     71  F   UNL A   1      47.260  26.675  36.692  1.00  0.00    -0.200 F 
ENDBRANCH  38  61
ENDBRANCH  12  13
ENDBRANCH   5   7
ENDBRANCH   2   3
ENDBRANCH   1   2
BRANCH   1  72
ATOM     72  C   UNL A   1      31.510  30.822  26.109  1.00  0.00     0.023 C 
BRANCH  72  73
ATOM     73  C   UNL A   1      32.928  30.260  26.181  1.00  0.00     0.116 C 
BRANCH  73  74
ATOM     74  N   UNL A   1      33.361  29.749  24.894  1.00  0.00    -0.356 N 
ATOM     75  C   UNL A   1      33.502  28.478  24.428  1.00  0.00     0.224 C 
ATOM     76  H   UNL A   1      33.594  30.447  24.241  1.00  0.00     0.163 HD
ATOM     77  O   UNL A   1      34.044  28.355  23.330  1.00  0.00    -0.275 OA
BRANCH  75  78
ATOM     78  C   UNL A   1      33.036  27.293  25.269  1.00  0.00     0.092 C 
ATOM     79  C   UNL A   1      33.878  26.048  24.961  1.00  0.00     0.014 C 
ATOM     80  C   UNL A   1      31.510  27.027  25.192  1.00  0.00     0.064 C 
ATOM     81  C   UNL A   1      33.509  24.892  25.890  1.00  0.00     0.001 C 
ATOM     82  C   UNL A   1      31.191  25.883  26.178  1.00  0.00     0.015 C 
ATOM     83  C   UNL A   1      32.009  24.615  25.915  1.00  0.00     0.001 C 
BRANCH  80  84
ATOM     84  S   UNL A   1      30.922  26.602  23.492  1.00  0.00    -0.122 SA
BRANCH  84  85
ATOM     85  C   UNL A   1      29.907  27.969  22.957  1.00  0.00     0.011 A 
ATOM     86  C   UNL A   1      30.353  29.131  22.335  1.00  0.00     0.035 A 
ATOM     87  C   UNL A   1      28.539  27.844  23.217  1.00  0.00     0.035 A 
ATOM     88  C   UNL A   1      29.431  30.130  22.053  1.00  0.00     0.112 A 
ATOM     89  C   UNL A   1      27.693  28.888  22.885  1.00  0.00     0.112 A 
ATOM     90  N   UNL A   1      28.112  30.036  22.317  1.00  0.00    -0.265 NA
ENDBRANCH  84  85
ENDBRANCH  80  84
ENDBRANCH  75  78
ENDBRANCH  73  74
ENDBRANCH  72  73
ENDBRANCH   1  72
TORSDOF 13
ENDMDL
MODEL 3
REMARK VINA RESULT:     -12.1      6.335     11.611
REMARK SMILES O=C(NCCCCNC(=O)[C@@H]1CCCC[C@@H]1Sc1ccncc1)c1ccc(-c2c3nc(c(-c4c(F)c(F)c(F)c(F)c4F)c4ccc([nH]4)c(-c4c(F)c(F)c(F)c(F)c4F)c4nc(c(-c5c(F)c(F)c(F)c(F)c5F)c5ccc2[nH]5)C=C4)C=C3)cc1
REMARK SMILES IDX 5 1 4 2 3 3 1 4 2 5 24 7 25 8 86 9 26 10 85 11 27 12 28 13
REMARK SMILES IDX 29 14 79 15 30 16 84 17 78 18 80 19 31 20 83 21 77 22 76 23
REMARK SMILES IDX 32 25 64 26 44 27 63 28 45 29 48 30 62 31 81 32 46 33 47 34
REMARK SMILES IDX 61 36 82 37 49 38 33 39 34 40 42 41 35 42 36 43 40 44 43 45
REMARK SMILES IDX 37 46 38 47 41 48 39 49 65 50 66 51 74 52 67 53 68 54 72 55
REMARK SMILES IDX 75 56 69 57 70 58 73 59 71 60 50 61 51 62 59 63 52 64 53 65
REMARK SMILES IDX 57 66 60 67 54 68 55 69 58 70 56 71 6 72 7 73 8 74 9 75
REMARK SMILES IDX 10 77 11 78 12 79 16 80 13 81 15 82 14 83 17 84 18 85 19 86
REMARK SMILES IDX 23 87 20 88 22 89 21 90
REMARK H PARENT 3 6 80 24 48 35 8 76
REMARK Flexibility Score: inf
ROOT
ATOM      1  C   UNL A   1      37.959  19.762  24.995  1.00  0.00     0.023 C 
ENDROOT
BRANCH   1   2
ATOM      2  C   UNL A   1      39.078  20.103  25.972  1.00  0.00     0.116 C 
BRANCH   2   3
ATOM      3  N   UNL A   1      40.160  19.132  25.942  1.00  0.00    -0.352 N 
ATOM      4  O   UNL A   1      42.290  18.404  25.850  1.00  0.00    -0.269 OA
ATOM      5  C   UNL A   1      41.511  19.328  26.071  1.00  0.00     0.251 C 
ATOM      6  H   UNL A   1      39.881  18.197  25.811  1.00  0.00     0.163 HD
BRANCH   5   7
ATOM      7  C   UNL A   1      42.033  20.657  26.450  1.00  0.00     0.039 A 
ATOM      8  C   UNL A   1      42.259  20.987  27.790  1.00  0.00     0.014 A 
ATOM      9  C   UNL A   1      42.319  21.578  25.440  1.00  0.00     0.014 A 
ATOM     10  C   UNL A   1      42.651  22.278  28.129  1.00  0.00     0.010 A 
ATOM     11  C   UNL A   1      42.784  22.851  25.778  1.00  0.00     0.010 A 
ATOM     12  C   UNL A   1      42.928  23.219  27.126  1.00  0.00    -0.014 A 
BRANCH  12  13
ATOM     13  C   UNL A   1      43.412  24.576  27.478  1.00  0.00     0.031 A 
ATOM     14  C   UNL A   1      42.468  25.604  28.031  1.00  0.00     0.074 A 
ATOM     15  C   UNL A   1      44.700  24.893  27.253  1.00  0.00     0.049 A 
ATOM     16  N   UNL A   1      42.680  26.871  28.289  1.00  0.00    -0.248 NA
ATOM     17  C   UNL A   1      41.100  25.152  28.321  1.00  0.00     0.031 C 
ATOM     18  C   UNL A   1      45.710  23.977  26.722  1.00  0.00     0.029 A 
ATOM     19  N   UNL A   1      45.375  26.075  27.422  1.00  0.00    -0.354 N 
ATOM     20  C   UNL A   1      41.469  27.371  28.746  1.00  0.00     0.074 A 
ATOM     21  C   UNL A   1      40.519  26.279  28.704  1.00  0.00     0.031 C 
ATOM     22  C   UNL A   1      46.875  24.628  26.608  1.00  0.00     0.029 A 
ATOM     23  C   UNL A   1      46.679  26.021  26.995  1.00  0.00     0.049 A 
ATOM     24  H   UNL A   1      44.966  26.881  27.811  1.00  0.00     0.167 HD
ATOM     25  C   UNL A   1      41.181  28.629  29.164  1.00  0.00     0.037 A 
ATOM     26  C   UNL A   1      47.603  26.993  26.886  1.00  0.00     0.037 A 
ATOM     27  C   UNL A   1      42.137  29.706  29.199  1.00  0.00     0.049 A 
ATOM     28  C   UNL A   1      47.250  28.393  27.304  1.00  0.00     0.074 A 
ATOM     29  C   UNL A   1      41.959  31.006  29.641  1.00  0.00     0.029 A 
ATOM     30  N   UNL A   1      43.451  29.613  28.757  1.00  0.00    -0.354 N 
ATOM     31  N   UNL A   1      46.114  28.851  27.768  1.00  0.00    -0.248 NA
ATOM     32  C   UNL A   1      48.305  29.408  27.185  1.00  0.00     0.031 C 
ATOM     33  C   UNL A   1      43.140  31.715  29.403  1.00  0.00     0.029 A 
ATOM     34  C   UNL A   1      44.082  30.841  28.884  1.00  0.00     0.049 A 
ATOM     35  H   UNL A   1      43.872  28.796  28.404  1.00  0.00     0.167 HD
ATOM     36  C   UNL A   1      46.323  30.198  28.030  1.00  0.00     0.074 A 
ATOM     37  C   UNL A   1      47.697  30.483  27.669  1.00  0.00     0.031 C 
ATOM     38  C   UNL A   1      45.456  31.110  28.534  1.00  0.00     0.037 A 
BRANCH  25  39
ATOM     39  C   UNL A   1      39.764  28.916  29.575  1.00  0.00     0.064 A 
ATOM     40  C   UNL A   1      38.814  29.425  28.674  1.00  0.00     0.173 A 
ATOM     41  C   UNL A   1      39.344  28.670  30.892  1.00  0.00     0.173 A 
ATOM     42  F   UNL A   1      39.160  29.685  27.403  1.00  0.00    -0.203 F 
ATOM     43  C   UNL A   1      37.518  29.722  29.088  1.00  0.00     0.198 A 
ATOM     44  C   UNL A   1      38.037  28.932  31.293  1.00  0.00     0.198 A 
ATOM     45  F   UNL A   1      40.203  28.173  31.795  1.00  0.00    -0.203 F 
ATOM     46  F   UNL A   1      36.652  30.273  28.226  1.00  0.00    -0.200 F 
ATOM     47  C   UNL A   1      37.128  29.472  30.395  1.00  0.00     0.200 A 
ATOM     48  F   UNL A   1      37.659  28.673  32.553  1.00  0.00    -0.200 F 
ATOM     49  F   UNL A   1      35.882  29.761  30.792  1.00  0.00    -0.200 F 
ENDBRANCH  25  39
BRANCH  26  50
ATOM     50  C   UNL A   1      48.944  26.657  26.343  1.00  0.00     0.064 A 
ATOM     51  C   UNL A   1      49.253  26.876  24.995  1.00  0.00     0.173 A 
ATOM     52  C   UNL A   1      49.960  26.162  27.176  1.00  0.00     0.173 A 
ATOM     53  F   UNL A   1      48.310  27.334  24.158  1.00  0.00    -0.203 F 
ATOM     54  C   UNL A   1      50.527  26.610  24.498  1.00  0.00     0.198 A 
ATOM     55  C   UNL A   1      51.241  25.926  26.684  1.00  0.00     0.198 A 
ATOM     56  F   UNL A   1      49.717  25.946  28.476  1.00  0.00    -0.203 F 
ATOM     57  F   UNL A   1      50.790  26.804  23.198  1.00  0.00    -0.200 F 
ATOM     58  C   UNL A   1      51.523  26.145  25.344  1.00  0.00     0.200 A 
ATOM     59  F   UNL A   1      52.205  25.497  27.510  1.00  0.00    -0.200 F 
ATOM     60  F   UNL A   1      52.752  25.909  24.869  1.00  0.00    -0.200 F 
ENDBRANCH  26  50
BRANCH  38  61
ATOM     61  C   UNL A   1      45.972  32.498  28.786  1.00  0.00     0.064 A 
ATOM     62  C   UNL A   1      46.651  32.838  29.963  1.00  0.00     0.173 A 
ATOM     63  C   UNL A   1      45.850  33.481  27.790  1.00  0.00     0.173 A 
ATOM     64  F   UNL A   1      46.779  31.940  30.952  1.00  0.00    -0.203 F 
ATOM     65  C   UNL A   1      47.183  34.113  30.139  1.00  0.00     0.198 A 
ATOM     66  C   UNL A   1      46.409  34.744  27.957  1.00  0.00     0.198 A 
ATOM     67  F   UNL A   1      45.210  33.206  26.643  1.00  0.00    -0.203 F 
ATOM     68  F   UNL A   1      47.801  34.427  31.286  1.00  0.00    -0.200 F 
ATOM     69  C   UNL A   1      47.072  35.061  29.131  1.00  0.00     0.200 A 
ATOM     70  F   UNL A   1      46.314  35.651  26.975  1.00  0.00    -0.200 F 
ATOM     71  F   UNL A   1      47.604  36.280  29.294  1.00  0.00    -0.200 F 
ENDBRANCH  38  61
ENDBRANCH  12  13
ENDBRANCH   5   7
ENDBRANCH   2   3
ENDBRANCH   1   2
BRANCH   1  72
ATOM     72  C   UNL A   1      37.157  20.961  24.480  1.00  0.00     0.023 C 
BRANCH  72  73
ATOM     73  C   UNL A   1      36.923  22.066  25.507  1.00  0.00     0.116 C 
BRANCH  73  74
ATOM     74  N   UNL A   1      35.937  21.671  26.496  1.00  0.00    -0.356 N 
ATOM     75  C   UNL A   1      34.586  21.828  26.537  1.00  0.00     0.224 C 
ATOM     76  H   UNL A   1      36.314  21.204  27.276  1.00  0.00     0.163 HD
ATOM     77  O   UNL A   1      34.032  21.522  27.592  1.00  0.00    -0.275 OA
BRANCH  75  78
ATOM     78  C   UNL A   1      33.839  22.396  25.334  1.00  0.00     0.092 C 
ATOM     79  C   UNL A   1      32.666  23.272  25.791  1.00  0.00     0.014 C 
ATOM     80  C   UNL A   1      33.427  21.329  24.287  1.00  0.00     0.064 C 
ATOM     81  C   UNL A   1      31.992  23.952  24.599  1.00  0.00     0.001 C 
ATOM     82  C   UNL A   1      32.793  22.073  23.093  1.00  0.00     0.015 C 
ATOM     83  C   UNL A   1      31.616  22.966  23.496  1.00  0.00     0.001 C 
BRANCH  80  84
ATOM     84  S   UNL A   1      32.261  20.057  24.953  1.00  0.00    -0.122 SA
BRANCH  84  85
ATOM     85  C   UNL A   1      33.144  18.507  24.927  1.00  0.00     0.011 A 
ATOM     86  C   UNL A   1      34.326  18.243  24.241  1.00  0.00     0.035 A 
ATOM     87  C   UNL A   1      32.561  17.466  25.657  1.00  0.00     0.035 A 
ATOM     88  C   UNL A   1      34.838  16.954  24.269  1.00  0.00     0.112 A 
ATOM     89  C   UNL A   1      33.155  16.216  25.638  1.00  0.00     0.112 A 
ATOM     90  N   UNL A   1      34.277  15.933  24.949  1.00  0.00    -0.265 NA
ENDBRANCH  84  85
ENDBRANCH  80  84
ENDBRANCH  75  78
ENDBRANCH  73  74
ENDBRANCH  72  73
ENDBRANCH   1  72
TORSDOF 13
ENDMDL
