MODEL 1
REMARK VINA RESULT:     -10.4      0.000      0.000
REMARK SMILES O=C(/C=N\OCc1ccccc1)NCCCCNC(=O)c1ccc(-c2c3nc(c(-c4c(F)c(F)c(F)c(F)c4F)c4ccc([nH]4)c(-c4c(F)c(F)c(F)c(F)c4F)c4nc(c(-c5c(F)c(F)c(F)c(F)c5F)c5ccc2[nH]5)C=C4)C=C3)cc1
REMARK SMILES IDX 15 1 14 2 13 3 1 4 2 5 3 7 4 8 5 9 6 10 7 11 8 12 12 13 9 14
REMARK SMILES IDX 11 15 10 16 16 17 17 18 18 19 19 20 20 22 21 23 22 24 83 25
REMARK SMILES IDX 23 26 82 27 24 28 25 29 26 30 76 31 27 32 81 33 75 34 77 35
REMARK SMILES IDX 28 36 80 37 74 38 73 39 29 41 61 42 41 43 60 44 42 45 45 46
REMARK SMILES IDX 59 47 78 48 43 49 44 50 58 52 79 53 46 54 30 55 31 56 39 57
REMARK SMILES IDX 32 58 33 59 37 60 40 61 34 62 35 63 38 64 36 65 62 66 63 67
REMARK SMILES IDX 71 68 64 69 65 70 69 71 72 72 66 73 67 74 70 75 68 76 47 77
REMARK SMILES IDX 48 78 56 79 49 80 50 81 54 82 57 83 51 84 52 85 55 86 53 87
REMARK H PARENT 13 6 18 21 77 40 45 51
REMARK Flexibility Score: inf
ROOT
ATOM      1  C   UNL A   1      41.806  19.430  26.233  1.00  0.00     0.023 C 
ENDROOT
BRANCH   1   2
ATOM      2  C   UNL A   1      42.974  18.452  26.117  1.00  0.00     0.116 C 
BRANCH   2   3
ATOM      3  N   UNL A   1      44.244  19.123  25.966  1.00  0.00    -0.351 N 
ATOM      4  O   UNL A   1      44.644  18.574  23.762  1.00  0.00    -0.268 OA
ATOM      5  C   UNL A   1      44.969  19.130  24.803  1.00  0.00     0.265 C 
ATOM      6  H   UNL A   1      44.611  19.602  26.744  1.00  0.00     0.163 HD
BRANCH   5   7
ATOM      7  C   UNL A   1      46.245  19.944  24.799  1.00  0.00     0.225 C 
ATOM      8  N   UNL A   1      46.403  21.218  25.008  1.00  0.00    -0.089 NA
BRANCH   8   9
ATOM      9  O   UNL A   1      45.220  21.898  25.334  1.00  0.00    -0.391 OA
BRANCH   9  10
ATOM     10  C   UNL A   1      45.482  22.819  26.404  1.00  0.00     0.299 C 
BRANCH  10  11
ATOM     11  C   UNL A   1      45.167  24.254  26.046  1.00  0.00    -0.008 A 
ATOM     12  C   UNL A   1      43.971  24.610  25.406  1.00  0.00     0.007 A 
ATOM     13  C   UNL A   1      46.111  25.256  26.316  1.00  0.00     0.007 A 
ATOM     14  C   UNL A   1      43.710  25.942  25.079  1.00  0.00     0.000 A 
ATOM     15  C   UNL A   1      45.851  26.586  25.985  1.00  0.00     0.000 A 
ATOM     16  C   UNL A   1      44.647  26.930  25.371  1.00  0.00     0.000 A 
ENDBRANCH  10  11
ENDBRANCH   9  10
ENDBRANCH   8   9
ENDBRANCH   5   7
ENDBRANCH   2   3
ENDBRANCH   1   2
BRANCH   1  17
ATOM     17  C   UNL A   1      42.154  20.793  26.838  1.00  0.00     0.023 C 
BRANCH  17  18
ATOM     18  C   UNL A   1      40.992  21.548  27.474  1.00  0.00     0.116 C 
BRANCH  18  19
ATOM     19  N   UNL A   1      39.816  21.607  26.623  1.00  0.00    -0.352 N 
ATOM     20  C   UNL A   1      38.986  22.666  26.340  1.00  0.00     0.251 C 
ATOM     21  H   UNL A   1      39.576  20.759  26.182  1.00  0.00     0.163 HD
ATOM     22  O   UNL A   1      37.955  22.481  25.700  1.00  0.00    -0.269 OA
BRANCH  20  23
ATOM     23  C   UNL A   1      39.308  24.027  26.827  1.00  0.00     0.039 A 
ATOM     24  C   UNL A   1      38.903  24.393  28.114  1.00  0.00     0.014 A 
ATOM     25  C   UNL A   1      39.993  24.945  26.026  1.00  0.00     0.014 A 
ATOM     26  C   UNL A   1      39.249  25.648  28.624  1.00  0.00     0.010 A 
ATOM     27  C   UNL A   1      40.403  26.165  26.562  1.00  0.00     0.010 A 
ATOM     28  C   UNL A   1      40.039  26.530  27.867  1.00  0.00    -0.014 A 
BRANCH  28  29
ATOM     29  C   UNL A   1      40.503  27.825  28.432  1.00  0.00     0.031 A 
ATOM     30  C   UNL A   1      41.948  28.023  28.802  1.00  0.00     0.074 A 
ATOM     31  C   UNL A   1      39.611  28.806  28.673  1.00  0.00     0.049 A 
ATOM     32  N   UNL A   1      42.526  29.053  29.369  1.00  0.00    -0.248 NA
ATOM     33  C   UNL A   1      42.860  26.904  28.522  1.00  0.00     0.031 C 
ATOM     34  C   UNL A   1      38.175  28.727  28.400  1.00  0.00     0.029 A 
ATOM     35  N   UNL A   1      39.776  30.059  29.211  1.00  0.00    -0.354 N 
ATOM     36  C   UNL A   1      43.861  28.703  29.521  1.00  0.00     0.074 A 
ATOM     37  C   UNL A   1      43.998  27.345  29.040  1.00  0.00     0.031 C 
ATOM     38  C   UNL A   1      37.595  29.886  28.749  1.00  0.00     0.029 A 
ATOM     39  C   UNL A   1      38.608  30.774  29.312  1.00  0.00     0.049 A 
ATOM     40  H   UNL A   1      40.650  30.410  29.498  1.00  0.00     0.167 HD
ATOM     41  C   UNL A   1      44.885  29.453  29.997  1.00  0.00     0.037 A 
ATOM     42  C   UNL A   1      38.374  32.003  29.813  1.00  0.00     0.037 A 
ATOM     43  C   UNL A   1      44.749  30.810  30.460  1.00  0.00     0.049 A 
ATOM     44  C   UNL A   1      39.525  32.805  30.360  1.00  0.00     0.074 A 
ATOM     45  C   UNL A   1      45.736  31.671  30.908  1.00  0.00     0.029 A 
ATOM     46  N   UNL A   1      43.549  31.503  30.541  1.00  0.00    -0.354 N 
ATOM     47  N   UNL A   1      40.794  32.489  30.433  1.00  0.00    -0.248 NA
ATOM     48  C   UNL A   1      39.209  34.139  30.889  1.00  0.00     0.031 C 
ATOM     49  C   UNL A   1      45.127  32.861  31.316  1.00  0.00     0.029 A 
ATOM     50  C   UNL A   1      43.769  32.769  31.061  1.00  0.00     0.049 A 
ATOM     51  H   UNL A   1      42.672  31.147  30.270  1.00  0.00     0.167 HD
ATOM     52  C   UNL A   1      41.433  33.593  30.984  1.00  0.00     0.074 A 
ATOM     53  C   UNL A   1      40.412  34.594  31.212  1.00  0.00     0.031 C 
ATOM     54  C   UNL A   1      42.746  33.762  31.275  1.00  0.00     0.037 A 
BRANCH  41  55
ATOM     55  C   UNL A   1      46.248  28.821  30.047  1.00  0.00     0.064 A 
ATOM     56  C   UNL A   1      47.096  28.805  28.928  1.00  0.00     0.173 A 
ATOM     57  C   UNL A   1      46.730  28.262  31.241  1.00  0.00     0.173 A 
ATOM     58  F   UNL A   1      46.682  29.318  27.760  1.00  0.00    -0.203 F 
ATOM     59  C   UNL A   1      48.360  28.225  28.995  1.00  0.00     0.198 A 
ATOM     60  C   UNL A   1      48.007  27.714  31.312  1.00  0.00     0.198 A 
ATOM     61  F   UNL A   1      45.965  28.256  32.343  1.00  0.00    -0.203 F 
ATOM     62  F   UNL A   1      49.130  28.175  27.899  1.00  0.00    -0.200 F 
ATOM     63  C   UNL A   1      48.818  27.688  30.188  1.00  0.00     0.200 A 
ATOM     64  F   UNL A   1      48.455  27.210  32.471  1.00  0.00    -0.200 F 
ATOM     65  F   UNL A   1      50.039  27.138  30.253  1.00  0.00    -0.200 F 
ENDBRANCH  41  55
BRANCH  42  66
ATOM     66  C   UNL A   1      36.995  32.561  29.806  1.00  0.00     0.064 A 
ATOM     67  C   UNL A   1      36.509  33.269  28.698  1.00  0.00     0.173 A 
ATOM     68  C   UNL A   1      36.142  32.415  30.909  1.00  0.00     0.173 A 
ATOM     69  F   UNL A   1      37.295  33.455  27.625  1.00  0.00    -0.203 F 
ATOM     70  C   UNL A   1      35.233  33.828  28.702  1.00  0.00     0.198 A 
ATOM     71  C   UNL A   1      34.854  32.946  30.900  1.00  0.00     0.198 A 
ATOM     72  F   UNL A   1      36.555  31.744  31.995  1.00  0.00    -0.203 F 
ATOM     73  F   UNL A   1      34.815  34.546  27.650  1.00  0.00    -0.200 F 
ATOM     74  C   UNL A   1      34.405  33.661  29.800  1.00  0.00     0.200 A 
ATOM     75  F   UNL A   1      34.051  32.769  31.959  1.00  0.00    -0.200 F 
ATOM     76  F   UNL A   1      33.177  34.198  29.804  1.00  0.00    -0.200 F 
ENDBRANCH  42  66
BRANCH  54  77
ATOM     77  C   UNL A   1      43.166  35.094  31.831  1.00  0.00     0.064 A 
ATOM     78  C   UNL A   1      43.164  35.356  33.208  1.00  0.00     0.173 A 
ATOM     79  C   UNL A   1      43.613  36.111  30.971  1.00  0.00     0.173 A 
ATOM     80  F   UNL A   1      42.732  34.425  34.072  1.00  0.00    -0.203 F 
ATOM     81  C   UNL A   1      43.566  36.595  33.702  1.00  0.00     0.198 A 
ATOM     82  C   UNL A   1      44.049  37.333  31.471  1.00  0.00     0.198 A 
ATOM     83  F   UNL A   1      43.643  35.910  29.645  1.00  0.00    -0.203 F 
ATOM     84  F   UNL A   1      43.505  36.840  35.019  1.00  0.00    -0.200 F 
ATOM     85  C   UNL A   1      44.016  37.579  32.835  1.00  0.00     0.200 A 
ATOM     86  F   UNL A   1      44.499  38.277  30.632  1.00  0.00    -0.200 F 
ATOM     87  F   UNL A   1      44.411  38.767  33.314  1.00  0.00    -0.200 F 
ENDBRANCH  54  77
ENDBRANCH  28  29
ENDBRANCH  20  23
ENDBRANCH  18  19
ENDBRANCH  17  18
ENDBRANCH   1  17
TORSDOF 14
ENDMDL
MODEL 2
REMARK VINA RESULT:     -10.4      3.778     10.220
REMARK SMILES O=C(/C=N\OCc1ccccc1)NCCCCNC(=O)c1ccc(-c2c3nc(c(-c4c(F)c(F)c(F)c(F)c4F)c4ccc([nH]4)c(-c4c(F)c(F)c(F)c(F)c4F)c4nc(c(-c5c(F)c(F)c(F)c(F)c5F)c5ccc2[nH]5)C=C4)C=C3)cc1
REMARK SMILES IDX 15 1 14 2 13 3 1 4 2 5 3 7 4 8 5 9 6 10 7 11 8 12 12 13 9 14
REMARK SMILES IDX 11 15 10 16 16 17 17 18 18 19 19 20 20 22 21 23 22 24 83 25
REMARK SMILES IDX 23 26 82 27 24 28 25 29 26 30 76 31 27 32 81 33 75 34 77 35
REMARK SMILES IDX 28 36 80 37 74 38 73 39 29 41 61 42 41 43 60 44 42 45 45 46
REMARK SMILES IDX 59 47 78 48 43 49 44 50 58 52 79 53 46 54 30 55 31 56 39 57
REMARK SMILES IDX 32 58 33 59 37 60 40 61 34 62 35 63 38 64 36 65 62 66 63 67
REMARK SMILES IDX 71 68 64 69 65 70 69 71 72 72 66 73 67 74 70 75 68 76 47 77
REMARK SMILES IDX 48 78 56 79 49 80 50 81 54 82 57 83 51 84 52 85 55 86 53 87
REMARK H PARENT 13 6 18 21 77 40 45 51
REMARK Flexibility Score: inf
ROOT
ATOM      1  C   UNL A   1      37.364  20.729  24.620  1.00  0.00     0.023 C 
ENDROOT
BRANCH   1   2
ATOM      2  C   UNL A   1      37.261  21.850  25.653  1.00  0.00     0.116 C 
BRANCH   2   3
ATOM      3  N   UNL A   1      35.913  22.034  26.136  1.00  0.00    -0.351 N 
ATOM      4  O   UNL A   1      35.714  24.290  25.696  1.00  0.00    -0.268 OA
ATOM      5  C   UNL A   1      35.253  23.235  26.114  1.00  0.00     0.265 C 
ATOM      6  H   UNL A   1      35.440  21.253  26.504  1.00  0.00     0.163 HD
BRANCH   5   7
ATOM      7  C   UNL A   1      33.818  23.235  26.594  1.00  0.00     0.225 C 
ATOM      8  N   UNL A   1      32.784  22.632  26.083  1.00  0.00    -0.089 NA
BRANCH   8   9
ATOM      9  O   UNL A   1      33.079  21.835  24.967  1.00  0.00    -0.391 OA
BRANCH   9  10
ATOM     10  C   UNL A   1      32.210  20.691  24.959  1.00  0.00     0.299 C 
BRANCH  10  11
ATOM     11  C   UNL A   1      32.850  19.462  24.355  1.00  0.00    -0.008 A 
ATOM     12  C   UNL A   1      34.066  18.952  24.833  1.00  0.00     0.007 A 
ATOM     13  C   UNL A   1      32.241  18.834  23.259  1.00  0.00     0.007 A 
ATOM     14  C   UNL A   1      34.639  17.819  24.252  1.00  0.00     0.000 A 
ATOM     15  C   UNL A   1      32.817  17.704  22.676  1.00  0.00     0.000 A 
ATOM     16  C   UNL A   1      34.013  17.194  23.176  1.00  0.00     0.000 A 
ENDBRANCH  10  11
ENDBRANCH   9  10
ENDBRANCH   8   9
ENDBRANCH   5   7
ENDBRANCH   2   3
ENDBRANCH   1   2
BRANCH   1  17
ATOM     17  C   UNL A   1      38.271  19.560  25.014  1.00  0.00     0.023 C 
BRANCH  17  18
ATOM     18  C   UNL A   1      39.401  19.898  25.981  1.00  0.00     0.116 C 
BRANCH  18  19
ATOM     19  N   UNL A   1      40.465  18.908  25.983  1.00  0.00    -0.352 N 
ATOM     20  C   UNL A   1      41.824  19.078  26.106  1.00  0.00     0.251 C 
ATOM     21  H   UNL A   1      40.168  17.975  25.880  1.00  0.00     0.163 HD
ATOM     22  O   UNL A   1      42.576  18.121  25.944  1.00  0.00    -0.269 OA
BRANCH  20  23
ATOM     23  C   UNL A   1      42.393  20.413  26.402  1.00  0.00     0.039 A 
ATOM     24  C   UNL A   1      42.880  21.185  25.344  1.00  0.00     0.014 A 
ATOM     25  C   UNL A   1      42.461  20.902  27.709  1.00  0.00     0.014 A 
ATOM     26  C   UNL A   1      43.365  22.474  25.586  1.00  0.00     0.010 A 
ATOM     27  C   UNL A   1      42.872  22.214  27.940  1.00  0.00     0.010 A 
ATOM     28  C   UNL A   1      43.326  23.016  26.881  1.00  0.00    -0.014 A 
BRANCH  28  29
ATOM     29  C   UNL A   1      43.740  24.422  27.140  1.00  0.00     0.031 A 
ATOM     30  C   UNL A   1      42.743  25.432  27.638  1.00  0.00     0.074 A 
ATOM     31  C   UNL A   1      45.002  24.806  26.865  1.00  0.00     0.049 A 
ATOM     32  N   UNL A   1      42.899  26.714  27.856  1.00  0.00    -0.248 NA
ATOM     33  C   UNL A   1      41.382  24.941  27.904  1.00  0.00     0.031 C 
ATOM     34  C   UNL A   1      46.054  23.936  26.338  1.00  0.00     0.029 A 
ATOM     35  N   UNL A   1      45.613  26.031  26.980  1.00  0.00    -0.354 N 
ATOM     36  C   UNL A   1      41.660  27.182  28.271  1.00  0.00     0.074 A 
ATOM     37  C   UNL A   1      40.747  26.060  28.222  1.00  0.00     0.031 C 
ATOM     38  C   UNL A   1      47.185  24.646  26.199  1.00  0.00     0.029 A 
ATOM     39  C   UNL A   1      46.928  26.031  26.582  1.00  0.00     0.049 A 
ATOM     40  H   UNL A   1      45.152  26.833  27.317  1.00  0.00     0.167 HD
ATOM     41  C   UNL A   1      41.318  28.430  28.679  1.00  0.00     0.037 A 
ATOM     42  C   UNL A   1      47.824  27.035  26.521  1.00  0.00     0.037 A 
ATOM     43  C   UNL A   1      42.232  29.541  28.742  1.00  0.00     0.049 A 
ATOM     44  C   UNL A   1      47.411  28.417  26.955  1.00  0.00     0.074 A 
ATOM     45  C   UNL A   1      41.995  30.827  29.194  1.00  0.00     0.029 A 
ATOM     46  N   UNL A   1      43.558  29.500  28.336  1.00  0.00    -0.354 N 
ATOM     47  N   UNL A   1      46.255  28.831  27.412  1.00  0.00    -0.248 NA
ATOM     48  C   UNL A   1      48.432  29.470  26.868  1.00  0.00     0.031 C 
ATOM     49  C   UNL A   1      43.158  31.580  29.005  1.00  0.00     0.029 A 
ATOM     50  C   UNL A   1      44.141  30.747  28.497  1.00  0.00     0.049 A 
ATOM     51  H   UNL A   1      44.016  28.703  27.983  1.00  0.00     0.167 HD
ATOM     52  C   UNL A   1      46.418  30.180  27.698  1.00  0.00     0.074 A 
ATOM     53  C   UNL A   1      47.790  30.512  27.377  1.00  0.00     0.031 C 
ATOM     54  C   UNL A   1      45.512  31.064  28.183  1.00  0.00     0.037 A 
BRANCH  41  55
ATOM     55  C   UNL A   1      39.890  28.663  29.086  1.00  0.00     0.064 A 
ATOM     56  C   UNL A   1      39.458  28.471  30.408  1.00  0.00     0.173 A 
ATOM     57  C   UNL A   1      38.950  29.126  28.152  1.00  0.00     0.173 A 
ATOM     58  F   UNL A   1      40.313  28.022  31.339  1.00  0.00    -0.203 F 
ATOM     59  C   UNL A   1      38.134  28.703  30.771  1.00  0.00     0.198 A 
ATOM     60  C   UNL A   1      37.636  29.389  28.526  1.00  0.00     0.198 A 
ATOM     61  F   UNL A   1      39.309  29.333  26.876  1.00  0.00    -0.203 F 
ATOM     62  F   UNL A   1      37.733  28.462  32.027  1.00  0.00    -0.200 F 
ATOM     63  C   UNL A   1      37.226  29.170  29.833  1.00  0.00     0.200 A 
ATOM     64  F   UNL A   1      36.763  29.856  27.622  1.00  0.00    -0.200 F 
ATOM     65  F   UNL A   1      35.954  29.401  30.185  1.00  0.00    -0.200 F 
ENDBRANCH  41  55
BRANCH  42  66
ATOM     66  C   UNL A   1      49.208  26.771  26.045  1.00  0.00     0.064 A 
ATOM     67  C   UNL A   1      50.205  26.341  26.931  1.00  0.00     0.173 A 
ATOM     68  C   UNL A   1      49.567  26.958  24.702  1.00  0.00     0.173 A 
ATOM     69  F   UNL A   1      49.917  26.169  28.231  1.00  0.00    -0.203 F 
ATOM     70  C   UNL A   1      51.513  26.131  26.499  1.00  0.00     0.198 A 
ATOM     71  C   UNL A   1      50.868  26.716  24.264  1.00  0.00     0.198 A 
ATOM     72  F   UNL A   1      48.651  27.365  23.811  1.00  0.00    -0.203 F 
ATOM     73  F   UNL A   1      52.458  25.773  27.378  1.00  0.00    -0.200 F 
ATOM     74  C   UNL A   1      51.842  26.313  25.164  1.00  0.00     0.200 A 
ATOM     75  F   UNL A   1      51.177  26.878  22.969  1.00  0.00    -0.200 F 
ATOM     76  F   UNL A   1      53.099  26.109  24.748  1.00  0.00    -0.200 F 
ENDBRANCH  42  66
BRANCH  54  77
ATOM     77  C   UNL A   1      45.984  32.468  28.440  1.00  0.00     0.064 A 
ATOM     78  C   UNL A   1      45.883  33.474  27.469  1.00  0.00     0.173 A 
ATOM     79  C   UNL A   1      46.511  32.819  29.694  1.00  0.00     0.173 A 
ATOM     80  F   UNL A   1      45.400  33.189  26.250  1.00  0.00    -0.203 F 
ATOM     81  C   UNL A   1      46.318  34.771  27.732  1.00  0.00     0.198 A 
ATOM     82  C   UNL A   1      46.911  34.124  29.965  1.00  0.00     0.198 A 
ATOM     83  F   UNL A   1      46.623  31.898  30.663  1.00  0.00    -0.203 F 
ATOM     84  F   UNL A   1      46.261  35.702  26.769  1.00  0.00    -0.200 F 
ATOM     85  C   UNL A   1      46.823  35.097  28.982  1.00  0.00     0.200 A 
ATOM     86  F   UNL A   1      47.383  34.440  31.179  1.00  0.00    -0.200 F 
ATOM     87  F   UNL A   1      47.233  36.347  29.235  1.00  0.00    -0.200 F 
ENDBRANCH  54  77
ENDBRANCH  28  29
ENDBRANCH  20  23
ENDBRANCH  18  19
ENDBRANCH  17  18
ENDBRANCH   1  17
TORSDOF 14
ENDMDL
MODEL 3
REMARK VINA RESULT:     -10.3      4.123     11.483
REMARK SMILES O=C(/C=N\OCc1ccccc1)NCCCCNC(=O)c1ccc(-c2c3nc(c(-c4c(F)c(F)c(F)c(F)c4F)c4ccc([nH]4)c(-c4c(F)c(F)c(F)c(F)c4F)c4nc(c(-c5c(F)c(F)c(F)c(F)c5F)c5ccc2[nH]5)C=C4)C=C3)cc1
REMARK SMILES IDX 15 1 14 2 13 3 1 4 2 5 3 7 4 8 5 9 6 10 7 11 8 12 12 13 9 14
REMARK SMILES IDX 11 15 10 16 16 17 17 18 18 19 19 20 20 22 21 23 22 24 83 25
REMARK SMILES IDX 23 26 82 27 24 28 25 29 26 30 76 31 27 32 81 33 75 34 77 35
REMARK SMILES IDX 28 36 80 37 74 38 73 39 29 41 61 42 41 43 60 44 42 45 45 46
REMARK SMILES IDX 59 47 78 48 43 49 44 50 58 52 79 53 46 54 30 55 31 56 39 57
REMARK SMILES IDX 32 58 33 59 37 60 40 61 34 62 35 63 38 64 36 65 62 66 63 67
REMARK SMILES IDX 71 68 64 69 65 70 69 71 72 72 66 73 67 74 70 75 68 76 47 77
REMARK SMILES IDX 48 78 56 79 49 80 50 81 54 82 57 83 51 84 52 85 55 86 53 87
REMARK H PARENT 13 6 18 21 77 40 45 51
REMARK Flexibility Score: inf
ROOT
ATOM      1  C   UNL A   1      34.206  34.959  28.857  1.00  0.00     0.023 C 
ENDROOT
BRANCH   1   2
ATOM      2  C   UNL A   1      33.200  36.105  28.967  1.00  0.00     0.116 C 
BRANCH   2   3
ATOM      3  N   UNL A   1      33.320  36.828  30.211  1.00  0.00    -0.351 N 
ATOM      4  O   UNL A   1      32.171  35.351  31.560  1.00  0.00    -0.268 OA
ATOM      5  C   UNL A   1      32.799  36.390  31.400  1.00  0.00     0.265 C 
ATOM      6  H   UNL A   1      33.802  37.687  30.204  1.00  0.00     0.163 HD
BRANCH   5   7
ATOM      7  C   UNL A   1      33.080  37.238  32.622  1.00  0.00     0.225 C 
ATOM      8  N   UNL A   1      34.067  37.158  33.465  1.00  0.00    -0.089 NA
BRANCH   8   9
ATOM      9  O   UNL A   1      35.017  36.177  33.143  1.00  0.00    -0.391 OA
BRANCH   9  10
ATOM     10  C   UNL A   1      34.855  35.053  34.023  1.00  0.00     0.299 C 
BRANCH  10  11
ATOM     11  C   UNL A   1      35.406  33.766  33.453  1.00  0.00    -0.008 A 
ATOM     12  C   UNL A   1      34.883  33.192  32.285  1.00  0.00     0.007 A 
ATOM     13  C   UNL A   1      36.437  33.097  34.129  1.00  0.00     0.007 A 
ATOM     14  C   UNL A   1      35.406  31.997  31.786  1.00  0.00     0.000 A 
ATOM     15  C   UNL A   1      36.956  31.901  33.632  1.00  0.00     0.000 A 
ATOM     16  C   UNL A   1      36.444  31.354  32.457  1.00  0.00     0.000 A 
ENDBRANCH  10  11
ENDBRANCH   9  10
ENDBRANCH   8   9
ENDBRANCH   5   7
ENDBRANCH   2   3
ENDBRANCH   1   2
BRANCH   1  17
ATOM     17  C   UNL A   1      33.684  33.697  28.165  1.00  0.00     0.023 C 
BRANCH  17  18
ATOM     18  C   UNL A   1      34.689  32.559  28.023  1.00  0.00     0.116 C 
BRANCH  18  19
ATOM     19  N   UNL A   1      34.061  31.269  27.794  1.00  0.00    -0.352 N 
ATOM     20  C   UNL A   1      34.612  30.009  27.799  1.00  0.00     0.251 C 
ATOM     21  H   UNL A   1      33.095  31.301  27.605  1.00  0.00     0.163 HD
ATOM     22  O   UNL A   1      33.938  29.046  27.444  1.00  0.00    -0.269 OA
BRANCH  20  23
ATOM     23  C   UNL A   1      36.023  29.804  28.201  1.00  0.00     0.039 A 
ATOM     24  C   UNL A   1      36.292  29.316  29.483  1.00  0.00     0.014 A 
ATOM     25  C   UNL A   1      37.078  30.098  27.333  1.00  0.00     0.014 A 
ATOM     26  C   UNL A   1      37.610  29.053  29.866  1.00  0.00     0.010 A 
ATOM     27  C   UNL A   1      38.384  29.764  27.688  1.00  0.00     0.010 A 
ATOM     28  C   UNL A   1      38.665  29.234  28.957  1.00  0.00    -0.014 A 
BRANCH  28  29
ATOM     29  C   UNL A   1      40.061  28.861  29.312  1.00  0.00     0.031 A 
ATOM     30  C   UNL A   1      40.914  29.791  30.132  1.00  0.00     0.074 A 
ATOM     31  C   UNL A   1      40.584  27.712  28.843  1.00  0.00     0.049 A 
ATOM     32  N   UNL A   1      42.170  29.671  30.483  1.00  0.00    -0.248 NA
ATOM     33  C   UNL A   1      40.278  31.032  30.598  1.00  0.00     0.031 C 
ATOM     34  C   UNL A   1      39.877  26.743  28.003  1.00  0.00     0.029 A 
ATOM     35  N   UNL A   1      41.835  27.166  28.995  1.00  0.00    -0.354 N 
ATOM     36  C   UNL A   1      42.476  30.821  31.198  1.00  0.00     0.074 A 
ATOM     37  C   UNL A   1      41.291  31.653  31.184  1.00  0.00     0.031 C 
ATOM     38  C   UNL A   1      40.695  25.713  27.735  1.00  0.00     0.029 A 
ATOM     39  C   UNL A   1      41.997  25.968  28.344  1.00  0.00     0.049 A 
ATOM     40  H   UNL A   1      42.549  27.594  29.522  1.00  0.00     0.167 HD
ATOM     41  C   UNL A   1      43.631  31.144  31.829  1.00  0.00     0.037 A 
ATOM     42  C   UNL A   1      43.077  25.168  28.238  1.00  0.00     0.037 A 
ATOM     43  C   UNL A   1      44.803  30.308  31.855  1.00  0.00     0.049 A 
ATOM     44  C   UNL A   1      44.356  25.564  28.927  1.00  0.00     0.074 A 
ATOM     45  C   UNL A   1      46.001  30.522  32.514  1.00  0.00     0.029 A 
ATOM     46  N   UNL A   1      44.927  29.097  31.188  1.00  0.00    -0.354 N 
ATOM     47  N   UNL A   1      44.610  26.620  29.658  1.00  0.00    -0.248 NA
ATOM     48  C   UNL A   1      45.497  24.650  28.777  1.00  0.00     0.031 C 
ATOM     49  C   UNL A   1      46.870  29.474  32.196  1.00  0.00     0.029 A 
ATOM     50  C   UNL A   1      46.192  28.570  31.394  1.00  0.00     0.049 A 
ATOM     51  H   UNL A   1      44.220  28.676  30.647  1.00  0.00     0.167 HD
ATOM     52  C   UNL A   1      45.925  26.484  30.084  1.00  0.00     0.074 A 
ATOM     53  C   UNL A   1      46.411  25.233  29.540  1.00  0.00     0.031 C 
ATOM     54  C   UNL A   1      46.663  27.319  30.855  1.00  0.00     0.037 A 
BRANCH  41  55
ATOM     55  C   UNL A   1      43.689  32.466  32.544  1.00  0.00     0.064 A 
ATOM     56  C   UNL A   1      44.110  33.638  31.896  1.00  0.00     0.173 A 
ATOM     57  C   UNL A   1      43.277  32.570  33.881  1.00  0.00     0.173 A 
ATOM     58  F   UNL A   1      44.523  33.593  30.621  1.00  0.00    -0.203 F 
ATOM     59  C   UNL A   1      44.147  34.856  32.570  1.00  0.00     0.198 A 
ATOM     60  C   UNL A   1      43.283  33.795  34.541  1.00  0.00     0.198 A 
ATOM     61  F   UNL A   1      42.858  31.483  34.548  1.00  0.00    -0.203 F 
ATOM     62  F   UNL A   1      44.603  35.951  31.946  1.00  0.00    -0.200 F 
ATOM     63  C   UNL A   1      43.725  34.936  33.888  1.00  0.00     0.200 A 
ATOM     64  F   UNL A   1      42.859  33.874  35.811  1.00  0.00    -0.200 F 
ATOM     65  F   UNL A   1      43.753  36.111  34.533  1.00  0.00    -0.200 F 
ENDBRANCH  41  55
BRANCH  42  66
ATOM     66  C   UNL A   1      42.993  23.902  27.461  1.00  0.00     0.064 A 
ATOM     67  C   UNL A   1      43.365  23.859  26.111  1.00  0.00     0.173 A 
ATOM     68  C   UNL A   1      42.524  22.716  28.045  1.00  0.00     0.173 A 
ATOM     69  F   UNL A   1      43.798  24.972  25.500  1.00  0.00    -0.203 F 
ATOM     70  C   UNL A   1      43.250  22.686  25.368  1.00  0.00     0.198 A 
ATOM     71  C   UNL A   1      42.440  21.535  27.310  1.00  0.00     0.198 A 
ATOM     72  F   UNL A   1      42.157  22.701  29.336  1.00  0.00    -0.203 F 
ATOM     73  F   UNL A   1      43.561  22.687  24.065  1.00  0.00    -0.200 F 
ATOM     74  C   UNL A   1      42.793  21.523  25.970  1.00  0.00     0.200 A 
ATOM     75  F   UNL A   1      42.013  20.410  27.901  1.00  0.00    -0.200 F 
ATOM     76  F   UNL A   1      42.684  20.395  25.256  1.00  0.00    -0.200 F 
ENDBRANCH  42  66
BRANCH  54  77
ATOM     77  C   UNL A   1      48.063  26.890  31.197  1.00  0.00     0.064 A 
ATOM     78  C   UNL A   1      48.335  26.051  32.287  1.00  0.00     0.173 A 
ATOM     79  C   UNL A   1      49.143  27.296  30.396  1.00  0.00     0.173 A 
ATOM     80  F   UNL A   1      47.341  25.646  33.093  1.00  0.00    -0.203 F 
ATOM     81  C   UNL A   1      49.639  25.658  32.580  1.00  0.00     0.198 A 
ATOM     82  C   UNL A   1      50.439  26.871  30.671  1.00  0.00     0.198 A 
ATOM     83  F   UNL A   1      48.938  28.092  29.336  1.00  0.00    -0.203 F 
ATOM     84  F   UNL A   1      49.881  24.900  33.659  1.00  0.00    -0.200 F 
ATOM     85  C   UNL A   1      50.688  26.061  31.768  1.00  0.00     0.200 A 
ATOM     86  F   UNL A   1      51.449  27.248  29.875  1.00  0.00    -0.200 F 
ATOM     87  F   UNL A   1      51.941  25.674  32.048  1.00  0.00    -0.200 F 
ENDBRANCH  54  77
ENDBRANCH  28  29
ENDBRANCH  20  23
ENDBRANCH  18  19
ENDBRANCH  17  18
ENDBRANCH   1  17
TORSDOF 14
ENDMDL
