MODEL 1
REMARK VINA RESULT:     -13.5      0.000      0.000
REMARK SMILES C[C@@H]1c2ccccc2-c2ccc(C(=O)NCCCCNC(=O)c3ccc(-c4c5nc(c(-c6c(F)c(F)c(F)c(F)c6F)c6ccc([nH]6)c(-c6c(F)c(F)c(F)c(F)c6F)c6nc(c(-c7c(F)c(F)c(F)c(F)c7F)c7ccc4[nH]7)C=C6)C=C5)cc3)cc21
REMARK SMILES IDX 18 1 17 2 16 3 15 4 13 5 14 6 12 8 1 9 2 10 3 11 87 12 4 13
REMARK SMILES IDX 8 14 9 15 86 16 5 17 7 18 10 19 6 20 11 21 19 22 20 23 21 24
REMARK SMILES IDX 22 26 23 27 24 28 85 29 25 30 84 31 26 32 27 33 28 34 78 35
REMARK SMILES IDX 29 36 83 37 77 38 79 39 30 40 82 41 76 42 75 43 31 45 63 46
REMARK SMILES IDX 43 47 62 48 44 49 47 50 61 51 80 52 45 53 46 54 60 56 81 57
REMARK SMILES IDX 48 58 32 59 33 60 41 61 34 62 35 63 39 64 42 65 36 66 37 67
REMARK SMILES IDX 40 68 38 69 64 70 65 71 73 72 66 73 67 74 71 75 74 76 68 77
REMARK SMILES IDX 69 78 72 79 70 80 49 81 50 82 58 83 51 84 52 85 56 86 59 87
REMARK SMILES IDX 53 88 54 89 57 90 55 91
REMARK H PARENT 15 7 20 25 79 44 47 55
REMARK Flexibility Score: inf
ROOT
ATOM      1  C   UNL A   1      38.087  19.838  25.001  1.00  0.00     0.023 C 
ENDROOT
BRANCH   1   2
ATOM      2  C   UNL A   1      37.164  21.028  24.726  1.00  0.00     0.023 C 
BRANCH   2   3
ATOM      3  C   UNL A   1      35.859  21.010  25.527  1.00  0.00     0.116 C 
BRANCH   3   4
ATOM      4  N   UNL A   1      34.717  20.853  24.649  1.00  0.00    -0.352 N 
ATOM      5  C   UNL A   1      33.706  21.703  24.278  1.00  0.00     0.251 C 
ATOM      6  O   UNL A   1      32.881  21.261  23.475  1.00  0.00    -0.269 OA
ATOM      7  H   UNL A   1      34.655  19.960  24.238  1.00  0.00     0.163 HD
BRANCH   5   8
ATOM      8  C   UNL A   1      33.568  23.115  24.754  1.00  0.00     0.040 A 
ATOM      9  C   UNL A   1      29.992  25.734  25.770  1.00  0.00     0.018 C 
ATOM     10  C   UNL A   1      31.328  25.733  26.498  1.00  0.00     0.047 C 
ATOM     11  C   UNL A   1      31.949  27.113  26.642  1.00  0.00    -0.033 A 
ATOM     12  C   UNL A   1      32.425  24.979  25.758  1.00  0.00    -0.032 A 
ATOM     13  C   UNL A   1      31.404  28.249  27.220  1.00  0.00     0.005 A 
ATOM     14  C   UNL A   1      33.260  27.115  26.113  1.00  0.00    -0.014 A 
ATOM     15  C   UNL A   1      33.557  25.798  25.591  1.00  0.00    -0.014 A 
ATOM     16  C   UNL A   1      32.410  23.663  25.315  1.00  0.00     0.018 A 
ATOM     17  C   UNL A   1      32.181  29.408  27.251  1.00  0.00     0.000 A 
ATOM     18  C   UNL A   1      34.028  28.267  26.142  1.00  0.00     0.009 A 
ATOM     19  C   UNL A   1      34.699  25.292  25.001  1.00  0.00     0.010 A 
ATOM     20  C   UNL A   1      33.479  29.418  26.713  1.00  0.00     0.001 A 
ATOM     21  C   UNL A   1      34.702  23.949  24.594  1.00  0.00     0.014 A 
ENDBRANCH   5   8
ENDBRANCH   3   4
ENDBRANCH   2   3
ENDBRANCH   1   2
BRANCH   1  22
ATOM     22  C   UNL A   1      39.368  20.184  25.753  1.00  0.00     0.116 C 
BRANCH  22  23
ATOM     23  N   UNL A   1      40.303  19.074  25.850  1.00  0.00    -0.352 N 
ATOM     24  C   UNL A   1      41.648  19.117  26.126  1.00  0.00     0.251 C 
ATOM     25  H   UNL A   1      39.923  18.178  25.696  1.00  0.00     0.163 HD
ATOM     26  O   UNL A   1      42.328  18.100  26.084  1.00  0.00    -0.269 OA
BRANCH  24  27
ATOM     27  C   UNL A   1      42.277  20.419  26.425  1.00  0.00     0.039 A 
ATOM     28  C   UNL A   1      42.828  21.153  25.374  1.00  0.00     0.014 A 
ATOM     29  C   UNL A   1      42.280  20.929  27.725  1.00  0.00     0.014 A 
ATOM     30  C   UNL A   1      43.321  22.436  25.615  1.00  0.00     0.010 A 
ATOM     31  C   UNL A   1      42.712  22.231  27.952  1.00  0.00     0.010 A 
ATOM     32  C   UNL A   1      43.231  22.998  26.898  1.00  0.00    -0.014 A 
BRANCH  32  33
ATOM     33  C   UNL A   1      43.668  24.391  27.158  1.00  0.00     0.031 A 
ATOM     34  C   UNL A   1      42.682  25.408  27.655  1.00  0.00     0.074 A 
ATOM     35  C   UNL A   1      44.934  24.754  26.874  1.00  0.00     0.049 A 
ATOM     36  N   UNL A   1      42.848  26.689  27.865  1.00  0.00    -0.248 NA
ATOM     37  C   UNL A   1      41.318  24.926  27.926  1.00  0.00     0.031 C 
ATOM     38  C   UNL A   1      45.967  23.868  26.333  1.00  0.00     0.029 A 
ATOM     39  N   UNL A   1      45.562  25.969  26.985  1.00  0.00    -0.354 N 
ATOM     40  C   UNL A   1      41.612  27.167  28.277  1.00  0.00     0.074 A 
ATOM     41  C   UNL A   1      40.691  26.050  28.239  1.00  0.00     0.031 C 
ATOM     42  C   UNL A   1      47.103  24.565  26.176  1.00  0.00     0.029 A 
ATOM     43  C   UNL A   1      46.872  25.951  26.574  1.00  0.00     0.049 A 
ATOM     44  H   UNL A   1      45.116  26.776  27.329  1.00  0.00     0.167 HD
ATOM     45  C   UNL A   1      41.281  28.418  28.674  1.00  0.00     0.037 A 
ATOM     46  C   UNL A   1      47.780  26.943  26.518  1.00  0.00     0.037 A 
ATOM     47  C   UNL A   1      42.206  29.519  28.736  1.00  0.00     0.049 A 
ATOM     48  C   UNL A   1      47.390  28.320  26.978  1.00  0.00     0.074 A 
ATOM     49  C   UNL A   1      41.982  30.811  29.176  1.00  0.00     0.029 A 
ATOM     50  N   UNL A   1      43.535  29.454  28.345  1.00  0.00    -0.354 N 
ATOM     51  N   UNL A   1      46.235  28.746  27.427  1.00  0.00    -0.248 NA
ATOM     52  C   UNL A   1      48.434  29.354  26.932  1.00  0.00     0.031 C 
ATOM     53  C   UNL A   1      43.167  31.537  29.021  1.00  0.00     0.029 A 
ATOM     54  C   UNL A   1      44.140  30.687  28.522  1.00  0.00     0.049 A 
ATOM     55  H   UNL A   1      43.982  28.649  27.993  1.00  0.00     0.167 HD
ATOM     56  C   UNL A   1      46.417  30.085  27.740  1.00  0.00     0.074 A 
ATOM     57  C   UNL A   1      47.799  30.400  27.443  1.00  0.00     0.031 C 
ATOM     58  C   UNL A   1      45.521  30.977  28.228  1.00  0.00     0.037 A 
BRANCH  45  59
ATOM     59  C   UNL A   1      39.858  28.659  29.083  1.00  0.00     0.064 A 
ATOM     60  C   UNL A   1      39.433  28.463  30.405  1.00  0.00     0.173 A 
ATOM     61  C   UNL A   1      38.915  29.120  28.152  1.00  0.00     0.173 A 
ATOM     62  F   UNL A   1      40.293  28.010  31.330  1.00  0.00    -0.203 F 
ATOM     63  C   UNL A   1      38.110  28.691  30.775  1.00  0.00     0.198 A 
ATOM     64  C   UNL A   1      37.600  29.375  28.531  1.00  0.00     0.198 A 
ATOM     65  F   UNL A   1      39.270  29.328  26.875  1.00  0.00    -0.203 F 
ATOM     66  F   UNL A   1      37.717  28.450  32.033  1.00  0.00    -0.200 F 
ATOM     67  C   UNL A   1      37.197  29.153  29.840  1.00  0.00     0.200 A 
ATOM     68  F   UNL A   1      36.720  29.831  27.629  1.00  0.00    -0.200 F 
ATOM     69  F   UNL A   1      35.925  29.377  30.198  1.00  0.00    -0.200 F 
ENDBRANCH  45  59
BRANCH  46  70
ATOM     70  C   UNL A   1      49.155  26.662  26.033  1.00  0.00     0.064 A 
ATOM     71  C   UNL A   1      49.520  26.938  24.709  1.00  0.00     0.173 A 
ATOM     72  C   UNL A   1      50.129  26.110  26.878  1.00  0.00     0.173 A 
ATOM     73  F   UNL A   1      48.617  27.448  23.858  1.00  0.00    -0.203 F 
ATOM     74  C   UNL A   1      50.803  26.656  24.242  1.00  0.00     0.198 A 
ATOM     75  C   UNL A   1      51.418  25.852  26.417  1.00  0.00     0.198 A 
ATOM     76  F   UNL A   1      49.830  25.832  28.156  1.00  0.00    -0.203 F 
ATOM     77  F   UNL A   1      51.112  26.891  22.959  1.00  0.00    -0.200 F 
ATOM     78  C   UNL A   1      51.752  26.118  25.098  1.00  0.00     0.200 A 
ATOM     79  F   UNL A   1      52.337  25.344  27.251  1.00  0.00    -0.200 F 
ATOM     80  F   UNL A   1      52.986  25.849  24.649  1.00  0.00    -0.200 F 
ENDBRANCH  46  70
BRANCH  58  81
ATOM     81  C   UNL A   1      46.014  32.367  28.501  1.00  0.00     0.064 A 
ATOM     82  C   UNL A   1      45.946  33.374  27.529  1.00  0.00     0.173 A 
ATOM     83  C   UNL A   1      46.520  32.704  29.766  1.00  0.00     0.173 A 
ATOM     84  F   UNL A   1      45.484  33.096  26.300  1.00  0.00    -0.203 F 
ATOM     85  C   UNL A   1      46.388  34.664  27.804  1.00  0.00     0.198 A 
ATOM     86  C   UNL A   1      46.935  34.002  30.047  1.00  0.00     0.198 A 
ATOM     87  F   UNL A   1      46.599  31.777  30.732  1.00  0.00    -0.203 F 
ATOM     88  F   UNL A   1      46.354  35.601  26.846  1.00  0.00    -0.200 F 
ATOM     89  C   UNL A   1      46.875  34.979  29.064  1.00  0.00     0.200 A 
ATOM     90  F   UNL A   1      47.396  34.307  31.268  1.00  0.00    -0.200 F 
ATOM     91  F   UNL A   1      47.293  36.225  29.331  1.00  0.00    -0.200 F 
ENDBRANCH  58  81
ENDBRANCH  32  33
ENDBRANCH  24  27
ENDBRANCH  22  23
ENDBRANCH   1  22
TORSDOF 11
ENDMDL
MODEL 2
REMARK VINA RESULT:     -13.5      0.081      1.975
REMARK SMILES C[C@@H]1c2ccccc2-c2ccc(C(=O)NCCCCNC(=O)c3ccc(-c4c5nc(c(-c6c(F)c(F)c(F)c(F)c6F)c6ccc([nH]6)c(-c6c(F)c(F)c(F)c(F)c6F)c6nc(c(-c7c(F)c(F)c(F)c(F)c7F)c7ccc4[nH]7)C=C6)C=C5)cc3)cc21
REMARK SMILES IDX 18 1 17 2 16 3 15 4 13 5 14 6 12 8 1 9 2 10 3 11 87 12 4 13
REMARK SMILES IDX 8 14 9 15 86 16 5 17 7 18 10 19 6 20 11 21 19 22 20 23 21 24
REMARK SMILES IDX 22 26 23 27 24 28 85 29 25 30 84 31 26 32 27 33 28 34 78 35
REMARK SMILES IDX 29 36 83 37 77 38 79 39 30 40 82 41 76 42 75 43 31 45 63 46
REMARK SMILES IDX 43 47 62 48 44 49 47 50 61 51 80 52 45 53 46 54 60 56 81 57
REMARK SMILES IDX 48 58 32 59 33 60 41 61 34 62 35 63 39 64 42 65 36 66 37 67
REMARK SMILES IDX 40 68 38 69 64 70 65 71 73 72 66 73 67 74 71 75 74 76 68 77
REMARK SMILES IDX 69 78 72 79 70 80 49 81 50 82 58 83 51 84 52 85 56 86 59 87
REMARK SMILES IDX 53 88 54 89 57 90 55 91
REMARK H PARENT 15 7 20 25 79 44 47 55
REMARK Flexibility Score: inf
ROOT
ATOM      1  C   UNL A   1      38.091  19.944  24.949  1.00  0.00     0.023 C 
ENDROOT
BRANCH   1   2
ATOM      2  C   UNL A   1      37.117  21.117  24.804  1.00  0.00     0.023 C 
BRANCH   2   3
ATOM      3  C   UNL A   1      35.805  20.944  25.575  1.00  0.00     0.116 C 
BRANCH   3   4
ATOM      4  N   UNL A   1      34.687  20.802  24.666  1.00  0.00    -0.352 N 
ATOM      5  C   UNL A   1      33.696  21.665  24.270  1.00  0.00     0.251 C 
ATOM      6  O   UNL A   1      32.889  21.235  23.442  1.00  0.00    -0.269 OA
ATOM      7  H   UNL A   1      34.626  19.912  24.250  1.00  0.00     0.163 HD
BRANCH   5   8
ATOM      8  C   UNL A   1      33.560  23.077  24.748  1.00  0.00     0.040 A 
ATOM      9  C   UNL A   1      29.988  25.701  25.764  1.00  0.00     0.018 C 
ATOM     10  C   UNL A   1      31.324  25.697  26.493  1.00  0.00     0.047 C 
ATOM     11  C   UNL A   1      31.948  27.076  26.638  1.00  0.00    -0.033 A 
ATOM     12  C   UNL A   1      32.420  24.942  25.752  1.00  0.00    -0.032 A 
ATOM     13  C   UNL A   1      31.404  28.212  27.218  1.00  0.00     0.005 A 
ATOM     14  C   UNL A   1      33.258  27.076  26.110  1.00  0.00    -0.014 A 
ATOM     15  C   UNL A   1      33.553  25.759  25.587  1.00  0.00    -0.014 A 
ATOM     16  C   UNL A   1      32.402  23.627  25.308  1.00  0.00     0.018 A 
ATOM     17  C   UNL A   1      32.183  29.370  27.250  1.00  0.00     0.000 A 
ATOM     18  C   UNL A   1      34.028  28.227  26.140  1.00  0.00     0.009 A 
ATOM     19  C   UNL A   1      34.695  25.251  24.996  1.00  0.00     0.010 A 
ATOM     20  C   UNL A   1      33.481  29.378  26.713  1.00  0.00     0.001 A 
ATOM     21  C   UNL A   1      34.695  23.909  24.589  1.00  0.00     0.014 A 
ENDBRANCH   5   8
ENDBRANCH   3   4
ENDBRANCH   2   3
ENDBRANCH   1   2
BRANCH   1  22
ATOM     22  C   UNL A   1      39.325  20.240  25.794  1.00  0.00     0.116 C 
BRANCH  22  23
ATOM     23  N   UNL A   1      40.257  19.125  25.871  1.00  0.00    -0.352 N 
ATOM     24  C   UNL A   1      41.606  19.161  26.126  1.00  0.00     0.251 C 
ATOM     25  H   UNL A   1      39.870  18.232  25.721  1.00  0.00     0.163 HD
ATOM     26  O   UNL A   1      42.281  18.141  26.069  1.00  0.00    -0.269 OA
BRANCH  24  27
ATOM     27  C   UNL A   1      42.246  20.460  26.419  1.00  0.00     0.039 A 
ATOM     28  C   UNL A   1      42.777  21.198  25.359  1.00  0.00     0.014 A 
ATOM     29  C   UNL A   1      42.279  20.962  27.721  1.00  0.00     0.014 A 
ATOM     30  C   UNL A   1      43.279  22.478  25.597  1.00  0.00     0.010 A 
ATOM     31  C   UNL A   1      42.720  22.261  27.946  1.00  0.00     0.010 A 
ATOM     32  C   UNL A   1      43.219  23.033  26.885  1.00  0.00    -0.014 A 
BRANCH  32  33
ATOM     33  C   UNL A   1      43.666  24.423  27.143  1.00  0.00     0.031 A 
ATOM     34  C   UNL A   1      42.687  25.447  27.640  1.00  0.00     0.074 A 
ATOM     35  C   UNL A   1      44.934  24.776  26.858  1.00  0.00     0.049 A 
ATOM     36  N   UNL A   1      42.863  26.727  27.848  1.00  0.00    -0.248 NA
ATOM     37  C   UNL A   1      41.320  24.976  27.911  1.00  0.00     0.031 C 
ATOM     38  C   UNL A   1      45.960  23.882  26.318  1.00  0.00     0.029 A 
ATOM     39  N   UNL A   1      45.571  25.986  26.968  1.00  0.00    -0.354 N 
ATOM     40  C   UNL A   1      41.630  27.215  28.259  1.00  0.00     0.074 A 
ATOM     41  C   UNL A   1      40.701  26.105  28.223  1.00  0.00     0.031 C 
ATOM     42  C   UNL A   1      47.102  24.570  26.159  1.00  0.00     0.029 A 
ATOM     43  C   UNL A   1      46.881  25.958  26.556  1.00  0.00     0.049 A 
ATOM     44  H   UNL A   1      45.131  26.797  27.311  1.00  0.00     0.167 HD
ATOM     45  C   UNL A   1      41.309  28.469  28.655  1.00  0.00     0.037 A 
ATOM     46  C   UNL A   1      47.796  26.944  26.498  1.00  0.00     0.037 A 
ATOM     47  C   UNL A   1      42.242  29.563  28.716  1.00  0.00     0.049 A 
ATOM     48  C   UNL A   1      47.416  28.325  26.958  1.00  0.00     0.074 A 
ATOM     49  C   UNL A   1      42.027  30.857  29.154  1.00  0.00     0.029 A 
ATOM     50  N   UNL A   1      43.570  29.488  28.324  1.00  0.00    -0.354 N 
ATOM     51  N   UNL A   1      46.265  28.760  27.407  1.00  0.00    -0.248 NA
ATOM     52  C   UNL A   1      48.467  29.350  26.909  1.00  0.00     0.031 C 
ATOM     53  C   UNL A   1      43.218  31.574  28.998  1.00  0.00     0.029 A 
ATOM     54  C   UNL A   1      44.184  30.717  28.500  1.00  0.00     0.049 A 
ATOM     55  H   UNL A   1      44.011  28.680  27.973  1.00  0.00     0.167 HD
ATOM     56  C   UNL A   1      46.457  30.098  27.718  1.00  0.00     0.074 A 
ATOM     57  C   UNL A   1      47.841  30.402  27.419  1.00  0.00     0.031 C 
ATOM     58  C   UNL A   1      45.567  30.996  28.205  1.00  0.00     0.037 A 
BRANCH  45  59
ATOM     59  C   UNL A   1      39.888  28.721  29.065  1.00  0.00     0.064 A 
ATOM     60  C   UNL A   1      38.924  29.148  28.140  1.00  0.00     0.173 A 
ATOM     61  C   UNL A   1      39.477  28.504  30.388  1.00  0.00     0.173 A 
ATOM     62  F   UNL A   1      39.269  29.382  26.865  1.00  0.00    -0.203 F 
ATOM     63  C   UNL A   1      37.607  29.377  28.530  1.00  0.00     0.198 A 
ATOM     64  C   UNL A   1      38.153  28.707  30.770  1.00  0.00     0.198 A 
ATOM     65  F   UNL A   1      40.358  28.091  31.312  1.00  0.00    -0.203 F 
ATOM     66  F   UNL A   1      36.716  29.832  27.639  1.00  0.00    -0.200 F 
ATOM     67  C   UNL A   1      37.221  29.150  29.842  1.00  0.00     0.200 A 
ATOM     68  F   UNL A   1      37.779  28.478  32.035  1.00  0.00    -0.200 F 
ATOM     69  F   UNL A   1      35.953  29.367  30.215  1.00  0.00    -0.200 F 
ENDBRANCH  45  59
BRANCH  46  70
ATOM     70  C   UNL A   1      49.169  26.652  26.013  1.00  0.00     0.064 A 
ATOM     71  C   UNL A   1      50.129  26.094  26.868  1.00  0.00     0.173 A 
ATOM     72  C   UNL A   1      49.550  26.925  24.692  1.00  0.00     0.173 A 
ATOM     73  F   UNL A   1      49.816  25.833  28.146  1.00  0.00    -0.203 F 
ATOM     74  C   UNL A   1      51.425  25.837  26.425  1.00  0.00     0.198 A 
ATOM     75  C   UNL A   1      50.839  26.645  24.243  1.00  0.00     0.198 A 
ATOM     76  F   UNL A   1      48.666  27.455  23.833  1.00  0.00    -0.203 F 
ATOM     77  F   UNL A   1      52.335  25.343  27.276  1.00  0.00    -0.200 F 
ATOM     78  C   UNL A   1      51.777  26.108  25.112  1.00  0.00     0.200 A 
ATOM     79  F   UNL A   1      51.173  26.896  22.969  1.00  0.00    -0.200 F 
ATOM     80  F   UNL A   1      53.024  25.859  24.685  1.00  0.00    -0.200 F 
ENDBRANCH  46  70
BRANCH  58  81
ATOM     81  C   UNL A   1      46.070  32.383  28.477  1.00  0.00     0.064 A 
ATOM     82  C   UNL A   1      46.620  32.734  29.717  1.00  0.00     0.173 A 
ATOM     83  C   UNL A   1      46.040  33.358  27.469  1.00  0.00     0.173 A 
ATOM     84  F   UNL A   1      46.656  31.840  30.718  1.00  0.00    -0.203 F 
ATOM     85  C   UNL A   1      47.102  34.019  29.947  1.00  0.00     0.198 A 
ATOM     86  C   UNL A   1      46.548  34.634  27.693  1.00  0.00     0.198 A 
ATOM     87  F   UNL A   1      45.530  33.068  26.262  1.00  0.00    -0.203 F 
ATOM     88  F   UNL A   1      47.584  34.346  31.154  1.00  0.00    -0.200 F 
ATOM     89  C   UNL A   1      47.072  34.965  28.933  1.00  0.00     0.200 A 
ATOM     90  F   UNL A   1      46.528  35.544  26.709  1.00  0.00    -0.200 F 
ATOM     91  F   UNL A   1      47.544  36.201  29.154  1.00  0.00    -0.200 F 
ENDBRANCH  58  81
ENDBRANCH  32  33
ENDBRANCH  24  27
ENDBRANCH  22  23
ENDBRANCH   1  22
TORSDOF 11
ENDMDL
MODEL 3
REMARK VINA RESULT:     -13.4      0.933      7.408
REMARK SMILES C[C@@H]1c2ccccc2-c2ccc(C(=O)NCCCCNC(=O)c3ccc(-c4c5nc(c(-c6c(F)c(F)c(F)c(F)c6F)c6ccc([nH]6)c(-c6c(F)c(F)c(F)c(F)c6F)c6nc(c(-c7c(F)c(F)c(F)c(F)c7F)c7ccc4[nH]7)C=C6)C=C5)cc3)cc21
REMARK SMILES IDX 18 1 17 2 16 3 15 4 13 5 14 6 12 8 1 9 2 10 3 11 87 12 4 13
REMARK SMILES IDX 8 14 9 15 86 16 5 17 7 18 10 19 6 20 11 21 19 22 20 23 21 24
REMARK SMILES IDX 22 26 23 27 24 28 85 29 25 30 84 31 26 32 27 33 28 34 78 35
REMARK SMILES IDX 29 36 83 37 77 38 79 39 30 40 82 41 76 42 75 43 31 45 63 46
REMARK SMILES IDX 43 47 62 48 44 49 47 50 61 51 80 52 45 53 46 54 60 56 81 57
REMARK SMILES IDX 48 58 32 59 33 60 41 61 34 62 35 63 39 64 42 65 36 66 37 67
REMARK SMILES IDX 40 68 38 69 64 70 65 71 73 72 66 73 67 74 71 75 74 76 68 77
REMARK SMILES IDX 69 78 72 79 70 80 49 81 50 82 58 83 51 84 52 85 56 86 59 87
REMARK SMILES IDX 53 88 54 89 57 90 55 91
REMARK H PARENT 15 7 20 25 79 44 47 55
REMARK Flexibility Score: inf
ROOT
ATOM      1  C   UNL A   1      38.117  19.870  25.001  1.00  0.00     0.023 C 
ENDROOT
BRANCH   1   2
ATOM      2  C   UNL A   1      37.161  21.042  24.764  1.00  0.00     0.023 C 
BRANCH   2   3
ATOM      3  C   UNL A   1      35.856  20.962  25.561  1.00  0.00     0.116 C 
BRANCH   3   4
ATOM      4  N   UNL A   1      34.719  20.822  24.675  1.00  0.00    -0.352 N 
ATOM      5  C   UNL A   1      33.716  21.683  24.307  1.00  0.00     0.251 C 
ATOM      6  O   UNL A   1      32.893  21.255  23.495  1.00  0.00    -0.269 OA
ATOM      7  H   UNL A   1      34.652  19.934  24.255  1.00  0.00     0.163 HD
BRANCH   5   8
ATOM      8  C   UNL A   1      33.585  23.091  24.798  1.00  0.00     0.040 A 
ATOM      9  C   UNL A   1      30.023  25.718  25.841  1.00  0.00     0.018 C 
ATOM     10  C   UNL A   1      31.360  25.704  26.569  1.00  0.00     0.047 C 
ATOM     11  C   UNL A   1      31.989  27.079  26.725  1.00  0.00    -0.033 A 
ATOM     12  C   UNL A   1      32.453  24.951  25.820  1.00  0.00    -0.032 A 
ATOM     13  C   UNL A   1      31.449  28.211  27.315  1.00  0.00     0.005 A 
ATOM     14  C   UNL A   1      33.299  27.079  26.195  1.00  0.00    -0.014 A 
ATOM     15  C   UNL A   1      33.589  25.766  25.661  1.00  0.00    -0.014 A 
ATOM     16  C   UNL A   1      32.430  23.640  25.365  1.00  0.00     0.018 A 
ATOM     17  C   UNL A   1      32.232  29.366  27.357  1.00  0.00     0.000 A 
ATOM     18  C   UNL A   1      34.073  28.227  26.235  1.00  0.00     0.009 A 
ATOM     19  C   UNL A   1      34.728  25.260  25.064  1.00  0.00     0.010 A 
ATOM     20  C   UNL A   1      33.530  29.375  26.818  1.00  0.00     0.001 A 
ATOM     21  C   UNL A   1      34.723  23.921  24.645  1.00  0.00     0.014 A 
ENDBRANCH   5   8
ENDBRANCH   3   4
ENDBRANCH   2   3
ENDBRANCH   1   2
BRANCH   1  22
ATOM     22  C   UNL A   1      39.324  20.197  25.874  1.00  0.00     0.116 C 
BRANCH  22  23
ATOM     23  N   UNL A   1      40.338  19.154  25.878  1.00  0.00    -0.352 N 
ATOM     24  C   UNL A   1      41.685  19.277  26.120  1.00  0.00     0.251 C 
ATOM     25  H   UNL A   1      40.017  18.243  25.682  1.00  0.00     0.163 HD
ATOM     26  O   UNL A   1      42.433  18.316  25.998  1.00  0.00    -0.269 OA
BRANCH  24  27
ATOM     27  C   UNL A   1      42.229  20.603  26.479  1.00  0.00     0.039 A 
ATOM     28  C   UNL A   1      42.652  21.451  25.454  1.00  0.00     0.014 A 
ATOM     29  C   UNL A   1      42.278  21.018  27.811  1.00  0.00     0.014 A 
ATOM     30  C   UNL A   1      43.060  22.750  25.762  1.00  0.00     0.010 A 
ATOM     31  C   UNL A   1      42.622  22.332  28.109  1.00  0.00     0.010 A 
ATOM     32  C   UNL A   1      43.011  23.211  27.087  1.00  0.00    -0.014 A 
BRANCH  32  33
ATOM     33  C   UNL A   1      43.354  24.613  27.425  1.00  0.00     0.031 A 
ATOM     34  C   UNL A   1      44.791  25.045  27.473  1.00  0.00     0.074 A 
ATOM     35  C   UNL A   1      42.374  25.474  27.760  1.00  0.00     0.049 A 
ATOM     36  N   UNL A   1      45.298  26.199  27.824  1.00  0.00    -0.248 NA
ATOM     37  C   UNL A   1      45.796  24.034  27.105  1.00  0.00     0.031 C 
ATOM     38  C   UNL A   1      40.946  25.155  27.804  1.00  0.00     0.029 A 
ATOM     39  N   UNL A   1      42.433  26.791  28.143  1.00  0.00    -0.354 N 
ATOM     40  C   UNL A   1      46.675  26.050  27.734  1.00  0.00     0.074 A 
ATOM     41  C   UNL A   1      46.928  24.679  27.344  1.00  0.00     0.031 C 
ATOM     42  C   UNL A   1      40.264  26.249  28.177  1.00  0.00     0.029 A 
ATOM     43  C   UNL A   1      41.206  27.336  28.427  1.00  0.00     0.049 A 
ATOM     44  H   UNL A   1      43.275  27.295  28.207  1.00  0.00     0.167 HD
ATOM     45  C   UNL A   1      47.639  26.979  27.933  1.00  0.00     0.037 A 
ATOM     46  C   UNL A   1      40.880  28.573  28.849  1.00  0.00     0.037 A 
ATOM     47  C   UNL A   1      47.382  28.348  28.294  1.00  0.00     0.049 A 
ATOM     48  C   UNL A   1      41.969  29.590  29.049  1.00  0.00     0.074 A 
ATOM     49  C   UNL A   1      48.286  29.381  28.466  1.00  0.00     0.029 A 
ATOM     50  N   UNL A   1      46.122  28.875  28.538  1.00  0.00    -0.354 N 
ATOM     51  N   UNL A   1      43.264  29.456  28.898  1.00  0.00    -0.248 NA
ATOM     52  C   UNL A   1      41.550  30.933  29.472  1.00  0.00     0.031 C 
ATOM     53  C   UNL A   1      47.576  30.524  28.846  1.00  0.00     0.029 A 
ATOM     54  C   UNL A   1      46.226  30.215  28.871  1.00  0.00     0.049 A 
ATOM     55  H   UNL A   1      45.277  28.370  28.482  1.00  0.00     0.167 HD
ATOM     56  C   UNL A   1      43.812  30.699  29.180  1.00  0.00     0.074 A 
ATOM     57  C   UNL A   1      42.708  31.580  29.500  1.00  0.00     0.031 C 
ATOM     58  C   UNL A   1      45.113  31.077  29.177  1.00  0.00     0.037 A 
BRANCH  45  59
ATOM     59  C   UNL A   1      49.063  26.545  27.754  1.00  0.00     0.064 A 
ATOM     60  C   UNL A   1      49.634  26.414  26.479  1.00  0.00     0.173 A 
ATOM     61  C   UNL A   1      49.878  26.288  28.867  1.00  0.00     0.173 A 
ATOM     62  F   UNL A   1      48.894  26.635  25.382  1.00  0.00    -0.203 F 
ATOM     63  C   UNL A   1      50.958  26.012  26.324  1.00  0.00     0.198 A 
ATOM     64  C   UNL A   1      51.209  25.914  28.710  1.00  0.00     0.198 A 
ATOM     65  F   UNL A   1      49.383  26.404  30.109  1.00  0.00    -0.203 F 
ATOM     66  F   UNL A   1      51.466  25.846  25.095  1.00  0.00    -0.200 F 
ATOM     67  C   UNL A   1      51.747  25.770  27.438  1.00  0.00     0.200 A 
ATOM     68  F   UNL A   1      51.974  25.690  29.787  1.00  0.00    -0.200 F 
ATOM     69  F   UNL A   1      53.022  25.388  27.288  1.00  0.00    -0.200 F 
ENDBRANCH  45  59
BRANCH  46  70
ATOM     70  C   UNL A   1      39.456  28.924  29.082  1.00  0.00     0.064 A 
ATOM     71  C   UNL A   1      38.653  29.399  28.036  1.00  0.00     0.173 A 
ATOM     72  C   UNL A   1      38.870  28.796  30.350  1.00  0.00     0.173 A 
ATOM     73  F   UNL A   1      39.175  29.556  26.810  1.00  0.00    -0.203 F 
ATOM     74  C   UNL A   1      37.322  29.751  28.253  1.00  0.00     0.198 A 
ATOM     75  C   UNL A   1      37.532  29.124  30.559  1.00  0.00     0.198 A 
ATOM     76  F   UNL A   1      39.595  28.342  31.382  1.00  0.00    -0.203 F 
ATOM     77  F   UNL A   1      36.590  30.242  27.244  1.00  0.00    -0.200 F 
ATOM     78  C   UNL A   1      36.762  29.608  29.513  1.00  0.00     0.200 A 
ATOM     79  F   UNL A   1      36.990  28.973  31.776  1.00  0.00    -0.200 F 
ATOM     80  F   UNL A   1      35.481  29.944  29.720  1.00  0.00    -0.200 F 
ENDBRANCH  46  70
BRANCH  58  81
ATOM     81  C   UNL A   1      45.411  32.512  29.498  1.00  0.00     0.064 A 
ATOM     82  C   UNL A   1      45.411  33.501  28.505  1.00  0.00     0.173 A 
ATOM     83  C   UNL A   1      45.657  32.906  30.822  1.00  0.00     0.173 A 
ATOM     84  F   UNL A   1      45.197  33.171  27.222  1.00  0.00    -0.203 F 
ATOM     85  C   UNL A   1      45.669  34.831  28.822  1.00  0.00     0.198 A 
ATOM     86  C   UNL A   1      45.888  34.241  31.140  1.00  0.00     0.198 A 
ATOM     87  F   UNL A   1      45.662  31.997  31.809  1.00  0.00    -0.203 F 
ATOM     88  F   UNL A   1      45.707  35.755  27.851  1.00  0.00    -0.200 F 
ATOM     89  C   UNL A   1      45.900  35.201  30.139  1.00  0.00     0.200 A 
ATOM     90  F   UNL A   1      46.100  34.598  32.414  1.00  0.00    -0.200 F 
ATOM     91  F   UNL A   1      46.141  36.484  30.444  1.00  0.00    -0.200 F 
ENDBRANCH  58  81
ENDBRANCH  32  33
ENDBRANCH  24  27
ENDBRANCH  22  23
ENDBRANCH   1  22
TORSDOF 11
ENDMDL
