MODEL 1
REMARK VINA RESULT:     -13.9      0.000      0.000
REMARK SMILES CC[C@@]1(CC(=O)NCCCCNC(=O)c2ccc(-c3c4nc(c(-c5c(F)c(F)c(F)c(F)c5F)c5ccc([nH]5)c(-c5c(F)c(F)c(F)c(F)c5F)c5nc(c(-c6c(F)c(F)c(F)c(F)c6F)c6ccc3[nH]6)C=C5)C=C4)cc2)OC[C@H](Cc2ccccc2)c2c1[nH]c1ccccc21
REMARK SMILES IDX 9 1 8 2 7 3 5 4 6 5 4 7 3 8 78 9 89 10 79 11 88 12 90 13
REMARK SMILES IDX 80 14 96 15 91 16 95 18 92 19 94 20 93 21 2 22 1 23 81 24
REMARK SMILES IDX 82 25 83 26 87 27 84 28 86 29 85 30 10 31 11 32 12 33 13 34
REMARK SMILES IDX 14 36 15 37 16 38 77 39 17 40 76 41 18 42 19 43 20 44 70 45
REMARK SMILES IDX 21 46 75 47 69 48 71 49 22 50 74 51 68 52 67 53 23 55 55 56
REMARK SMILES IDX 35 57 54 58 36 59 39 60 53 61 72 62 37 63 38 64 52 66 73 67
REMARK SMILES IDX 40 68 24 69 25 70 33 71 26 72 27 73 31 74 34 75 28 76 29 77
REMARK SMILES IDX 32 78 30 79 56 80 57 81 65 82 58 83 59 84 63 85 66 86 60 87
REMARK SMILES IDX 61 88 64 89 62 90 41 91 42 92 50 93 43 94 44 95 48 96 51 97
REMARK SMILES IDX 45 98 46 99 49 100 47 101
REMARK H PARENT 7 6 90 17 12 35 71 54 39 65
REMARK Flexibility Score: inf
ROOT
ATOM      1  C   UNL A   1      34.117  29.049  26.886  1.00  0.00     0.023 C 
ENDROOT
BRANCH   1   2
ATOM      2  C   UNL A   1      33.251  27.785  26.837  1.00  0.00     0.116 C 
BRANCH   2   3
ATOM      3  N   UNL A   1      32.110  27.908  25.939  1.00  0.00    -0.356 N 
ATOM      4  C   UNL A   1      31.545  26.998  25.087  1.00  0.00     0.223 C 
ATOM      5  O   UNL A   1      30.632  27.390  24.355  1.00  0.00    -0.275 OA
ATOM      6  H   UNL A   1      31.674  28.791  25.947  1.00  0.00     0.163 HD
BRANCH   4   7
ATOM      7  C   UNL A   1      31.968  25.541  25.092  1.00  0.00     0.142 C 
BRANCH   7   8
ATOM      8  C   UNL A   1      33.009  25.048  24.060  1.00  0.00     0.117 C 
ATOM      9  O   UNL A   1      32.429  24.244  23.000  1.00  0.00    -0.368 OA
ATOM     10  C   UNL A   1      34.144  24.225  24.630  1.00  0.00     0.052 A 
ATOM     11  C   UNL A   1      32.184  22.859  23.274  1.00  0.00     0.170 C 
ATOM     12  C   UNL A   1      34.349  22.871  24.441  1.00  0.00    -0.011 A 
ATOM     13  N   UNL A   1      35.207  24.673  25.379  1.00  0.00    -0.356 N 
ATOM     14  C   UNL A   1      33.367  22.006  23.737  1.00  0.00     0.052 C 
ATOM     15  C   UNL A   1      35.662  22.551  24.866  1.00  0.00     0.003 A 
ATOM     16  C   UNL A   1      36.194  23.708  25.428  1.00  0.00     0.046 A 
ATOM     17  H   UNL A   1      35.257  25.553  25.818  1.00  0.00     0.166 HD
ATOM     18  C   UNL A   1      36.465  21.398  24.779  1.00  0.00     0.010 A 
ATOM     19  C   UNL A   1      37.509  23.771  25.906  1.00  0.00     0.026 A 
ATOM     20  C   UNL A   1      37.782  21.446  25.238  1.00  0.00     0.001 A 
ATOM     21  C   UNL A   1      38.295  22.618  25.789  1.00  0.00     0.002 A 
BRANCH   8  22
ATOM     22  C   UNL A   1      33.523  26.286  23.248  1.00  0.00     0.039 C 
ATOM     23  C   UNL A   1      33.034  26.479  21.820  1.00  0.00     0.007 C 
ENDBRANCH   8  22
BRANCH  14  24
ATOM     24  C   UNL A   1      32.858  20.850  24.637  1.00  0.00     0.046 C 
BRANCH  24  25
ATOM     25  C   UNL A   1      33.210  19.464  24.137  1.00  0.00    -0.047 A 
ATOM     26  C   UNL A   1      34.255  18.735  24.719  1.00  0.00     0.004 A 
ATOM     27  C   UNL A   1      32.506  18.901  23.062  1.00  0.00     0.004 A 
ATOM     28  C   UNL A   1      34.603  17.477  24.221  1.00  0.00     0.000 A 
ATOM     29  C   UNL A   1      32.851  17.640  22.571  1.00  0.00     0.000 A 
ATOM     30  C   UNL A   1      33.901  16.930  23.147  1.00  0.00     0.000 A 
ENDBRANCH  24  25
ENDBRANCH  14  24
ENDBRANCH   7   8
ENDBRANCH   4   7
ENDBRANCH   2   3
ENDBRANCH   1   2
BRANCH   1  31
ATOM     31  C   UNL A   1      33.422  30.344  27.318  1.00  0.00     0.023 C 
BRANCH  31  32
ATOM     32  C   UNL A   1      34.376  31.514  27.534  1.00  0.00     0.116 C 
BRANCH  32  33
ATOM     33  N   UNL A   1      34.354  32.008  28.897  1.00  0.00    -0.352 N 
ATOM     34  C   UNL A   1      35.168  31.908  29.982  1.00  0.00     0.251 C 
ATOM     35  H   UNL A   1      33.552  32.547  29.083  1.00  0.00     0.163 HD
ATOM     36  O   UNL A   1      34.763  32.484  31.004  1.00  0.00    -0.269 OA
BRANCH  34  37
ATOM     37  C   UNL A   1      36.453  31.165  30.060  1.00  0.00     0.039 A 
ATOM     38  C   UNL A   1      37.721  31.682  29.794  1.00  0.00     0.014 A 
ATOM     39  C   UNL A   1      36.342  29.796  30.383  1.00  0.00     0.014 A 
ATOM     40  C   UNL A   1      38.830  30.835  29.769  1.00  0.00     0.010 A 
ATOM     41  C   UNL A   1      37.447  28.954  30.380  1.00  0.00     0.010 A 
ATOM     42  C   UNL A   1      38.687  29.466  30.027  1.00  0.00    -0.014 A 
BRANCH  42  43
ATOM     43  C   UNL A   1      39.887  28.631  30.036  1.00  0.00     0.031 A 
ATOM     44  C   UNL A   1      40.473  28.435  31.389  1.00  0.00     0.074 A 
ATOM     45  C   UNL A   1      40.386  27.992  28.955  1.00  0.00     0.049 A 
ATOM     46  N   UNL A   1      41.622  28.843  31.817  1.00  0.00    -0.248 NA
ATOM     47  C   UNL A   1      39.639  27.808  32.428  1.00  0.00     0.031 C 
ATOM     48  C   UNL A   1      39.752  27.837  27.643  1.00  0.00     0.029 A 
ATOM     49  N   UNL A   1      41.541  27.266  28.822  1.00  0.00    -0.354 N 
ATOM     50  C   UNL A   1      41.743  28.356  33.117  1.00  0.00     0.074 A 
ATOM     51  C   UNL A   1      40.445  27.861  33.492  1.00  0.00     0.031 C 
ATOM     52  C   UNL A   1      40.409  26.889  26.933  1.00  0.00     0.029 A 
ATOM     53  C   UNL A   1      41.598  26.494  27.667  1.00  0.00     0.049 A 
ATOM     54  H   UNL A   1      42.267  27.289  29.488  1.00  0.00     0.167 HD
ATOM     55  C   UNL A   1      42.971  28.161  33.670  1.00  0.00     0.037 A 
ATOM     56  C   UNL A   1      42.546  25.579  27.344  1.00  0.00     0.037 A 
ATOM     57  C   UNL A   1      43.994  28.835  32.917  1.00  0.00     0.049 A 
ATOM     58  C   UNL A   1      43.773  25.907  28.101  1.00  0.00     0.074 A 
ATOM     59  C   UNL A   1      44.528  30.102  32.842  1.00  0.00     0.029 A 
ATOM     60  N   UNL A   1      44.373  28.166  31.789  1.00  0.00    -0.354 N 
ATOM     61  N   UNL A   1      44.485  26.979  27.892  1.00  0.00    -0.248 NA
ATOM     62  C   UNL A   1      44.081  25.174  29.325  1.00  0.00     0.031 C 
ATOM     63  C   UNL A   1      45.152  30.204  31.561  1.00  0.00     0.029 A 
ATOM     64  C   UNL A   1      45.012  28.987  30.901  1.00  0.00     0.049 A 
ATOM     65  H   UNL A   1      44.207  27.208  31.633  1.00  0.00     0.167 HD
ATOM     66  C   UNL A   1      45.007  27.277  29.131  1.00  0.00     0.074 A 
ATOM     67  C   UNL A   1      44.889  26.056  29.916  1.00  0.00     0.031 C 
ATOM     68  C   UNL A   1      45.158  28.570  29.529  1.00  0.00     0.037 A 
BRANCH  55  69
ATOM     69  C   UNL A   1      43.329  27.004  34.576  1.00  0.00     0.064 A 
ATOM     70  C   UNL A   1      43.590  27.245  35.942  1.00  0.00     0.173 A 
ATOM     71  C   UNL A   1      43.737  25.740  34.096  1.00  0.00     0.173 A 
ATOM     72  F   UNL A   1      43.282  28.427  36.498  1.00  0.00    -0.203 F 
ATOM     73  C   UNL A   1      44.247  26.308  36.747  1.00  0.00     0.198 A 
ATOM     74  C   UNL A   1      44.346  24.790  34.915  1.00  0.00     0.198 A 
ATOM     75  F   UNL A   1      43.672  25.422  32.798  1.00  0.00    -0.203 F 
ATOM     76  F   UNL A   1      44.568  26.621  38.010  1.00  0.00    -0.200 F 
ATOM     77  C   UNL A   1      44.624  25.081  36.233  1.00  0.00     0.200 A 
ATOM     78  F   UNL A   1      44.731  23.618  34.389  1.00  0.00    -0.200 F 
ATOM     79  F   UNL A   1      45.294  24.201  36.988  1.00  0.00    -0.200 F 
ENDBRANCH  55  69
BRANCH  56  80
ATOM     80  C   UNL A   1      42.412  24.285  26.631  1.00  0.00     0.064 A 
ATOM     81  C   UNL A   1      43.262  23.966  25.556  1.00  0.00     0.173 A 
ATOM     82  C   UNL A   1      41.697  23.217  27.202  1.00  0.00     0.173 A 
ATOM     83  F   UNL A   1      43.998  24.922  24.971  1.00  0.00    -0.203 F 
ATOM     84  C   UNL A   1      43.441  22.647  25.128  1.00  0.00     0.198 A 
ATOM     85  C   UNL A   1      41.873  21.902  26.769  1.00  0.00     0.198 A 
ATOM     86  F   UNL A   1      40.899  23.415  28.261  1.00  0.00    -0.203 F 
ATOM     87  F   UNL A   1      44.330  22.374  24.162  1.00  0.00    -0.200 F 
ATOM     88  C   UNL A   1      42.762  21.613  25.749  1.00  0.00     0.200 A 
ATOM     89  F   UNL A   1      41.235  20.904  27.398  1.00  0.00    -0.200 F 
ATOM     90  F   UNL A   1      43.000  20.342  25.400  1.00  0.00    -0.200 F 
ENDBRANCH  56  80
BRANCH  68  91
ATOM     91  C   UNL A   1      45.307  29.609  28.469  1.00  0.00     0.064 A 
ATOM     92  C   UNL A   1      44.241  30.315  27.890  1.00  0.00     0.173 A 
ATOM     93  C   UNL A   1      46.606  29.947  28.069  1.00  0.00     0.173 A 
ATOM     94  F   UNL A   1      42.977  30.090  28.271  1.00  0.00    -0.203 F 
ATOM     95  C   UNL A   1      44.473  31.302  26.932  1.00  0.00     0.198 A 
ATOM     96  C   UNL A   1      46.836  30.952  27.138  1.00  0.00     0.198 A 
ATOM     97  F   UNL A   1      47.660  29.321  28.616  1.00  0.00    -0.203 F 
ATOM     98  F   UNL A   1      43.443  31.961  26.383  1.00  0.00    -0.200 F 
ATOM     99  C   UNL A   1      45.771  31.623  26.563  1.00  0.00     0.200 A 
ATOM    100  F   UNL A   1      48.093  31.283  26.815  1.00  0.00    -0.200 F 
ATOM    101  F   UNL A   1      45.995  32.596  25.669  1.00  0.00    -0.200 F 
ENDBRANCH  68  91
ENDBRANCH  42  43
ENDBRANCH  34  37
ENDBRANCH  32  33
ENDBRANCH  31  32
ENDBRANCH   1  31
TORSDOF 15
ENDMDL
MODEL 2
REMARK VINA RESULT:     -13.8      1.037      1.543
REMARK SMILES CC[C@@]1(CC(=O)NCCCCNC(=O)c2ccc(-c3c4nc(c(-c5c(F)c(F)c(F)c(F)c5F)c5ccc([nH]5)c(-c5c(F)c(F)c(F)c(F)c5F)c5nc(c(-c6c(F)c(F)c(F)c(F)c6F)c6ccc3[nH]6)C=C5)C=C4)cc2)OC[C@H](Cc2ccccc2)c2c1[nH]c1ccccc21
REMARK SMILES IDX 9 1 8 2 7 3 5 4 6 5 4 7 3 8 78 9 89 10 79 11 88 12 90 13
REMARK SMILES IDX 80 14 96 15 91 16 95 18 92 19 94 20 93 21 2 22 1 23 81 24
REMARK SMILES IDX 82 25 83 26 87 27 84 28 86 29 85 30 10 31 11 32 12 33 13 34
REMARK SMILES IDX 14 36 15 37 16 38 77 39 17 40 76 41 18 42 19 43 20 44 70 45
REMARK SMILES IDX 21 46 75 47 69 48 71 49 22 50 74 51 68 52 67 53 23 55 55 56
REMARK SMILES IDX 35 57 54 58 36 59 39 60 53 61 72 62 37 63 38 64 52 66 73 67
REMARK SMILES IDX 40 68 24 69 25 70 33 71 26 72 27 73 31 74 34 75 28 76 29 77
REMARK SMILES IDX 32 78 30 79 56 80 57 81 65 82 58 83 59 84 63 85 66 86 60 87
REMARK SMILES IDX 61 88 64 89 62 90 41 91 42 92 50 93 43 94 44 95 48 96 51 97
REMARK SMILES IDX 45 98 46 99 49 100 47 101
REMARK H PARENT 7 6 90 17 12 35 71 54 39 65
REMARK Flexibility Score: inf
ROOT
ATOM      1  C   UNL A   1      31.926  29.259  27.242  1.00  0.00     0.023 C 
ENDROOT
BRANCH   1   2
ATOM      2  C   UNL A   1      32.307  28.012  26.435  1.00  0.00     0.116 C 
BRANCH   2   3
ATOM      3  N   UNL A   1      31.174  27.136  26.169  1.00  0.00    -0.356 N 
ATOM      4  C   UNL A   1      31.123  25.785  25.953  1.00  0.00     0.223 C 
ATOM      5  O   UNL A   1      30.032  25.294  25.650  1.00  0.00    -0.275 OA
ATOM      6  H   UNL A   1      30.301  27.590  26.138  1.00  0.00     0.163 HD
BRANCH   4   7
ATOM      7  C   UNL A   1      32.343  24.906  26.155  1.00  0.00     0.142 C 
BRANCH   7   8
ATOM      8  C   UNL A   1      33.097  24.357  24.921  1.00  0.00     0.117 C 
ATOM      9  O   UNL A   1      32.235  23.651  23.991  1.00  0.00    -0.368 OA
ATOM     10  C   UNL A   1      34.237  23.411  25.230  1.00  0.00     0.052 A 
ATOM     11  C   UNL A   1      31.915  22.286  24.286  1.00  0.00     0.170 C 
ATOM     12  C   UNL A   1      34.263  22.051  24.978  1.00  0.00    -0.011 A 
ATOM     13  N   UNL A   1      35.469  23.729  25.749  1.00  0.00    -0.356 N 
ATOM     14  C   UNL A   1      33.077  21.309  24.478  1.00  0.00     0.052 C 
ATOM     15  C   UNL A   1      35.597  21.594  25.116  1.00  0.00     0.003 A 
ATOM     16  C   UNL A   1      36.345  22.674  25.576  1.00  0.00     0.046 A 
ATOM     17  H   UNL A   1      35.695  24.583  26.184  1.00  0.00     0.166 HD
ATOM     18  C   UNL A   1      36.246  20.374  24.846  1.00  0.00     0.010 A 
ATOM     19  C   UNL A   1      37.729  22.595  25.773  1.00  0.00     0.026 A 
ATOM     20  C   UNL A   1      37.627  20.281  25.021  1.00  0.00     0.001 A 
ATOM     21  C   UNL A   1      38.356  21.379  25.475  1.00  0.00     0.002 A 
BRANCH   8  22
ATOM     22  C   UNL A   1      33.555  25.571  24.042  1.00  0.00     0.039 C 
ATOM     23  C   UNL A   1      33.507  25.436  22.527  1.00  0.00     0.007 C 
ENDBRANCH   8  22
BRANCH  14  24
ATOM     24  C   UNL A   1      32.650  20.173  25.444  1.00  0.00     0.046 C 
BRANCH  24  25
ATOM     25  C   UNL A   1      32.905  18.775  24.920  1.00  0.00    -0.047 A 
ATOM     26  C   UNL A   1      32.823  17.663  25.769  1.00  0.00     0.004 A 
ATOM     27  C   UNL A   1      33.255  18.577  23.576  1.00  0.00     0.004 A 
ATOM     28  C   UNL A   1      33.105  16.383  25.287  1.00  0.00     0.000 A 
ATOM     29  C   UNL A   1      33.529  17.295  23.094  1.00  0.00     0.000 A 
ATOM     30  C   UNL A   1      33.458  16.199  23.951  1.00  0.00     0.000 A 
ENDBRANCH  24  25
ENDBRANCH  14  24
ENDBRANCH   7   8
ENDBRANCH   4   7
ENDBRANCH   2   3
ENDBRANCH   1   2
BRANCH   1  31
ATOM     31  C   UNL A   1      32.557  30.583  26.802  1.00  0.00     0.023 C 
BRANCH  31  32
ATOM     32  C   UNL A   1      33.995  30.770  27.276  1.00  0.00     0.116 C 
BRANCH  32  33
ATOM     33  N   UNL A   1      34.099  31.683  28.397  1.00  0.00    -0.352 N 
ATOM     34  C   UNL A   1      35.036  31.961  29.343  1.00  0.00     0.251 C 
ATOM     35  H   UNL A   1      33.292  32.237  28.500  1.00  0.00     0.163 HD
ATOM     36  O   UNL A   1      34.716  32.831  30.167  1.00  0.00    -0.269 OA
BRANCH  34  37
ATOM     37  C   UNL A   1      36.364  31.310  29.492  1.00  0.00     0.039 A 
ATOM     38  C   UNL A   1      37.596  31.960  29.565  1.00  0.00     0.014 A 
ATOM     39  C   UNL A   1      36.350  29.900  29.503  1.00  0.00     0.014 A 
ATOM     40  C   UNL A   1      38.779  31.219  29.562  1.00  0.00     0.010 A 
ATOM     41  C   UNL A   1      37.524  29.158  29.522  1.00  0.00     0.010 A 
ATOM     42  C   UNL A   1      38.743  29.820  29.505  1.00  0.00    -0.014 A 
BRANCH  42  43
ATOM     43  C   UNL A   1      40.008  29.089  29.554  1.00  0.00     0.031 A 
ATOM     44  C   UNL A   1      40.542  28.903  30.930  1.00  0.00     0.074 A 
ATOM     45  C   UNL A   1      40.612  28.527  28.484  1.00  0.00     0.049 A 
ATOM     46  N   UNL A   1      41.630  29.394  31.426  1.00  0.00    -0.248 NA
ATOM     47  C   UNL A   1      39.715  28.178  31.909  1.00  0.00     0.031 C 
ATOM     48  C   UNL A   1      40.058  28.358  27.137  1.00  0.00     0.029 A 
ATOM     49  N   UNL A   1      41.830  27.905  28.392  1.00  0.00    -0.354 N 
ATOM     50  C   UNL A   1      41.729  28.880  32.717  1.00  0.00     0.074 A 
ATOM     51  C   UNL A   1      40.462  28.266  33.013  1.00  0.00     0.031 C 
ATOM     52  C   UNL A   1      40.827  27.491  26.438  1.00  0.00     0.029 A 
ATOM     53  C   UNL A   1      42.009  27.175  27.222  1.00  0.00     0.049 A 
ATOM     54  H   UNL A   1      42.518  27.969  29.093  1.00  0.00     0.167 HD
ATOM     55  C   UNL A   1      42.941  28.773  33.327  1.00  0.00     0.037 A 
ATOM     56  C   UNL A   1      43.046  26.353  26.924  1.00  0.00     0.037 A 
ATOM     57  C   UNL A   1      43.938  29.553  32.644  1.00  0.00     0.049 A 
ATOM     58  C   UNL A   1      44.202  26.761  27.750  1.00  0.00     0.074 A 
ATOM     59  C   UNL A   1      44.364  30.862  32.629  1.00  0.00     0.029 A 
ATOM     60  N   UNL A   1      44.427  28.952  31.520  1.00  0.00    -0.354 N 
ATOM     61  N   UNL A   1      44.829  27.894  27.605  1.00  0.00    -0.248 NA
ATOM     62  C   UNL A   1      44.512  26.020  28.969  1.00  0.00     0.031 C 
ATOM     63  C   UNL A   1      45.039  31.054  31.384  1.00  0.00     0.029 A 
ATOM     64  C   UNL A   1      45.036  29.850  30.688  1.00  0.00     0.049 A 
ATOM     65  H   UNL A   1      44.351  27.988  31.332  1.00  0.00     0.167 HD
ATOM     66  C   UNL A   1      45.263  28.199  28.877  1.00  0.00     0.074 A 
ATOM     67  C   UNL A   1      45.211  26.949  29.623  1.00  0.00     0.031 C 
ATOM     68  C   UNL A   1      45.283  29.487  29.314  1.00  0.00     0.037 A 
BRANCH  55  69
ATOM     69  C   UNL A   1      43.352  27.623  34.220  1.00  0.00     0.064 A 
ATOM     70  C   UNL A   1      43.573  26.349  33.655  1.00  0.00     0.173 A 
ATOM     71  C   UNL A   1      43.223  27.648  35.625  1.00  0.00     0.173 A 
ATOM     72  F   UNL A   1      43.672  26.198  32.325  1.00  0.00    -0.203 F 
ATOM     73  C   UNL A   1      43.617  25.189  34.438  1.00  0.00     0.198 A 
ATOM     74  C   UNL A   1      43.318  26.496  36.406  1.00  0.00     0.198 A 
ATOM     75  F   UNL A   1      42.884  28.761  36.285  1.00  0.00    -0.203 F 
ATOM     76  F   UNL A   1      43.723  23.990  33.848  1.00  0.00    -0.200 F 
ATOM     77  C   UNL A   1      43.490  25.264  35.812  1.00  0.00     0.200 A 
ATOM     78  F   UNL A   1      43.160  26.587  37.735  1.00  0.00    -0.200 F 
ATOM     79  F   UNL A   1      43.484  24.153  36.559  1.00  0.00    -0.200 F 
ENDBRANCH  55  69
BRANCH  56  80
ATOM     80  C   UNL A   1      43.058  25.074  26.172  1.00  0.00     0.064 A 
ATOM     81  C   UNL A   1      44.033  24.829  25.188  1.00  0.00     0.173 A 
ATOM     82  C   UNL A   1      42.344  23.956  26.639  1.00  0.00     0.173 A 
ATOM     83  F   UNL A   1      44.775  25.837  24.707  1.00  0.00    -0.203 F 
ATOM     84  C   UNL A   1      44.327  23.533  24.752  1.00  0.00     0.198 A 
ATOM     85  C   UNL A   1      42.635  22.664  26.199  1.00  0.00     0.198 A 
ATOM     86  F   UNL A   1      41.429  24.084  27.610  1.00  0.00    -0.203 F 
ATOM     87  F   UNL A   1      45.327  23.332  23.882  1.00  0.00    -0.200 F 
ATOM     88  C   UNL A   1      43.642  22.449  25.274  1.00  0.00     0.200 A 
ATOM     89  F   UNL A   1      41.989  21.618  26.734  1.00  0.00    -0.200 F 
ATOM     90  F   UNL A   1      43.983  21.202  24.925  1.00  0.00    -0.200 F 
ENDBRANCH  56  80
BRANCH  68  91
ATOM     91  C   UNL A   1      45.394  30.566  28.290  1.00  0.00     0.064 A 
ATOM     92  C   UNL A   1      44.302  31.165  27.643  1.00  0.00     0.173 A 
ATOM     93  C   UNL A   1      46.673  31.058  28.001  1.00  0.00     0.173 A 
ATOM     94  F   UNL A   1      43.046  30.791  27.919  1.00  0.00    -0.203 F 
ATOM     95  C   UNL A   1      44.493  32.199  26.726  1.00  0.00     0.198 A 
ATOM     96  C   UNL A   1      46.858  32.109  27.111  1.00  0.00     0.198 A 
ATOM     97  F   UNL A   1      47.746  30.538  28.617  1.00  0.00    -0.203 F 
ATOM     98  F   UNL A   1      43.440  32.755  26.110  1.00  0.00    -0.200 F 
ATOM     99  C   UNL A   1      45.770  32.673  26.467  1.00  0.00     0.200 A 
ATOM    100  F   UNL A   1      48.091  32.587  26.895  1.00  0.00    -0.200 F 
ATOM    101  F   UNL A   1      45.951  33.690  25.613  1.00  0.00    -0.200 F 
ENDBRANCH  68  91
ENDBRANCH  42  43
ENDBRANCH  34  37
ENDBRANCH  32  33
ENDBRANCH  31  32
ENDBRANCH   1  31
TORSDOF 15
ENDMDL
MODEL 3
REMARK VINA RESULT:     -13.8      3.126      9.043
REMARK SMILES CC[C@@]1(CC(=O)NCCCCNC(=O)c2ccc(-c3c4nc(c(-c5c(F)c(F)c(F)c(F)c5F)c5ccc([nH]5)c(-c5c(F)c(F)c(F)c(F)c5F)c5nc(c(-c6c(F)c(F)c(F)c(F)c6F)c6ccc3[nH]6)C=C5)C=C4)cc2)OC[C@H](Cc2ccccc2)c2c1[nH]c1ccccc21
REMARK SMILES IDX 9 1 8 2 7 3 5 4 6 5 4 7 3 8 78 9 89 10 79 11 88 12 90 13
REMARK SMILES IDX 80 14 96 15 91 16 95 18 92 19 94 20 93 21 2 22 1 23 81 24
REMARK SMILES IDX 82 25 83 26 87 27 84 28 86 29 85 30 10 31 11 32 12 33 13 34
REMARK SMILES IDX 14 36 15 37 16 38 77 39 17 40 76 41 18 42 19 43 20 44 70 45
REMARK SMILES IDX 21 46 75 47 69 48 71 49 22 50 74 51 68 52 67 53 23 55 55 56
REMARK SMILES IDX 35 57 54 58 36 59 39 60 53 61 72 62 37 63 38 64 52 66 73 67
REMARK SMILES IDX 40 68 24 69 25 70 33 71 26 72 27 73 31 74 34 75 28 76 29 77
REMARK SMILES IDX 32 78 30 79 56 80 57 81 65 82 58 83 59 84 63 85 66 86 60 87
REMARK SMILES IDX 61 88 64 89 62 90 41 91 42 92 50 93 43 94 44 95 48 96 51 97
REMARK SMILES IDX 45 98 46 99 49 100 47 101
REMARK H PARENT 7 6 90 17 12 35 71 54 39 65
REMARK Flexibility Score: inf
ROOT
ATOM      1  C   UNL A   1      35.295  21.492  24.629  1.00  0.00     0.023 C 
ENDROOT
BRANCH   1   2
ATOM      2  C   UNL A   1      33.867  21.111  25.038  1.00  0.00     0.116 C 
BRANCH   2   3
ATOM      3  N   UNL A   1      33.448  21.729  26.289  1.00  0.00    -0.356 N 
ATOM      4  C   UNL A   1      32.523  22.710  26.532  1.00  0.00     0.223 C 
ATOM      5  O   UNL A   1      32.425  23.129  27.688  1.00  0.00    -0.275 OA
ATOM      6  H   UNL A   1      33.903  21.385  27.091  1.00  0.00     0.163 HD
BRANCH   4   7
ATOM      7  C   UNL A   1      31.598  23.211  25.440  1.00  0.00     0.142 C 
BRANCH   7   8
ATOM      8  C   UNL A   1      32.116  24.260  24.427  1.00  0.00     0.117 C 
ATOM      9  O   UNL A   1      33.505  24.622  24.637  1.00  0.00    -0.368 OA
ATOM     10  C   UNL A   1      31.348  25.563  24.398  1.00  0.00     0.052 A 
ATOM     11  C   UNL A   1      33.793  25.595  25.649  1.00  0.00     0.170 C 
ATOM     12  C   UNL A   1      31.803  26.792  24.840  1.00  0.00    -0.011 A 
ATOM     13  N   UNL A   1      30.095  25.784  23.875  1.00  0.00    -0.356 N 
ATOM     14  C   UNL A   1      33.101  26.956  25.544  1.00  0.00     0.052 C 
ATOM     15  C   UNL A   1      30.927  27.796  24.358  1.00  0.00     0.003 A 
ATOM     16  C   UNL A   1      29.873  27.140  23.729  1.00  0.00     0.046 A 
ATOM     17  H   UNL A   1      29.450  25.078  23.639  1.00  0.00     0.166 HD
ATOM     18  C   UNL A   1      30.959  29.203  24.357  1.00  0.00     0.010 A 
ATOM     19  C   UNL A   1      28.840  27.831  23.084  1.00  0.00     0.026 A 
ATOM     20  C   UNL A   1      29.946  29.909  23.706  1.00  0.00     0.001 A 
ATOM     21  C   UNL A   1      28.905  29.230  23.076  1.00  0.00     0.002 A 
BRANCH   8  22
ATOM     22  C   UNL A   1      32.194  23.585  23.015  1.00  0.00     0.039 C 
ATOM     23  C   UNL A   1      33.516  23.614  22.262  1.00  0.00     0.007 C 
ENDBRANCH   8  22
BRANCH  14  24
ATOM     24  C   UNL A   1      32.924  27.562  26.960  1.00  0.00     0.046 C 
BRANCH  24  25
ATOM     25  C   UNL A   1      33.663  28.867  27.181  1.00  0.00    -0.047 A 
ATOM     26  C   UNL A   1      35.058  28.889  27.307  1.00  0.00     0.004 A 
ATOM     27  C   UNL A   1      32.952  30.072  27.289  1.00  0.00     0.004 A 
ATOM     28  C   UNL A   1      35.726  30.090  27.557  1.00  0.00     0.000 A 
ATOM     29  C   UNL A   1      33.623  31.272  27.531  1.00  0.00     0.000 A 
ATOM     30  C   UNL A   1      35.009  31.281  27.669  1.00  0.00     0.000 A 
ENDBRANCH  24  25
ENDBRANCH  14  24
ENDBRANCH   7   8
ENDBRANCH   4   7
ENDBRANCH   2   3
ENDBRANCH   1   2
BRANCH   1  31
ATOM     31  C   UNL A   1      36.181  22.110  25.715  1.00  0.00     0.023 C 
BRANCH  31  32
ATOM     32  C   UNL A   1      37.498  22.672  25.191  1.00  0.00     0.116 C 
BRANCH  32  33
ATOM     33  N   UNL A   1      38.654  22.069  25.826  1.00  0.00    -0.352 N 
ATOM     34  C   UNL A   1      39.622  22.487  26.686  1.00  0.00     0.251 C 
ATOM     35  H   UNL A   1      38.768  21.126  25.570  1.00  0.00     0.163 HD
ATOM     36  O   UNL A   1      40.473  21.634  26.981  1.00  0.00    -0.269 OA
BRANCH  34  37
ATOM     37  C   UNL A   1      39.762  23.848  27.267  1.00  0.00     0.039 A 
ATOM     38  C   UNL A   1      38.823  24.877  27.193  1.00  0.00     0.014 A 
ATOM     39  C   UNL A   1      40.995  24.112  27.901  1.00  0.00     0.014 A 
ATOM     40  C   UNL A   1      39.143  26.151  27.662  1.00  0.00     0.010 A 
ATOM     41  C   UNL A   1      41.310  25.374  28.389  1.00  0.00     0.010 A 
ATOM     42  C   UNL A   1      40.399  26.408  28.227  1.00  0.00    -0.014 A 
BRANCH  42  43
ATOM     43  C   UNL A   1      40.667  27.748  28.748  1.00  0.00     0.031 A 
ATOM     44  C   UNL A   1      41.897  28.374  28.193  1.00  0.00     0.074 A 
ATOM     45  C   UNL A   1      39.842  28.430  29.573  1.00  0.00     0.049 A 
ATOM     46  N   UNL A   1      42.977  28.688  28.830  1.00  0.00    -0.248 NA
ATOM     47  C   UNL A   1      41.985  28.572  26.737  1.00  0.00     0.031 C 
ATOM     48  C   UNL A   1      38.470  28.078  29.948  1.00  0.00     0.029 A 
ATOM     49  N   UNL A   1      40.027  29.638  30.192  1.00  0.00    -0.354 N 
ATOM     50  C   UNL A   1      43.807  29.305  27.897  1.00  0.00     0.074 A 
ATOM     51  C   UNL A   1      43.216  29.074  26.605  1.00  0.00     0.031 C 
ATOM     52  C   UNL A   1      37.874  29.144  30.532  1.00  0.00     0.029 A 
ATOM     53  C   UNL A   1      38.865  30.189  30.722  1.00  0.00     0.049 A 
ATOM     54  H   UNL A   1      40.906  30.078  30.256  1.00  0.00     0.167 HD
ATOM     55  C   UNL A   1      44.766  30.182  28.299  1.00  0.00     0.037 A 
ATOM     56  C   UNL A   1      38.721  31.425  31.262  1.00  0.00     0.037 A 
ATOM     57  C   UNL A   1      45.009  30.076  29.713  1.00  0.00     0.049 A 
ATOM     58  C   UNL A   1      40.054  31.885  31.709  1.00  0.00     0.074 A 
ATOM     59  C   UNL A   1      45.760  29.287  30.554  1.00  0.00     0.029 A 
ATOM     60  N   UNL A   1      44.076  30.714  30.477  1.00  0.00    -0.354 N 
ATOM     61  N   UNL A   1      40.713  31.339  32.692  1.00  0.00    -0.248 NA
ATOM     62  C   UNL A   1      40.818  32.800  30.868  1.00  0.00     0.031 C 
ATOM     63  C   UNL A   1      45.162  29.391  31.848  1.00  0.00     0.029 A 
ATOM     64  C   UNL A   1      44.083  30.265  31.769  1.00  0.00     0.049 A 
ATOM     65  H   UNL A   1      43.470  31.414  30.139  1.00  0.00     0.167 HD
ATOM     66  C   UNL A   1      42.034  31.503  32.337  1.00  0.00     0.074 A 
ATOM     67  C   UNL A   1      42.046  32.553  31.329  1.00  0.00     0.031 C 
ATOM     68  C   UNL A   1      42.953  30.541  32.621  1.00  0.00     0.037 A 
BRANCH  55  69
ATOM     69  C   UNL A   1      45.140  31.445  27.555  1.00  0.00     0.064 A 
ATOM     70  C   UNL A   1      46.436  31.574  27.011  1.00  0.00     0.173 A 
ATOM     71  C   UNL A   1      44.396  32.642  27.635  1.00  0.00     0.173 A 
ATOM     72  F   UNL A   1      47.249  30.510  26.923  1.00  0.00    -0.203 F 
ATOM     73  C   UNL A   1      46.956  32.814  26.622  1.00  0.00     0.198 A 
ATOM     74  C   UNL A   1      44.900  33.867  27.199  1.00  0.00     0.198 A 
ATOM     75  F   UNL A   1      43.206  32.695  28.245  1.00  0.00    -0.203 F 
ATOM     76  F   UNL A   1      48.229  32.904  26.210  1.00  0.00    -0.200 F 
ATOM     77  C   UNL A   1      46.187  33.959  26.715  1.00  0.00     0.200 A 
ATOM     78  F   UNL A   1      44.149  34.971  27.327  1.00  0.00    -0.200 F 
ATOM     79  F   UNL A   1      46.698  35.153  26.388  1.00  0.00    -0.200 F 
ENDBRANCH  55  69
BRANCH  56  80
ATOM     80  C   UNL A   1      37.573  32.362  31.195  1.00  0.00     0.064 A 
ATOM     81  C   UNL A   1      37.352  33.145  30.047  1.00  0.00     0.173 A 
ATOM     82  C   UNL A   1      36.499  32.253  32.096  1.00  0.00     0.173 A 
ATOM     83  F   UNL A   1      38.316  33.280  29.126  1.00  0.00    -0.203 F 
ATOM     84  C   UNL A   1      36.105  33.721  29.780  1.00  0.00     0.198 A 
ATOM     85  C   UNL A   1      35.257  32.834  31.831  1.00  0.00     0.198 A 
ATOM     86  F   UNL A   1      36.600  31.491  33.194  1.00  0.00    -0.203 F 
ATOM     87  F   UNL A   1      35.907  34.381  28.631  1.00  0.00    -0.200 F 
ATOM     88  C   UNL A   1      35.053  33.546  30.663  1.00  0.00     0.200 A 
ATOM     89  F   UNL A   1      34.236  32.632  32.676  1.00  0.00    -0.200 F 
ATOM     90  F   UNL A   1      33.836  34.022  30.366  1.00  0.00    -0.200 F 
ENDBRANCH  56  80
BRANCH  68  91
ATOM     91  C   UNL A   1      42.673  29.630  33.769  1.00  0.00     0.064 A 
ATOM     92  C   UNL A   1      42.052  28.377  33.657  1.00  0.00     0.173 A 
ATOM     93  C   UNL A   1      43.119  30.027  35.036  1.00  0.00     0.173 A 
ATOM     94  F   UNL A   1      41.659  27.905  32.467  1.00  0.00    -0.203 F 
ATOM     95  C   UNL A   1      41.865  27.569  34.779  1.00  0.00     0.198 A 
ATOM     96  C   UNL A   1      42.960  29.206  36.146  1.00  0.00     0.198 A 
ATOM     97  F   UNL A   1      43.747  31.203  35.188  1.00  0.00    -0.203 F 
ATOM     98  F   UNL A   1      41.262  26.378  34.657  1.00  0.00    -0.200 F 
ATOM     99  C   UNL A   1      42.326  27.982  36.020  1.00  0.00     0.200 A 
ATOM    100  F   UNL A   1      43.442  29.595  37.334  1.00  0.00    -0.200 F 
ATOM    101  F   UNL A   1      42.179  27.190  37.091  1.00  0.00    -0.200 F 
ENDBRANCH  68  91
ENDBRANCH  42  43
ENDBRANCH  34  37
ENDBRANCH  32  33
ENDBRANCH  31  32
ENDBRANCH   1  31
TORSDOF 15
ENDMDL
