MODEL 1
REMARK VINA RESULT:     -12.9      0.000      0.000
REMARK SMILES COc1ccc(CC(=O)Nc2ccc(N3CC[NH+](C)CC3)cc2C(=O)NCCCCNC(=O)c2ccc(-c3c4nc(c(-c5c(F)c(F)c(F)c(F)c5F)c5ccc([nH]5)c(-c5c(F)c(F)c(F)c(F)c5F)c5nc(c(-c6c(F)c(F)c(F)c(F)c6F)c6ccc3[nH]6)C=C5)C=C4)cc2)cc1
REMARK SMILES IDX 27 1 26 2 24 3 25 4 23 6 11 7 12 8 13 9 22 10 14 11 10 12
REMARK SMILES IDX 8 13 9 14 7 16 6 17 3 18 4 19 98 20 5 21 97 22 2 23 1 24
REMARK SMILES IDX 15 25 16 26 21 27 17 28 20 29 18 30 19 31 28 33 29 34 30 35
REMARK SMILES IDX 31 36 32 37 33 39 34 40 35 41 96 42 36 43 95 44 37 45 38 46
REMARK SMILES IDX 39 47 89 48 40 49 94 50 88 51 90 52 41 53 93 54 87 55 86 56
REMARK SMILES IDX 42 58 74 59 54 60 73 61 55 62 58 63 72 64 91 65 56 66 57 67
REMARK SMILES IDX 71 69 92 70 59 71 43 72 44 73 52 74 45 75 46 76 50 77 53 78
REMARK SMILES IDX 47 79 48 80 51 81 49 82 75 83 76 84 84 85 77 86 78 87 82 88
REMARK SMILES IDX 85 89 79 90 80 91 83 92 81 93 60 94 61 95 69 96 62 97 63 98
REMARK SMILES IDX 67 99 70 100 64 101 65 102 68 103 66 104
REMARK H PARENT 26 5 10 15 18 32 31 38 90 57 58 68
REMARK Flexibility Score: inf
ROOT
ATOM      1  C   UNL A   1      32.140  25.596  26.425  1.00  0.00     0.116 C 
ENDROOT
BRANCH   1   2
ATOM      2  N   UNL A   1      31.164  24.621  26.865  1.00  0.00    -0.352 N 
ATOM      3  C   UNL A   1      30.760  23.408  26.353  1.00  0.00     0.253 C 
ATOM      4  O   UNL A   1      29.707  22.967  26.826  1.00  0.00    -0.269 OA
ATOM      5  H   UNL A   1      30.698  24.875  27.694  1.00  0.00     0.163 HD
BRANCH   3   6
ATOM      6  C   UNL A   1      31.420  22.649  25.232  1.00  0.00     0.065 A 
ATOM      7  C   UNL A   1      31.521  23.018  23.888  1.00  0.00     0.054 A 
ATOM      8  C   UNL A   1      31.770  22.028  22.939  1.00  0.00     0.029 A 
ATOM      9  C   UNL A   1      32.237  20.775  23.333  1.00  0.00     0.028 A 
ATOM     10  C   UNL A   1      31.969  21.387  25.603  1.00  0.00     0.042 A 
ATOM     11  C   UNL A   1      32.489  20.473  24.674  1.00  0.00     0.038 A 
BRANCH   7  12
ATOM     12  N   UNL A   1      31.427  24.307  23.357  1.00  0.00    -0.325 N 
ATOM     13  C   UNL A   1      32.394  25.124  22.832  1.00  0.00     0.228 C 
ATOM     14  O   UNL A   1      32.053  26.283  22.563  1.00  0.00    -0.274 OA
ATOM     15  H   UNL A   1      30.520  24.690  23.360  1.00  0.00     0.169 HD
BRANCH  13  16
ATOM     16  C   UNL A   1      33.738  24.606  22.359  1.00  0.00     0.135 C 
BRANCH  16  17
ATOM     17  C   UNL A   1      34.725  24.073  23.358  1.00  0.00    -0.038 A 
ATOM     18  C   UNL A   1      36.653  23.059  25.153  1.00  0.00     0.118 A 
ATOM     19  C   UNL A   1      35.813  24.111  25.527  1.00  0.00     0.047 A 
ATOM     20  C   UNL A   1      36.543  22.530  23.869  1.00  0.00     0.047 A 
ATOM     21  C   UNL A   1      34.859  24.625  24.638  1.00  0.00     0.008 A 
ATOM     22  C   UNL A   1      35.593  23.039  22.979  1.00  0.00     0.008 A 
BRANCH  18  23
ATOM     23  O   UNL A   1      37.519  22.634  26.123  1.00  0.00    -0.497 OA
ATOM     24  C   UNL A   1      38.546  21.737  25.716  1.00  0.00     0.278 C 
ENDBRANCH  18  23
ENDBRANCH  16  17
ENDBRANCH  13  16
ENDBRANCH   7  12
BRANCH  11  25
ATOM     25  N   UNL A   1      33.267  19.386  25.030  1.00  0.00    -0.360 N 
ATOM     26  C   UNL A   1      34.715  19.282  24.770  1.00  0.00     0.178 C 
ATOM     27  C   UNL A   1      32.743  18.361  25.955  1.00  0.00     0.178 C 
ATOM     28  C   UNL A   1      35.131  17.823  24.436  1.00  0.00     0.283 C 
ATOM     29  C   UNL A   1      33.194  16.945  25.544  1.00  0.00     0.283 C 
ATOM     30  N   UNL A   1      34.658  16.830  25.428  1.00  0.00    -0.334 N 
ATOM     31  C   UNL A   1      35.028  15.472  25.035  1.00  0.00     0.332 C 
ATOM     32  H   UNL A   1      35.100  17.020  26.327  1.00  0.00     0.347 HD
ENDBRANCH  11  25
ENDBRANCH   3   6
ENDBRANCH   1   2
BRANCH   1  33
ATOM     33  C   UNL A   1      31.599  27.024  26.358  1.00  0.00     0.023 C 
BRANCH  33  34
ATOM     34  C   UNL A   1      32.069  27.954  27.487  1.00  0.00     0.023 C 
BRANCH  34  35
ATOM     35  C   UNL A   1      33.473  28.554  27.346  1.00  0.00     0.116 C 
BRANCH  35  36
ATOM     36  N   UNL A   1      33.521  29.987  27.601  1.00  0.00    -0.352 N 
ATOM     37  C   UNL A   1      34.505  30.771  28.148  1.00  0.00     0.251 C 
ATOM     38  H   UNL A   1      32.709  30.476  27.336  1.00  0.00     0.163 HD
ATOM     39  O   UNL A   1      34.278  31.950  28.414  1.00  0.00    -0.269 OA
BRANCH  37  40
ATOM     40  C   UNL A   1      35.839  30.208  28.448  1.00  0.00     0.039 A 
ATOM     41  C   UNL A   1      36.818  30.219  27.449  1.00  0.00     0.014 A 
ATOM     42  C   UNL A   1      36.121  29.643  29.693  1.00  0.00     0.014 A 
ATOM     43  C   UNL A   1      38.104  29.748  27.729  1.00  0.00     0.010 A 
ATOM     44  C   UNL A   1      37.420  29.235  29.993  1.00  0.00     0.010 A 
ATOM     45  C   UNL A   1      38.428  29.295  29.018  1.00  0.00    -0.014 A 
BRANCH  45  46
ATOM     46  C   UNL A   1      39.821  28.920  29.375  1.00  0.00     0.031 A 
ATOM     47  C   UNL A   1      40.698  29.866  30.145  1.00  0.00     0.074 A 
ATOM     48  C   UNL A   1      40.329  27.758  28.920  1.00  0.00     0.049 A 
ATOM     49  N   UNL A   1      41.960  29.745  30.474  1.00  0.00    -0.248 NA
ATOM     50  C   UNL A   1      40.083  31.130  30.577  1.00  0.00     0.031 C 
ATOM     51  C   UNL A   1      39.604  26.783  28.104  1.00  0.00     0.029 A 
ATOM     52  N   UNL A   1      41.580  27.210  29.059  1.00  0.00    -0.354 N 
ATOM     53  C   UNL A   1      42.296  30.923  31.127  1.00  0.00     0.074 A 
ATOM     54  C   UNL A   1      41.117  31.763  31.111  1.00  0.00     0.031 C 
ATOM     55  C   UNL A   1      40.417  25.753  27.825  1.00  0.00     0.029 A 
ATOM     56  C   UNL A   1      41.728  26.008  28.414  1.00  0.00     0.049 A 
ATOM     57  H   UNL A   1      42.302  27.639  29.574  1.00  0.00     0.167 HD
ATOM     58  C   UNL A   1      43.476  31.265  31.700  1.00  0.00     0.037 A 
ATOM     59  C   UNL A   1      42.801  25.203  28.301  1.00  0.00     0.037 A 
ATOM     60  C   UNL A   1      44.636  30.415  31.742  1.00  0.00     0.049 A 
ATOM     61  C   UNL A   1      44.089  25.588  28.972  1.00  0.00     0.074 A 
ATOM     62  C   UNL A   1      45.845  30.634  32.382  1.00  0.00     0.029 A 
ATOM     63  N   UNL A   1      44.737  29.184  31.112  1.00  0.00    -0.354 N 
ATOM     64  N   UNL A   1      44.370  26.665  29.664  1.00  0.00    -0.248 NA
ATOM     65  C   UNL A   1      45.206  24.641  28.856  1.00  0.00     0.031 C 
ATOM     66  C   UNL A   1      46.691  29.554  32.102  1.00  0.00     0.029 A 
ATOM     67  C   UNL A   1      45.995  28.642  31.326  1.00  0.00     0.049 A 
ATOM     68  H   UNL A   1      44.020  28.756  30.590  1.00  0.00     0.167 HD
ATOM     69  C   UNL A   1      45.685  26.520  30.080  1.00  0.00     0.074 A 
ATOM     70  C   UNL A   1      46.144  25.241  29.576  1.00  0.00     0.031 C 
ATOM     71  C   UNL A   1      46.442  27.371  30.815  1.00  0.00     0.037 A 
BRANCH  58  72
ATOM     72  C   UNL A   1      43.566  32.626  32.328  1.00  0.00     0.064 A 
ATOM     73  C   UNL A   1      43.246  32.839  33.677  1.00  0.00     0.173 A 
ATOM     74  C   UNL A   1      43.993  33.729  31.573  1.00  0.00     0.173 A 
ATOM     75  F   UNL A   1      42.825  31.819  34.440  1.00  0.00    -0.203 F 
ATOM     76  C   UNL A   1      43.311  34.112  34.237  1.00  0.00     0.198 A 
ATOM     77  C   UNL A   1      44.085  34.996  32.144  1.00  0.00     0.198 A 
ATOM     78  F   UNL A   1      44.320  33.580  30.281  1.00  0.00    -0.203 F 
ATOM     79  F   UNL A   1      42.946  34.301  35.512  1.00  0.00    -0.200 F 
ATOM     80  C   UNL A   1      43.735  35.189  33.472  1.00  0.00     0.200 A 
ATOM     81  F   UNL A   1      44.508  36.034  31.407  1.00  0.00    -0.200 F 
ATOM     82  F   UNL A   1      43.796  36.414  34.012  1.00  0.00    -0.200 F 
ENDBRANCH  58  72
BRANCH  59  83
ATOM     83  C   UNL A   1      42.684  23.934  27.538  1.00  0.00     0.064 A 
ATOM     84  C   UNL A   1      42.217  22.767  28.155  1.00  0.00     0.173 A 
ATOM     85  C   UNL A   1      43.002  23.872  26.174  1.00  0.00     0.173 A 
ATOM     86  F   UNL A   1      41.919  22.775  29.463  1.00  0.00    -0.203 F 
ATOM     87  C   UNL A   1      42.079  21.581  27.439  1.00  0.00     0.198 A 
ATOM     88  C   UNL A   1      42.841  22.691  25.452  1.00  0.00     0.198 A 
ATOM     89  F   UNL A   1      43.447  24.965  25.537  1.00  0.00    -0.203 F 
ATOM     90  F   UNL A   1      41.656  20.471  28.059  1.00  0.00    -0.200 F 
ATOM     91  C   UNL A   1      42.384  21.546  26.086  1.00  0.00     0.200 A 
ATOM     92  F   UNL A   1      43.124  22.664  24.143  1.00  0.00    -0.200 F 
ATOM     93  F   UNL A   1      42.238  20.407  25.394  1.00  0.00    -0.200 F 
ENDBRANCH  59  83
BRANCH  71  94
ATOM     94  C   UNL A   1      47.844  26.941  31.135  1.00  0.00     0.064 A 
ATOM     95  C   UNL A   1      48.122  26.085  32.210  1.00  0.00     0.173 A 
ATOM     96  C   UNL A   1      48.917  27.360  30.332  1.00  0.00     0.173 A 
ATOM     97  F   UNL A   1      47.133  25.672  33.016  1.00  0.00    -0.203 F 
ATOM     98  C   UNL A   1      49.426  25.678  32.482  1.00  0.00     0.198 A 
ATOM     99  C   UNL A   1      50.215  26.930  30.592  1.00  0.00     0.198 A 
ATOM    100  F   UNL A   1      48.704  28.176  29.290  1.00  0.00    -0.203 F 
ATOM    101  F   UNL A   1      49.674  24.893  33.539  1.00  0.00    -0.200 F 
ATOM    102  C   UNL A   1      50.469  26.095  31.669  1.00  0.00     0.200 A 
ATOM    103  F   UNL A   1      51.222  27.325  29.800  1.00  0.00    -0.200 F 
ATOM    104  F   UNL A   1      51.723  25.697  31.929  1.00  0.00    -0.200 F 
ENDBRANCH  71  94
ENDBRANCH  45  46
ENDBRANCH  37  40
ENDBRANCH  35  36
ENDBRANCH  34  35
ENDBRANCH  33  34
ENDBRANCH   1  33
TORSDOF 16
ENDMDL
MODEL 2
REMARK VINA RESULT:     -12.7      2.587      3.496
REMARK SMILES COc1ccc(CC(=O)Nc2ccc(N3CC[NH+](C)CC3)cc2C(=O)NCCCCNC(=O)c2ccc(-c3c4nc(c(-c5c(F)c(F)c(F)c(F)c5F)c5ccc([nH]5)c(-c5c(F)c(F)c(F)c(F)c5F)c5nc(c(-c6c(F)c(F)c(F)c(F)c6F)c6ccc3[nH]6)C=C5)C=C4)cc2)cc1
REMARK SMILES IDX 27 1 26 2 24 3 25 4 23 6 11 7 12 8 13 9 22 10 14 11 10 12
REMARK SMILES IDX 8 13 9 14 7 16 6 17 3 18 4 19 98 20 5 21 97 22 2 23 1 24
REMARK SMILES IDX 15 25 16 26 21 27 17 28 20 29 18 30 19 31 28 33 29 34 30 35
REMARK SMILES IDX 31 36 32 37 33 39 34 40 35 41 96 42 36 43 95 44 37 45 38 46
REMARK SMILES IDX 39 47 89 48 40 49 94 50 88 51 90 52 41 53 93 54 87 55 86 56
REMARK SMILES IDX 42 58 74 59 54 60 73 61 55 62 58 63 72 64 91 65 56 66 57 67
REMARK SMILES IDX 71 69 92 70 59 71 43 72 44 73 52 74 45 75 46 76 50 77 53 78
REMARK SMILES IDX 47 79 48 80 51 81 49 82 75 83 76 84 84 85 77 86 78 87 82 88
REMARK SMILES IDX 85 89 79 90 80 91 83 92 81 93 60 94 61 95 69 96 62 97 63 98
REMARK SMILES IDX 67 99 70 100 64 101 65 102 68 103 66 104
REMARK H PARENT 26 5 10 15 18 32 31 38 90 57 58 68
REMARK Flexibility Score: inf
ROOT
ATOM      1  C   UNL A   1      32.204  26.094  26.410  1.00  0.00     0.116 C 
ENDROOT
BRANCH   1   2
ATOM      2  N   UNL A   1      31.296  25.124  26.985  1.00  0.00    -0.352 N 
ATOM      3  C   UNL A   1      30.857  23.889  26.560  1.00  0.00     0.253 C 
ATOM      4  O   UNL A   1      29.867  23.453  27.159  1.00  0.00    -0.269 OA
ATOM      5  H   UNL A   1      30.919  25.401  27.851  1.00  0.00     0.163 HD
BRANCH   3   6
ATOM      6  C   UNL A   1      31.402  23.100  25.400  1.00  0.00     0.065 A 
ATOM      7  C   UNL A   1      31.410  23.454  24.048  1.00  0.00     0.054 A 
ATOM      8  C   UNL A   1      31.552  22.448  23.093  1.00  0.00     0.029 A 
ATOM      9  C   UNL A   1      32.008  21.184  23.463  1.00  0.00     0.028 A 
ATOM     10  C   UNL A   1      31.938  21.824  25.740  1.00  0.00     0.042 A 
ATOM     11  C   UNL A   1      32.355  20.886  24.784  1.00  0.00     0.038 A 
BRANCH   7  12
ATOM     12  N   UNL A   1      31.315  24.741  23.511  1.00  0.00    -0.325 N 
ATOM     13  C   UNL A   1      32.273  25.536  22.938  1.00  0.00     0.228 C 
ATOM     14  O   UNL A   1      31.942  26.699  22.675  1.00  0.00    -0.274 OA
ATOM     15  H   UNL A   1      30.417  25.140  23.551  1.00  0.00     0.169 HD
BRANCH  13  16
ATOM     16  C   UNL A   1      33.585  24.990  22.410  1.00  0.00     0.135 C 
BRANCH  16  17
ATOM     17  C   UNL A   1      34.553  24.333  23.353  1.00  0.00    -0.038 A 
ATOM     18  C   UNL A   1      36.442  23.088  25.040  1.00  0.00     0.118 A 
ATOM     19  C   UNL A   1      35.665  24.155  25.502  1.00  0.00     0.047 A 
ATOM     20  C   UNL A   1      36.289  22.661  23.723  1.00  0.00     0.047 A 
ATOM     21  C   UNL A   1      34.731  24.782  24.667  1.00  0.00     0.008 A 
ATOM     22  C   UNL A   1      35.358  23.284  22.887  1.00  0.00     0.008 A 
BRANCH  18  23
ATOM     23  O   UNL A   1      37.294  22.548  25.964  1.00  0.00    -0.497 OA
ATOM     24  C   UNL A   1      38.220  21.577  25.489  1.00  0.00     0.278 C 
ENDBRANCH  18  23
ENDBRANCH  16  17
ENDBRANCH  13  16
ENDBRANCH   7  12
BRANCH  11  25
ATOM     25  N   UNL A   1      33.123  19.777  25.091  1.00  0.00    -0.360 N 
ATOM     26  C   UNL A   1      34.583  19.701  24.896  1.00  0.00     0.178 C 
ATOM     27  C   UNL A   1      32.562  18.678  25.903  1.00  0.00     0.178 C 
ATOM     28  C   UNL A   1      35.027  18.275  24.467  1.00  0.00     0.283 C 
ATOM     29  C   UNL A   1      33.045  17.302  25.403  1.00  0.00     0.283 C 
ATOM     30  N   UNL A   1      34.514  17.204  25.351  1.00  0.00    -0.334 N 
ATOM     31  C   UNL A   1      34.915  15.883  24.869  1.00  0.00     0.332 C 
ATOM     32  H   UNL A   1      34.909  17.322  26.284  1.00  0.00     0.347 HD
ENDBRANCH  11  25
ENDBRANCH   3   6
ENDBRANCH   1   2
BRANCH   1  33
ATOM     33  C   UNL A   1      32.115  27.479  27.051  1.00  0.00     0.023 C 
BRANCH  33  34
ATOM     34  C   UNL A   1      31.826  28.631  26.077  1.00  0.00     0.023 C 
BRANCH  34  35
ATOM     35  C   UNL A   1      32.983  29.594  25.787  1.00  0.00     0.116 C 
BRANCH  35  36
ATOM     36  N   UNL A   1      32.762  30.939  26.301  1.00  0.00    -0.352 N 
ATOM     37  C   UNL A   1      33.429  31.654  27.264  1.00  0.00     0.251 C 
ATOM     38  H   UNL A   1      32.007  31.416  25.887  1.00  0.00     0.163 HD
ATOM     39  O   UNL A   1      32.979  32.730  27.655  1.00  0.00    -0.269 OA
BRANCH  37  40
ATOM     40  C   UNL A   1      34.678  31.136  27.861  1.00  0.00     0.039 A 
ATOM     41  C   UNL A   1      35.797  31.973  27.921  1.00  0.00     0.014 A 
ATOM     42  C   UNL A   1      34.763  29.824  28.331  1.00  0.00     0.014 A 
ATOM     43  C   UNL A   1      36.969  31.523  28.536  1.00  0.00     0.010 A 
ATOM     44  C   UNL A   1      35.908  29.399  29.002  1.00  0.00     0.010 A 
ATOM     45  C   UNL A   1      37.019  30.249  29.123  1.00  0.00    -0.014 A 
BRANCH  45  46
ATOM     46  C   UNL A   1      38.205  29.804  29.901  1.00  0.00     0.031 A 
ATOM     47  C   UNL A   1      38.449  30.317  31.291  1.00  0.00     0.074 A 
ATOM     48  C   UNL A   1      39.118  29.007  29.312  1.00  0.00     0.049 A 
ATOM     49  N   UNL A   1      39.468  30.106  32.086  1.00  0.00    -0.248 NA
ATOM     50  C   UNL A   1      37.425  31.211  31.851  1.00  0.00     0.031 C 
ATOM     51  C   UNL A   1      39.035  28.495  27.944  1.00  0.00     0.029 A 
ATOM     52  N   UNL A   1      40.307  28.505  29.783  1.00  0.00    -0.354 N 
ATOM     53  C   UNL A   1      39.221  30.857  33.226  1.00  0.00     0.074 A 
ATOM     54  C   UNL A   1      37.977  31.563  33.003  1.00  0.00     0.031 C 
ATOM     55  C   UNL A   1      40.117  27.744  27.689  1.00  0.00     0.029 A 
ATOM     56  C   UNL A   1      40.986  27.747  28.862  1.00  0.00     0.049 A 
ATOM     57  H   UNL A   1      40.640  28.672  30.694  1.00  0.00     0.167 HD
ATOM     58  C   UNL A   1      39.958  30.939  34.361  1.00  0.00     0.037 A 
ATOM     59  C   UNL A   1      42.178  27.128  28.948  1.00  0.00     0.037 A 
ATOM     60  C   UNL A   1      41.178  30.211  34.593  1.00  0.00     0.049 A 
ATOM     61  C   UNL A   1      42.961  27.206  30.227  1.00  0.00     0.074 A 
ATOM     62  C   UNL A   1      41.944  30.154  35.745  1.00  0.00     0.029 A 
ATOM     63  N   UNL A   1      41.815  29.418  33.651  1.00  0.00    -0.354 N 
ATOM     64  N   UNL A   1      42.675  27.848  31.333  1.00  0.00    -0.248 NA
ATOM     65  C   UNL A   1      44.229  26.464  30.275  1.00  0.00     0.031 C 
ATOM     66  C   UNL A   1      43.068  29.361  35.485  1.00  0.00     0.029 A 
ATOM     67  C   UNL A   1      42.980  28.888  34.186  1.00  0.00     0.049 A 
ATOM     68  H   UNL A   1      41.490  29.255  32.736  1.00  0.00     0.167 HD
ATOM     69  C   UNL A   1      43.713  27.577  32.213  1.00  0.00     0.074 A 
ATOM     70  C   UNL A   1      44.631  26.697  31.518  1.00  0.00     0.031 C 
ATOM     71  C   UNL A   1      43.888  28.017  33.483  1.00  0.00     0.037 A 
BRANCH  58  72
ATOM     72  C   UNL A   1      39.458  31.855  35.441  1.00  0.00     0.064 A 
ATOM     73  C   UNL A   1      38.549  31.420  36.417  1.00  0.00     0.173 A 
ATOM     74  C   UNL A   1      39.907  33.183  35.510  1.00  0.00     0.173 A 
ATOM     75  F   UNL A   1      38.083  30.162  36.391  1.00  0.00    -0.203 F 
ATOM     76  C   UNL A   1      38.077  32.289  37.396  1.00  0.00     0.198 A 
ATOM     77  C   UNL A   1      39.456  34.042  36.508  1.00  0.00     0.198 A 
ATOM     78  F   UNL A   1      40.784  33.648  34.608  1.00  0.00    -0.203 F 
ATOM     79  F   UNL A   1      37.165  31.866  38.282  1.00  0.00    -0.200 F 
ATOM     80  C   UNL A   1      38.534  33.598  37.444  1.00  0.00     0.200 A 
ATOM     81  F   UNL A   1      39.908  35.303  36.562  1.00  0.00    -0.200 F 
ATOM     82  F   UNL A   1      38.077  34.434  38.387  1.00  0.00    -0.200 F 
ENDBRANCH  58  72
BRANCH  59  83
ATOM     83  C   UNL A   1      42.684  26.355  27.785  1.00  0.00     0.064 A 
ATOM     84  C   UNL A   1      42.262  25.038  27.561  1.00  0.00     0.173 A 
ATOM     85  C   UNL A   1      43.569  26.926  26.859  1.00  0.00     0.173 A 
ATOM     86  F   UNL A   1      41.432  24.445  28.431  1.00  0.00    -0.203 F 
ATOM     87  C   UNL A   1      42.712  24.317  26.457  1.00  0.00     0.198 A 
ATOM     88  C   UNL A   1      44.000  26.212  25.743  1.00  0.00     0.198 A 
ATOM     89  F   UNL A   1      43.996  28.186  27.028  1.00  0.00    -0.203 F 
ATOM     90  F   UNL A   1      42.315  23.049  26.281  1.00  0.00    -0.200 F 
ATOM     91  C   UNL A   1      43.575  24.908  25.545  1.00  0.00     0.200 A 
ATOM     92  F   UNL A   1      44.822  26.790  24.857  1.00  0.00    -0.200 F 
ATOM     93  F   UNL A   1      43.997  24.218  24.476  1.00  0.00    -0.200 F 
ENDBRANCH  59  83
BRANCH  71  94
ATOM     94  C   UNL A   1      45.109  27.542  34.213  1.00  0.00     0.064 A 
ATOM     95  C   UNL A   1      46.305  28.273  34.196  1.00  0.00     0.173 A 
ATOM     96  C   UNL A   1      45.070  26.361  34.970  1.00  0.00     0.173 A 
ATOM     97  F   UNL A   1      46.397  29.399  33.473  1.00  0.00    -0.203 F 
ATOM     98  C   UNL A   1      47.425  27.830  34.896  1.00  0.00     0.198 A 
ATOM     99  C   UNL A   1      46.183  25.935  35.690  1.00  0.00     0.198 A 
ATOM    100  F   UNL A   1      43.949  25.626  35.022  1.00  0.00    -0.203 F 
ATOM    101  F   UNL A   1      48.570  28.524  34.833  1.00  0.00    -0.200 F 
ATOM    102  C   UNL A   1      47.361  26.667  35.647  1.00  0.00     0.200 A 
ATOM    103  F   UNL A   1      46.118  24.816  36.424  1.00  0.00    -0.200 F 
ATOM    104  F   UNL A   1      48.437  26.245  36.326  1.00  0.00    -0.200 F 
ENDBRANCH  71  94
ENDBRANCH  45  46
ENDBRANCH  37  40
ENDBRANCH  35  36
ENDBRANCH  34  35
ENDBRANCH  33  34
ENDBRANCH   1  33
TORSDOF 16
ENDMDL
MODEL 3
REMARK VINA RESULT:     -12.6      2.655      7.319
REMARK SMILES COc1ccc(CC(=O)Nc2ccc(N3CC[NH+](C)CC3)cc2C(=O)NCCCCNC(=O)c2ccc(-c3c4nc(c(-c5c(F)c(F)c(F)c(F)c5F)c5ccc([nH]5)c(-c5c(F)c(F)c(F)c(F)c5F)c5nc(c(-c6c(F)c(F)c(F)c(F)c6F)c6ccc3[nH]6)C=C5)C=C4)cc2)cc1
REMARK SMILES IDX 27 1 26 2 24 3 25 4 23 6 11 7 12 8 13 9 22 10 14 11 10 12
REMARK SMILES IDX 8 13 9 14 7 16 6 17 3 18 4 19 98 20 5 21 97 22 2 23 1 24
REMARK SMILES IDX 15 25 16 26 21 27 17 28 20 29 18 30 19 31 28 33 29 34 30 35
REMARK SMILES IDX 31 36 32 37 33 39 34 40 35 41 96 42 36 43 95 44 37 45 38 46
REMARK SMILES IDX 39 47 89 48 40 49 94 50 88 51 90 52 41 53 93 54 87 55 86 56
REMARK SMILES IDX 42 58 74 59 54 60 73 61 55 62 58 63 72 64 91 65 56 66 57 67
REMARK SMILES IDX 71 69 92 70 59 71 43 72 44 73 52 74 45 75 46 76 50 77 53 78
REMARK SMILES IDX 47 79 48 80 51 81 49 82 75 83 76 84 84 85 77 86 78 87 82 88
REMARK SMILES IDX 85 89 79 90 80 91 83 92 81 93 60 94 61 95 69 96 62 97 63 98
REMARK SMILES IDX 67 99 70 100 64 101 65 102 68 103 66 104
REMARK H PARENT 26 5 10 15 18 32 31 38 90 57 58 68
REMARK Flexibility Score: inf
ROOT
ATOM      1  C   UNL A   1      31.994  26.117  26.255  1.00  0.00     0.116 C 
ENDROOT
BRANCH   1   2
ATOM      2  N   UNL A   1      31.144  25.126  26.882  1.00  0.00    -0.352 N 
ATOM      3  C   UNL A   1      30.740  23.865  26.500  1.00  0.00     0.253 C 
ATOM      4  O   UNL A   1      29.788  23.406  27.140  1.00  0.00    -0.269 OA
ATOM      5  H   UNL A   1      30.783  25.410  27.752  1.00  0.00     0.163 HD
BRANCH   3   6
ATOM      6  C   UNL A   1      31.280  23.070  25.341  1.00  0.00     0.065 A 
ATOM      7  C   UNL A   1      31.258  23.405  23.985  1.00  0.00     0.054 A 
ATOM      8  C   UNL A   1      31.402  22.388  23.041  1.00  0.00     0.029 A 
ATOM      9  C   UNL A   1      31.887  21.138  23.421  1.00  0.00     0.028 A 
ATOM     10  C   UNL A   1      31.844  21.808  25.690  1.00  0.00     0.042 A 
ATOM     11  C   UNL A   1      32.261  20.864  24.739  1.00  0.00     0.038 A 
BRANCH   7  12
ATOM     12  N   UNL A   1      31.132  24.682  23.432  1.00  0.00    -0.325 N 
ATOM     13  C   UNL A   1      32.075  25.505  22.872  1.00  0.00     0.228 C 
ATOM     14  O   UNL A   1      31.710  26.653  22.590  1.00  0.00    -0.274 OA
ATOM     15  H   UNL A   1      30.219  25.051  23.447  1.00  0.00     0.169 HD
BRANCH  13  16
ATOM     16  C   UNL A   1      33.416  24.999  22.381  1.00  0.00     0.135 C 
BRANCH  16  17
ATOM     17  C   UNL A   1      34.392  24.404  23.356  1.00  0.00    -0.038 A 
ATOM     18  C   UNL A   1      36.295  23.269  25.104  1.00  0.00     0.118 A 
ATOM     19  C   UNL A   1      35.532  24.371  25.498  1.00  0.00     0.047 A 
ATOM     20  C   UNL A   1      36.122  22.750  23.823  1.00  0.00     0.047 A 
ATOM     21  C   UNL A   1      34.591  24.945  24.632  1.00  0.00     0.008 A 
ATOM     22  C   UNL A   1      35.184  23.318  22.956  1.00  0.00     0.008 A 
BRANCH  18  23
ATOM     23  O   UNL A   1      37.155  22.789  26.053  1.00  0.00    -0.497 OA
ATOM     24  C   UNL A   1      38.340  23.543  26.283  1.00  0.00     0.278 C 
ENDBRANCH  18  23
ENDBRANCH  16  17
ENDBRANCH  13  16
ENDBRANCH   7  12
BRANCH  11  25
ATOM     25  N   UNL A   1      33.054  19.774  25.048  1.00  0.00    -0.360 N 
ATOM     26  C   UNL A   1      34.465  19.633  24.640  1.00  0.00     0.178 C 
ATOM     27  C   UNL A   1      32.613  18.788  26.056  1.00  0.00     0.178 C 
ATOM     28  C   UNL A   1      34.818  18.155  24.313  1.00  0.00     0.283 C 
ATOM     29  C   UNL A   1      32.995  17.352  25.647  1.00  0.00     0.283 C 
ATOM     30  N   UNL A   1      34.436  17.204  25.382  1.00  0.00    -0.334 N 
ATOM     31  C   UNL A   1      34.740  15.827  24.997  1.00  0.00     0.332 C 
ATOM     32  H   UNL A   1      34.974  17.413  26.223  1.00  0.00     0.347 HD
ENDBRANCH  11  25
ENDBRANCH   3   6
ENDBRANCH   1   2
BRANCH   1  33
ATOM     33  C   UNL A   1      32.292  27.325  27.142  1.00  0.00     0.023 C 
BRANCH  33  34
ATOM     34  C   UNL A   1      31.762  28.667  26.616  1.00  0.00     0.023 C 
BRANCH  34  35
ATOM     35  C   UNL A   1      32.795  29.629  26.017  1.00  0.00     0.116 C 
BRANCH  35  36
ATOM     36  N   UNL A   1      32.576  31.021  26.385  1.00  0.00    -0.352 N 
ATOM     37  C   UNL A   1      33.276  31.850  27.225  1.00  0.00     0.251 C 
ATOM     38  H   UNL A   1      31.793  31.437  25.959  1.00  0.00     0.163 HD
ATOM     39  O   UNL A   1      32.826  32.957  27.514  1.00  0.00    -0.269 OA
BRANCH  37  40
ATOM     40  C   UNL A   1      34.563  31.418  27.812  1.00  0.00     0.039 A 
ATOM     41  C   UNL A   1      35.603  32.348  27.919  1.00  0.00     0.014 A 
ATOM     42  C   UNL A   1      34.761  30.100  28.226  1.00  0.00     0.014 A 
ATOM     43  C   UNL A   1      36.806  31.978  28.527  1.00  0.00     0.010 A 
ATOM     44  C   UNL A   1      35.935  29.750  28.891  1.00  0.00     0.010 A 
ATOM     45  C   UNL A   1      36.965  30.689  29.059  1.00  0.00    -0.014 A 
BRANCH  45  46
ATOM     46  C   UNL A   1      38.181  30.318  29.829  1.00  0.00     0.031 A 
ATOM     47  C   UNL A   1      39.179  29.345  29.268  1.00  0.00     0.074 A 
ATOM     48  C   UNL A   1      38.338  30.789  31.082  1.00  0.00     0.049 A 
ATOM     49  N   UNL A   1      40.252  28.843  29.827  1.00  0.00    -0.248 NA
ATOM     50  C   UNL A   1      38.920  28.848  27.909  1.00  0.00     0.031 C 
ATOM     51  C   UNL A   1      37.408  31.686  31.768  1.00  0.00     0.029 A 
ATOM     52  N   UNL A   1      39.326  30.562  32.008  1.00  0.00    -0.354 N 
ATOM     53  C   UNL A   1      40.780  27.954  28.901  1.00  0.00     0.074 A 
ATOM     54  C   UNL A   1      39.888  27.955  27.761  1.00  0.00     0.031 C 
ATOM     55  C   UNL A   1      37.873  31.942  33.001  1.00  0.00     0.029 A 
ATOM     56  C   UNL A   1      39.116  31.204  33.203  1.00  0.00     0.049 A 
ATOM     57  H   UNL A   1      40.111  29.994  31.832  1.00  0.00     0.167 HD
ATOM     58  C   UNL A   1      41.914  27.217  28.988  1.00  0.00     0.037 A 
ATOM     59  C   UNL A   1      39.838  31.194  34.340  1.00  0.00     0.037 A 
ATOM     60  C   UNL A   1      42.817  27.243  30.109  1.00  0.00     0.049 A 
ATOM     61  C   UNL A   1      41.109  30.396  34.401  1.00  0.00     0.074 A 
ATOM     62  C   UNL A   1      44.038  26.606  30.250  1.00  0.00     0.029 A 
ATOM     63  N   UNL A   1      42.592  27.938  31.288  1.00  0.00    -0.354 N 
ATOM     64  N   UNL A   1      41.647  29.627  33.486  1.00  0.00    -0.248 NA
ATOM     65  C   UNL A   1      41.879  30.470  35.650  1.00  0.00     0.031 C 
ATOM     66  C   UNL A   1      44.531  26.881  31.531  1.00  0.00     0.029 A 
ATOM     67  C   UNL A   1      43.640  27.726  32.172  1.00  0.00     0.049 A 
ATOM     68  H   UNL A   1      41.805  28.500  31.472  1.00  0.00     0.167 HD
ATOM     69  C   UNL A   1      42.823  29.141  34.037  1.00  0.00     0.074 A 
ATOM     70  C   UNL A   1      42.931  29.714  35.364  1.00  0.00     0.031 C 
ATOM     71  C   UNL A   1      43.732  28.297  33.492  1.00  0.00     0.037 A 
BRANCH  58  72
ATOM     72  C   UNL A   1      42.239  26.316  27.832  1.00  0.00     0.064 A 
ATOM     73  C   UNL A   1      41.697  25.026  27.726  1.00  0.00     0.173 A 
ATOM     74  C   UNL A   1      43.093  26.754  26.809  1.00  0.00     0.173 A 
ATOM     75  F   UNL A   1      40.881  24.557  28.683  1.00  0.00    -0.203 F 
ATOM     76  C   UNL A   1      42.028  24.194  26.661  1.00  0.00     0.198 A 
ATOM     77  C   UNL A   1      43.400  25.930  25.729  1.00  0.00     0.198 A 
ATOM     78  F   UNL A   1      43.632  27.981  26.855  1.00  0.00    -0.203 F 
ATOM     79  F   UNL A   1      41.543  22.946  26.611  1.00  0.00    -0.200 F 
ATOM     80  C   UNL A   1      42.876  24.648  25.660  1.00  0.00     0.200 A 
ATOM     81  F   UNL A   1      44.208  26.373  24.756  1.00  0.00    -0.200 F 
ATOM     82  F   UNL A   1      43.195  23.844  24.636  1.00  0.00    -0.200 F 
ENDBRANCH  58  72
BRANCH  59  83
ATOM     83  C   UNL A   1      39.380  31.997  35.501  1.00  0.00     0.064 A 
ATOM     84  C   UNL A   1      39.800  33.323  35.667  1.00  0.00     0.173 A 
ATOM     85  C   UNL A   1      38.490  31.469  36.448  1.00  0.00     0.173 A 
ATOM     86  F   UNL A   1      40.666  33.864  34.798  1.00  0.00    -0.203 F 
ATOM     87  C   UNL A   1      39.352  34.090  36.740  1.00  0.00     0.198 A 
ATOM     88  C   UNL A   1      38.024  32.244  37.507  1.00  0.00     0.198 A 
ATOM     89  F   UNL A   1      38.055  30.206  36.327  1.00  0.00    -0.203 F 
ATOM     90  F   UNL A   1      39.791  35.348  36.891  1.00  0.00    -0.200 F 
ATOM     91  C   UNL A   1      38.459  33.552  37.655  1.00  0.00     0.200 A 
ATOM     92  F   UNL A   1      37.151  31.726  38.381  1.00  0.00    -0.200 F 
ATOM     93  F   UNL A   1      38.018  34.295  38.680  1.00  0.00    -0.200 F 
ENDBRANCH  59  83
BRANCH  71  94
ATOM     94  C   UNL A   1      44.935  27.952  34.321  1.00  0.00     0.064 A 
ATOM     95  C   UNL A   1      46.094  28.740  34.296  1.00  0.00     0.173 A 
ATOM     96  C   UNL A   1      44.911  26.843  35.180  1.00  0.00     0.173 A 
ATOM     97  F   UNL A   1      46.172  29.801  33.478  1.00  0.00    -0.203 F 
ATOM     98  C   UNL A   1      47.194  28.419  35.087  1.00  0.00     0.198 A 
ATOM     99  C   UNL A   1      46.003  26.540  35.989  1.00  0.00     0.198 A 
ATOM    100  F   UNL A   1      43.824  26.059  35.244  1.00  0.00    -0.203 F 
ATOM    101  F   UNL A   1      48.307  29.163  35.017  1.00  0.00    -0.200 F 
ATOM    102  C   UNL A   1      47.145  27.325  35.937  1.00  0.00     0.200 A 
ATOM    103  F   UNL A   1      45.951  25.489  36.818  1.00  0.00    -0.200 F 
ATOM    104  F   UNL A   1      48.203  27.022  36.703  1.00  0.00    -0.200 F 
ENDBRANCH  71  94
ENDBRANCH  45  46
ENDBRANCH  37  40
ENDBRANCH  35  36
ENDBRANCH  34  35
ENDBRANCH  33  34
ENDBRANCH   1  33
TORSDOF 16
ENDMDL
