MODEL 1
REMARK VINA RESULT:     -12.4      0.000      0.000
REMARK SMILES Cc1ccc2c(c1)OCCN2c1sc(C(=O)NCCCCNC(=O)c2ccc(-c3c4nc(c(-c5c(F)c(F)c(F)c(F)c5F)c5ccc([nH]5)c(-c5c(F)c(F)c(F)c(F)c5F)c5nc(c(-c6c(F)c(F)c(F)c(F)c6F)c6ccc3[nH]6)C=C5)C=C4)cc2)cc1C
REMARK SMILES IDX 20 1 19 2 18 3 17 4 15 5 16 6 14 8 12 9 13 10 89 11 88 12
REMARK SMILES IDX 90 13 11 14 1 15 2 16 3 17 7 18 4 19 6 20 5 21 8 22 9 23
REMARK SMILES IDX 10 24 21 25 22 26 23 27 24 29 25 30 26 31 87 32 27 33 86 34
REMARK SMILES IDX 28 35 29 36 30 37 80 38 31 39 85 40 79 41 81 42 32 43 84 44
REMARK SMILES IDX 78 45 77 46 33 48 65 49 45 50 64 51 46 52 49 53 63 54 82 55
REMARK SMILES IDX 47 56 48 57 62 59 83 60 50 61 34 62 35 63 43 64 36 65 37 66
REMARK SMILES IDX 41 67 44 68 38 69 39 70 42 71 40 72 66 73 67 74 75 75 68 76
REMARK SMILES IDX 69 77 73 78 76 79 70 80 71 81 74 82 72 83 51 84 52 85 60 86
REMARK SMILES IDX 53 87 54 88 58 89 61 90 55 91 56 92 59 93 57 94
REMARK H PARENT 17 7 22 28 81 47 49 58
REMARK Flexibility Score: inf
ROOT
ATOM      1  C   UNL A   1      35.789  23.534  25.885  1.00  0.00     0.023 C 
ENDROOT
BRANCH   1   2
ATOM      2  C   UNL A   1      35.566  22.145  26.494  1.00  0.00     0.023 C 
BRANCH   2   3
ATOM      3  C   UNL A   1      34.247  22.003  27.253  1.00  0.00     0.116 C 
BRANCH   3   4
ATOM      4  N   UNL A   1      33.315  21.172  26.517  1.00  0.00    -0.351 N 
ATOM      5  C   UNL A   1      32.399  21.443  25.528  1.00  0.00     0.261 C 
ATOM      6  O   UNL A   1      31.784  20.454  25.116  1.00  0.00    -0.268 OA
ATOM      7  H   UNL A   1      33.345  20.222  26.776  1.00  0.00     0.163 HD
BRANCH   5   8
ATOM      8  C   UNL A   1      32.201  22.758  24.937  1.00  0.00     0.094 A 
ATOM      9  C   UNL A   1      31.751  25.155  24.448  1.00  0.00     0.099 A 
ATOM     10  S   UNL A   1      31.065  23.924  25.435  1.00  0.00    -0.112 S 
ATOM     11  C   UNL A   1      32.603  24.593  23.506  1.00  0.00    -0.015 A 
ATOM     12  C   UNL A   1      32.854  23.213  23.805  1.00  0.00     0.031 A 
ATOM     13  C   UNL A   1      33.272  25.299  22.375  1.00  0.00     0.047 C 
BRANCH   9  14
ATOM     14  N   UNL A   1      31.416  26.471  24.581  1.00  0.00    -0.327 N 
ATOM     15  C   UNL A   1      34.395  30.544  27.379  1.00  0.00     0.044 C 
ATOM     16  C   UNL A   1      33.607  29.489  26.663  1.00  0.00    -0.047 A 
ATOM     17  C   UNL A   1      33.978  28.147  26.765  1.00  0.00     0.006 A 
ATOM     18  C   UNL A   1      32.520  29.823  25.852  1.00  0.00     0.052 A 
ATOM     19  C   UNL A   1      33.271  27.154  26.075  1.00  0.00     0.030 A 
ATOM     20  C   UNL A   1      31.812  28.828  25.167  1.00  0.00     0.143 A 
ATOM     21  C   UNL A   1      32.156  27.462  25.279  1.00  0.00     0.085 A 
ATOM     22  O   UNL A   1      30.775  29.290  24.384  1.00  0.00    -0.490 OA
ATOM     23  C   UNL A   1      30.369  28.326  23.407  1.00  0.00     0.251 C 
ATOM     24  C   UNL A   1      30.147  26.958  24.037  1.00  0.00     0.165 C 
ENDBRANCH   9  14
ENDBRANCH   5   8
ENDBRANCH   3   4
ENDBRANCH   2   3
ENDBRANCH   1   2
BRANCH   1  25
ATOM     25  C   UNL A   1      37.067  23.687  25.067  1.00  0.00     0.116 C 
BRANCH  25  26
ATOM     26  N   UNL A   1      38.103  22.729  25.423  1.00  0.00    -0.352 N 
ATOM     27  C   UNL A   1      39.226  22.935  26.189  1.00  0.00     0.251 C 
ATOM     28  H   UNL A   1      37.985  21.818  25.071  1.00  0.00     0.163 HD
ATOM     29  O   UNL A   1      40.063  22.049  26.328  1.00  0.00    -0.269 OA
BRANCH  27  30
ATOM     30  C   UNL A   1      39.439  24.259  26.806  1.00  0.00     0.039 A 
ATOM     31  C   UNL A   1      40.105  25.267  26.105  1.00  0.00     0.014 A 
ATOM     32  C   UNL A   1      39.018  24.468  28.121  1.00  0.00     0.014 A 
ATOM     33  C   UNL A   1      40.480  26.429  26.769  1.00  0.00     0.010 A 
ATOM     34  C   UNL A   1      39.336  25.665  28.765  1.00  0.00     0.010 A 
ATOM     35  C   UNL A   1      40.109  26.635  28.108  1.00  0.00    -0.014 A 
BRANCH  35  36
ATOM     36  C   UNL A   1      40.550  27.865  28.809  1.00  0.00     0.031 A 
ATOM     37  C   UNL A   1      41.992  28.058  29.187  1.00  0.00     0.074 A 
ATOM     38  C   UNL A   1      39.650  28.835  29.060  1.00  0.00     0.049 A 
ATOM     39  N   UNL A   1      42.555  29.058  29.818  1.00  0.00    -0.248 NA
ATOM     40  C   UNL A   1      42.928  26.988  28.807  1.00  0.00     0.031 C 
ATOM     41  C   UNL A   1      38.229  28.771  28.716  1.00  0.00     0.029 A 
ATOM     42  N   UNL A   1      39.799  30.069  29.639  1.00  0.00    -0.354 N 
ATOM     43  C   UNL A   1      43.900  28.732  29.926  1.00  0.00     0.074 A 
ATOM     44  C   UNL A   1      44.070  27.431  29.315  1.00  0.00     0.031 C 
ATOM     45  C   UNL A   1      37.646  29.933  29.046  1.00  0.00     0.029 A 
ATOM     46  C   UNL A   1      38.637  30.798  29.680  1.00  0.00     0.049 A 
ATOM     47  H   UNL A   1      40.657  30.400  29.991  1.00  0.00     0.167 HD
ATOM     48  C   UNL A   1      44.901  29.458  30.480  1.00  0.00     0.037 A 
ATOM     49  C   UNL A   1      38.393  32.021  30.185  1.00  0.00     0.037 A 
ATOM     50  C   UNL A   1      44.730  30.761  31.068  1.00  0.00     0.049 A 
ATOM     51  C   UNL A   1      39.513  32.787  30.826  1.00  0.00     0.074 A 
ATOM     52  C   UNL A   1      45.684  31.573  31.657  1.00  0.00     0.029 A 
ATOM     53  N   UNL A   1      43.526  31.445  31.136  1.00  0.00    -0.354 N 
ATOM     54  N   UNL A   1      40.775  32.455  30.948  1.00  0.00    -0.248 NA
ATOM     55  C   UNL A   1      39.173  34.091  31.411  1.00  0.00     0.031 C 
ATOM     56  C   UNL A   1      45.052  32.736  32.109  1.00  0.00     0.029 A 
ATOM     57  C   UNL A   1      43.711  32.666  31.766  1.00  0.00     0.049 A 
ATOM     58  H   UNL A   1      42.667  31.113  30.789  1.00  0.00     0.167 HD
ATOM     59  C   UNL A   1      41.383  33.510  31.613  1.00  0.00     0.074 A 
ATOM     60  C   UNL A   1      40.355  34.502  31.852  1.00  0.00     0.031 C 
ATOM     61  C   UNL A   1      42.676  33.640  31.996  1.00  0.00     0.037 A 
BRANCH  48  62
ATOM     62  C   UNL A   1      46.277  28.862  30.486  1.00  0.00     0.064 A 
ATOM     63  C   UNL A   1      47.184  29.098  29.443  1.00  0.00     0.173 A 
ATOM     64  C   UNL A   1      46.717  28.102  31.581  1.00  0.00     0.173 A 
ATOM     65  F   UNL A   1      46.806  29.807  28.368  1.00  0.00    -0.203 F 
ATOM     66  C   UNL A   1      48.479  28.588  29.492  1.00  0.00     0.198 A 
ATOM     67  C   UNL A   1      48.020  27.613  31.637  1.00  0.00     0.198 A 
ATOM     68  F   UNL A   1      45.890  27.851  32.606  1.00  0.00    -0.203 F 
ATOM     69  F   UNL A   1      49.322  28.805  28.471  1.00  0.00    -0.200 F 
ATOM     70  C   UNL A   1      48.898  27.855  30.592  1.00  0.00     0.200 A 
ATOM     71  F   UNL A   1      48.427  26.913  32.705  1.00  0.00    -0.200 F 
ATOM     72  F   UNL A   1      50.150  27.378  30.643  1.00  0.00    -0.200 F 
ENDBRANCH  48  62
BRANCH  49  73
ATOM     73  C   UNL A   1      37.025  32.589  30.091  1.00  0.00     0.064 A 
ATOM     74  C   UNL A   1      36.112  32.436  31.142  1.00  0.00     0.173 A 
ATOM     75  C   UNL A   1      36.618  33.327  28.971  1.00  0.00     0.173 A 
ATOM     76  F   UNL A   1      36.451  31.720  32.225  1.00  0.00    -0.203 F 
ATOM     77  C   UNL A   1      34.841  33.002  31.077  1.00  0.00     0.198 A 
ATOM     78  C   UNL A   1      35.357  33.915  28.917  1.00  0.00     0.198 A 
ATOM     79  F   UNL A   1      37.458  33.503  27.941  1.00  0.00    -0.203 F 
ATOM     80  F   UNL A   1      33.977  32.822  32.085  1.00  0.00    -0.200 F 
ATOM     81  C   UNL A   1      34.467  33.749  29.968  1.00  0.00     0.200 A 
ATOM     82  F   UNL A   1      35.006  34.648  27.852  1.00  0.00    -0.200 F 
ATOM     83  F   UNL A   1      33.251  34.308  29.914  1.00  0.00    -0.200 F 
ENDBRANCH  49  73
BRANCH  61  84
ATOM     84  C   UNL A   1      43.057  34.907  32.700  1.00  0.00     0.064 A 
ATOM     85  C   UNL A   1      43.492  36.035  31.989  1.00  0.00     0.173 A 
ATOM     86  C   UNL A   1      42.939  35.010  34.094  1.00  0.00     0.173 A 
ATOM     87  F   UNL A   1      43.634  35.980  30.656  1.00  0.00    -0.203 F 
ATOM     88  C   UNL A   1      43.811  37.216  32.652  1.00  0.00     0.198 A 
ATOM     89  C   UNL A   1      43.238  36.199  34.751  1.00  0.00     0.198 A 
ATOM     90  F   UNL A   1      42.522  33.959  34.815  1.00  0.00    -0.203 F 
ATOM     91  F   UNL A   1      44.258  38.272  31.958  1.00  0.00    -0.200 F 
ATOM     92  C   UNL A   1      43.677  37.300  34.030  1.00  0.00     0.200 A 
ATOM     93  F   UNL A   1      43.099  36.282  36.080  1.00  0.00    -0.200 F 
ATOM     94  F   UNL A   1      43.980  38.441  34.666  1.00  0.00    -0.200 F 
ENDBRANCH  61  84
ENDBRANCH  35  36
ENDBRANCH  27  30
ENDBRANCH  25  26
ENDBRANCH   1  25
TORSDOF 12
ENDMDL
MODEL 2
REMARK VINA RESULT:     -12.4      3.613      8.803
REMARK SMILES Cc1ccc2c(c1)OCCN2c1sc(C(=O)NCCCCNC(=O)c2ccc(-c3c4nc(c(-c5c(F)c(F)c(F)c(F)c5F)c5ccc([nH]5)c(-c5c(F)c(F)c(F)c(F)c5F)c5nc(c(-c6c(F)c(F)c(F)c(F)c6F)c6ccc3[nH]6)C=C5)C=C4)cc2)cc1C
REMARK SMILES IDX 20 1 19 2 18 3 17 4 15 5 16 6 14 8 12 9 13 10 89 11 88 12
REMARK SMILES IDX 90 13 11 14 1 15 2 16 3 17 7 18 4 19 6 20 5 21 8 22 9 23
REMARK SMILES IDX 10 24 21 25 22 26 23 27 24 29 25 30 26 31 87 32 27 33 86 34
REMARK SMILES IDX 28 35 29 36 30 37 80 38 31 39 85 40 79 41 81 42 32 43 84 44
REMARK SMILES IDX 78 45 77 46 33 48 65 49 45 50 64 51 46 52 49 53 63 54 82 55
REMARK SMILES IDX 47 56 48 57 62 59 83 60 50 61 34 62 35 63 43 64 36 65 37 66
REMARK SMILES IDX 41 67 44 68 38 69 39 70 42 71 40 72 66 73 67 74 75 75 68 76
REMARK SMILES IDX 69 77 73 78 76 79 70 80 71 81 74 82 72 83 51 84 52 85 60 86
REMARK SMILES IDX 53 87 54 88 58 89 61 90 55 91 56 92 59 93 57 94
REMARK H PARENT 17 7 22 28 81 47 49 58
REMARK Flexibility Score: inf
ROOT
ATOM      1  C   UNL A   1      31.678  31.741  26.632  1.00  0.00     0.023 C 
ENDROOT
BRANCH   1   2
ATOM      2  C   UNL A   1      31.838  30.217  26.669  1.00  0.00     0.023 C 
BRANCH   2   3
ATOM      3  C   UNL A   1      33.100  29.708  25.972  1.00  0.00     0.116 C 
BRANCH   3   4
ATOM      4  N   UNL A   1      32.928  29.704  24.533  1.00  0.00    -0.351 N 
ATOM      5  C   UNL A   1      32.758  28.696  23.615  1.00  0.00     0.261 C 
ATOM      6  O   UNL A   1      32.619  29.083  22.450  1.00  0.00    -0.268 OA
ATOM      7  H   UNL A   1      32.933  30.604  24.133  1.00  0.00     0.163 HD
BRANCH   5   8
ATOM      8  C   UNL A   1      32.664  27.284  23.959  1.00  0.00     0.094 A 
ATOM      9  C   UNL A   1      32.978  24.836  24.262  1.00  0.00     0.099 A 
ATOM     10  S   UNL A   1      33.162  25.977  22.988  1.00  0.00    -0.112 S 
ATOM     11  C   UNL A   1      32.226  25.385  25.291  1.00  0.00    -0.015 A 
ATOM     12  C   UNL A   1      32.058  26.797  25.103  1.00  0.00     0.031 A 
ATOM     13  C   UNL A   1      31.718  24.676  26.502  1.00  0.00     0.047 C 
BRANCH   9  14
ATOM     14  N   UNL A   1      33.472  23.566  24.183  1.00  0.00    -0.327 N 
ATOM     15  C   UNL A   1      38.730  21.783  25.752  1.00  0.00     0.044 C 
ATOM     16  C   UNL A   1      37.367  22.241  25.328  1.00  0.00    -0.047 A 
ATOM     17  C   UNL A   1      37.064  23.603  25.295  1.00  0.00     0.006 A 
ATOM     18  C   UNL A   1      36.366  21.324  24.999  1.00  0.00     0.052 A 
ATOM     19  C   UNL A   1      35.785  24.043  24.933  1.00  0.00     0.030 A 
ATOM     20  C   UNL A   1      35.089  21.767  24.632  1.00  0.00     0.143 A 
ATOM     21  C   UNL A   1      34.771  23.142  24.567  1.00  0.00     0.085 A 
ATOM     22  O   UNL A   1      34.186  20.763  24.352  1.00  0.00    -0.490 OA
ATOM     23  C   UNL A   1      32.833  21.228  24.399  1.00  0.00     0.251 C 
ATOM     24  C   UNL A   1      32.659  22.505  23.587  1.00  0.00     0.165 C 
ENDBRANCH   9  14
ENDBRANCH   5   8
ENDBRANCH   3   4
ENDBRANCH   2   3
ENDBRANCH   1   2
BRANCH   1  25
ATOM     25  C   UNL A   1      32.819  32.530  27.267  1.00  0.00     0.116 C 
BRANCH  25  26
ATOM     26  N   UNL A   1      32.465  33.902  27.595  1.00  0.00    -0.352 N 
ATOM     27  C   UNL A   1      33.045  34.732  28.525  1.00  0.00     0.251 C 
ATOM     28  H   UNL A   1      31.716  34.287  27.086  1.00  0.00     0.163 HD
ATOM     29  O   UNL A   1      32.576  35.842  28.757  1.00  0.00    -0.269 OA
BRANCH  27  30
ATOM     30  C   UNL A   1      34.217  34.249  29.283  1.00  0.00     0.039 A 
ATOM     31  C   UNL A   1      35.510  34.463  28.798  1.00  0.00     0.014 A 
ATOM     32  C   UNL A   1      34.011  33.527  30.460  1.00  0.00     0.014 A 
ATOM     33  C   UNL A   1      36.584  33.826  29.410  1.00  0.00     0.010 A 
ATOM     34  C   UNL A   1      35.099  32.944  31.111  1.00  0.00     0.010 A 
ATOM     35  C   UNL A   1      36.388  33.052  30.565  1.00  0.00    -0.014 A 
BRANCH  35  36
ATOM     36  C   UNL A   1      37.540  32.352  31.182  1.00  0.00     0.031 A 
ATOM     37  C   UNL A   1      38.017  32.725  32.558  1.00  0.00     0.074 A 
ATOM     38  C   UNL A   1      38.127  31.340  30.515  1.00  0.00     0.049 A 
ATOM     39  N   UNL A   1      39.018  32.236  33.247  1.00  0.00    -0.248 NA
ATOM     40  C   UNL A   1      37.274  33.787  33.255  1.00  0.00     0.031 C 
ATOM     41  C   UNL A   1      37.734  30.872  29.185  1.00  0.00     0.029 A 
ATOM     42  N   UNL A   1      39.159  30.510  30.870  1.00  0.00    -0.354 N 
ATOM     43  C   UNL A   1      39.035  32.939  34.444  1.00  0.00     0.074 A 
ATOM     44  C   UNL A   1      37.959  33.905  34.384  1.00  0.00     0.031 C 
ATOM     45  C   UNL A   1      38.482  29.809  28.856  1.00  0.00     0.029 A 
ATOM     46  C   UNL A   1      39.447  29.559  29.924  1.00  0.00     0.049 A 
ATOM     47  H   UNL A   1      39.646  30.590  31.722  1.00  0.00     0.167 HD
ATOM     48  C   UNL A   1      39.871  32.785  35.499  1.00  0.00     0.037 A 
ATOM     49  C   UNL A   1      40.392  28.602  29.910  1.00  0.00     0.037 A 
ATOM     50  C   UNL A   1      40.927  31.809  35.563  1.00  0.00     0.049 A 
ATOM     51  C   UNL A   1      41.329  28.479  31.076  1.00  0.00     0.074 A 
ATOM     52  C   UNL A   1      41.829  31.579  36.589  1.00  0.00     0.029 A 
ATOM     53  N   UNL A   1      41.221  30.896  34.561  1.00  0.00    -0.354 N 
ATOM     54  N   UNL A   1      41.353  29.168  32.190  1.00  0.00    -0.248 NA
ATOM     55  C   UNL A   1      42.376  27.454  30.978  1.00  0.00     0.031 C 
ATOM     56  C   UNL A   1      42.687  30.546  36.195  1.00  0.00     0.029 A 
ATOM     57  C   UNL A   1      42.295  30.106  34.941  1.00  0.00     0.049 A 
ATOM     58  H   UNL A   1      40.737  30.819  33.708  1.00  0.00     0.167 HD
ATOM     59  C   UNL A   1      42.409  28.657  32.931  1.00  0.00     0.074 A 
ATOM     60  C   UNL A   1      42.989  27.585  32.147  1.00  0.00     0.031 C 
ATOM     61  C   UNL A   1      42.859  29.046  34.148  1.00  0.00     0.037 A 
BRANCH  48  62
ATOM     62  C   UNL A   1      39.687  33.696  36.676  1.00  0.00     0.064 A 
ATOM     63  C   UNL A   1      40.283  34.964  36.723  1.00  0.00     0.173 A 
ATOM     64  C   UNL A   1      38.850  33.323  37.739  1.00  0.00     0.173 A 
ATOM     65  F   UNL A   1      41.104  35.360  35.737  1.00  0.00    -0.203 F 
ATOM     66  C   UNL A   1      40.055  35.823  37.795  1.00  0.00     0.198 A 
ATOM     67  C   UNL A   1      38.605  34.194  38.797  1.00  0.00     0.198 A 
ATOM     68  F   UNL A   1      38.252  32.123  37.740  1.00  0.00    -0.203 F 
ATOM     69  F   UNL A   1      40.656  37.022  37.831  1.00  0.00    -0.200 F 
ATOM     70  C   UNL A   1      39.209  35.442  38.825  1.00  0.00     0.200 A 
ATOM     71  F   UNL A   1      37.779  33.829  39.788  1.00  0.00    -0.200 F 
ATOM     72  F   UNL A   1      38.979  36.277  39.848  1.00  0.00    -0.200 F 
ENDBRANCH  48  62
BRANCH  49  73
ATOM     73  C   UNL A   1      40.484  27.685  28.746  1.00  0.00     0.064 A 
ATOM     74  C   UNL A   1      39.782  26.474  28.730  1.00  0.00     0.173 A 
ATOM     75  C   UNL A   1      41.242  28.020  27.615  1.00  0.00     0.173 A 
ATOM     76  F   UNL A   1      39.060  26.104  29.799  1.00  0.00    -0.203 F 
ATOM     77  C   UNL A   1      39.832  25.630  27.623  1.00  0.00     0.198 A 
ATOM     78  C   UNL A   1      41.271  27.188  26.498  1.00  0.00     0.198 A 
ATOM     79  F   UNL A   1      41.930  29.170  27.582  1.00  0.00    -0.203 F 
ATOM     80  F   UNL A   1      39.170  24.465  27.641  1.00  0.00    -0.200 F 
ATOM     81  C   UNL A   1      40.569  25.991  26.505  1.00  0.00     0.200 A 
ATOM     82  F   UNL A   1      41.971  27.548  25.415  1.00  0.00    -0.200 F 
ATOM     83  F   UNL A   1      40.603  25.187  25.434  1.00  0.00    -0.200 F 
ENDBRANCH  49  73
BRANCH  61  84
ATOM     84  C   UNL A   1      44.028  28.298  34.716  1.00  0.00     0.064 A 
ATOM     85  C   UNL A   1      45.341  28.759  34.548  1.00  0.00     0.173 A 
ATOM     86  C   UNL A   1      43.828  27.138  35.478  1.00  0.00     0.173 A 
ATOM     87  F   UNL A   1      45.583  29.857  33.815  1.00  0.00    -0.203 F 
ATOM     88  C   UNL A   1      46.415  28.074  35.108  1.00  0.00     0.198 A 
ATOM     89  C   UNL A   1      44.902  26.468  36.055  1.00  0.00     0.198 A 
ATOM     90  F   UNL A   1      42.589  26.662  35.671  1.00  0.00    -0.203 F 
ATOM     91  F   UNL A   1      47.666  28.511  34.905  1.00  0.00    -0.200 F 
ATOM     92  C   UNL A   1      46.195  26.934  35.866  1.00  0.00     0.200 A 
ATOM     93  F   UNL A   1      44.687  25.372  36.796  1.00  0.00    -0.200 F 
ATOM     94  F   UNL A   1      47.230  26.279  36.410  1.00  0.00    -0.200 F 
ENDBRANCH  61  84
ENDBRANCH  35  36
ENDBRANCH  27  30
ENDBRANCH  25  26
ENDBRANCH   1  25
TORSDOF 12
ENDMDL
MODEL 3
REMARK VINA RESULT:     -12.3      2.917      8.497
REMARK SMILES Cc1ccc2c(c1)OCCN2c1sc(C(=O)NCCCCNC(=O)c2ccc(-c3c4nc(c(-c5c(F)c(F)c(F)c(F)c5F)c5ccc([nH]5)c(-c5c(F)c(F)c(F)c(F)c5F)c5nc(c(-c6c(F)c(F)c(F)c(F)c6F)c6ccc3[nH]6)C=C5)C=C4)cc2)cc1C
REMARK SMILES IDX 20 1 19 2 18 3 17 4 15 5 16 6 14 8 12 9 13 10 89 11 88 12
REMARK SMILES IDX 90 13 11 14 1 15 2 16 3 17 7 18 4 19 6 20 5 21 8 22 9 23
REMARK SMILES IDX 10 24 21 25 22 26 23 27 24 29 25 30 26 31 87 32 27 33 86 34
REMARK SMILES IDX 28 35 29 36 30 37 80 38 31 39 85 40 79 41 81 42 32 43 84 44
REMARK SMILES IDX 78 45 77 46 33 48 65 49 45 50 64 51 46 52 49 53 63 54 82 55
REMARK SMILES IDX 47 56 48 57 62 59 83 60 50 61 34 62 35 63 43 64 36 65 37 66
REMARK SMILES IDX 41 67 44 68 38 69 39 70 42 71 40 72 66 73 67 74 75 75 68 76
REMARK SMILES IDX 69 77 73 78 76 79 70 80 71 81 74 82 72 83 51 84 52 85 60 86
REMARK SMILES IDX 53 87 54 88 58 89 61 90 55 91 56 92 59 93 57 94
REMARK H PARENT 17 7 22 28 81 47 49 58
REMARK Flexibility Score: inf
ROOT
ATOM      1  C   UNL A   1      33.878  28.074  25.769  1.00  0.00     0.023 C 
ENDROOT
BRANCH   1   2
ATOM      2  C   UNL A   1      33.438  29.142  24.761  1.00  0.00     0.023 C 
BRANCH   2   3
ATOM      3  C   UNL A   1      33.648  28.742  23.300  1.00  0.00     0.116 C 
BRANCH   3   4
ATOM      4  N   UNL A   1      32.378  28.502  22.644  1.00  0.00    -0.351 N 
ATOM      5  C   UNL A   1      31.563  27.398  22.560  1.00  0.00     0.261 C 
ATOM      6  O   UNL A   1      30.523  27.577  21.918  1.00  0.00    -0.268 OA
ATOM      7  H   UNL A   1      32.029  29.287  22.163  1.00  0.00     0.163 HD
BRANCH   5   8
ATOM      8  C   UNL A   1      31.831  26.131  23.226  1.00  0.00     0.094 A 
ATOM      9  C   UNL A   1      32.743  23.967  24.045  1.00  0.00     0.099 A 
ATOM     10  S   UNL A   1      32.578  24.768  22.532  1.00  0.00    -0.112 S 
ATOM     11  C   UNL A   1      31.935  24.574  24.998  1.00  0.00    -0.015 A 
ATOM     12  C   UNL A   1      31.421  25.822  24.510  1.00  0.00     0.031 A 
ATOM     13  C   UNL A   1      31.677  24.094  26.387  1.00  0.00     0.047 C 
BRANCH   9  14
ATOM     14  N   UNL A   1      33.524  22.860  24.206  1.00  0.00    -0.327 N 
ATOM     15  C   UNL A   1      38.914  22.683  26.257  1.00  0.00     0.044 C 
ATOM     16  C   UNL A   1      37.519  22.722  25.709  1.00  0.00    -0.047 A 
ATOM     17  C   UNL A   1      36.910  23.947  25.429  1.00  0.00     0.006 A 
ATOM     18  C   UNL A   1      36.789  21.548  25.505  1.00  0.00     0.052 A 
ATOM     19  C   UNL A   1      35.595  23.999  24.948  1.00  0.00     0.030 A 
ATOM     20  C   UNL A   1      35.477  21.604  25.019  1.00  0.00     0.143 A 
ATOM     21  C   UNL A   1      34.852  22.832  24.706  1.00  0.00     0.085 A 
ATOM     22  O   UNL A   1      34.858  20.379  24.884  1.00  0.00    -0.490 OA
ATOM     23  C   UNL A   1      33.434  20.502  24.799  1.00  0.00     0.251 C 
ATOM     24  C   UNL A   1      33.030  21.552  23.772  1.00  0.00     0.165 C 
ENDBRANCH   9  14
ENDBRANCH   5   8
ENDBRANCH   3   4
ENDBRANCH   2   3
ENDBRANCH   1   2
BRANCH   1  25
ATOM     25  C   UNL A   1      33.594  28.404  27.230  1.00  0.00     0.116 C 
BRANCH  25  26
ATOM     26  N   UNL A   1      33.521  29.832  27.500  1.00  0.00    -0.352 N 
ATOM     27  C   UNL A   1      34.500  30.653  28.007  1.00  0.00     0.251 C 
ATOM     28  H   UNL A   1      32.662  30.266  27.294  1.00  0.00     0.163 HD
ATOM     29  O   UNL A   1      34.262  31.828  28.269  1.00  0.00    -0.269 OA
BRANCH  27  30
ATOM     30  C   UNL A   1      35.837  30.089  28.281  1.00  0.00     0.039 A 
ATOM     31  C   UNL A   1      36.122  29.514  29.522  1.00  0.00     0.014 A 
ATOM     32  C   UNL A   1      36.828  30.192  27.301  1.00  0.00     0.014 A 
ATOM     33  C   UNL A   1      37.434  29.180  29.836  1.00  0.00     0.010 A 
ATOM     34  C   UNL A   1      38.132  29.791  27.596  1.00  0.00     0.010 A 
ATOM     35  C   UNL A   1      38.453  29.325  28.880  1.00  0.00    -0.014 A 
BRANCH  35  36
ATOM     36  C   UNL A   1      39.852  28.995  29.246  1.00  0.00     0.031 A 
ATOM     37  C   UNL A   1      40.631  29.885  30.174  1.00  0.00     0.074 A 
ATOM     38  C   UNL A   1      40.403  27.859  28.778  1.00  0.00     0.049 A 
ATOM     39  N   UNL A   1      41.868  29.766  30.590  1.00  0.00    -0.248 NA
ATOM     40  C   UNL A   1      39.933  31.065  30.708  1.00  0.00     0.031 C 
ATOM     41  C   UNL A   1      39.734  26.905  27.892  1.00  0.00     0.029 A 
ATOM     42  N   UNL A   1      41.637  27.304  28.998  1.00  0.00    -0.354 N 
ATOM     43  C   UNL A   1      42.100  30.858  31.414  1.00  0.00     0.074 A 
ATOM     44  C   UNL A   1      40.885  31.645  31.427  1.00  0.00     0.031 C 
ATOM     45  C   UNL A   1      40.546  25.860  27.682  1.00  0.00     0.029 A 
ATOM     46  C   UNL A   1      41.814  26.098  28.367  1.00  0.00     0.049 A 
ATOM     47  H   UNL A   1      42.329  27.729  29.554  1.00  0.00     0.167 HD
ATOM     48  C   UNL A   1      43.224  31.170  32.103  1.00  0.00     0.037 A 
ATOM     49  C   UNL A   1      42.882  25.282  28.333  1.00  0.00     0.037 A 
ATOM     50  C   UNL A   1      44.424  30.374  32.104  1.00  0.00     0.049 A 
ATOM     51  C   UNL A   1      44.128  25.671  29.074  1.00  0.00     0.074 A 
ATOM     52  C   UNL A   1      45.616  30.609  32.768  1.00  0.00     0.029 A 
ATOM     53  N   UNL A   1      44.582  29.183  31.411  1.00  0.00    -0.354 N 
ATOM     54  N   UNL A   1      44.345  26.721  29.827  1.00  0.00    -0.248 NA
ATOM     55  C   UNL A   1      45.280  24.769  28.951  1.00  0.00     0.031 C 
ATOM     56  C   UNL A   1      46.505  29.577  32.453  1.00  0.00     0.029 A 
ATOM     57  C   UNL A   1      45.854  28.676  31.624  1.00  0.00     0.049 A 
ATOM     58  H   UNL A   1      43.892  28.759  30.851  1.00  0.00     0.167 HD
ATOM     59  C   UNL A   1      45.652  26.604  30.276  1.00  0.00     0.074 A 
ATOM     60  C   UNL A   1      46.173  25.369  29.726  1.00  0.00     0.031 C 
ATOM     61  C   UNL A   1      46.356  27.448  31.068  1.00  0.00     0.037 A 
BRANCH  48  62
ATOM     62  C   UNL A   1      43.221  32.432  32.913  1.00  0.00     0.064 A 
ATOM     63  C   UNL A   1      43.565  33.668  32.347  1.00  0.00     0.173 A 
ATOM     64  C   UNL A   1      42.804  32.415  34.253  1.00  0.00     0.173 A 
ATOM     65  F   UNL A   1      43.983  33.734  31.074  1.00  0.00    -0.203 F 
ATOM     66  C   UNL A   1      43.499  34.841  33.096  1.00  0.00     0.198 A 
ATOM     67  C   UNL A   1      42.717  33.593  34.991  1.00  0.00     0.198 A 
ATOM     68  F   UNL A   1      42.460  31.259  34.840  1.00  0.00    -0.203 F 
ATOM     69  F   UNL A   1      43.857  36.008  32.541  1.00  0.00    -0.200 F 
ATOM     70  C   UNL A   1      43.066  34.803  34.413  1.00  0.00     0.200 A 
ATOM     71  F   UNL A   1      42.289  33.557  36.261  1.00  0.00    -0.200 F 
ATOM     72  F   UNL A   1      42.989  35.936  35.126  1.00  0.00    -0.200 F 
ENDBRANCH  48  62
BRANCH  49  73
ATOM     73  C   UNL A   1      42.805  24.011  27.568  1.00  0.00     0.064 A 
ATOM     74  C   UNL A   1      42.406  22.823  28.191  1.00  0.00     0.173 A 
ATOM     75  C   UNL A   1      43.089  23.970  26.195  1.00  0.00     0.173 A 
ATOM     76  F   UNL A   1      42.143  22.811  29.506  1.00  0.00    -0.203 F 
ATOM     77  C   UNL A   1      42.292  21.638  27.468  1.00  0.00     0.198 A 
ATOM     78  C   UNL A   1      42.950  22.791  25.468  1.00  0.00     0.198 A 
ATOM     79  F   UNL A   1      43.473  25.084  25.554  1.00  0.00    -0.203 F 
ATOM     80  F   UNL A   1      41.930  20.507  28.091  1.00  0.00    -0.200 F 
ATOM     81  C   UNL A   1      42.555  21.624  26.106  1.00  0.00     0.200 A 
ATOM     82  F   UNL A   1      43.190  22.786  24.150  1.00  0.00    -0.200 F 
ATOM     83  F   UNL A   1      42.428  20.487  25.408  1.00  0.00    -0.200 F 
ENDBRANCH  49  73
BRANCH  61  84
ATOM     84  C   UNL A   1      47.765  27.057  31.401  1.00  0.00     0.064 A 
ATOM     85  C   UNL A   1      48.849  27.512  30.637  1.00  0.00     0.173 A 
ATOM     86  C   UNL A   1      48.036  26.263  32.525  1.00  0.00     0.173 A 
ATOM     87  F   UNL A   1      48.637  28.263  29.545  1.00  0.00    -0.203 F 
ATOM     88  C   UNL A   1      50.155  27.169  30.976  1.00  0.00     0.198 A 
ATOM     89  C   UNL A   1      49.344  25.940  32.873  1.00  0.00     0.198 A 
ATOM     90  F   UNL A   1      47.032  25.809  33.289  1.00  0.00    -0.203 F 
ATOM     91  F   UNL A   1      51.174  27.585  30.211  1.00  0.00    -0.200 F 
ATOM     92  C   UNL A   1      50.401  26.390  32.096  1.00  0.00     0.200 A 
ATOM     93  F   UNL A   1      49.582  25.197  33.962  1.00  0.00    -0.200 F 
ATOM     94  F   UNL A   1      51.660  26.067  32.424  1.00  0.00    -0.200 F 
ENDBRANCH  61  84
ENDBRANCH  35  36
ENDBRANCH  27  30
ENDBRANCH  25  26
ENDBRANCH   1  25
TORSDOF 12
ENDMDL
