MODEL 1
REMARK VINA RESULT:     -11.8      0.000      0.000
REMARK SMILES CSCc1ccc(C(=O)N[C@@H](Cc2cnc[nH]2)C(=O)NCCCCNC(=O)c2ccc(-c3c4nc(c(-c5c(F)c(F)c(F)c(F)c5F)c5ccc([nH]5)c(-c5c(F)c(F)c(F)c(F)c5F)c5nc(c(-c6c(F)c(F)c(F)c(F)c6F)c6ccc3[nH]6)C=C5)C=C4)cc2)o1
REMARK SMILES IDX 21 1 20 2 18 3 19 4 11 6 10 7 8 8 9 9 7 11 4 12 5 13 91 14
REMARK SMILES IDX 6 15 3 16 2 17 1 18 12 19 13 20 14 21 17 22 15 23 16 24
REMARK SMILES IDX 22 26 23 27 24 28 25 29 26 30 27 32 28 33 29 34 90 35 30 36
REMARK SMILES IDX 89 37 31 38 32 39 33 40 83 41 34 42 88 43 82 44 84 45 35 46
REMARK SMILES IDX 87 47 81 48 80 49 36 51 68 52 48 53 67 54 49 55 52 56 66 57
REMARK SMILES IDX 85 58 50 59 51 60 65 62 86 63 53 64 37 65 38 66 46 67 39 68
REMARK SMILES IDX 40 69 44 70 47 71 41 72 42 73 45 74 43 75 69 76 70 77 78 78
REMARK SMILES IDX 71 79 72 80 76 81 79 82 73 83 74 84 77 85 75 86 54 87 55 88
REMARK SMILES IDX 63 89 56 90 57 91 61 92 64 93 58 94 59 95 62 96 60 97
REMARK H PARENT 20 5 10 10 17 25 25 31 84 50 52 61
REMARK Flexibility Score: inf
ROOT
ATOM      1  C   UNL A   1      36.631  22.431  25.591  1.00  0.00     0.116 C 
ENDROOT
BRANCH   1   2
ATOM      2  N   UNL A   1      35.842  22.655  26.782  1.00  0.00    -0.354 N 
ATOM      3  C   UNL A   1      34.521  22.976  26.899  1.00  0.00     0.242 C 
ATOM      4  O   UNL A   1      33.970  22.688  27.967  1.00  0.00    -0.273 OA
ATOM      5  H   UNL A   1      36.329  22.562  27.632  1.00  0.00     0.163 HD
BRANCH   3   6
ATOM      6  C   UNL A   1      33.689  23.605  25.756  1.00  0.00     0.177 C 
BRANCH   6   7
ATOM      7  N   UNL A   1      32.272  23.247  25.796  1.00  0.00    -0.337 N 
ATOM      8  C   UNL A   1      31.610  22.062  25.585  1.00  0.00     0.287 C 
ATOM      9  O   UNL A   1      30.421  22.093  25.924  1.00  0.00    -0.266 OA
ATOM     10  H   UNL A   1      31.678  24.000  26.018  1.00  0.00     0.164 HD
BRANCH   8  11
ATOM     11  C   UNL A   1      32.217  20.882  24.984  1.00  0.00     0.191 A 
ATOM     12  C   UNL A   1      32.695  18.707  25.042  1.00  0.00     0.114 A 
ATOM     13  C   UNL A   1      33.141  19.167  23.827  1.00  0.00     0.047 A 
ATOM     14  O   UNL A   1      32.171  19.739  25.756  1.00  0.00    -0.455 OA
ATOM     15  C   UNL A   1      32.826  20.550  23.785  1.00  0.00     0.056 A 
BRANCH  12  16
ATOM     16  C   UNL A   1      32.704  17.369  25.685  1.00  0.00     0.144 C 
BRANCH  16  17
ATOM     17  S   UNL A   1      33.343  16.067  24.583  1.00  0.00    -0.157 SA
ATOM     18  C   UNL A   1      35.027  15.936  25.240  1.00  0.00     0.085 C 
ENDBRANCH  16  17
ENDBRANCH  12  16
ENDBRANCH   8  11
ENDBRANCH   6   7
BRANCH   6  19
ATOM     19  C   UNL A   1      33.941  25.097  25.467  1.00  0.00     0.090 C 
BRANCH  19  20
ATOM     20  C   UNL A   1      33.776  25.560  24.060  1.00  0.00     0.037 A 
ATOM     21  C   UNL A   1      33.835  24.863  22.869  1.00  0.00     0.134 A 
ATOM     22  N   UNL A   1      33.449  26.843  23.691  1.00  0.00    -0.348 N 
ATOM     23  N   UNL A   1      33.679  25.707  21.803  1.00  0.00    -0.245 NA
ATOM     24  C   UNL A   1      33.439  26.888  22.323  1.00  0.00     0.196 A 
ATOM     25  H   UNL A   1      33.257  27.593  24.298  1.00  0.00     0.167 HD
ENDBRANCH  19  20
ENDBRANCH   6  19
ENDBRANCH   3   6
ENDBRANCH   1   2
BRANCH   1  26
ATOM     26  C   UNL A   1      36.641  20.991  25.102  1.00  0.00     0.023 C 
BRANCH  26  27
ATOM     27  C   UNL A   1      38.014  20.451  24.712  1.00  0.00     0.023 C 
BRANCH  27  28
ATOM     28  C   UNL A   1      39.104  20.559  25.777  1.00  0.00     0.116 C 
BRANCH  28  29
ATOM     29  N   UNL A   1      39.952  19.377  25.877  1.00  0.00    -0.352 N 
ATOM     30  C   UNL A   1      41.306  19.292  26.116  1.00  0.00     0.251 C 
ATOM     31  H   UNL A   1      39.489  18.517  25.757  1.00  0.00     0.163 HD
ATOM     32  O   UNL A   1      41.889  18.220  26.048  1.00  0.00    -0.269 OA
BRANCH  30  33
ATOM     33  C   UNL A   1      42.059  20.528  26.416  1.00  0.00     0.039 A 
ATOM     34  C   UNL A   1      42.496  21.330  25.360  1.00  0.00     0.014 A 
ATOM     35  C   UNL A   1      42.275  20.920  27.740  1.00  0.00     0.014 A 
ATOM     36  C   UNL A   1      43.054  22.581  25.633  1.00  0.00     0.010 A 
ATOM     37  C   UNL A   1      42.751  22.198  28.006  1.00  0.00     0.010 A 
ATOM     38  C   UNL A   1      43.133  23.047  26.956  1.00  0.00    -0.014 A 
BRANCH  38  39
ATOM     39  C   UNL A   1      43.582  24.428  27.265  1.00  0.00     0.031 A 
ATOM     40  C   UNL A   1      42.603  25.441  27.786  1.00  0.00     0.074 A 
ATOM     41  C   UNL A   1      44.850  24.795  26.988  1.00  0.00     0.049 A 
ATOM     42  N   UNL A   1      42.776  26.719  28.016  1.00  0.00    -0.248 NA
ATOM     43  C   UNL A   1      41.238  24.963  28.052  1.00  0.00     0.031 C 
ATOM     44  C   UNL A   1      45.880  23.923  26.422  1.00  0.00     0.029 A 
ATOM     45  N   UNL A   1      45.484  26.006  27.130  1.00  0.00    -0.354 N 
ATOM     46  C   UNL A   1      41.540  27.197  28.432  1.00  0.00     0.074 A 
ATOM     47  C   UNL A   1      40.614  26.087  28.373  1.00  0.00     0.031 C 
ATOM     48  C   UNL A   1      47.020  24.618  26.286  1.00  0.00     0.029 A 
ATOM     49  C   UNL A   1      46.793  25.994  26.717  1.00  0.00     0.049 A 
ATOM     50  H   UNL A   1      45.040  26.806  27.494  1.00  0.00     0.167 HD
ATOM     51  C   UNL A   1      41.214  28.444  28.848  1.00  0.00     0.037 A 
ATOM     52  C   UNL A   1      47.706  26.984  26.681  1.00  0.00     0.037 A 
ATOM     53  C   UNL A   1      42.145  29.537  28.941  1.00  0.00     0.049 A 
ATOM     54  C   UNL A   1      47.321  28.356  27.163  1.00  0.00     0.074 A 
ATOM     55  C   UNL A   1      41.928  30.816  29.420  1.00  0.00     0.029 A 
ATOM     56  N   UNL A   1      43.473  29.476  28.546  1.00  0.00    -0.354 N 
ATOM     57  N   UNL A   1      46.169  28.777  27.623  1.00  0.00    -0.248 NA
ATOM     58  C   UNL A   1      48.366  29.390  27.125  1.00  0.00     0.031 C 
ATOM     59  C   UNL A   1      43.114  31.542  29.279  1.00  0.00     0.029 A 
ATOM     60  C   UNL A   1      44.083  30.703  28.754  1.00  0.00     0.049 A 
ATOM     61  H   UNL A   1      43.916  28.680  28.174  1.00  0.00     0.167 HD
ATOM     62  C   UNL A   1      46.355  30.113  27.955  1.00  0.00     0.074 A 
ATOM     63  C   UNL A   1      47.736  30.429  27.655  1.00  0.00     0.031 C 
ATOM     64  C   UNL A   1      45.462  30.997  28.461  1.00  0.00     0.037 A 
BRANCH  51  65
ATOM     65  C   UNL A   1      39.788  28.689  29.246  1.00  0.00     0.064 A 
ATOM     66  C   UNL A   1      39.347  28.478  30.562  1.00  0.00     0.173 A 
ATOM     67  C   UNL A   1      38.861  29.176  28.313  1.00  0.00     0.173 A 
ATOM     68  F   UNL A   1      40.192  28.001  31.489  1.00  0.00    -0.203 F 
ATOM     69  C   UNL A   1      38.023  28.716  30.920  1.00  0.00     0.198 A 
ATOM     70  C   UNL A   1      37.545  29.443  28.682  1.00  0.00     0.198 A 
ATOM     71  F   UNL A   1      39.233  29.402  27.044  1.00  0.00    -0.203 F 
ATOM     72  F   UNL A   1      37.613  28.461  32.171  1.00  0.00    -0.200 F 
ATOM     73  C   UNL A   1      37.126  29.206  29.984  1.00  0.00     0.200 A 
ATOM     74  F   UNL A   1      36.681  29.928  27.779  1.00  0.00    -0.200 F 
ATOM     75  F   UNL A   1      35.854  29.443  30.332  1.00  0.00    -0.200 F 
ENDBRANCH  51  65
BRANCH  52  76
ATOM     76  C   UNL A   1      49.084  26.709  26.196  1.00  0.00     0.064 A 
ATOM     77  C   UNL A   1      50.059  26.189  27.060  1.00  0.00     0.173 A 
ATOM     78  C   UNL A   1      49.458  26.966  24.870  1.00  0.00     0.173 A 
ATOM     79  F   UNL A   1      49.754  25.947  28.344  1.00  0.00    -0.203 F 
ATOM     80  C   UNL A   1      51.360  25.958  26.621  1.00  0.00     0.198 A 
ATOM     81  C   UNL A   1      50.753  26.708  24.425  1.00  0.00     0.198 A 
ATOM     82  F   UNL A   1      48.562  27.460  24.002  1.00  0.00    -0.203 F 
ATOM     83  F   UNL A   1      52.284  25.504  27.480  1.00  0.00    -0.200 F 
ATOM     84  C   UNL A   1      51.705  26.213  25.303  1.00  0.00     0.200 A 
ATOM     85  F   UNL A   1      51.080  26.944  23.147  1.00  0.00    -0.200 F 
ATOM     86  F   UNL A   1      52.957  25.988  24.880  1.00  0.00    -0.200 F 
ENDBRANCH  52  76
BRANCH  64  87
ATOM     87  C   UNL A   1      45.956  32.382  28.755  1.00  0.00     0.064 A 
ATOM     88  C   UNL A   1      46.540  32.708  29.988  1.00  0.00     0.173 A 
ATOM     89  C   UNL A   1      45.886  33.384  27.775  1.00  0.00     0.173 A 
ATOM     90  F   UNL A   1      46.616  31.789  30.962  1.00  0.00    -0.203 F 
ATOM     91  C   UNL A   1      47.018  33.992  30.235  1.00  0.00     0.198 A 
ATOM     92  C   UNL A   1      46.390  34.658  28.015  1.00  0.00     0.198 A 
ATOM     93  F   UNL A   1      45.341  33.120  26.577  1.00  0.00    -0.203 F 
ATOM     94  F   UNL A   1      47.535  34.293  31.434  1.00  0.00    -0.200 F 
ATOM     95  C   UNL A   1      46.950  34.963  29.246  1.00  0.00     0.200 A 
ATOM     96  F   UNL A   1      46.334  35.592  27.055  1.00  0.00    -0.200 F 
ATOM     97  F   UNL A   1      47.418  36.196  29.483  1.00  0.00    -0.200 F 
ENDBRANCH  64  87
ENDBRANCH  38  39
ENDBRANCH  30  33
ENDBRANCH  28  29
ENDBRANCH  27  28
ENDBRANCH  26  27
ENDBRANCH   1  26
TORSDOF 17
ENDMDL
MODEL 2
REMARK VINA RESULT:     -11.8      5.590      9.728
REMARK SMILES CSCc1ccc(C(=O)N[C@@H](Cc2cnc[nH]2)C(=O)NCCCCNC(=O)c2ccc(-c3c4nc(c(-c5c(F)c(F)c(F)c(F)c5F)c5ccc([nH]5)c(-c5c(F)c(F)c(F)c(F)c5F)c5nc(c(-c6c(F)c(F)c(F)c(F)c6F)c6ccc3[nH]6)C=C5)C=C4)cc2)o1
REMARK SMILES IDX 21 1 20 2 18 3 19 4 11 6 10 7 8 8 9 9 7 11 4 12 5 13 91 14
REMARK SMILES IDX 6 15 3 16 2 17 1 18 12 19 13 20 14 21 17 22 15 23 16 24
REMARK SMILES IDX 22 26 23 27 24 28 25 29 26 30 27 32 28 33 29 34 90 35 30 36
REMARK SMILES IDX 89 37 31 38 32 39 33 40 83 41 34 42 88 43 82 44 84 45 35 46
REMARK SMILES IDX 87 47 81 48 80 49 36 51 68 52 48 53 67 54 49 55 52 56 66 57
REMARK SMILES IDX 85 58 50 59 51 60 65 62 86 63 53 64 37 65 38 66 46 67 39 68
REMARK SMILES IDX 40 69 44 70 47 71 41 72 42 73 45 74 43 75 69 76 70 77 78 78
REMARK SMILES IDX 71 79 72 80 76 81 79 82 73 83 74 84 77 85 75 86 54 87 55 88
REMARK SMILES IDX 63 89 56 90 57 91 61 92 64 93 58 94 59 95 62 96 60 97
REMARK H PARENT 20 5 10 10 17 25 25 31 84 50 52 61
REMARK Flexibility Score: inf
ROOT
ATOM      1  C   UNL A   1      32.173  29.850  25.544  1.00  0.00     0.116 C 
ENDROOT
BRANCH   1   2
ATOM      2  N   UNL A   1      31.182  29.989  24.500  1.00  0.00    -0.354 N 
ATOM      3  C   UNL A   1      30.442  29.029  23.874  1.00  0.00     0.242 C 
ATOM      4  O   UNL A   1      29.380  29.393  23.358  1.00  0.00    -0.273 OA
ATOM      5  H   UNL A   1      31.018  30.911  24.197  1.00  0.00     0.163 HD
BRANCH   3   6
ATOM      6  C   UNL A   1      30.831  27.532  23.846  1.00  0.00     0.177 C 
BRANCH   6   7
ATOM      7  N   UNL A   1      30.065  26.709  24.782  1.00  0.00    -0.337 N 
ATOM      8  C   UNL A   1      30.446  25.815  25.754  1.00  0.00     0.287 C 
ATOM      9  O   UNL A   1      29.520  25.473  26.499  1.00  0.00    -0.266 OA
ATOM     10  H   UNL A   1      29.091  26.816  24.700  1.00  0.00     0.164 HD
BRANCH   8  11
ATOM     11  C   UNL A   1      31.792  25.278  25.890  1.00  0.00     0.191 A 
ATOM     12  C   UNL A   1      33.172  23.544  26.122  1.00  0.00     0.114 A 
ATOM     13  C   UNL A   1      33.968  24.655  25.991  1.00  0.00     0.047 A 
ATOM     14  O   UNL A   1      31.864  23.915  26.097  1.00  0.00    -0.455 OA
ATOM     15  C   UNL A   1      33.091  25.758  25.832  1.00  0.00     0.056 A 
BRANCH  12  16
ATOM     16  C   UNL A   1      33.467  22.100  26.297  1.00  0.00     0.144 C 
BRANCH  16  17
ATOM     17  S   UNL A   1      33.592  21.213  24.712  1.00  0.00    -0.157 SA
ATOM     18  C   UNL A   1      35.144  20.322  25.003  1.00  0.00     0.085 C 
ENDBRANCH  16  17
ENDBRANCH  12  16
ENDBRANCH   8  11
ENDBRANCH   6   7
BRANCH   6  19
ATOM     19  C   UNL A   1      30.995  26.893  22.454  1.00  0.00     0.090 C 
BRANCH  19  20
ATOM     20  C   UNL A   1      32.003  25.804  22.314  1.00  0.00     0.037 A 
ATOM     21  C   UNL A   1      33.375  25.859  22.166  1.00  0.00     0.134 A 
ATOM     22  N   UNL A   1      31.718  24.460  22.381  1.00  0.00    -0.348 N 
ATOM     23  N   UNL A   1      33.898  24.603  22.016  1.00  0.00    -0.245 NA
ATOM     24  C   UNL A   1      32.886  23.781  22.159  1.00  0.00     0.196 A 
ATOM     25  H   UNL A   1      30.836  24.060  22.556  1.00  0.00     0.167 HD
ENDBRANCH  19  20
ENDBRANCH   6  19
ENDBRANCH   3   6
ENDBRANCH   1   2
BRANCH   1  26
ATOM     26  C   UNL A   1      31.776  30.465  26.877  1.00  0.00     0.023 C 
BRANCH  26  27
ATOM     27  C   UNL A   1      31.581  31.979  26.857  1.00  0.00     0.023 C 
BRANCH  27  28
ATOM     28  C   UNL A   1      32.791  32.815  27.271  1.00  0.00     0.116 C 
BRANCH  28  29
ATOM     29  N   UNL A   1      32.465  34.191  27.626  1.00  0.00    -0.352 N 
ATOM     30  C   UNL A   1      33.012  34.993  28.604  1.00  0.00     0.251 C 
ATOM     31  H   UNL A   1      31.751  34.605  27.090  1.00  0.00     0.163 HD
ATOM     32  O   UNL A   1      32.538  36.092  28.852  1.00  0.00    -0.269 OA
BRANCH  30  33
ATOM     33  C   UNL A   1      34.162  34.489  29.383  1.00  0.00     0.039 A 
ATOM     34  C   UNL A   1      33.928  33.859  30.607  1.00  0.00     0.014 A 
ATOM     35  C   UNL A   1      35.458  34.585  28.871  1.00  0.00     0.014 A 
ATOM     36  C   UNL A   1      34.986  33.228  31.267  1.00  0.00     0.010 A 
ATOM     37  C   UNL A   1      36.491  33.886  29.485  1.00  0.00     0.010 A 
ATOM     38  C   UNL A   1      36.262  33.188  30.682  1.00  0.00    -0.014 A 
BRANCH  38  39
ATOM     39  C   UNL A   1      37.367  32.401  31.286  1.00  0.00     0.031 A 
ATOM     40  C   UNL A   1      37.872  32.740  32.659  1.00  0.00     0.074 A 
ATOM     41  C   UNL A   1      37.979  31.443  30.560  1.00  0.00     0.049 A 
ATOM     42  N   UNL A   1      38.891  32.242  33.315  1.00  0.00    -0.248 NA
ATOM     43  C   UNL A   1      37.157  33.805  33.381  1.00  0.00     0.031 C 
ATOM     44  C   UNL A   1      37.624  31.061  29.192  1.00  0.00     0.029 A 
ATOM     45  N   UNL A   1      39.040  30.627  30.866  1.00  0.00    -0.354 N 
ATOM     46  C   UNL A   1      38.950  32.946  34.510  1.00  0.00     0.074 A 
ATOM     47  C   UNL A   1      37.899  33.940  34.470  1.00  0.00     0.031 C 
ATOM     48  C   UNL A   1      38.437  30.072  28.786  1.00  0.00     0.029 A 
ATOM     49  C   UNL A   1      39.394  29.777  29.847  1.00  0.00     0.049 A 
ATOM     50  H   UNL A   1      39.503  30.649  31.735  1.00  0.00     0.167 HD
ATOM     51  C   UNL A   1      39.789  32.763  35.557  1.00  0.00     0.037 A 
ATOM     52  C   UNL A   1      40.384  28.867  29.774  1.00  0.00     0.037 A 
ATOM     53  C   UNL A   1      40.809  31.750  35.610  1.00  0.00     0.049 A 
ATOM     54  C   UNL A   1      41.293  28.673  30.957  1.00  0.00     0.074 A 
ATOM     55  C   UNL A   1      41.661  31.437  36.655  1.00  0.00     0.029 A 
ATOM     56  N   UNL A   1      41.115  30.883  34.571  1.00  0.00    -0.354 N 
ATOM     57  N   UNL A   1      41.292  29.295  32.111  1.00  0.00    -0.248 NA
ATOM     58  C   UNL A   1      42.340  27.649  30.829  1.00  0.00     0.031 C 
ATOM     59  C   UNL A   1      42.508  30.407  36.234  1.00  0.00     0.029 A 
ATOM     60  C   UNL A   1      42.155  30.047  34.944  1.00  0.00     0.049 A 
ATOM     61  H   UNL A   1      40.659  30.865  33.698  1.00  0.00     0.167 HD
ATOM     62  C   UNL A   1      42.314  28.720  32.855  1.00  0.00     0.074 A 
ATOM     63  C   UNL A   1      42.906  27.691  32.027  1.00  0.00     0.031 C 
ATOM     64  C   UNL A   1      42.725  29.020  34.111  1.00  0.00     0.037 A 
BRANCH  51  65
ATOM     65  C   UNL A   1      39.631  33.673  36.738  1.00  0.00     0.064 A 
ATOM     66  C   UNL A   1      40.284  34.914  36.802  1.00  0.00     0.173 A 
ATOM     67  C   UNL A   1      38.789  33.319  37.804  1.00  0.00     0.173 A 
ATOM     68  F   UNL A   1      41.110  35.294  35.815  1.00  0.00    -0.203 F 
ATOM     69  C   UNL A   1      40.123  35.753  37.902  1.00  0.00     0.198 A 
ATOM     70  C   UNL A   1      38.606  34.174  38.887  1.00  0.00     0.198 A 
ATOM     71  F   UNL A   1      38.136  32.148  37.789  1.00  0.00    -0.203 F 
ATOM     72  F   UNL A   1      40.794  36.911  37.962  1.00  0.00    -0.200 F 
ATOM     73  C   UNL A   1      39.279  35.387  38.939  1.00  0.00     0.200 A 
ATOM     74  F   UNL A   1      37.781  33.825  39.884  1.00  0.00    -0.200 F 
ATOM     75  F   UNL A   1      39.118  36.199  39.993  1.00  0.00    -0.200 F 
ENDBRANCH  51  65
BRANCH  52  76
ATOM     76  C   UNL A   1      40.553  28.047  28.545  1.00  0.00     0.064 A 
ATOM     77  C   UNL A   1      39.946  26.788  28.434  1.00  0.00     0.173 A 
ATOM     78  C   UNL A   1      41.326  28.497  27.466  1.00  0.00     0.173 A 
ATOM     79  F   UNL A   1      39.214  26.306  29.450  1.00  0.00    -0.203 F 
ATOM     80  C   UNL A   1      40.124  26.001  27.299  1.00  0.00     0.198 A 
ATOM     81  C   UNL A   1      41.482  27.719  26.320  1.00  0.00     0.198 A 
ATOM     82  F   UNL A   1      41.925  29.695  27.521  1.00  0.00    -0.203 F 
ATOM     83  F   UNL A   1      39.570  24.781  27.237  1.00  0.00    -0.200 F 
ATOM     84  C   UNL A   1      40.888  26.469  26.240  1.00  0.00     0.200 A 
ATOM     85  F   UNL A   1      42.209  28.180  25.293  1.00  0.00    -0.200 F 
ATOM     86  F   UNL A   1      41.058  25.712  25.147  1.00  0.00    -0.200 F 
ENDBRANCH  52  76
BRANCH  64  87
ATOM     87  C   UNL A   1      43.846  28.204  34.681  1.00  0.00     0.064 A 
ATOM     88  C   UNL A   1      43.609  26.993  35.348  1.00  0.00     0.173 A 
ATOM     89  C   UNL A   1      45.178  28.615  34.517  1.00  0.00     0.173 A 
ATOM     90  F   UNL A   1      42.353  26.565  35.543  1.00  0.00    -0.203 F 
ATOM     91  C   UNL A   1      44.663  26.234  35.848  1.00  0.00     0.198 A 
ATOM     92  C   UNL A   1      46.231  27.841  34.993  1.00  0.00     0.198 A 
ATOM     93  F   UNL A   1      45.456  29.763  33.882  1.00  0.00    -0.203 F 
ATOM     94  F   UNL A   1      44.413  25.102  36.518  1.00  0.00    -0.200 F 
ATOM     95  C   UNL A   1      45.973  26.655  35.664  1.00  0.00     0.200 A 
ATOM     96  F   UNL A   1      47.495  28.242  34.804  1.00  0.00    -0.200 F 
ATOM     97  F   UNL A   1      46.987  25.919  36.138  1.00  0.00    -0.200 F 
ENDBRANCH  64  87
ENDBRANCH  38  39
ENDBRANCH  30  33
ENDBRANCH  28  29
ENDBRANCH  27  28
ENDBRANCH  26  27
ENDBRANCH   1  26
TORSDOF 17
ENDMDL
MODEL 3
REMARK VINA RESULT:     -11.7      5.759     10.958
REMARK SMILES CSCc1ccc(C(=O)N[C@@H](Cc2cnc[nH]2)C(=O)NCCCCNC(=O)c2ccc(-c3c4nc(c(-c5c(F)c(F)c(F)c(F)c5F)c5ccc([nH]5)c(-c5c(F)c(F)c(F)c(F)c5F)c5nc(c(-c6c(F)c(F)c(F)c(F)c6F)c6ccc3[nH]6)C=C5)C=C4)cc2)o1
REMARK SMILES IDX 21 1 20 2 18 3 19 4 11 6 10 7 8 8 9 9 7 11 4 12 5 13 91 14
REMARK SMILES IDX 6 15 3 16 2 17 1 18 12 19 13 20 14 21 17 22 15 23 16 24
REMARK SMILES IDX 22 26 23 27 24 28 25 29 26 30 27 32 28 33 29 34 90 35 30 36
REMARK SMILES IDX 89 37 31 38 32 39 33 40 83 41 34 42 88 43 82 44 84 45 35 46
REMARK SMILES IDX 87 47 81 48 80 49 36 51 68 52 48 53 67 54 49 55 52 56 66 57
REMARK SMILES IDX 85 58 50 59 51 60 65 62 86 63 53 64 37 65 38 66 46 67 39 68
REMARK SMILES IDX 40 69 44 70 47 71 41 72 42 73 45 74 43 75 69 76 70 77 78 78
REMARK SMILES IDX 71 79 72 80 76 81 79 82 73 83 74 84 77 85 75 86 54 87 55 88
REMARK SMILES IDX 63 89 56 90 57 91 61 92 64 93 58 94 59 95 62 96 60 97
REMARK H PARENT 20 5 10 10 17 25 25 31 84 50 52 61
REMARK Flexibility Score: inf
ROOT
ATOM      1  C   UNL A   1      32.435  29.619  25.596  1.00  0.00     0.116 C 
ENDROOT
BRANCH   1   2
ATOM      2  N   UNL A   1      31.480  29.932  24.556  1.00  0.00    -0.354 N 
ATOM      3  C   UNL A   1      30.638  29.102  23.876  1.00  0.00     0.242 C 
ATOM      4  O   UNL A   1      29.632  29.619  23.375  1.00  0.00    -0.273 OA
ATOM      5  H   UNL A   1      31.430  30.882  24.303  1.00  0.00     0.163 HD
BRANCH   3   6
ATOM      6  C   UNL A   1      30.845  27.573  23.767  1.00  0.00     0.177 C 
BRANCH   6   7
ATOM      7  N   UNL A   1      30.171  26.813  24.818  1.00  0.00    -0.337 N 
ATOM      8  C   UNL A   1      30.637  25.954  25.785  1.00  0.00     0.287 C 
ATOM      9  O   UNL A   1      29.791  25.670  26.641  1.00  0.00    -0.266 OA
ATOM     10  H   UNL A   1      29.195  26.941  24.837  1.00  0.00     0.164 HD
BRANCH   8  11
ATOM     11  C   UNL A   1      31.979  25.390  25.799  1.00  0.00     0.191 A 
ATOM     12  C   UNL A   1      33.357  23.661  25.525  1.00  0.00     0.114 A 
ATOM     13  C   UNL A   1      34.152  24.749  25.790  1.00  0.00     0.047 A 
ATOM     14  O   UNL A   1      32.049  24.032  25.564  1.00  0.00    -0.455 OA
ATOM     15  C   UNL A   1      33.276  25.852  25.953  1.00  0.00     0.056 A 
BRANCH  12  16
ATOM     16  C   UNL A   1      33.652  22.234  25.243  1.00  0.00     0.144 C 
BRANCH  16  17
ATOM     17  S   UNL A   1      32.148  21.212  25.150  1.00  0.00    -0.157 SA
ATOM     18  C   UNL A   1      32.577  20.200  23.709  1.00  0.00     0.085 C 
ENDBRANCH  16  17
ENDBRANCH  12  16
ENDBRANCH   8  11
ENDBRANCH   6   7
BRANCH   6  19
ATOM     19  C   UNL A   1      30.688  26.959  22.363  1.00  0.00     0.090 C 
BRANCH  19  20
ATOM     20  C   UNL A   1      31.666  25.909  21.961  1.00  0.00     0.037 A 
ATOM     21  C   UNL A   1      32.687  25.936  21.031  1.00  0.00     0.134 A 
ATOM     22  N   UNL A   1      31.763  24.666  22.541  1.00  0.00    -0.348 N 
ATOM     23  N   UNL A   1      33.303  24.716  20.950  1.00  0.00    -0.245 NA
ATOM     24  C   UNL A   1      32.738  23.975  21.873  1.00  0.00     0.196 A 
ATOM     25  H   UNL A   1      31.230  24.333  23.298  1.00  0.00     0.167 HD
ENDBRANCH  19  20
ENDBRANCH   6  19
ENDBRANCH   3   6
ENDBRANCH   1   2
BRANCH   1  26
ATOM     26  C   UNL A   1      32.127  30.246  26.946  1.00  0.00     0.023 C 
BRANCH  26  27
ATOM     27  C   UNL A   1      31.835  31.744  26.912  1.00  0.00     0.023 C 
BRANCH  27  28
ATOM     28  C   UNL A   1      32.954  32.656  27.410  1.00  0.00     0.116 C 
BRANCH  28  29
ATOM     29  N   UNL A   1      32.528  34.024  27.674  1.00  0.00    -0.352 N 
ATOM     30  C   UNL A   1      33.011  34.927  28.597  1.00  0.00     0.251 C 
ATOM     31  H   UNL A   1      31.788  34.350  27.113  1.00  0.00     0.163 HD
ATOM     32  O   UNL A   1      32.458  36.002  28.773  1.00  0.00    -0.269 OA
BRANCH  30  33
ATOM     33  C   UNL A   1      34.192  34.559  29.406  1.00  0.00     0.039 A 
ATOM     34  C   UNL A   1      34.001  34.023  30.681  1.00  0.00     0.014 A 
ATOM     35  C   UNL A   1      35.479  34.689  28.877  1.00  0.00     0.014 A 
ATOM     36  C   UNL A   1      35.096  33.515  31.383  1.00  0.00     0.010 A 
ATOM     37  C   UNL A   1      36.553  34.106  29.540  1.00  0.00     0.010 A 
ATOM     38  C   UNL A   1      36.371  33.500  30.793  1.00  0.00    -0.014 A 
BRANCH  38  39
ATOM     39  C   UNL A   1      37.523  32.834  31.452  1.00  0.00     0.031 A 
ATOM     40  C   UNL A   1      38.197  31.666  30.791  1.00  0.00     0.074 A 
ATOM     41  C   UNL A   1      37.901  33.220  32.687  1.00  0.00     0.049 A 
ATOM     42  N   UNL A   1      39.147  30.888  31.249  1.00  0.00    -0.248 NA
ATOM     43  C   UNL A   1      37.719  31.301  29.448  1.00  0.00     0.031 C 
ATOM     44  C   UNL A   1      37.286  34.300  33.462  1.00  0.00     0.029 A 
ATOM     45  N   UNL A   1      38.883  32.737  33.517  1.00  0.00    -0.354 N 
ATOM     46  C   UNL A   1      39.361  29.935  30.263  1.00  0.00     0.074 A 
ATOM     47  C   UNL A   1      38.410  30.197  29.205  1.00  0.00     0.031 C 
ATOM     48  C   UNL A   1      37.918  34.411  34.641  1.00  0.00     0.029 A 
ATOM     49  C   UNL A   1      38.955  33.388  34.724  1.00  0.00     0.049 A 
ATOM     50  H   UNL A   1      39.479  31.994  33.268  1.00  0.00     0.167 HD
ATOM     51  C   UNL A   1      40.284  28.945  30.233  1.00  0.00     0.037 A 
ATOM     52  C   UNL A   1      39.761  33.177  35.782  1.00  0.00     0.037 A 
ATOM     53  C   UNL A   1      41.253  28.708  31.270  1.00  0.00     0.049 A 
ATOM     54  C   UNL A   1      40.788  32.080  35.716  1.00  0.00     0.074 A 
ATOM     55  C   UNL A   1      42.277  27.778  31.298  1.00  0.00     0.029 A 
ATOM     56  N   UNL A   1      41.318  29.412  32.464  1.00  0.00    -0.354 N 
ATOM     57  N   UNL A   1      41.031  31.231  34.747  1.00  0.00    -0.248 NA
ATOM     58  C   UNL A   1      41.657  31.913  36.890  1.00  0.00     0.031 C 
ATOM     59  C   UNL A   1      42.937  27.892  32.526  1.00  0.00     0.029 A 
ATOM     60  C   UNL A   1      42.353  28.923  33.243  1.00  0.00     0.049 A 
ATOM     61  H   UNL A   1      40.717  30.150  32.718  1.00  0.00     0.167 HD
ATOM     62  C   UNL A   1      42.094  30.450  35.180  1.00  0.00     0.074 A 
ATOM     63  C   UNL A   1      42.460  30.935  36.495  1.00  0.00     0.031 C 
ATOM     64  C   UNL A   1      42.711  29.424  34.545  1.00  0.00     0.037 A 
BRANCH  51  65
ATOM     65  C   UNL A   1      40.297  28.047  29.031  1.00  0.00     0.064 A 
ATOM     66  C   UNL A   1      41.042  28.365  27.885  1.00  0.00     0.173 A 
ATOM     67  C   UNL A   1      39.587  26.837  29.037  1.00  0.00     0.173 A 
ATOM     68  F   UNL A   1      41.729  29.517  27.824  1.00  0.00    -0.203 F 
ATOM     69  C   UNL A   1      41.052  27.520  26.778  1.00  0.00     0.198 A 
ATOM     70  C   UNL A   1      39.623  25.980  27.940  1.00  0.00     0.198 A 
ATOM     71  F   UNL A   1      38.865  26.482  30.109  1.00  0.00    -0.203 F 
ATOM     72  F   UNL A   1      41.732  27.869  25.678  1.00  0.00    -0.200 F 
ATOM     73  C   UNL A   1      40.350  26.325  26.810  1.00  0.00     0.200 A 
ATOM     74  F   UNL A   1      38.955  24.818  27.976  1.00  0.00    -0.200 F 
ATOM     75  F   UNL A   1      40.367  25.508  25.748  1.00  0.00    -0.200 F 
ENDBRANCH  51  65
BRANCH  52  76
ATOM     76  C   UNL A   1      39.651  34.042  36.986  1.00  0.00     0.064 A 
ATOM     77  C   UNL A   1      40.345  35.257  37.063  1.00  0.00     0.173 A 
ATOM     78  C   UNL A   1      38.861  33.670  38.083  1.00  0.00     0.173 A 
ATOM     79  F   UNL A   1      41.132  35.644  36.047  1.00  0.00    -0.203 F 
ATOM     80  C   UNL A   1      40.272  36.057  38.200  1.00  0.00     0.198 A 
ATOM     81  C   UNL A   1      38.766  34.486  39.209  1.00  0.00     0.198 A 
ATOM     82  F   UNL A   1      38.173  32.519  38.058  1.00  0.00    -0.203 F 
ATOM     83  F   UNL A   1      40.982  37.192  38.266  1.00  0.00    -0.200 F 
ATOM     84  C   UNL A   1      39.478  35.674  39.271  1.00  0.00     0.200 A 
ATOM     85  F   UNL A   1      37.988  34.118  40.237  1.00  0.00    -0.200 F 
ATOM     86  F   UNL A   1      39.405  36.446  40.364  1.00  0.00    -0.200 F 
ENDBRANCH  52  76
BRANCH  64  87
ATOM     87  C   UNL A   1      43.867  28.776  35.248  1.00  0.00     0.064 A 
ATOM     88  C   UNL A   1      43.687  27.677  36.101  1.00  0.00     0.173 A 
ATOM     89  C   UNL A   1      45.176  29.231  35.028  1.00  0.00     0.173 A 
ATOM     90  F   UNL A   1      42.453  27.215  36.354  1.00  0.00    -0.203 F 
ATOM     91  C   UNL A   1      44.773  27.071  36.724  1.00  0.00     0.198 A 
ATOM     92  C   UNL A   1      46.262  28.605  35.630  1.00  0.00     0.198 A 
ATOM     93  F   UNL A   1      45.400  30.276  34.216  1.00  0.00    -0.203 F 
ATOM     94  F   UNL A   1      44.576  26.049  37.567  1.00  0.00    -0.200 F 
ATOM     95  C   UNL A   1      46.060  27.531  36.482  1.00  0.00     0.200 A 
ATOM     96  F   UNL A   1      47.506  29.042  35.387  1.00  0.00    -0.200 F 
ATOM     97  F   UNL A   1      47.106  26.940  37.077  1.00  0.00    -0.200 F 
ENDBRANCH  64  87
ENDBRANCH  38  39
ENDBRANCH  30  33
ENDBRANCH  28  29
ENDBRANCH  27  28
ENDBRANCH  26  27
ENDBRANCH   1  26
TORSDOF 17
ENDMDL
