MODEL 1
REMARK VINA RESULT:     -15.2      0.000      0.000
REMARK SMILES Cc1c(NC(=O)c2cccc(-c3cc4ccccc4oc3=O)c2)cccc1C(=O)NCCCCNC(=O)c1ccc(-c2c3nc(c(-c4c(F)c(F)c(F)c(F)c4F)c4ccc([nH]4)c(-c4c(F)c(F)c(F)c(F)c4F)c4nc(c(-c5c(F)c(F)c(F)c(F)c5F)c5ccc2[nH]5)C=C4)C=C3)cc1
REMARK SMILES IDX 32 1 31 2 30 3 28 4 29 5 27 7 1 8 2 9 3 10 24 11 26 12 25 13
REMARK SMILES IDX 4 14 5 15 6 17 7 18 8 19 23 20 9 21 11 22 10 23 12 24 13 25
REMARK SMILES IDX 21 26 14 27 20 28 22 29 15 30 19 31 16 32 18 33 17 34 33 35
REMARK SMILES IDX 34 36 35 37 36 38 37 40 38 41 39 42 100 43 40 44 99 45 41 46
REMARK SMILES IDX 42 47 43 48 93 49 44 50 98 51 92 52 94 53 45 54 97 55 91 56
REMARK SMILES IDX 90 57 46 59 78 60 58 61 77 62 59 63 62 64 76 65 95 66 60 67
REMARK SMILES IDX 61 68 75 70 96 71 63 72 47 73 48 74 56 75 49 76 50 77 54 78
REMARK SMILES IDX 57 79 51 80 52 81 55 82 53 83 79 84 80 85 88 86 81 87 82 88
REMARK SMILES IDX 86 89 89 90 83 91 84 92 87 93 85 94 64 95 65 96 73 97 66 98
REMARK SMILES IDX 67 99 71 100 74 101 68 102 69 103 72 104 70 105
REMARK H PARENT 30 6 4 16 35 39 94 58 62 69
REMARK Flexibility Score: inf
ROOT
ATOM      1  C   UNL A   1      31.532  31.915  26.511  1.00  0.00     0.023 C 
ENDROOT
BRANCH   1   2
ATOM      2  C   UNL A   1      31.796  30.398  26.493  1.00  0.00     0.116 C 
BRANCH   2   3
ATOM      3  N   UNL A   1      32.411  29.971  25.252  1.00  0.00    -0.352 N 
ATOM      4  C   UNL A   1      32.362  28.924  24.374  1.00  0.00     0.251 C 
ATOM      5  O   UNL A   1      33.150  29.093  23.429  1.00  0.00    -0.269 OA
ATOM      6  H   UNL A   1      33.065  30.641  24.948  1.00  0.00     0.163 HD
BRANCH   4   7
ATOM      7  C   UNL A   1      31.551  27.638  24.374  1.00  0.00     0.044 A 
ATOM      8  C   UNL A   1      31.253  27.133  26.875  1.00  0.00     0.047 C 
ATOM      9  C   UNL A   1      31.059  26.823  25.426  1.00  0.00    -0.015 A 
ATOM     10  C   UNL A   1      30.414  25.582  25.119  1.00  0.00     0.045 A 
ATOM     11  C   UNL A   1      30.261  25.150  23.803  1.00  0.00     0.026 A 
ATOM     12  C   UNL A   1      31.357  27.147  23.053  1.00  0.00     0.014 A 
ATOM     13  C   UNL A   1      30.737  25.930  22.767  1.00  0.00     0.003 A 
BRANCH  10  14
ATOM     14  N   UNL A   1      29.899  24.799  26.170  1.00  0.00    -0.322 N 
ATOM     15  C   UNL A   1      30.379  23.687  26.819  1.00  0.00     0.255 C 
ATOM     16  H   UNL A   1      29.025  25.108  26.505  1.00  0.00     0.170 HD
ATOM     17  O   UNL A   1      29.599  23.047  27.528  1.00  0.00    -0.269 OA
BRANCH  15  18
ATOM     18  C   UNL A   1      31.818  23.297  26.815  1.00  0.00     0.040 A 
ATOM     19  C   UNL A   1      32.296  22.555  27.900  1.00  0.00     0.014 A 
ATOM     20  C   UNL A   1      32.730  23.764  25.858  1.00  0.00     0.022 A 
ATOM     21  C   UNL A   1      33.651  22.244  28.001  1.00  0.00     0.001 A 
ATOM     22  C   UNL A   1      34.097  23.450  25.940  1.00  0.00    -0.010 A 
ATOM     23  C   UNL A   1      34.544  22.681  27.022  1.00  0.00     0.009 A 
BRANCH  22  24
ATOM     24  C   UNL A   1      35.123  24.001  25.012  1.00  0.00     0.068 A 
ATOM     25  C   UNL A   1      36.403  24.239  25.376  1.00  0.00     0.028 A 
ATOM     26  C   UNL A   1      35.081  23.397  23.640  1.00  0.00     0.344 A 
ATOM     27  C   UNL A   1      37.239  23.018  25.333  1.00  0.00     0.018 A 
ATOM     28  O   UNL A   1      35.806  22.207  23.538  1.00  0.00    -0.422 OA
ATOM     29  O   UNL A   1      34.397  23.854  22.734  1.00  0.00    -0.246 OA
ATOM     30  C   UNL A   1      38.353  22.844  26.147  1.00  0.00     0.012 A 
ATOM     31  C   UNL A   1      36.846  21.989  24.468  1.00  0.00     0.138 A 
ATOM     32  C   UNL A   1      39.025  21.621  26.126  1.00  0.00     0.001 A 
ATOM     33  C   UNL A   1      37.476  20.754  24.475  1.00  0.00     0.048 A 
ATOM     34  C   UNL A   1      38.569  20.571  25.318  1.00  0.00     0.004 A 
ENDBRANCH  22  24
ENDBRANCH  15  18
ENDBRANCH  10  14
ENDBRANCH   4   7
ENDBRANCH   2   3
ENDBRANCH   1   2
BRANCH   1  35
ATOM     35  C   UNL A   1      32.534  32.765  27.292  1.00  0.00     0.023 C 
BRANCH  35  36
ATOM     36  C   UNL A   1      33.693  31.954  27.846  1.00  0.00     0.116 C 
BRANCH  36  37
ATOM     37  N   UNL A   1      34.506  32.629  28.854  1.00  0.00    -0.352 N 
ATOM     38  C   UNL A   1      35.544  32.125  29.625  1.00  0.00     0.251 C 
ATOM     39  H   UNL A   1      34.287  33.575  29.009  1.00  0.00     0.163 HD
ATOM     40  O   UNL A   1      36.044  32.817  30.509  1.00  0.00    -0.269 OA
BRANCH  38  41
ATOM     41  C   UNL A   1      36.162  30.821  29.273  1.00  0.00     0.039 A 
ATOM     42  C   UNL A   1      36.387  29.908  30.310  1.00  0.00     0.014 A 
ATOM     43  C   UNL A   1      36.789  30.647  28.047  1.00  0.00     0.014 A 
ATOM     44  C   UNL A   1      37.472  29.043  30.227  1.00  0.00     0.010 A 
ATOM     45  C   UNL A   1      37.952  29.908  28.020  1.00  0.00     0.010 A 
ATOM     46  C   UNL A   1      38.339  29.171  29.144  1.00  0.00    -0.014 A 
BRANCH  46  47
ATOM     47  C   UNL A   1      39.726  28.718  29.169  1.00  0.00     0.031 A 
ATOM     48  C   UNL A   1      40.067  27.334  28.781  1.00  0.00     0.074 A 
ATOM     49  C   UNL A   1      40.706  29.621  29.401  1.00  0.00     0.049 A 
ATOM     50  N   UNL A   1      41.187  26.753  29.048  1.00  0.00    -0.248 NA
ATOM     51  C   UNL A   1      39.124  26.461  28.094  1.00  0.00     0.031 C 
ATOM     52  C   UNL A   1      42.135  29.470  29.136  1.00  0.00     0.029 A 
ATOM     53  N   UNL A   1      40.613  30.831  30.113  1.00  0.00    -0.354 N 
ATOM     54  C   UNL A   1      41.233  25.572  28.339  1.00  0.00     0.074 A 
ATOM     55  C   UNL A   1      39.891  25.396  27.846  1.00  0.00     0.031 C 
ATOM     56  C   UNL A   1      42.814  30.342  29.899  1.00  0.00     0.029 A 
ATOM     57  C   UNL A   1      41.850  30.972  30.784  1.00  0.00     0.049 A 
ATOM     58  H   UNL A   1      39.848  31.450  30.139  1.00  0.00     0.167 HD
ATOM     59  C   UNL A   1      42.447  24.972  28.150  1.00  0.00     0.037 A 
ATOM     60  C   UNL A   1      41.925  30.957  32.148  1.00  0.00     0.037 A 
ATOM     61  C   UNL A   1      43.474  25.624  28.970  1.00  0.00     0.049 A 
ATOM     62  C   UNL A   1      42.771  29.835  32.705  1.00  0.00     0.074 A 
ATOM     63  C   UNL A   1      44.476  26.537  28.681  1.00  0.00     0.029 A 
ATOM     64  N   UNL A   1      43.362  25.592  30.358  1.00  0.00    -0.354 N 
ATOM     65  N   UNL A   1      43.113  28.777  32.023  1.00  0.00    -0.248 NA
ATOM     66  C   UNL A   1      43.264  29.797  34.079  1.00  0.00     0.031 C 
ATOM     67  C   UNL A   1      44.916  27.107  29.904  1.00  0.00     0.029 A 
ATOM     68  C   UNL A   1      44.202  26.524  30.936  1.00  0.00     0.049 A 
ATOM     69  H   UNL A   1      42.767  24.988  30.858  1.00  0.00     0.167 HD
ATOM     70  C   UNL A   1      43.814  27.920  32.829  1.00  0.00     0.074 A 
ATOM     71  C   UNL A   1      43.903  28.613  34.100  1.00  0.00     0.031 C 
ATOM     72  C   UNL A   1      44.244  26.703  32.381  1.00  0.00     0.037 A 
BRANCH  59  73
ATOM     73  C   UNL A   1      42.780  24.003  27.020  1.00  0.00     0.064 A 
ATOM     74  C   UNL A   1      42.417  22.639  27.119  1.00  0.00     0.173 A 
ATOM     75  C   UNL A   1      43.532  24.306  25.868  1.00  0.00     0.173 A 
ATOM     76  F   UNL A   1      41.605  22.198  28.089  1.00  0.00    -0.203 F 
ATOM     77  C   UNL A   1      42.872  21.662  26.223  1.00  0.00     0.198 A 
ATOM     78  C   UNL A   1      44.015  23.329  24.990  1.00  0.00     0.198 A 
ATOM     79  F   UNL A   1      43.789  25.560  25.497  1.00  0.00    -0.203 F 
ATOM     80  F   UNL A   1      42.512  20.383  26.394  1.00  0.00    -0.200 F 
ATOM     81  C   UNL A   1      43.700  22.003  25.176  1.00  0.00     0.200 A 
ATOM     82  F   UNL A   1      44.789  23.694  23.957  1.00  0.00    -0.200 F 
ATOM     83  F   UNL A   1      44.167  21.069  24.338  1.00  0.00    -0.200 F 
ENDBRANCH  59  73
BRANCH  60  84
ATOM     84  C   UNL A   1      40.718  31.528  32.803  1.00  0.00     0.064 A 
ATOM     85  C   UNL A   1      40.585  32.929  32.842  1.00  0.00     0.173 A 
ATOM     86  C   UNL A   1      39.567  30.761  33.019  1.00  0.00     0.173 A 
ATOM     87  F   UNL A   1      41.657  33.709  32.632  1.00  0.00    -0.203 F 
ATOM     88  C   UNL A   1      39.337  33.535  32.970  1.00  0.00     0.198 A 
ATOM     89  C   UNL A   1      38.320  31.374  33.159  1.00  0.00     0.198 A 
ATOM     90  F   UNL A   1      39.624  29.423  32.964  1.00  0.00    -0.203 F 
ATOM     91  F   UNL A   1      39.231  34.868  32.882  1.00  0.00    -0.200 F 
ATOM     92  C   UNL A   1      38.201  32.755  33.100  1.00  0.00     0.200 A 
ATOM     93  F   UNL A   1      37.214  30.619  33.244  1.00  0.00    -0.200 F 
ATOM     94  F   UNL A   1      36.990  33.329  33.118  1.00  0.00    -0.200 F 
ENDBRANCH  60  84
BRANCH  72  95
ATOM     95  C   UNL A   1      44.812  25.597  33.236  1.00  0.00     0.064 A 
ATOM     96  C   UNL A   1      46.160  25.205  33.217  1.00  0.00     0.173 A 
ATOM     97  C   UNL A   1      44.015  24.989  34.237  1.00  0.00     0.173 A 
ATOM     98  F   UNL A   1      47.043  25.787  32.395  1.00  0.00    -0.203 F 
ATOM     99  C   UNL A   1      46.661  24.236  34.093  1.00  0.00     0.198 A 
ATOM    100  C   UNL A   1      44.531  24.067  35.146  1.00  0.00     0.198 A 
ATOM    101  F   UNL A   1      42.716  25.293  34.376  1.00  0.00    -0.203 F 
ATOM    102  F   UNL A   1      47.947  23.869  34.009  1.00  0.00    -0.200 F 
ATOM    103  C   UNL A   1      45.851  23.680  35.065  1.00  0.00     0.200 A 
ATOM    104  F   UNL A   1      43.745  23.577  36.115  1.00  0.00    -0.200 F 
ATOM    105  F   UNL A   1      46.348  22.789  35.933  1.00  0.00    -0.200 F 
ENDBRANCH  72  95
ENDBRANCH  46  47
ENDBRANCH  38  41
ENDBRANCH  36  37
ENDBRANCH  35  36
ENDBRANCH   1  35
TORSDOF 14
ENDMDL
MODEL 2
REMARK VINA RESULT:     -15.2      3.962     10.173
REMARK SMILES Cc1c(NC(=O)c2cccc(-c3cc4ccccc4oc3=O)c2)cccc1C(=O)NCCCCNC(=O)c1ccc(-c2c3nc(c(-c4c(F)c(F)c(F)c(F)c4F)c4ccc([nH]4)c(-c4c(F)c(F)c(F)c(F)c4F)c4nc(c(-c5c(F)c(F)c(F)c(F)c5F)c5ccc2[nH]5)C=C4)C=C3)cc1
REMARK SMILES IDX 32 1 31 2 30 3 28 4 29 5 27 7 1 8 2 9 3 10 24 11 26 12 25 13
REMARK SMILES IDX 4 14 5 15 6 17 7 18 8 19 23 20 9 21 11 22 10 23 12 24 13 25
REMARK SMILES IDX 21 26 14 27 20 28 22 29 15 30 19 31 16 32 18 33 17 34 33 35
REMARK SMILES IDX 34 36 35 37 36 38 37 40 38 41 39 42 100 43 40 44 99 45 41 46
REMARK SMILES IDX 42 47 43 48 93 49 44 50 98 51 92 52 94 53 45 54 97 55 91 56
REMARK SMILES IDX 90 57 46 59 78 60 58 61 77 62 59 63 62 64 76 65 95 66 60 67
REMARK SMILES IDX 61 68 75 70 96 71 63 72 47 73 48 74 56 75 49 76 50 77 54 78
REMARK SMILES IDX 57 79 51 80 52 81 55 82 53 83 79 84 80 85 88 86 81 87 82 88
REMARK SMILES IDX 86 89 89 90 83 91 84 92 87 93 85 94 64 95 65 96 73 97 66 98
REMARK SMILES IDX 67 99 71 100 74 101 68 102 69 103 72 104 70 105
REMARK H PARENT 30 6 4 16 35 39 94 58 62 69
REMARK Flexibility Score: inf
ROOT
ATOM      1  C   UNL A   1      43.446  19.120  25.326  1.00  0.00     0.023 C 
ENDROOT
BRANCH   1   2
ATOM      2  C   UNL A   1      42.529  19.170  26.563  1.00  0.00     0.116 C 
BRANCH   2   3
ATOM      3  N   UNL A   1      42.514  20.484  27.173  1.00  0.00    -0.352 N 
ATOM      4  C   UNL A   1      41.681  21.560  27.305  1.00  0.00     0.251 C 
ATOM      5  O   UNL A   1      42.216  22.463  27.969  1.00  0.00    -0.269 OA
ATOM      6  H   UNL A   1      43.367  20.654  27.635  1.00  0.00     0.163 HD
BRANCH   4   7
ATOM      7  C   UNL A   1      40.280  21.826  26.782  1.00  0.00     0.044 A 
ATOM      8  C   UNL A   1      39.581  19.559  25.797  1.00  0.00     0.047 C 
ATOM      9  C   UNL A   1      39.340  21.000  26.114  1.00  0.00    -0.015 A 
ATOM     10  C   UNL A   1      38.119  21.567  25.624  1.00  0.00     0.045 A 
ATOM     11  C   UNL A   1      37.832  22.921  25.784  1.00  0.00     0.026 A 
ATOM     12  C   UNL A   1      39.926  23.197  26.921  1.00  0.00     0.014 A 
ATOM     13  C   UNL A   1      38.738  23.740  26.429  1.00  0.00     0.003 A 
BRANCH  10  14
ATOM     14  N   UNL A   1      37.178  20.728  24.996  1.00  0.00    -0.322 N 
ATOM     15  C   UNL A   1      35.812  20.625  25.103  1.00  0.00     0.255 C 
ATOM     16  H   UNL A   1      37.576  20.093  24.356  1.00  0.00     0.170 HD
ATOM     17  O   UNL A   1      35.267  19.625  24.630  1.00  0.00    -0.269 OA
BRANCH  15  18
ATOM     18  C   UNL A   1      34.950  21.717  25.638  1.00  0.00     0.040 A 
ATOM     19  C   UNL A   1      34.603  21.670  26.992  1.00  0.00     0.014 A 
ATOM     20  C   UNL A   1      34.361  22.692  24.820  1.00  0.00     0.022 A 
ATOM     21  C   UNL A   1      33.723  22.608  27.530  1.00  0.00     0.001 A 
ATOM     22  C   UNL A   1      33.480  23.651  25.348  1.00  0.00    -0.010 A 
ATOM     23  C   UNL A   1      33.172  23.597  26.714  1.00  0.00     0.009 A 
BRANCH  22  24
ATOM     24  C   UNL A   1      32.749  24.642  24.512  1.00  0.00     0.068 A 
ATOM     25  C   UNL A   1      31.702  25.368  24.966  1.00  0.00     0.028 A 
ATOM     26  C   UNL A   1      33.646  25.500  23.671  1.00  0.00     0.344 A 
ATOM     27  C   UNL A   1      32.130  26.559  25.734  1.00  0.00     0.018 A 
ATOM     28  O   UNL A   1      34.135  26.619  24.351  1.00  0.00    -0.422 OA
ATOM     29  O   UNL A   1      33.989  25.192  22.538  1.00  0.00    -0.246 OA
ATOM     30  C   UNL A   1      31.351  27.124  26.737  1.00  0.00     0.012 A 
ATOM     31  C   UNL A   1      33.397  27.091  25.457  1.00  0.00     0.138 A 
ATOM     32  C   UNL A   1      31.872  28.178  27.489  1.00  0.00     0.001 A 
ATOM     33  C   UNL A   1      33.942  28.105  26.230  1.00  0.00     0.048 A 
ATOM     34  C   UNL A   1      33.173  28.644  27.258  1.00  0.00     0.004 A 
ENDBRANCH  22  24
ENDBRANCH  15  18
ENDBRANCH  10  14
ENDBRANCH   4   7
ENDBRANCH   2   3
ENDBRANCH   1   2
BRANCH   1  35
ATOM     35  C   UNL A   1      44.935  18.910  25.599  1.00  0.00     0.023 C 
BRANCH  35  36
ATOM     36  C   UNL A   1      45.823  19.832  24.782  1.00  0.00     0.116 C 
BRANCH  36  37
ATOM     37  N   UNL A   1      45.124  20.714  23.851  1.00  0.00    -0.352 N 
ATOM     38  C   UNL A   1      44.866  22.073  23.956  1.00  0.00     0.251 C 
ATOM     39  H   UNL A   1      44.789  20.283  23.033  1.00  0.00     0.163 HD
ATOM     40  O   UNL A   1      44.161  22.630  23.117  1.00  0.00    -0.269 OA
BRANCH  38  41
ATOM     41  C   UNL A   1      45.574  22.884  24.979  1.00  0.00     0.039 A 
ATOM     42  C   UNL A   1      45.366  22.558  26.325  1.00  0.00     0.014 A 
ATOM     43  C   UNL A   1      46.142  24.106  24.641  1.00  0.00     0.014 A 
ATOM     44  C   UNL A   1      45.411  23.567  27.280  1.00  0.00     0.010 A 
ATOM     45  C   UNL A   1      46.037  25.136  25.550  1.00  0.00     0.010 A 
ATOM     46  C   UNL A   1      45.588  24.879  26.849  1.00  0.00    -0.014 A 
BRANCH  46  47
ATOM     47  C   UNL A   1      45.168  26.042  27.626  1.00  0.00     0.031 A 
ATOM     48  C   UNL A   1      43.804  26.588  27.474  1.00  0.00     0.074 A 
ATOM     49  C   UNL A   1      45.987  26.513  28.594  1.00  0.00     0.049 A 
ATOM     50  N   UNL A   1      43.435  27.758  27.871  1.00  0.00    -0.248 NA
ATOM     51  C   UNL A   1      42.741  25.859  26.795  1.00  0.00     0.031 C 
ATOM     52  C   UNL A   1      45.640  27.414  29.690  1.00  0.00     0.029 A 
ATOM     53  N   UNL A   1      47.388  26.403  28.668  1.00  0.00    -0.354 N 
ATOM     54  C   UNL A   1      42.062  27.827  27.775  1.00  0.00     0.074 A 
ATOM     55  C   UNL A   1      41.696  26.662  27.011  1.00  0.00     0.031 C 
ATOM     56  C   UNL A   1      46.760  28.004  30.140  1.00  0.00     0.029 A 
ATOM     57  C   UNL A   1      47.834  27.614  29.244  1.00  0.00     0.049 A 
ATOM     58  H   UNL A   1      47.942  25.641  28.380  1.00  0.00     0.167 HD
ATOM     59  C   UNL A   1      41.407  28.798  28.481  1.00  0.00     0.037 A 
ATOM     60  C   UNL A   1      48.616  28.489  28.544  1.00  0.00     0.037 A 
ATOM     61  C   UNL A   1      42.364  29.752  29.050  1.00  0.00     0.049 A 
ATOM     62  C   UNL A   1      47.993  29.852  28.351  1.00  0.00     0.074 A 
ATOM     63  C   UNL A   1      42.886  29.924  30.323  1.00  0.00     0.029 A 
ATOM     64  N   UNL A   1      43.156  30.517  28.197  1.00  0.00    -0.354 N 
ATOM     65  N   UNL A   1      46.721  30.096  28.504  1.00  0.00    -0.248 NA
ATOM     66  C   UNL A   1      48.741  31.034  27.934  1.00  0.00     0.031 C 
ATOM     67  C   UNL A   1      44.041  30.741  30.218  1.00  0.00     0.029 A 
ATOM     68  C   UNL A   1      44.208  31.087  28.888  1.00  0.00     0.049 A 
ATOM     69  H   UNL A   1      42.989  30.636  27.234  1.00  0.00     0.167 HD
ATOM     70  C   UNL A   1      46.464  31.404  28.188  1.00  0.00     0.074 A 
ATOM     71  C   UNL A   1      47.764  31.956  27.859  1.00  0.00     0.031 C 
ATOM     72  C   UNL A   1      45.196  31.911  28.205  1.00  0.00     0.037 A 
BRANCH  59  73
ATOM     73  C   UNL A   1      39.945  28.732  28.912  1.00  0.00     0.064 A 
ATOM     74  C   UNL A   1      38.922  29.172  28.038  1.00  0.00     0.173 A 
ATOM     75  C   UNL A   1      39.477  28.352  30.185  1.00  0.00     0.173 A 
ATOM     76  F   UNL A   1      39.173  29.461  26.755  1.00  0.00    -0.203 F 
ATOM     77  C   UNL A   1      37.591  29.336  28.444  1.00  0.00     0.198 A 
ATOM     78  C   UNL A   1      38.154  28.544  30.603  1.00  0.00     0.198 A 
ATOM     79  F   UNL A   1      40.251  27.723  31.069  1.00  0.00    -0.203 F 
ATOM     80  F   UNL A   1      36.679  29.784  27.571  1.00  0.00    -0.200 F 
ATOM     81  C   UNL A   1      37.213  29.053  29.739  1.00  0.00     0.200 A 
ATOM     82  F   UNL A   1      37.807  28.226  31.859  1.00  0.00    -0.200 F 
ATOM     83  F   UNL A   1      35.951  29.241  30.142  1.00  0.00    -0.200 F 
ENDBRANCH  59  73
BRANCH  60  84
ATOM     84  C   UNL A   1      49.520  27.814  27.576  1.00  0.00     0.064 A 
ATOM     85  C   UNL A   1      50.741  27.301  28.055  1.00  0.00     0.173 A 
ATOM     86  C   UNL A   1      49.054  27.335  26.346  1.00  0.00     0.173 A 
ATOM     87  F   UNL A   1      51.227  27.720  29.234  1.00  0.00    -0.203 F 
ATOM     88  C   UNL A   1      51.402  26.268  27.393  1.00  0.00     0.198 A 
ATOM     89  C   UNL A   1      49.728  26.309  25.680  1.00  0.00     0.198 A 
ATOM     90  F   UNL A   1      47.883  27.763  25.852  1.00  0.00    -0.203 F 
ATOM     91  F   UNL A   1      52.498  25.720  27.938  1.00  0.00    -0.200 F 
ATOM     92  C   UNL A   1      50.879  25.753  26.220  1.00  0.00     0.200 A 
ATOM     93  F   UNL A   1      49.201  25.781  24.565  1.00  0.00    -0.200 F 
ATOM     94  F   UNL A   1      51.454  24.692  25.636  1.00  0.00    -0.200 F 
ENDBRANCH  60  84
BRANCH  72  95
ATOM     95  C   UNL A   1      44.773  33.252  27.657  1.00  0.00     0.064 A 
ATOM     96  C   UNL A   1      44.176  33.433  26.399  1.00  0.00     0.173 A 
ATOM     97  C   UNL A   1      44.823  34.405  28.478  1.00  0.00     0.173 A 
ATOM     98  F   UNL A   1      43.966  32.399  25.573  1.00  0.00    -0.203 F 
ATOM     99  C   UNL A   1      43.717  34.682  25.970  1.00  0.00     0.198 A 
ATOM    100  C   UNL A   1      44.311  35.636  28.071  1.00  0.00     0.198 A 
ATOM    101  F   UNL A   1      45.348  34.362  29.712  1.00  0.00    -0.203 F 
ATOM    102  F   UNL A   1      43.190  34.810  24.745  1.00  0.00    -0.200 F 
ATOM    103  C   UNL A   1      43.771  35.778  26.811  1.00  0.00     0.200 A 
ATOM    104  F   UNL A   1      44.324  36.675  28.918  1.00  0.00    -0.200 F 
ATOM    105  F   UNL A   1      43.285  36.962  26.414  1.00  0.00    -0.200 F 
ENDBRANCH  72  95
ENDBRANCH  46  47
ENDBRANCH  38  41
ENDBRANCH  36  37
ENDBRANCH  35  36
ENDBRANCH   1  35
TORSDOF 14
ENDMDL
MODEL 3
REMARK VINA RESULT:     -14.4      3.754      9.663
REMARK SMILES Cc1c(NC(=O)c2cccc(-c3cc4ccccc4oc3=O)c2)cccc1C(=O)NCCCCNC(=O)c1ccc(-c2c3nc(c(-c4c(F)c(F)c(F)c(F)c4F)c4ccc([nH]4)c(-c4c(F)c(F)c(F)c(F)c4F)c4nc(c(-c5c(F)c(F)c(F)c(F)c5F)c5ccc2[nH]5)C=C4)C=C3)cc1
REMARK SMILES IDX 32 1 31 2 30 3 28 4 29 5 27 7 1 8 2 9 3 10 24 11 26 12 25 13
REMARK SMILES IDX 4 14 5 15 6 17 7 18 8 19 23 20 9 21 11 22 10 23 12 24 13 25
REMARK SMILES IDX 21 26 14 27 20 28 22 29 15 30 19 31 16 32 18 33 17 34 33 35
REMARK SMILES IDX 34 36 35 37 36 38 37 40 38 41 39 42 100 43 40 44 99 45 41 46
REMARK SMILES IDX 42 47 43 48 93 49 44 50 98 51 92 52 94 53 45 54 97 55 91 56
REMARK SMILES IDX 90 57 46 59 78 60 58 61 77 62 59 63 62 64 76 65 95 66 60 67
REMARK SMILES IDX 61 68 75 70 96 71 63 72 47 73 48 74 56 75 49 76 50 77 54 78
REMARK SMILES IDX 57 79 51 80 52 81 55 82 53 83 79 84 80 85 88 86 81 87 82 88
REMARK SMILES IDX 86 89 89 90 83 91 84 92 87 93 85 94 64 95 65 96 73 97 66 98
REMARK SMILES IDX 67 99 71 100 74 101 68 102 69 103 72 104 70 105
REMARK H PARENT 30 6 4 16 35 39 94 58 62 69
REMARK Flexibility Score: inf
ROOT
ATOM      1  C   UNL A   1      40.514  21.399  27.096  1.00  0.00     0.023 C 
ENDROOT
BRANCH   1   2
ATOM      2  C   UNL A   1      39.379  21.615  26.077  1.00  0.00     0.116 C 
BRANCH   2   3
ATOM      3  N   UNL A   1      38.776  22.926  26.209  1.00  0.00    -0.352 N 
ATOM      4  C   UNL A   1      37.540  23.510  26.174  1.00  0.00     0.251 C 
ATOM      5  O   UNL A   1      37.618  24.736  26.360  1.00  0.00    -0.269 OA
ATOM      6  H   UNL A   1      39.470  23.605  26.374  1.00  0.00     0.163 HD
BRANCH   4   7
ATOM      7  C   UNL A   1      36.154  22.935  25.939  1.00  0.00     0.044 A 
ATOM      8  C   UNL A   1      36.146  22.433  23.420  1.00  0.00     0.047 C 
ATOM      9  C   UNL A   1      35.503  22.467  24.769  1.00  0.00    -0.015 A 
ATOM     10  C   UNL A   1      34.125  22.083  24.829  1.00  0.00     0.045 A 
ATOM     11  C   UNL A   1      33.400  22.162  26.017  1.00  0.00     0.026 A 
ATOM     12  C   UNL A   1      35.364  22.985  27.121  1.00  0.00     0.014 A 
ATOM     13  C   UNL A   1      34.018  22.619  27.165  1.00  0.00     0.003 A 
BRANCH  10  14
ATOM     14  N   UNL A   1      33.500  21.586  23.668  1.00  0.00    -0.322 N 
ATOM     15  C   UNL A   1      32.562  22.123  22.819  1.00  0.00     0.255 C 
ATOM     16  H   UNL A   1      33.792  20.680  23.417  1.00  0.00     0.170 HD
ATOM     17  O   UNL A   1      31.996  21.365  22.027  1.00  0.00    -0.269 OA
BRANCH  15  18
ATOM     18  C   UNL A   1      32.295  23.586  22.717  1.00  0.00     0.040 A 
ATOM     19  C   UNL A   1      33.126  24.344  21.885  1.00  0.00     0.014 A 
ATOM     20  C   UNL A   1      31.357  24.246  23.522  1.00  0.00     0.022 A 
ATOM     21  C   UNL A   1      32.989  25.730  21.822  1.00  0.00     0.001 A 
ATOM     22  C   UNL A   1      31.199  25.641  23.463  1.00  0.00    -0.010 A 
ATOM     23  C   UNL A   1      32.025  26.372  22.600  1.00  0.00     0.009 A 
BRANCH  22  24
ATOM     24  C   UNL A   1      30.293  26.403  24.365  1.00  0.00     0.068 A 
ATOM     25  C   UNL A   1      30.507  26.537  25.694  1.00  0.00     0.028 A 
ATOM     26  C   UNL A   1      29.818  27.702  23.786  1.00  0.00     0.344 A 
ATOM     27  C   UNL A   1      31.474  27.615  26.004  1.00  0.00     0.018 A 
ATOM     28  O   UNL A   1      30.710  28.758  23.993  1.00  0.00    -0.422 OA
ATOM     29  O   UNL A   1      28.798  27.797  23.116  1.00  0.00    -0.246 OA
ATOM     30  C   UNL A   1      32.273  27.599  27.142  1.00  0.00     0.012 A 
ATOM     31  C   UNL A   1      31.609  28.655  25.076  1.00  0.00     0.138 A 
ATOM     32  C   UNL A   1      33.237  28.595  27.309  1.00  0.00     0.001 A 
ATOM     33  C   UNL A   1      32.596  29.621  25.207  1.00  0.00     0.048 A 
ATOM     34  C   UNL A   1      33.419  29.582  26.330  1.00  0.00     0.004 A 
ENDBRANCH  22  24
ENDBRANCH  15  18
ENDBRANCH  10  14
ENDBRANCH   4   7
ENDBRANCH   2   3
ENDBRANCH   1   2
BRANCH   1  35
ATOM     35  C   UNL A   1      41.667  22.402  27.043  1.00  0.00     0.023 C 
BRANCH  35  36
ATOM     36  C   UNL A   1      42.155  22.668  25.630  1.00  0.00     0.116 C 
BRANCH  36  37
ATOM     37  N   UNL A   1      43.061  21.665  25.078  1.00  0.00    -0.352 N 
ATOM     38  C   UNL A   1      44.440  21.715  24.928  1.00  0.00     0.251 C 
ATOM     39  H   UNL A   1      42.633  20.835  24.769  1.00  0.00     0.163 HD
ATOM     40  O   UNL A   1      45.026  20.812  24.335  1.00  0.00    -0.269 OA
BRANCH  38  41
ATOM     41  C   UNL A   1      45.222  22.768  25.624  1.00  0.00     0.039 A 
ATOM     42  C   UNL A   1      45.426  22.621  27.002  1.00  0.00     0.014 A 
ATOM     43  C   UNL A   1      45.451  23.995  25.016  1.00  0.00     0.014 A 
ATOM     44  C   UNL A   1      45.525  23.758  27.796  1.00  0.00     0.010 A 
ATOM     45  C   UNL A   1      45.392  25.123  25.805  1.00  0.00     0.010 A 
ATOM     46  C   UNL A   1      45.342  25.002  27.197  1.00  0.00    -0.014 A 
BRANCH  46  47
ATOM     47  C   UNL A   1      44.926  26.193  27.931  1.00  0.00     0.031 A 
ATOM     48  C   UNL A   1      43.557  26.726  27.776  1.00  0.00     0.074 A 
ATOM     49  C   UNL A   1      45.755  26.707  28.868  1.00  0.00     0.049 A 
ATOM     50  N   UNL A   1      43.187  27.910  28.130  1.00  0.00    -0.248 NA
ATOM     51  C   UNL A   1      42.490  25.965  27.141  1.00  0.00     0.031 C 
ATOM     52  C   UNL A   1      45.417  27.650  29.932  1.00  0.00     0.029 A 
ATOM     53  N   UNL A   1      47.157  26.607  28.928  1.00  0.00    -0.354 N 
ATOM     54  C   UNL A   1      41.813  27.968  28.050  1.00  0.00     0.074 A 
ATOM     55  C   UNL A   1      41.443  26.771  27.338  1.00  0.00     0.031 C 
ATOM     56  C   UNL A   1      46.539  28.263  30.343  1.00  0.00     0.029 A 
ATOM     57  C   UNL A   1      47.604  27.843  29.450  1.00  0.00     0.049 A 
ATOM     58  H   UNL A   1      47.711  25.836  28.664  1.00  0.00     0.167 HD
ATOM     59  C   UNL A   1      41.161  28.963  28.724  1.00  0.00     0.037 A 
ATOM     60  C   UNL A   1      48.372  28.692  28.705  1.00  0.00     0.037 A 
ATOM     61  C   UNL A   1      42.121  29.944  29.242  1.00  0.00     0.049 A 
ATOM     62  C   UNL A   1      47.739  30.043  28.465  1.00  0.00     0.074 A 
ATOM     63  C   UNL A   1      42.658  30.169  30.500  1.00  0.00     0.029 A 
ATOM     64  N   UNL A   1      42.897  30.678  28.348  1.00  0.00    -0.354 N 
ATOM     65  N   UNL A   1      46.468  30.287  28.625  1.00  0.00    -0.248 NA
ATOM     66  C   UNL A   1      48.476  31.211  27.991  1.00  0.00     0.031 C 
ATOM     67  C   UNL A   1      43.807  30.987  30.346  1.00  0.00     0.029 A 
ATOM     68  C   UNL A   1      43.955  31.281  29.002  1.00  0.00     0.049 A 
ATOM     69  H   UNL A   1      42.717  30.757  27.384  1.00  0.00     0.167 HD
ATOM     70  C   UNL A   1      46.200  31.579  28.259  1.00  0.00     0.074 A 
ATOM     71  C   UNL A   1      47.493  32.125  27.891  1.00  0.00     0.031 C 
ATOM     72  C   UNL A   1      44.929  32.081  28.273  1.00  0.00     0.037 A 
BRANCH  59  73
ATOM     73  C   UNL A   1      39.705  28.908  29.177  1.00  0.00     0.064 A 
ATOM     74  C   UNL A   1      38.671  29.325  28.306  1.00  0.00     0.173 A 
ATOM     75  C   UNL A   1      39.255  28.560  30.465  1.00  0.00     0.173 A 
ATOM     76  F   UNL A   1      38.904  29.581  27.012  1.00  0.00    -0.203 F 
ATOM     77  C   UNL A   1      37.345  29.498  28.726  1.00  0.00     0.198 A 
ATOM     78  C   UNL A   1      37.938  28.762  30.896  1.00  0.00     0.198 A 
ATOM     79  F   UNL A   1      40.042  27.954  31.354  1.00  0.00    -0.203 F 
ATOM     80  F   UNL A   1      36.421  29.924  27.854  1.00  0.00    -0.200 F 
ATOM     81  C   UNL A   1      36.985  29.248  30.032  1.00  0.00     0.200 A 
ATOM     82  F   UNL A   1      37.608  28.475  32.165  1.00  0.00    -0.200 F 
ATOM     83  F   UNL A   1      35.728  29.446  30.448  1.00  0.00    -0.200 F 
ENDBRANCH  59  73
BRANCH  60  84
ATOM     84  C   UNL A   1      49.267  27.983  27.753  1.00  0.00     0.064 A 
ATOM     85  C   UNL A   1      50.508  27.516  28.230  1.00  0.00     0.173 A 
ATOM     86  C   UNL A   1      48.784  27.433  26.560  1.00  0.00     0.173 A 
ATOM     87  F   UNL A   1      51.011  28.005  29.374  1.00  0.00    -0.203 F 
ATOM     88  C   UNL A   1      51.173  26.462  27.608  1.00  0.00     0.198 A 
ATOM     89  C   UNL A   1      49.462  26.384  25.933  1.00  0.00     0.198 A 
ATOM     90  F   UNL A   1      47.595  27.814  26.071  1.00  0.00    -0.203 F 
ATOM     91  F   UNL A   1      52.290  25.963  28.156  1.00  0.00    -0.200 F 
ATOM     92  C   UNL A   1      50.634  25.878  26.475  1.00  0.00     0.200 A 
ATOM     93  F   UNL A   1      48.920  25.791  24.859  1.00  0.00    -0.200 F 
ATOM     94  F   UNL A   1      51.215  24.798  25.934  1.00  0.00    -0.200 F 
ENDBRANCH  60  84
BRANCH  72  95
ATOM     95  C   UNL A   1      44.492  33.397  27.677  1.00  0.00     0.064 A 
ATOM     96  C   UNL A   1      43.940  33.532  26.393  1.00  0.00     0.173 A 
ATOM     97  C   UNL A   1      44.480  34.569  28.471  1.00  0.00     0.173 A 
ATOM     98  F   UNL A   1      43.789  32.474  25.586  1.00  0.00    -0.203 F 
ATOM     99  C   UNL A   1      43.464  34.758  25.918  1.00  0.00     0.198 A 
ATOM    100  C   UNL A   1      43.952  35.776  28.015  1.00  0.00     0.198 A 
ATOM    101  F   UNL A   1      44.958  34.569  29.725  1.00  0.00    -0.203 F 
ATOM    102  F   UNL A   1      42.981  34.842  24.671  1.00  0.00    -0.200 F 
ATOM    103  C   UNL A   1      43.457  35.874  26.733  1.00  0.00     0.200 A 
ATOM    104  F   UNL A   1      43.905  36.835  28.837  1.00  0.00    -0.200 F 
ATOM    105  F   UNL A   1      42.955  37.034  26.289  1.00  0.00    -0.200 F 
ENDBRANCH  72  95
ENDBRANCH  46  47
ENDBRANCH  38  41
ENDBRANCH  36  37
ENDBRANCH  35  36
ENDBRANCH   1  35
TORSDOF 14
ENDMDL
