MODEL 1
REMARK VINA RESULT:     -12.9      0.000      0.000
REMARK SMILES CC(C)(C)OC(=O)N1CCC[C@](Cc2ccccc2)(C(=O)NCCCCNC(=O)c2ccc(-c3c4nc(c(-c5c(F)c(F)c(F)c(F)c5F)c5ccc([nH]5)c(-c5c(F)c(F)c(F)c(F)c5F)c5nc(c(-c6c(F)c(F)c(F)c(F)c6F)c6ccc3[nH]6)C=C5)C=C4)cc2)C1
REMARK SMILES IDX 24 1 23 2 22 3 20 4 21 5 12 7 8 8 9 9 93 10 10 11 11 12 6 13
REMARK SMILES IDX 7 14 5 15 2 16 1 17 3 18 4 19 13 20 14 21 15 22 19 23 16 24
REMARK SMILES IDX 18 25 17 26 25 27 26 28 27 29 28 30 29 32 30 33 31 34 92 35
REMARK SMILES IDX 32 36 91 37 33 38 34 39 35 40 85 41 36 42 90 43 84 44 86 45
REMARK SMILES IDX 37 46 89 47 83 48 82 49 38 51 70 52 50 53 69 54 51 55 54 56
REMARK SMILES IDX 68 57 87 58 52 59 53 60 67 62 88 63 55 64 39 65 40 66 48 67
REMARK SMILES IDX 41 68 42 69 46 70 49 71 43 72 44 73 47 74 45 75 71 76 72 77
REMARK SMILES IDX 80 78 73 79 74 80 78 81 81 82 75 83 76 84 79 85 77 86 56 87
REMARK SMILES IDX 57 88 65 89 58 90 59 91 63 92 66 93 60 94 61 95 64 96 62 97
REMARK H PARENT 22 6 27 31 86 50 54 61
REMARK Flexibility Score: inf
ROOT
ATOM      1  C   UNL A   1      31.691  30.572  26.891  1.00  0.00     0.023 C 
ENDROOT
BRANCH   1   2
ATOM      2  C   UNL A   1      32.119  29.813  25.637  1.00  0.00     0.116 C 
BRANCH   2   3
ATOM      3  N   UNL A   1      31.633  28.443  25.654  1.00  0.00    -0.356 N 
ATOM      4  C   UNL A   1      30.959  27.614  24.821  1.00  0.00     0.228 C 
ATOM      5  O   UNL A   1      30.586  26.582  25.396  1.00  0.00    -0.274 OA
ATOM      6  H   UNL A   1      31.854  27.996  26.503  1.00  0.00     0.163 HD
BRANCH   4   7
ATOM      7  C   UNL A   1      30.698  27.805  23.290  1.00  0.00     0.071 C 
ATOM      8  N   UNL A   1      32.201  25.911  22.550  1.00  0.00    -0.307 N 
ATOM      9  C   UNL A   1      33.180  26.808  21.963  1.00  0.00     0.123 C 
ATOM     10  C   UNL A   1      30.826  26.403  22.628  1.00  0.00     0.140 C 
ATOM     11  C   UNL A   1      33.197  28.153  22.672  1.00  0.00     0.023 C 
ATOM     12  C   UNL A   1      31.795  28.766  22.743  1.00  0.00     0.021 C 
BRANCH   8  13
ATOM     13  C   UNL A   1      32.604  24.659  22.986  1.00  0.00     0.410 C 
ATOM     14  O   UNL A   1      32.837  23.724  22.230  1.00  0.00    -0.224 OA
BRANCH  13  15
ATOM     15  O   UNL A   1      32.639  24.571  24.343  1.00  0.00    -0.444 OA
BRANCH  15  16
ATOM     16  C   UNL A   1      33.896  24.594  25.076  1.00  0.00     0.106 C 
ATOM     17  C   UNL A   1      33.667  23.667  26.280  1.00  0.00     0.056 C 
ATOM     18  C   UNL A   1      34.151  26.018  25.574  1.00  0.00     0.056 C 
ATOM     19  C   UNL A   1      35.100  24.051  24.291  1.00  0.00     0.056 C 
ENDBRANCH  15  16
ENDBRANCH  13  15
ENDBRANCH   8  13
BRANCH   7  20
ATOM     20  C   UNL A   1      29.310  28.428  23.014  1.00  0.00     0.054 C 
BRANCH  20  21
ATOM     21  C   UNL A   1      29.109  29.892  22.681  1.00  0.00    -0.047 A 
ATOM     22  C   UNL A   1      29.150  30.845  23.715  1.00  0.00     0.004 A 
ATOM     23  C   UNL A   1      28.735  30.316  21.401  1.00  0.00     0.004 A 
ATOM     24  C   UNL A   1      28.831  32.182  23.474  1.00  0.00     0.000 A 
ATOM     25  C   UNL A   1      28.437  31.659  21.156  1.00  0.00     0.000 A 
ATOM     26  C   UNL A   1      28.478  32.589  22.192  1.00  0.00     0.000 A 
ENDBRANCH  20  21
ENDBRANCH   7  20
ENDBRANCH   4   7
ENDBRANCH   2   3
ENDBRANCH   1   2
BRANCH   1  27
ATOM     27  C   UNL A   1      31.598  32.089  26.704  1.00  0.00     0.023 C 
BRANCH  27  28
ATOM     28  C   UNL A   1      32.733  32.894  27.332  1.00  0.00     0.116 C 
BRANCH  28  29
ATOM     29  N   UNL A   1      32.369  34.265  27.658  1.00  0.00    -0.352 N 
ATOM     30  C   UNL A   1      32.943  35.106  28.582  1.00  0.00     0.251 C 
ATOM     31  H   UNL A   1      31.612  34.639  27.151  1.00  0.00     0.163 HD
ATOM     32  O   UNL A   1      32.464  36.212  28.802  1.00  0.00    -0.269 OA
BRANCH  30  33
ATOM     33  C   UNL A   1      34.118  34.640  29.341  1.00  0.00     0.039 A 
ATOM     34  C   UNL A   1      33.925  34.110  30.619  1.00  0.00     0.014 A 
ATOM     35  C   UNL A   1      35.394  34.680  28.773  1.00  0.00     0.014 A 
ATOM     36  C   UNL A   1      35.006  33.551  31.301  1.00  0.00     0.010 A 
ATOM     37  C   UNL A   1      36.457  34.064  29.427  1.00  0.00     0.010 A 
ATOM     38  C   UNL A   1      36.271  33.488  30.693  1.00  0.00    -0.014 A 
BRANCH  38  39
ATOM     39  C   UNL A   1      37.410  32.813  31.362  1.00  0.00     0.031 A 
ATOM     40  C   UNL A   1      38.086  31.645  30.702  1.00  0.00     0.074 A 
ATOM     41  C   UNL A   1      37.783  33.206  32.596  1.00  0.00     0.049 A 
ATOM     42  N   UNL A   1      39.043  30.877  31.158  1.00  0.00    -0.248 NA
ATOM     43  C   UNL A   1      37.603  31.271  29.363  1.00  0.00     0.031 C 
ATOM     44  C   UNL A   1      37.164  34.289  33.362  1.00  0.00     0.029 A 
ATOM     45  N   UNL A   1      38.764  32.729  33.429  1.00  0.00    -0.354 N 
ATOM     46  C   UNL A   1      39.261  29.922  30.175  1.00  0.00     0.074 A 
ATOM     47  C   UNL A   1      38.309  30.176  29.116  1.00  0.00     0.031 C 
ATOM     48  C   UNL A   1      37.787  34.403  34.547  1.00  0.00     0.029 A 
ATOM     49  C   UNL A   1      38.827  33.382  34.636  1.00  0.00     0.049 A 
ATOM     50  H   UNL A   1      39.365  31.990  33.185  1.00  0.00     0.167 HD
ATOM     51  C   UNL A   1      40.188  28.936  30.150  1.00  0.00     0.037 A 
ATOM     52  C   UNL A   1      39.628  33.174  35.699  1.00  0.00     0.037 A 
ATOM     53  C   UNL A   1      41.159  28.711  31.187  1.00  0.00     0.049 A 
ATOM     54  C   UNL A   1      40.664  32.084  35.631  1.00  0.00     0.074 A 
ATOM     55  C   UNL A   1      42.190  27.789  31.217  1.00  0.00     0.029 A 
ATOM     56  N   UNL A   1      41.220  29.421  32.377  1.00  0.00    -0.354 N 
ATOM     57  N   UNL A   1      40.917  31.240  34.660  1.00  0.00    -0.248 NA
ATOM     58  C   UNL A   1      41.534  31.922  36.804  1.00  0.00     0.031 C 
ATOM     59  C   UNL A   1      42.851  27.912  32.444  1.00  0.00     0.029 A 
ATOM     60  C   UNL A   1      42.260  28.942  33.158  1.00  0.00     0.049 A 
ATOM     61  H   UNL A   1      40.615  30.154  32.630  1.00  0.00     0.167 HD
ATOM     62  C   UNL A   1      41.988  30.471  35.090  1.00  0.00     0.074 A 
ATOM     63  C   UNL A   1      42.351  30.959  36.405  1.00  0.00     0.031 C 
ATOM     64  C   UNL A   1      42.616  29.451  34.457  1.00  0.00     0.037 A 
BRANCH  51  65
ATOM     65  C   UNL A   1      40.209  28.026  28.957  1.00  0.00     0.064 A 
ATOM     66  C   UNL A   1      40.955  28.337  27.811  1.00  0.00     0.173 A 
ATOM     67  C   UNL A   1      39.529  26.800  28.987  1.00  0.00     0.173 A 
ATOM     68  F   UNL A   1      41.614  29.502  27.729  1.00  0.00    -0.203 F 
ATOM     69  C   UNL A   1      41.004  27.461  26.730  1.00  0.00     0.198 A 
ATOM     70  C   UNL A   1      39.602  25.913  27.915  1.00  0.00     0.198 A 
ATOM     71  F   UNL A   1      38.805  26.453  30.062  1.00  0.00    -0.203 F 
ATOM     72  F   UNL A   1      41.694  27.794  25.630  1.00  0.00    -0.200 F 
ATOM     73  C   UNL A   1      40.336  26.246  26.786  1.00  0.00     0.200 A 
ATOM     74  F   UNL A   1      38.965  24.736  27.977  1.00  0.00    -0.200 F 
ATOM     75  F   UNL A   1      40.396  25.398  25.751  1.00  0.00    -0.200 F 
ENDBRANCH  51  65
BRANCH  52  76
ATOM     76  C   UNL A   1      39.498  34.021  36.912  1.00  0.00     0.064 A 
ATOM     77  C   UNL A   1      40.157  35.256  37.001  1.00  0.00     0.173 A 
ATOM     78  C   UNL A   1      38.740  33.607  38.016  1.00  0.00     0.173 A 
ATOM     79  F   UNL A   1      40.911  35.688  35.979  1.00  0.00    -0.203 F 
ATOM     80  C   UNL A   1      40.086  36.028  38.159  1.00  0.00     0.198 A 
ATOM     81  C   UNL A   1      38.646  34.393  39.162  1.00  0.00     0.198 A 
ATOM     82  F   UNL A   1      38.085  32.437  37.980  1.00  0.00    -0.203 F 
ATOM     83  F   UNL A   1      40.771  37.178  38.238  1.00  0.00    -0.200 F 
ATOM     84  C   UNL A   1      39.328  35.599  39.237  1.00  0.00     0.200 A 
ATOM     85  F   UNL A   1      37.902  33.981  40.196  1.00  0.00    -0.200 F 
ATOM     86  F   UNL A   1      39.263  36.340  40.351  1.00  0.00    -0.200 F 
ENDBRANCH  52  76
BRANCH  64  87
ATOM     87  C   UNL A   1      43.782  28.819  35.157  1.00  0.00     0.064 A 
ATOM     88  C   UNL A   1      43.616  27.736  36.032  1.00  0.00     0.173 A 
ATOM     89  C   UNL A   1      45.086  29.278  34.917  1.00  0.00     0.173 A 
ATOM     90  F   UNL A   1      42.388  27.272  36.306  1.00  0.00    -0.203 F 
ATOM     91  C   UNL A   1      44.713  27.151  36.660  1.00  0.00     0.198 A 
ATOM     92  C   UNL A   1      46.181  28.672  35.523  1.00  0.00     0.198 A 
ATOM     93  F   UNL A   1      45.298  30.307  34.082  1.00  0.00    -0.203 F 
ATOM     94  F   UNL A   1      44.526  26.147  37.528  1.00  0.00    -0.200 F 
ATOM     95  C   UNL A   1      45.993  27.613  36.399  1.00  0.00     0.200 A 
ATOM     96  F   UNL A   1      47.420  29.110  35.259  1.00  0.00    -0.200 F 
ATOM     97  F   UNL A   1      47.048  27.044  36.999  1.00  0.00    -0.200 F 
ENDBRANCH  64  87
ENDBRANCH  38  39
ENDBRANCH  30  33
ENDBRANCH  28  29
ENDBRANCH  27  28
ENDBRANCH   1  27
TORSDOF 16
ENDMDL
MODEL 2
REMARK VINA RESULT:     -12.8      5.751     11.511
REMARK SMILES CC(C)(C)OC(=O)N1CCC[C@](Cc2ccccc2)(C(=O)NCCCCNC(=O)c2ccc(-c3c4nc(c(-c5c(F)c(F)c(F)c(F)c5F)c5ccc([nH]5)c(-c5c(F)c(F)c(F)c(F)c5F)c5nc(c(-c6c(F)c(F)c(F)c(F)c6F)c6ccc3[nH]6)C=C5)C=C4)cc2)C1
REMARK SMILES IDX 24 1 23 2 22 3 20 4 21 5 12 7 8 8 9 9 93 10 10 11 11 12 6 13
REMARK SMILES IDX 7 14 5 15 2 16 1 17 3 18 4 19 13 20 14 21 15 22 19 23 16 24
REMARK SMILES IDX 18 25 17 26 25 27 26 28 27 29 28 30 29 32 30 33 31 34 92 35
REMARK SMILES IDX 32 36 91 37 33 38 34 39 35 40 85 41 36 42 90 43 84 44 86 45
REMARK SMILES IDX 37 46 89 47 83 48 82 49 38 51 70 52 50 53 69 54 51 55 54 56
REMARK SMILES IDX 68 57 87 58 52 59 53 60 67 62 88 63 55 64 39 65 40 66 48 67
REMARK SMILES IDX 41 68 42 69 46 70 49 71 43 72 44 73 47 74 45 75 71 76 72 77
REMARK SMILES IDX 80 78 73 79 74 80 78 81 81 82 75 83 76 84 79 85 77 86 56 87
REMARK SMILES IDX 57 88 65 89 58 90 59 91 63 92 66 93 60 94 61 95 64 96 62 97
REMARK H PARENT 22 6 27 31 86 50 54 61
REMARK Flexibility Score: inf
ROOT
ATOM      1  C   UNL A   1      37.020  21.184  24.579  1.00  0.00     0.023 C 
ENDROOT
BRANCH   1   2
ATOM      2  C   UNL A   1      36.605  22.163  25.674  1.00  0.00     0.116 C 
BRANCH   2   3
ATOM      3  N   UNL A   1      35.560  21.605  26.517  1.00  0.00    -0.356 N 
ATOM      4  C   UNL A   1      34.219  21.417  26.451  1.00  0.00     0.228 C 
ATOM      5  O   UNL A   1      33.743  21.087  27.546  1.00  0.00    -0.274 OA
ATOM      6  H   UNL A   1      35.926  21.274  27.369  1.00  0.00     0.163 HD
BRANCH   4   7
ATOM      7  C   UNL A   1      33.305  21.504  25.185  1.00  0.00     0.071 C 
ATOM      8  N   UNL A   1      33.109  24.025  25.199  1.00  0.00    -0.307 N 
ATOM      9  C   UNL A   1      31.705  23.995  25.568  1.00  0.00     0.123 C 
ATOM     10  C   UNL A   1      33.623  22.856  24.485  1.00  0.00     0.140 C 
ATOM     11  C   UNL A   1      31.370  22.756  26.382  1.00  0.00     0.023 C 
ATOM     12  C   UNL A   1      31.826  21.478  25.671  1.00  0.00     0.021 C 
BRANCH   8  13
ATOM     13  C   UNL A   1      33.872  25.135  25.523  1.00  0.00     0.410 C 
ATOM     14  O   UNL A   1      35.084  25.192  25.360  1.00  0.00    -0.224 OA
BRANCH  13  15
ATOM     15  O   UNL A   1      33.134  26.118  26.107  1.00  0.00    -0.444 OA
BRANCH  15  16
ATOM     16  C   UNL A   1      32.970  27.420  25.482  1.00  0.00     0.106 C 
ATOM     17  C   UNL A   1      31.627  27.947  26.014  1.00  0.00     0.056 C 
ATOM     18  C   UNL A   1      32.876  27.234  23.966  1.00  0.00     0.056 C 
ATOM     19  C   UNL A   1      34.052  28.445  25.854  1.00  0.00     0.056 C 
ENDBRANCH  15  16
ENDBRANCH  13  15
ENDBRANCH   8  13
BRANCH   7  20
ATOM     20  C   UNL A   1      33.533  20.312  24.225  1.00  0.00     0.054 C 
BRANCH  20  21
ATOM     21  C   UNL A   1      33.649  18.878  24.697  1.00  0.00    -0.047 A 
ATOM     22  C   UNL A   1      34.786  18.127  24.346  1.00  0.00     0.004 A 
ATOM     23  C   UNL A   1      32.595  18.223  25.345  1.00  0.00     0.004 A 
ATOM     24  C   UNL A   1      34.868  16.765  24.638  1.00  0.00     0.000 A 
ATOM     25  C   UNL A   1      32.687  16.864  25.657  1.00  0.00     0.000 A 
ATOM     26  C   UNL A   1      33.818  16.135  25.298  1.00  0.00     0.000 A 
ENDBRANCH  20  21
ENDBRANCH   7  20
ENDBRANCH   4   7
ENDBRANCH   2   3
ENDBRANCH   1   2
BRANCH   1  27
ATOM     27  C   UNL A   1      37.812  19.975  25.086  1.00  0.00     0.023 C 
BRANCH  27  28
ATOM     28  C   UNL A   1      39.140  20.303  25.764  1.00  0.00     0.116 C 
BRANCH  28  29
ATOM     29  N   UNL A   1      40.058  19.175  25.829  1.00  0.00    -0.352 N 
ATOM     30  C   UNL A   1      41.407  19.186  26.096  1.00  0.00     0.251 C 
ATOM     31  H   UNL A   1      39.663  18.290  25.659  1.00  0.00     0.163 HD
ATOM     32  O   UNL A   1      42.065  18.154  26.030  1.00  0.00    -0.269 OA
BRANCH  30  33
ATOM     33  C   UNL A   1      42.063  20.468  26.418  1.00  0.00     0.039 A 
ATOM     34  C   UNL A   1      42.506  21.276  25.369  1.00  0.00     0.014 A 
ATOM     35  C   UNL A   1      42.193  20.887  27.744  1.00  0.00     0.014 A 
ATOM     36  C   UNL A   1      43.016  22.545  25.649  1.00  0.00     0.010 A 
ATOM     37  C   UNL A   1      42.640  22.176  28.016  1.00  0.00     0.010 A 
ATOM     38  C   UNL A   1      43.049  23.019  26.970  1.00  0.00    -0.014 A 
BRANCH  38  39
ATOM     39  C   UNL A   1      43.497  24.400  27.279  1.00  0.00     0.031 A 
ATOM     40  C   UNL A   1      42.516  25.412  27.796  1.00  0.00     0.074 A 
ATOM     41  C   UNL A   1      44.771  24.757  27.021  1.00  0.00     0.049 A 
ATOM     42  N   UNL A   1      42.695  26.683  28.049  1.00  0.00    -0.248 NA
ATOM     43  C   UNL A   1      41.141  24.941  28.031  1.00  0.00     0.031 C 
ATOM     44  C   UNL A   1      45.800  23.878  26.463  1.00  0.00     0.029 A 
ATOM     45  N   UNL A   1      45.413  25.959  27.179  1.00  0.00    -0.354 N 
ATOM     46  C   UNL A   1      41.458  27.166  28.452  1.00  0.00     0.074 A 
ATOM     47  C   UNL A   1      40.524  26.064  28.370  1.00  0.00     0.031 C 
ATOM     48  C   UNL A   1      46.947  24.565  26.339  1.00  0.00     0.029 A 
ATOM     49  C   UNL A   1      46.725  25.940  26.776  1.00  0.00     0.049 A 
ATOM     50  H   UNL A   1      44.974  26.760  27.546  1.00  0.00     0.167 HD
ATOM     51  C   UNL A   1      41.137  28.411  28.876  1.00  0.00     0.037 A 
ATOM     52  C   UNL A   1      47.645  26.925  26.754  1.00  0.00     0.037 A 
ATOM     53  C   UNL A   1      42.078  29.493  28.996  1.00  0.00     0.049 A 
ATOM     54  C   UNL A   1      47.263  28.293  27.254  1.00  0.00     0.074 A 
ATOM     55  C   UNL A   1      41.867  30.768  29.490  1.00  0.00     0.029 A 
ATOM     56  N   UNL A   1      43.411  29.424  28.619  1.00  0.00    -0.354 N 
ATOM     57  N   UNL A   1      46.111  28.715  27.713  1.00  0.00    -0.248 NA
ATOM     58  C   UNL A   1      48.314  29.320  27.239  1.00  0.00     0.031 C 
ATOM     59  C   UNL A   1      43.062  31.485  29.373  1.00  0.00     0.029 A 
ATOM     60  C   UNL A   1      44.029  30.642  28.850  1.00  0.00     0.049 A 
ATOM     61  H   UNL A   1      43.851  28.629  28.241  1.00  0.00     0.167 HD
ATOM     62  C   UNL A   1      46.304  30.042  28.069  1.00  0.00     0.074 A 
ATOM     63  C   UNL A   1      47.691  30.352  27.788  1.00  0.00     0.031 C 
ATOM     64  C   UNL A   1      45.414  30.927  28.580  1.00  0.00     0.037 A 
BRANCH  51  65
ATOM     65  C   UNL A   1      39.710  28.675  29.255  1.00  0.00     0.064 A 
ATOM     66  C   UNL A   1      39.250  28.473  30.565  1.00  0.00     0.173 A 
ATOM     67  C   UNL A   1      38.810  29.197  28.315  1.00  0.00     0.173 A 
ATOM     68  F   UNL A   1      40.068  27.965  31.498  1.00  0.00    -0.203 F 
ATOM     69  C   UNL A   1      37.934  28.767  30.914  1.00  0.00     0.198 A 
ATOM     70  C   UNL A   1      37.502  29.515  28.674  1.00  0.00     0.198 A 
ATOM     71  F   UNL A   1      39.202  29.412  27.050  1.00  0.00    -0.203 F 
ATOM     72  F   UNL A   1      37.506  28.532  32.163  1.00  0.00    -0.200 F 
ATOM     73  C   UNL A   1      37.065  29.296  29.972  1.00  0.00     0.200 A 
ATOM     74  F   UNL A   1      36.667  30.038  27.765  1.00  0.00    -0.200 F 
ATOM     75  F   UNL A   1      35.803  29.593  30.314  1.00  0.00    -0.200 F 
ENDBRANCH  51  65
BRANCH  52  76
ATOM     76  C   UNL A   1      49.020  26.655  26.260  1.00  0.00     0.064 A 
ATOM     77  C   UNL A   1      49.999  26.122  27.111  1.00  0.00     0.173 A 
ATOM     78  C   UNL A   1      49.393  26.948  24.941  1.00  0.00     0.173 A 
ATOM     79  F   UNL A   1      49.697  25.842  28.388  1.00  0.00    -0.203 F 
ATOM     80  C   UNL A   1      51.305  25.921  26.669  1.00  0.00     0.198 A 
ATOM     81  C   UNL A   1      50.692  26.719  24.492  1.00  0.00     0.198 A 
ATOM     82  F   UNL A   1      48.493  27.454  24.085  1.00  0.00    -0.203 F 
ATOM     83  F   UNL A   1      52.235  25.463  27.519  1.00  0.00    -0.200 F 
ATOM     84  C   UNL A   1      51.650  26.216  25.360  1.00  0.00     0.200 A 
ATOM     85  F   UNL A   1      51.017  26.993  23.222  1.00  0.00    -0.200 F 
ATOM     86  F   UNL A   1      52.907  26.026  24.936  1.00  0.00    -0.200 F 
ENDBRANCH  52  76
BRANCH  64  87
ATOM     87  C   UNL A   1      45.920  32.301  28.906  1.00  0.00     0.064 A 
ATOM     88  C   UNL A   1      45.854  33.349  27.977  1.00  0.00     0.173 A 
ATOM     89  C   UNL A   1      46.438  32.582  30.179  1.00  0.00     0.173 A 
ATOM     90  F   UNL A   1      45.381  33.126  26.741  1.00  0.00    -0.203 F 
ATOM     91  C   UNL A   1      46.312  34.622  28.303  1.00  0.00     0.198 A 
ATOM     92  C   UNL A   1      46.867  33.862  30.511  1.00  0.00     0.198 A 
ATOM     93  F   UNL A   1      46.515  31.615  31.106  1.00  0.00    -0.203 F 
ATOM     94  F   UNL A   1      46.283  35.598  27.384  1.00  0.00    -0.200 F 
ATOM     95  C   UNL A   1      46.810  34.880  29.571  1.00  0.00     0.200 A 
ATOM     96  F   UNL A   1      47.336  34.113  31.741  1.00  0.00    -0.200 F 
ATOM     97  F   UNL A   1      47.244  36.108  29.885  1.00  0.00    -0.200 F 
ENDBRANCH  64  87
ENDBRANCH  38  39
ENDBRANCH  30  33
ENDBRANCH  28  29
ENDBRANCH  27  28
ENDBRANCH   1  27
TORSDOF 16
ENDMDL
MODEL 3
REMARK VINA RESULT:     -12.8      0.616      7.256
REMARK SMILES CC(C)(C)OC(=O)N1CCC[C@](Cc2ccccc2)(C(=O)NCCCCNC(=O)c2ccc(-c3c4nc(c(-c5c(F)c(F)c(F)c(F)c5F)c5ccc([nH]5)c(-c5c(F)c(F)c(F)c(F)c5F)c5nc(c(-c6c(F)c(F)c(F)c(F)c6F)c6ccc3[nH]6)C=C5)C=C4)cc2)C1
REMARK SMILES IDX 24 1 23 2 22 3 20 4 21 5 12 7 8 8 9 9 93 10 10 11 11 12 6 13
REMARK SMILES IDX 7 14 5 15 2 16 1 17 3 18 4 19 13 20 14 21 15 22 19 23 16 24
REMARK SMILES IDX 18 25 17 26 25 27 26 28 27 29 28 30 29 32 30 33 31 34 92 35
REMARK SMILES IDX 32 36 91 37 33 38 34 39 35 40 85 41 36 42 90 43 84 44 86 45
REMARK SMILES IDX 37 46 89 47 83 48 82 49 38 51 70 52 50 53 69 54 51 55 54 56
REMARK SMILES IDX 68 57 87 58 52 59 53 60 67 62 88 63 55 64 39 65 40 66 48 67
REMARK SMILES IDX 41 68 42 69 46 70 49 71 43 72 44 73 47 74 45 75 71 76 72 77
REMARK SMILES IDX 80 78 73 79 74 80 78 81 81 82 75 83 76 84 79 85 77 86 56 87
REMARK SMILES IDX 57 88 65 89 58 90 59 91 63 92 66 93 60 94 61 95 64 96 62 97
REMARK H PARENT 22 6 27 31 86 50 54 61
REMARK Flexibility Score: inf
ROOT
ATOM      1  C   UNL A   1      31.609  30.562  26.867  1.00  0.00     0.023 C 
ENDROOT
BRANCH   1   2
ATOM      2  C   UNL A   1      32.148  29.842  25.632  1.00  0.00     0.116 C 
BRANCH   2   3
ATOM      3  N   UNL A   1      31.662  28.473  25.562  1.00  0.00    -0.356 N 
ATOM      4  C   UNL A   1      31.044  27.680  24.653  1.00  0.00     0.228 C 
ATOM      5  O   UNL A   1      30.634  26.627  25.161  1.00  0.00    -0.274 OA
ATOM      6  H   UNL A   1      31.827  27.992  26.404  1.00  0.00     0.163 HD
BRANCH   4   7
ATOM      7  C   UNL A   1      30.883  27.933  23.118  1.00  0.00     0.071 C 
ATOM      8  N   UNL A   1      32.567  26.186  22.407  1.00  0.00    -0.307 N 
ATOM      9  C   UNL A   1      33.521  27.176  21.941  1.00  0.00     0.123 C 
ATOM     10  C   UNL A   1      31.158  26.580  22.402  1.00  0.00     0.140 C 
ATOM     11  C   UNL A   1      33.390  28.480  22.711  1.00  0.00     0.023 C 
ATOM     12  C   UNL A   1      31.946  28.993  22.704  1.00  0.00     0.021 C 
BRANCH   8  13
ATOM     13  C   UNL A   1      33.024  24.943  22.813  1.00  0.00     0.410 C 
ATOM     14  O   UNL A   1      33.528  24.127  22.051  1.00  0.00    -0.224 OA
BRANCH  13  15
ATOM     15  O   UNL A   1      32.782  24.708  24.131  1.00  0.00    -0.444 OA
BRANCH  15  16
ATOM     16  C   UNL A   1      33.859  24.674  25.109  1.00  0.00     0.106 C 
ATOM     17  C   UNL A   1      33.290  23.879  26.295  1.00  0.00     0.056 C 
ATOM     18  C   UNL A   1      34.164  26.104  25.558  1.00  0.00     0.056 C 
ATOM     19  C   UNL A   1      35.130  23.955  24.632  1.00  0.00     0.056 C 
ENDBRANCH  15  16
ENDBRANCH  13  15
ENDBRANCH   8  13
BRANCH   7  20
ATOM     20  C   UNL A   1      29.478  28.477  22.766  1.00  0.00     0.054 C 
BRANCH  20  21
ATOM     21  C   UNL A   1      29.187  29.947  22.552  1.00  0.00    -0.047 A 
ATOM     22  C   UNL A   1      29.173  30.814  23.660  1.00  0.00     0.004 A 
ATOM     23  C   UNL A   1      28.783  30.450  21.310  1.00  0.00     0.004 A 
ATOM     24  C   UNL A   1      28.772  32.144  23.528  1.00  0.00     0.000 A 
ATOM     25  C   UNL A   1      28.402  31.787  21.174  1.00  0.00     0.000 A 
ATOM     26  C   UNL A   1      28.390  32.632  22.283  1.00  0.00     0.000 A 
ENDBRANCH  20  21
ENDBRANCH   7  20
ENDBRANCH   4   7
ENDBRANCH   2   3
ENDBRANCH   1   2
BRANCH   1  27
ATOM     27  C   UNL A   1      31.519  32.083  26.715  1.00  0.00     0.023 C 
BRANCH  27  28
ATOM     28  C   UNL A   1      32.728  32.863  27.228  1.00  0.00     0.116 C 
BRANCH  28  29
ATOM     29  N   UNL A   1      32.412  34.218  27.654  1.00  0.00    -0.352 N 
ATOM     30  C   UNL A   1      33.016  34.967  28.636  1.00  0.00     0.251 C 
ATOM     31  H   UNL A   1      31.670  34.655  27.178  1.00  0.00     0.163 HD
ATOM     32  O   UNL A   1      32.577  36.071  28.938  1.00  0.00    -0.269 OA
BRANCH  30  33
ATOM     33  C   UNL A   1      34.174  34.404  29.356  1.00  0.00     0.039 A 
ATOM     34  C   UNL A   1      33.944  33.631  30.496  1.00  0.00     0.014 A 
ATOM     35  C   UNL A   1      35.472  34.598  28.878  1.00  0.00     0.014 A 
ATOM     36  C   UNL A   1      35.016  32.989  31.118  1.00  0.00     0.010 A 
ATOM     37  C   UNL A   1      36.529  33.904  29.459  1.00  0.00     0.010 A 
ATOM     38  C   UNL A   1      36.309  33.089  30.580  1.00  0.00    -0.014 A 
BRANCH  38  39
ATOM     39  C   UNL A   1      37.445  32.337  31.170  1.00  0.00     0.031 A 
ATOM     40  C   UNL A   1      37.964  32.703  32.531  1.00  0.00     0.074 A 
ATOM     41  C   UNL A   1      38.052  31.377  30.446  1.00  0.00     0.049 A 
ATOM     42  N   UNL A   1      38.991  32.219  33.182  1.00  0.00    -0.248 NA
ATOM     43  C   UNL A   1      37.253  33.777  33.245  1.00  0.00     0.031 C 
ATOM     44  C   UNL A   1      37.675  30.974  29.090  1.00  0.00     0.029 A 
ATOM     45  N   UNL A   1      39.126  30.576  30.743  1.00  0.00    -0.354 N 
ATOM     46  C   UNL A   1      39.061  32.939  34.366  1.00  0.00     0.074 A 
ATOM     47  C   UNL A   1      38.001  33.923  34.329  1.00  0.00     0.031 C 
ATOM     48  C   UNL A   1      38.495  29.993  28.677  1.00  0.00     0.029 A 
ATOM     49  C   UNL A   1      39.474  29.721  29.726  1.00  0.00     0.049 A 
ATOM     50  H   UNL A   1      39.602  30.611  31.604  1.00  0.00     0.167 HD
ATOM     51  C   UNL A   1      39.919  32.777  35.401  1.00  0.00     0.037 A 
ATOM     52  C   UNL A   1      40.476  28.825  29.645  1.00  0.00     0.037 A 
ATOM     53  C   UNL A   1      40.945  31.771  35.452  1.00  0.00     0.049 A 
ATOM     54  C   UNL A   1      41.399  28.652  30.822  1.00  0.00     0.074 A 
ATOM     55  C   UNL A   1      41.812  31.475  36.489  1.00  0.00     0.029 A 
ATOM     56  N   UNL A   1      41.241  30.892  34.419  1.00  0.00    -0.354 N 
ATOM     57  N   UNL A   1      41.402  29.282  31.971  1.00  0.00    -0.248 NA
ATOM     58  C   UNL A   1      42.454  27.637  30.693  1.00  0.00     0.031 C 
ATOM     59  C   UNL A   1      42.661  30.445  36.069  1.00  0.00     0.029 A 
ATOM     60  C   UNL A   1      42.291  30.069  34.788  1.00  0.00     0.049 A 
ATOM     61  H   UNL A   1      40.774  30.861  33.553  1.00  0.00     0.167 HD
ATOM     62  C   UNL A   1      42.434  28.721  32.711  1.00  0.00     0.074 A 
ATOM     63  C   UNL A   1      43.025  27.687  31.887  1.00  0.00     0.031 C 
ATOM     64  C   UNL A   1      42.856  29.035  33.960  1.00  0.00     0.037 A 
BRANCH  51  65
ATOM     65  C   UNL A   1      39.781  33.701  36.575  1.00  0.00     0.064 A 
ATOM     66  C   UNL A   1      40.428  34.945  36.609  1.00  0.00     0.173 A 
ATOM     67  C   UNL A   1      38.942  33.366  37.647  1.00  0.00     0.173 A 
ATOM     68  F   UNL A   1      41.250  35.308  35.614  1.00  0.00    -0.203 F 
ATOM     69  C   UNL A   1      40.253  35.813  37.685  1.00  0.00     0.198 A 
ATOM     70  C   UNL A   1      38.747  34.247  38.708  1.00  0.00     0.198 A 
ATOM     71  F   UNL A   1      38.297  32.189  37.660  1.00  0.00    -0.203 F 
ATOM     72  F   UNL A   1      40.909  36.981  37.714  1.00  0.00    -0.200 F 
ATOM     73  C   UNL A   1      39.406  35.468  38.728  1.00  0.00     0.200 A 
ATOM     74  F   UNL A   1      37.920  33.917  39.709  1.00  0.00    -0.200 F 
ATOM     75  F   UNL A   1      39.227  36.310  39.755  1.00  0.00    -0.200 F 
ENDBRANCH  51  65
BRANCH  52  76
ATOM     76  C   UNL A   1      40.654  28.008  28.417  1.00  0.00     0.064 A 
ATOM     77  C   UNL A   1      40.066  26.740  28.304  1.00  0.00     0.173 A 
ATOM     78  C   UNL A   1      41.433  28.462  27.344  1.00  0.00     0.173 A 
ATOM     79  F   UNL A   1      39.327  26.252  29.312  1.00  0.00    -0.203 F 
ATOM     80  C   UNL A   1      40.277  25.946  27.179  1.00  0.00     0.198 A 
ATOM     81  C   UNL A   1      41.620  27.679  26.206  1.00  0.00     0.198 A 
ATOM     82  F   UNL A   1      42.013  29.670  27.398  1.00  0.00    -0.203 F 
ATOM     83  F   UNL A   1      39.750  24.714  27.122  1.00  0.00    -0.200 F 
ATOM     84  C   UNL A   1      41.050  26.416  26.130  1.00  0.00     0.200 A 
ATOM     85  F   UNL A   1      42.356  28.144  25.189  1.00  0.00    -0.200 F 
ATOM     86  F   UNL A   1      41.256  25.651  25.049  1.00  0.00    -0.200 F 
ENDBRANCH  52  76
BRANCH  64  87
ATOM     87  C   UNL A   1      43.985  28.227  34.527  1.00  0.00     0.064 A 
ATOM     88  C   UNL A   1      45.318  28.648  34.420  1.00  0.00     0.173 A 
ATOM     89  C   UNL A   1      43.725  27.036  35.224  1.00  0.00     0.173 A 
ATOM     90  F   UNL A   1      45.619  29.772  33.751  1.00  0.00    -0.203 F 
ATOM     91  C   UNL A   1      46.352  27.895  34.969  1.00  0.00     0.198 A 
ATOM     92  C   UNL A   1      44.758  26.301  35.796  1.00  0.00     0.198 A 
ATOM     93  F   UNL A   1      42.466  26.594  35.360  1.00  0.00    -0.203 F 
ATOM     94  F   UNL A   1      47.623  28.293  34.814  1.00  0.00    -0.200 F 
ATOM     95  C   UNL A   1      46.071  26.727  35.662  1.00  0.00     0.200 A 
ATOM     96  F   UNL A   1      44.485  25.180  36.477  1.00  0.00    -0.200 F 
ATOM     97  F   UNL A   1      47.068  26.007  36.195  1.00  0.00    -0.200 F 
ENDBRANCH  64  87
ENDBRANCH  38  39
ENDBRANCH  30  33
ENDBRANCH  28  29
ENDBRANCH  27  28
ENDBRANCH   1  27
TORSDOF 16
ENDMDL
