MODEL 1
REMARK VINA RESULT:     -13.1      0.000      0.000
REMARK SMILES CCc1cc(OC(F)(F)F)cc2c1O[C@H](C(F)(F)F)C(C(=O)NCCCCNC(=O)c1ccc(-c3c4nc(c(-c5c(F)c(F)c(F)c(F)c5F)c5ccc([nH]5)c(-c5c(F)c(F)c(F)c(F)c5F)c5nc(c(-c6c(F)c(F)c(F)c(F)c6F)c6ccc3[nH]6)C=C5)C=C4)cc1)=C2
REMARK SMILES IDX 25 1 24 2 23 3 21 4 22 5 20 7 3 8 4 9 13 10 5 11 12 12 14 13
REMARK SMILES IDX 11 14 94 15 15 16 2 17 1 18 6 19 7 20 8 21 9 22 10 23 16 24
REMARK SMILES IDX 17 25 18 26 19 27 26 28 27 29 28 30 29 31 30 33 31 34 32 35
REMARK SMILES IDX 93 36 33 37 92 38 34 39 35 40 36 41 86 42 37 43 91 44 85 45
REMARK SMILES IDX 87 46 38 47 90 48 84 49 83 50 39 52 71 53 51 54 70 55 52 56
REMARK SMILES IDX 55 57 69 58 88 59 53 60 54 61 68 63 89 64 56 65 40 66 41 67
REMARK SMILES IDX 49 68 42 69 43 70 47 71 50 72 44 73 45 74 48 75 46 76 72 77
REMARK SMILES IDX 73 78 81 79 74 80 75 81 79 82 82 83 76 84 77 85 80 86 78 87
REMARK SMILES IDX 57 88 58 89 66 90 59 91 60 92 64 93 67 94 61 95 62 96 65 97
REMARK SMILES IDX 63 98
REMARK H PARENT 23 6 28 32 87 51 55 62
REMARK Flexibility Score: inf
ROOT
ATOM      1  C   UNL A   1      31.744  30.479  26.726  1.00  0.00     0.023 C 
ENDROOT
BRANCH   1   2
ATOM      2  C   UNL A   1      33.059  30.040  26.078  1.00  0.00     0.116 C 
BRANCH   2   3
ATOM      3  N   UNL A   1      32.888  29.853  24.652  1.00  0.00    -0.352 N 
ATOM      4  C   UNL A   1      32.836  28.744  23.870  1.00  0.00     0.251 C 
ATOM      5  O   UNL A   1      32.656  28.918  22.665  1.00  0.00    -0.270 OA
ATOM      6  H   UNL A   1      32.792  30.694  24.151  1.00  0.00     0.163 HD
BRANCH   4   7
ATOM      7  C   UNL A   1      32.890  27.352  24.400  1.00  0.00     0.067 C 
ATOM      8  C   UNL A   1      32.609  23.705  26.492  1.00  0.00    -0.002 A 
ATOM      9  C   UNL A   1      33.736  22.861  26.524  1.00  0.00     0.054 A 
ATOM     10  C   UNL A   1      32.699  24.922  25.796  1.00  0.00     0.131 A 
ATOM     11  C   UNL A   1      34.908  23.196  25.842  1.00  0.00     0.130 A 
ATOM     12  C   UNL A   1      33.863  25.259  25.101  1.00  0.00     0.021 A 
ATOM     13  O   UNL A   1      31.651  25.796  25.896  1.00  0.00    -0.475 OA
ATOM     14  C   UNL A   1      34.959  24.391  25.122  1.00  0.00     0.058 A 
ATOM     15  C   UNL A   1      33.965  26.554  24.439  1.00  0.00     0.025 C 
ATOM     16  C   UNL A   1      31.542  26.820  24.869  1.00  0.00     0.314 C 
BRANCH   8  17
ATOM     17  C   UNL A   1      31.345  23.329  27.240  1.00  0.00     0.036 C 
ATOM     18  C   UNL A   1      30.321  22.578  26.396  1.00  0.00     0.009 C 
ENDBRANCH   8  17
BRANCH  11  19
ATOM     19  O   UNL A   1      36.066  22.472  25.807  1.00  0.00    -0.406 OA
BRANCH  19  20
ATOM     20  C   UNL A   1      36.219  21.513  24.775  1.00  0.00     0.573 C 
ATOM     21  F   UNL A   1      37.009  21.983  23.785  1.00  0.00    -0.132 F 
ATOM     22  F   UNL A   1      36.732  20.361  25.255  1.00  0.00    -0.132 F 
ATOM     23  F   UNL A   1      35.003  21.247  24.250  1.00  0.00    -0.132 F 
ENDBRANCH  19  20
ENDBRANCH  11  19
BRANCH  16  24
ATOM     24  C   UNL A   1      30.671  26.302  23.705  1.00  0.00     0.429 C 
ATOM     25  F   UNL A   1      29.775  27.230  23.285  1.00  0.00    -0.167 F 
ATOM     26  F   UNL A   1      31.432  25.979  22.629  1.00  0.00    -0.167 F 
ATOM     27  F   UNL A   1      29.973  25.189  24.023  1.00  0.00    -0.167 F 
ENDBRANCH  16  24
ENDBRANCH   4   7
ENDBRANCH   2   3
ENDBRANCH   1   2
BRANCH   1  28
ATOM     28  C   UNL A   1      31.541  31.996  26.762  1.00  0.00     0.023 C 
BRANCH  28  29
ATOM     29  C   UNL A   1      32.731  32.788  27.297  1.00  0.00     0.116 C 
BRANCH  29  30
ATOM     30  N   UNL A   1      32.407  34.167  27.623  1.00  0.00    -0.352 N 
ATOM     31  C   UNL A   1      32.988  34.989  28.559  1.00  0.00     0.251 C 
ATOM     32  H   UNL A   1      31.672  34.566  27.103  1.00  0.00     0.163 HD
ATOM     33  O   UNL A   1      32.527  36.100  28.778  1.00  0.00    -0.269 OA
BRANCH  31  34
ATOM     34  C   UNL A   1      34.145  34.497  29.334  1.00  0.00     0.039 A 
ATOM     35  C   UNL A   1      33.911  33.928  30.588  1.00  0.00     0.014 A 
ATOM     36  C   UNL A   1      35.441  34.564  28.818  1.00  0.00     0.014 A 
ATOM     37  C   UNL A   1      34.971  33.362  31.295  1.00  0.00     0.010 A 
ATOM     38  C   UNL A   1      36.486  33.938  29.492  1.00  0.00     0.010 A 
ATOM     39  C   UNL A   1      36.259  33.327  30.734  1.00  0.00    -0.014 A 
BRANCH  39  40
ATOM     40  C   UNL A   1      37.367  32.624  31.425  1.00  0.00     0.031 A 
ATOM     41  C   UNL A   1      38.061  31.464  30.771  1.00  0.00     0.074 A 
ATOM     42  C   UNL A   1      37.709  33.004  32.671  1.00  0.00     0.049 A 
ATOM     43  N   UNL A   1      39.040  30.724  31.226  1.00  0.00    -0.248 NA
ATOM     44  C   UNL A   1      37.575  31.066  29.442  1.00  0.00     0.031 C 
ATOM     45  C   UNL A   1      37.064  34.073  33.436  1.00  0.00     0.029 A 
ATOM     46  N   UNL A   1      38.682  32.533  33.517  1.00  0.00    -0.354 N 
ATOM     47  C   UNL A   1      39.282  29.772  30.245  1.00  0.00     0.074 A 
ATOM     48  C   UNL A   1      38.311  29.991  29.195  1.00  0.00     0.031 C 
ATOM     49  C   UNL A   1      37.676  34.196  34.623  1.00  0.00     0.029 A 
ATOM     50  C   UNL A   1      38.736  33.198  34.717  1.00  0.00     0.049 A 
ATOM     51  H   UNL A   1      39.283  31.789  33.285  1.00  0.00     0.167 HD
ATOM     52  C   UNL A   1      40.244  28.820  30.213  1.00  0.00     0.037 A 
ATOM     53  C   UNL A   1      39.551  33.021  35.774  1.00  0.00     0.037 A 
ATOM     54  C   UNL A   1      41.220  28.619  31.251  1.00  0.00     0.049 A 
ATOM     55  C   UNL A   1      40.616  31.961  35.707  1.00  0.00     0.074 A 
ATOM     56  C   UNL A   1      42.278  27.727  31.283  1.00  0.00     0.029 A 
ATOM     57  N   UNL A   1      41.255  29.321  32.449  1.00  0.00    -0.354 N 
ATOM     58  N   UNL A   1      40.892  31.124  34.738  1.00  0.00    -0.248 NA
ATOM     59  C   UNL A   1      41.490  31.830  36.882  1.00  0.00     0.031 C 
ATOM     60  C   UNL A   1      42.923  27.857  32.518  1.00  0.00     0.029 A 
ATOM     61  C   UNL A   1      42.300  28.864  33.235  1.00  0.00     0.049 A 
ATOM     62  H   UNL A   1      40.629  30.038  32.701  1.00  0.00     0.167 HD
ATOM     63  C   UNL A   1      41.981  30.382  35.172  1.00  0.00     0.074 A 
ATOM     64  C   UNL A   1      42.330  30.884  36.485  1.00  0.00     0.031 C 
ATOM     65  C   UNL A   1      42.632  29.373  34.542  1.00  0.00     0.037 A 
BRANCH  52  66
ATOM     66  C   UNL A   1      40.292  27.925  29.009  1.00  0.00     0.064 A 
ATOM     67  C   UNL A   1      41.035  28.268  27.868  1.00  0.00     0.173 A 
ATOM     68  C   UNL A   1      39.622  26.693  29.008  1.00  0.00     0.173 A 
ATOM     69  F   UNL A   1      41.685  29.440  27.813  1.00  0.00    -0.203 F 
ATOM     70  C   UNL A   1      41.078  27.425  26.761  1.00  0.00     0.198 A 
ATOM     71  C   UNL A   1      39.693  25.839  27.910  1.00  0.00     0.198 A 
ATOM     72  F   UNL A   1      38.902  26.313  30.074  1.00  0.00    -0.203 F 
ATOM     73  F   UNL A   1      41.753  27.797  25.664  1.00  0.00    -0.200 F 
ATOM     74  C   UNL A   1      40.414  26.209  26.785  1.00  0.00     0.200 A 
ATOM     75  F   UNL A   1      39.060  24.657  27.939  1.00  0.00    -0.200 F 
ATOM     76  F   UNL A   1      40.463  25.395  25.722  1.00  0.00    -0.200 F 
ENDBRANCH  52  66
BRANCH  53  77
ATOM     77  C   UNL A   1      39.414  33.892  36.970  1.00  0.00     0.064 A 
ATOM     78  C   UNL A   1      38.702  33.457  38.096  1.00  0.00     0.173 A 
ATOM     79  C   UNL A   1      39.987  35.171  37.013  1.00  0.00     0.173 A 
ATOM     80  F   UNL A   1      38.120  32.249  38.095  1.00  0.00    -0.203 F 
ATOM     81  C   UNL A   1      38.550  34.277  39.213  1.00  0.00     0.198 A 
ATOM     82  C   UNL A   1      39.858  35.980  38.141  1.00  0.00     0.198 A 
ATOM     83  F   UNL A   1      40.683  35.630  35.963  1.00  0.00    -0.203 F 
ATOM     84  F   UNL A   1      37.828  33.855  40.259  1.00  0.00    -0.200 F 
ATOM     85  C   UNL A   1      39.134  35.535  39.236  1.00  0.00     0.200 A 
ATOM     86  F   UNL A   1      40.436  37.188  38.165  1.00  0.00    -0.200 F 
ATOM     87  F   UNL A   1      38.992  36.322  40.311  1.00  0.00    -0.200 F 
ENDBRANCH  53  77
BRANCH  65  88
ATOM     88  C   UNL A   1      43.800  28.761  35.259  1.00  0.00     0.064 A 
ATOM     89  C   UNL A   1      45.107  29.235  35.072  1.00  0.00     0.173 A 
ATOM     90  C   UNL A   1      43.605  27.706  36.163  1.00  0.00     0.173 A 
ATOM     91  F   UNL A   1      45.346  30.232  34.206  1.00  0.00    -0.203 F 
ATOM     92  C   UNL A   1      46.181  28.653  35.740  1.00  0.00     0.198 A 
ATOM     93  C   UNL A   1      44.678  27.147  36.853  1.00  0.00     0.198 A 
ATOM     94  F   UNL A   1      42.374  27.221  36.384  1.00  0.00    -0.203 F 
ATOM     95  F   UNL A   1      47.427  29.086  35.505  1.00  0.00    -0.200 F 
ATOM     96  C   UNL A   1      45.965  27.615  36.634  1.00  0.00     0.200 A 
ATOM     97  F   UNL A   1      44.466  26.153  37.727  1.00  0.00    -0.200 F 
ATOM     98  F   UNL A   1      46.999  27.059  37.279  1.00  0.00    -0.200 F 
ENDBRANCH  65  88
ENDBRANCH  39  40
ENDBRANCH  31  34
ENDBRANCH  29  30
ENDBRANCH  28  29
ENDBRANCH   1  28
TORSDOF 15
ENDMDL
MODEL 2
REMARK VINA RESULT:     -13.0      0.627      7.162
REMARK SMILES CCc1cc(OC(F)(F)F)cc2c1O[C@H](C(F)(F)F)C(C(=O)NCCCCNC(=O)c1ccc(-c3c4nc(c(-c5c(F)c(F)c(F)c(F)c5F)c5ccc([nH]5)c(-c5c(F)c(F)c(F)c(F)c5F)c5nc(c(-c6c(F)c(F)c(F)c(F)c6F)c6ccc3[nH]6)C=C5)C=C4)cc1)=C2
REMARK SMILES IDX 25 1 24 2 23 3 21 4 22 5 20 7 3 8 4 9 13 10 5 11 12 12 14 13
REMARK SMILES IDX 11 14 94 15 15 16 2 17 1 18 6 19 7 20 8 21 9 22 10 23 16 24
REMARK SMILES IDX 17 25 18 26 19 27 26 28 27 29 28 30 29 31 30 33 31 34 32 35
REMARK SMILES IDX 93 36 33 37 92 38 34 39 35 40 36 41 86 42 37 43 91 44 85 45
REMARK SMILES IDX 87 46 38 47 90 48 84 49 83 50 39 52 71 53 51 54 70 55 52 56
REMARK SMILES IDX 55 57 69 58 88 59 53 60 54 61 68 63 89 64 56 65 40 66 41 67
REMARK SMILES IDX 49 68 42 69 43 70 47 71 50 72 44 73 45 74 48 75 46 76 72 77
REMARK SMILES IDX 73 78 81 79 74 80 75 81 79 82 82 83 76 84 77 85 80 86 78 87
REMARK SMILES IDX 57 88 58 89 66 90 59 91 60 92 64 93 67 94 61 95 62 96 65 97
REMARK SMILES IDX 63 98
REMARK H PARENT 23 6 28 32 87 51 55 62
REMARK Flexibility Score: inf
ROOT
ATOM      1  C   UNL A   1      31.716  30.442  26.653  1.00  0.00     0.023 C 
ENDROOT
BRANCH   1   2
ATOM      2  C   UNL A   1      33.052  30.041  26.021  1.00  0.00     0.116 C 
BRANCH   2   3
ATOM      3  N   UNL A   1      32.900  29.837  24.595  1.00  0.00    -0.352 N 
ATOM      4  C   UNL A   1      32.870  28.721  23.823  1.00  0.00     0.251 C 
ATOM      5  O   UNL A   1      32.703  28.880  22.615  1.00  0.00    -0.270 OA
ATOM      6  H   UNL A   1      32.800  30.672  24.084  1.00  0.00     0.163 HD
BRANCH   4   7
ATOM      7  C   UNL A   1      32.934  27.334  24.369  1.00  0.00     0.067 C 
ATOM      8  C   UNL A   1      32.641  23.697  26.474  1.00  0.00    -0.002 A 
ATOM      9  C   UNL A   1      33.788  22.885  26.575  1.00  0.00     0.054 A 
ATOM     10  C   UNL A   1      32.735  24.911  25.774  1.00  0.00     0.131 A 
ATOM     11  C   UNL A   1      34.985  23.248  25.954  1.00  0.00     0.130 A 
ATOM     12  C   UNL A   1      33.925  25.275  25.139  1.00  0.00     0.021 A 
ATOM     13  O   UNL A   1      31.660  25.756  25.809  1.00  0.00    -0.475 OA
ATOM     14  C   UNL A   1      35.042  24.439  25.228  1.00  0.00     0.058 A 
ATOM     15  C   UNL A   1      34.027  26.567  24.473  1.00  0.00     0.025 C 
ATOM     16  C   UNL A   1      31.578  26.769  24.769  1.00  0.00     0.314 C 
BRANCH   8  17
ATOM     17  C   UNL A   1      31.349  23.291  27.156  1.00  0.00     0.036 C 
ATOM     18  C   UNL A   1      30.347  22.603  26.235  1.00  0.00     0.009 C 
ENDBRANCH   8  17
BRANCH  11  19
ATOM     19  O   UNL A   1      36.163  22.557  25.988  1.00  0.00    -0.406 OA
BRANCH  19  20
ATOM     20  C   UNL A   1      36.416  21.623  24.952  1.00  0.00     0.573 C 
ATOM     21  F   UNL A   1      36.214  20.358  25.376  1.00  0.00    -0.132 F 
ATOM     22  F   UNL A   1      35.640  21.870  23.876  1.00  0.00    -0.132 F 
ATOM     23  F   UNL A   1      37.709  21.737  24.575  1.00  0.00    -0.132 F 
ENDBRANCH  19  20
ENDBRANCH  11  19
BRANCH  16  24
ATOM     24  C   UNL A   1      30.786  26.217  23.564  1.00  0.00     0.429 C 
ATOM     25  F   UNL A   1      31.601  25.810  22.560  1.00  0.00    -0.167 F 
ATOM     26  F   UNL A   1      30.038  25.142  23.921  1.00  0.00    -0.167 F 
ATOM     27  F   UNL A   1      29.926  27.118  23.041  1.00  0.00    -0.167 F 
ENDBRANCH  16  24
ENDBRANCH   4   7
ENDBRANCH   2   3
ENDBRANCH   1   2
BRANCH   1  28
ATOM     28  C   UNL A   1      31.507  31.955  26.762  1.00  0.00     0.023 C 
BRANCH  28  29
ATOM     29  C   UNL A   1      32.732  32.739  27.222  1.00  0.00     0.116 C 
BRANCH  29  30
ATOM     30  N   UNL A   1      32.428  34.102  27.625  1.00  0.00    -0.352 N 
ATOM     31  C   UNL A   1      33.036  34.871  28.589  1.00  0.00     0.251 C 
ATOM     32  H   UNL A   1      31.685  34.533  27.143  1.00  0.00     0.163 HD
ATOM     33  O   UNL A   1      32.591  35.972  28.875  1.00  0.00    -0.269 OA
BRANCH  31  34
ATOM     34  C   UNL A   1      34.206  34.331  29.312  1.00  0.00     0.039 A 
ATOM     35  C   UNL A   1      33.981  33.537  30.440  1.00  0.00     0.014 A 
ATOM     36  C   UNL A   1      35.507  34.574  28.867  1.00  0.00     0.014 A 
ATOM     37  C   UNL A   1      35.061  32.929  31.079  1.00  0.00     0.010 A 
ATOM     38  C   UNL A   1      36.576  33.913  29.462  1.00  0.00     0.010 A 
ATOM     39  C   UNL A   1      36.362  33.080  30.571  1.00  0.00    -0.014 A 
BRANCH  39  40
ATOM     40  C   UNL A   1      37.500  32.344  31.173  1.00  0.00     0.031 A 
ATOM     41  C   UNL A   1      37.997  32.698  32.546  1.00  0.00     0.074 A 
ATOM     42  C   UNL A   1      38.119  31.389  30.453  1.00  0.00     0.049 A 
ATOM     43  N   UNL A   1      38.983  32.173  33.228  1.00  0.00    -0.248 NA
ATOM     44  C   UNL A   1      37.313  33.803  33.233  1.00  0.00     0.031 C 
ATOM     45  C   UNL A   1      37.770  31.002  29.085  1.00  0.00     0.029 A 
ATOM     46  N   UNL A   1      39.174  30.570  30.769  1.00  0.00    -0.354 N 
ATOM     47  C   UNL A   1      39.041  32.885  34.418  1.00  0.00     0.074 A 
ATOM     48  C   UNL A   1      38.030  33.918  34.342  1.00  0.00     0.031 C 
ATOM     49  C   UNL A   1      38.574  30.004  28.691  1.00  0.00     0.029 A 
ATOM     50  C   UNL A   1      39.515  29.699  29.764  1.00  0.00     0.049 A 
ATOM     51  H   UNL A   1      39.643  30.605  31.634  1.00  0.00     0.167 HD
ATOM     52  C   UNL A   1      39.848  32.680  35.485  1.00  0.00     0.037 A 
ATOM     53  C   UNL A   1      40.477  28.759  29.716  1.00  0.00     0.037 A 
ATOM     54  C   UNL A   1      40.840  31.639  35.563  1.00  0.00     0.049 A 
ATOM     55  C   UNL A   1      41.354  28.546  30.920  1.00  0.00     0.074 A 
ATOM     56  C   UNL A   1      41.660  31.305  36.626  1.00  0.00     0.029 A 
ATOM     57  N   UNL A   1      41.148  30.764  34.530  1.00  0.00    -0.354 N 
ATOM     58  N   UNL A   1      41.342  29.170  32.072  1.00  0.00    -0.248 NA
ATOM     59  C   UNL A   1      42.371  27.491  30.816  1.00  0.00     0.031 C 
ATOM     60  C   UNL A   1      42.497  30.259  36.221  1.00  0.00     0.029 A 
ATOM     61  C   UNL A   1      42.164  29.907  34.924  1.00  0.00     0.049 A 
ATOM     62  H   UNL A   1      40.709  30.754  33.649  1.00  0.00     0.167 HD
ATOM     63  C   UNL A   1      42.331  28.571  32.840  1.00  0.00     0.074 A 
ATOM     64  C   UNL A   1      42.909  27.520  32.028  1.00  0.00     0.031 C 
ATOM     65  C   UNL A   1      42.729  28.867  34.101  1.00  0.00     0.037 A 
BRANCH  52  66
ATOM     66  C   UNL A   1      39.687  33.598  36.662  1.00  0.00     0.064 A 
ATOM     67  C   UNL A   1      40.361  34.828  36.732  1.00  0.00     0.173 A 
ATOM     68  C   UNL A   1      38.822  33.264  37.715  1.00  0.00     0.173 A 
ATOM     69  F   UNL A   1      41.209  35.189  35.758  1.00  0.00    -0.203 F 
ATOM     70  C   UNL A   1      40.197  35.673  37.826  1.00  0.00     0.198 A 
ATOM     71  C   UNL A   1      38.637  34.127  38.792  1.00  0.00     0.198 A 
ATOM     72  F   UNL A   1      38.149  32.104  37.696  1.00  0.00    -0.203 F 
ATOM     73  F   UNL A   1      40.889  36.819  37.893  1.00  0.00    -0.200 F 
ATOM     74  C   UNL A   1      39.330  35.326  38.851  1.00  0.00     0.200 A 
ATOM     75  F   UNL A   1      37.790  33.796  39.777  1.00  0.00    -0.200 F 
ATOM     76  F   UNL A   1      39.168  36.145  39.899  1.00  0.00    -0.200 F 
ENDBRANCH  52  66
BRANCH  53  77
ATOM     77  C   UNL A   1      40.637  27.924  28.498  1.00  0.00     0.064 A 
ATOM     78  C   UNL A   1      41.427  28.363  27.426  1.00  0.00     0.173 A 
ATOM     79  C   UNL A   1      40.007  26.677  28.377  1.00  0.00     0.173 A 
ATOM     80  F   UNL A   1      42.035  29.557  27.487  1.00  0.00    -0.203 F 
ATOM     81  C   UNL A   1      41.565  27.595  26.271  1.00  0.00     0.198 A 
ATOM     82  C   UNL A   1      40.167  25.897  27.233  1.00  0.00     0.198 A 
ATOM     83  F   UNL A   1      39.245  26.211  29.377  1.00  0.00    -0.203 F 
ATOM     84  F   UNL A   1      42.290  28.057  25.244  1.00  0.00    -0.200 F 
ATOM     85  C   UNL A   1      40.939  26.360  26.178  1.00  0.00     0.200 A 
ATOM     86  F   UNL A   1      39.574  24.699  27.154  1.00  0.00    -0.200 F 
ATOM     87  F   UNL A   1      41.075  25.620  25.070  1.00  0.00    -0.200 F 
ENDBRANCH  53  77
BRANCH  65  88
ATOM     88  C   UNL A   1      43.828  28.028  34.686  1.00  0.00     0.064 A 
ATOM     89  C   UNL A   1      45.170  28.433  34.628  1.00  0.00     0.173 A 
ATOM     90  C   UNL A   1      43.532  26.819  35.333  1.00  0.00     0.173 A 
ATOM     91  F   UNL A   1      45.506  29.573  34.006  1.00  0.00    -0.203 F 
ATOM     92  C   UNL A   1      46.179  27.641  35.170  1.00  0.00     0.198 A 
ATOM     93  C   UNL A   1      44.540  26.046  35.901  1.00  0.00     0.198 A 
ATOM     94  F   UNL A   1      42.263  26.391  35.421  1.00  0.00    -0.203 F 
ATOM     95  F   UNL A   1      47.459  28.021  35.056  1.00  0.00    -0.200 F 
ATOM     96  C   UNL A   1      45.863  26.452  35.811  1.00  0.00     0.200 A 
ATOM     97  F   UNL A   1      44.233  24.904  36.532  1.00  0.00    -0.200 F 
ATOM     98  F   UNL A   1      46.835  25.694  36.336  1.00  0.00    -0.200 F 
ENDBRANCH  65  88
ENDBRANCH  39  40
ENDBRANCH  31  34
ENDBRANCH  29  30
ENDBRANCH  28  29
ENDBRANCH   1  28
TORSDOF 15
ENDMDL
MODEL 3
REMARK VINA RESULT:     -13.0      0.573      7.136
REMARK SMILES CCc1cc(OC(F)(F)F)cc2c1O[C@H](C(F)(F)F)C(C(=O)NCCCCNC(=O)c1ccc(-c3c4nc(c(-c5c(F)c(F)c(F)c(F)c5F)c5ccc([nH]5)c(-c5c(F)c(F)c(F)c(F)c5F)c5nc(c(-c6c(F)c(F)c(F)c(F)c6F)c6ccc3[nH]6)C=C5)C=C4)cc1)=C2
REMARK SMILES IDX 25 1 24 2 23 3 21 4 22 5 20 7 3 8 4 9 13 10 5 11 12 12 14 13
REMARK SMILES IDX 11 14 94 15 15 16 2 17 1 18 6 19 7 20 8 21 9 22 10 23 16 24
REMARK SMILES IDX 17 25 18 26 19 27 26 28 27 29 28 30 29 31 30 33 31 34 32 35
REMARK SMILES IDX 93 36 33 37 92 38 34 39 35 40 36 41 86 42 37 43 91 44 85 45
REMARK SMILES IDX 87 46 38 47 90 48 84 49 83 50 39 52 71 53 51 54 70 55 52 56
REMARK SMILES IDX 55 57 69 58 88 59 53 60 54 61 68 63 89 64 56 65 40 66 41 67
REMARK SMILES IDX 49 68 42 69 43 70 47 71 50 72 44 73 45 74 48 75 46 76 72 77
REMARK SMILES IDX 73 78 81 79 74 80 75 81 79 82 82 83 76 84 77 85 80 86 78 87
REMARK SMILES IDX 57 88 58 89 66 90 59 91 60 92 64 93 67 94 61 95 62 96 65 97
REMARK SMILES IDX 63 98
REMARK H PARENT 23 6 28 32 87 51 55 62
REMARK Flexibility Score: inf
ROOT
ATOM      1  C   UNL A   1      31.599  30.463  26.486  1.00  0.00     0.023 C 
ENDROOT
BRANCH   1   2
ATOM      2  C   UNL A   1      32.968  29.997  25.986  1.00  0.00     0.116 C 
BRANCH   2   3
ATOM      3  N   UNL A   1      32.948  29.797  24.551  1.00  0.00    -0.352 N 
ATOM      4  C   UNL A   1      33.009  28.684  23.777  1.00  0.00     0.251 C 
ATOM      5  O   UNL A   1      32.946  28.846  22.559  1.00  0.00    -0.270 OA
ATOM      6  H   UNL A   1      32.875  30.632  24.036  1.00  0.00     0.163 HD
BRANCH   4   7
ATOM      7  C   UNL A   1      33.053  27.296  24.322  1.00  0.00     0.067 C 
ATOM      8  C   UNL A   1      32.719  23.665  26.433  1.00  0.00    -0.002 A 
ATOM      9  C   UNL A   1      33.852  22.831  26.517  1.00  0.00     0.054 A 
ATOM     10  C   UNL A   1      32.828  24.877  25.731  1.00  0.00     0.131 A 
ATOM     11  C   UNL A   1      35.047  23.170  25.878  1.00  0.00     0.130 A 
ATOM     12  C   UNL A   1      34.015  25.218  25.078  1.00  0.00     0.021 A 
ATOM     13  O   UNL A   1      31.769  25.743  25.782  1.00  0.00    -0.475 OA
ATOM     14  C   UNL A   1      35.116  24.359  25.150  1.00  0.00     0.058 A 
ATOM     15  C   UNL A   1      34.133  26.508  24.410  1.00  0.00     0.025 C 
ATOM     16  C   UNL A   1      31.693  26.758  24.743  1.00  0.00     0.314 C 
BRANCH   8  17
ATOM     17  C   UNL A   1      31.430  23.286  27.134  1.00  0.00     0.036 C 
ATOM     18  C   UNL A   1      30.408  22.603  26.232  1.00  0.00     0.009 C 
ENDBRANCH   8  17
BRANCH  11  19
ATOM     19  O   UNL A   1      36.211  22.456  25.895  1.00  0.00    -0.406 OA
BRANCH  19  20
ATOM     20  C   UNL A   1      36.450  21.550  24.831  1.00  0.00     0.573 C 
ATOM     21  F   UNL A   1      37.247  22.103  23.891  1.00  0.00    -0.132 F 
ATOM     22  F   UNL A   1      37.007  20.407  25.282  1.00  0.00    -0.132 F 
ATOM     23  F   UNL A   1      35.269  21.244  24.251  1.00  0.00    -0.132 F 
ENDBRANCH  19  20
ENDBRANCH  11  19
BRANCH  16  24
ATOM     24  C   UNL A   1      30.872  26.222  23.550  1.00  0.00     0.429 C 
ATOM     25  F   UNL A   1      29.967  27.130  23.105  1.00  0.00    -0.167 F 
ATOM     26  F   UNL A   1      31.675  25.922  22.497  1.00  0.00    -0.167 F 
ATOM     27  F   UNL A   1      30.193  25.091  23.841  1.00  0.00    -0.167 F 
ENDBRANCH  16  24
ENDBRANCH   4   7
ENDBRANCH   2   3
ENDBRANCH   1   2
BRANCH   1  28
ATOM     28  C   UNL A   1      31.454  31.984  26.585  1.00  0.00     0.023 C 
BRANCH  28  29
ATOM     29  C   UNL A   1      32.626  32.695  27.254  1.00  0.00     0.116 C 
BRANCH  29  30
ATOM     30  N   UNL A   1      32.336  34.074  27.612  1.00  0.00    -0.352 N 
ATOM     31  C   UNL A   1      32.971  34.877  28.530  1.00  0.00     0.251 C 
ATOM     32  H   UNL A   1      31.584  34.490  27.131  1.00  0.00     0.163 HD
ATOM     33  O   UNL A   1      32.536  35.991  28.783  1.00  0.00    -0.269 OA
BRANCH  31  34
ATOM     34  C   UNL A   1      34.155  34.360  29.245  1.00  0.00     0.039 A 
ATOM     35  C   UNL A   1      33.957  33.632  30.421  1.00  0.00     0.014 A 
ATOM     36  C   UNL A   1      35.445  34.559  28.746  1.00  0.00     0.014 A 
ATOM     37  C   UNL A   1      35.048  33.045  31.059  1.00  0.00     0.010 A 
ATOM     38  C   UNL A   1      36.524  33.916  29.344  1.00  0.00     0.010 A 
ATOM     39  C   UNL A   1      36.334  33.148  30.503  1.00  0.00    -0.014 A 
BRANCH  39  40
ATOM     40  C   UNL A   1      37.481  32.429  31.110  1.00  0.00     0.031 A 
ATOM     41  C   UNL A   1      37.983  32.807  32.473  1.00  0.00     0.074 A 
ATOM     42  C   UNL A   1      38.102  31.467  30.400  1.00  0.00     0.049 A 
ATOM     43  N   UNL A   1      38.978  32.299  33.157  1.00  0.00    -0.248 NA
ATOM     44  C   UNL A   1      37.297  33.918  33.148  1.00  0.00     0.031 C 
ATOM     45  C   UNL A   1      37.747  31.058  29.040  1.00  0.00     0.029 A 
ATOM     46  N   UNL A   1      39.165  30.661  30.722  1.00  0.00    -0.354 N 
ATOM     47  C   UNL A   1      39.039  33.031  34.336  1.00  0.00     0.074 A 
ATOM     48  C   UNL A   1      38.019  34.055  34.250  1.00  0.00     0.031 C 
ATOM     49  C   UNL A   1      38.557  30.059  28.656  1.00  0.00     0.029 A 
ATOM     50  C   UNL A   1      39.505  29.777  29.728  1.00  0.00     0.049 A 
ATOM     51  H   UNL A   1      39.639  30.712  31.584  1.00  0.00     0.167 HD
ATOM     52  C   UNL A   1      39.853  32.847  35.401  1.00  0.00     0.037 A 
ATOM     53  C   UNL A   1      40.474  28.843  29.688  1.00  0.00     0.037 A 
ATOM     54  C   UNL A   1      40.852  31.815  35.488  1.00  0.00     0.049 A 
ATOM     55  C   UNL A   1      41.360  28.655  30.890  1.00  0.00     0.074 A 
ATOM     56  C   UNL A   1      41.682  31.502  36.551  1.00  0.00     0.029 A 
ATOM     57  N   UNL A   1      41.161  30.926  34.467  1.00  0.00    -0.354 N 
ATOM     58  N   UNL A   1      41.351  29.296  32.033  1.00  0.00    -0.248 NA
ATOM     59  C   UNL A   1      42.384  27.606  30.796  1.00  0.00     0.031 C 
ATOM     60  C   UNL A   1      42.523  30.456  36.157  1.00  0.00     0.029 A 
ATOM     61  C   UNL A   1      42.185  30.082  34.867  1.00  0.00     0.049 A 
ATOM     62  H   UNL A   1      40.716  30.900  33.589  1.00  0.00     0.167 HD
ATOM     63  C   UNL A   1      42.349  28.716  32.803  1.00  0.00     0.074 A 
ATOM     64  C   UNL A   1      42.929  27.656  32.004  1.00  0.00     0.031 C 
ATOM     65  C   UNL A   1      42.753  29.034  34.057  1.00  0.00     0.037 A 
BRANCH  52  66
ATOM     66  C   UNL A   1      39.693  33.782  36.565  1.00  0.00     0.064 A 
ATOM     67  C   UNL A   1      38.890  33.450  37.668  1.00  0.00     0.173 A 
ATOM     68  C   UNL A   1      40.378  35.005  36.598  1.00  0.00     0.173 A 
ATOM     69  F   UNL A   1      38.205  32.297  37.681  1.00  0.00    -0.203 F 
ATOM     70  C   UNL A   1      38.756  34.321  38.745  1.00  0.00     0.198 A 
ATOM     71  C   UNL A   1      40.265  35.861  37.691  1.00  0.00     0.198 A 
ATOM     72  F   UNL A   1      41.163  35.370  35.573  1.00  0.00    -0.203 F 
ATOM     73  F   UNL A   1      37.945  34.004  39.764  1.00  0.00    -0.200 F 
ATOM     74  C   UNL A   1      39.449  35.522  38.759  1.00  0.00     0.200 A 
ATOM     75  F   UNL A   1      40.944  37.016  37.710  1.00  0.00    -0.200 F 
ATOM     76  F   UNL A   1      39.325  36.356  39.801  1.00  0.00    -0.200 F 
ENDBRANCH  52  66
BRANCH  53  77
ATOM     77  C   UNL A   1      40.633  27.991  28.482  1.00  0.00     0.064 A 
ATOM     78  C   UNL A   1      40.003  26.742  28.397  1.00  0.00     0.173 A 
ATOM     79  C   UNL A   1      41.414  28.404  27.392  1.00  0.00     0.173 A 
ATOM     80  F   UNL A   1      39.261  26.295  29.421  1.00  0.00    -0.203 F 
ATOM     81  C   UNL A   1      40.165  25.928  27.277  1.00  0.00     0.198 A 
ATOM     82  C   UNL A   1      41.553  27.602  26.261  1.00  0.00     0.198 A 
ATOM     83  F   UNL A   1      42.032  29.594  27.423  1.00  0.00    -0.203 F 
ATOM     84  F   UNL A   1      39.588  24.720  27.240  1.00  0.00    -0.200 F 
ATOM     85  C   UNL A   1      40.935  26.362  26.207  1.00  0.00     0.200 A 
ATOM     86  F   UNL A   1      42.285  28.031  25.225  1.00  0.00    -0.200 F 
ATOM     87  F   UNL A   1      41.087  25.582  25.129  1.00  0.00    -0.200 F 
ENDBRANCH  53  77
BRANCH  65  88
ATOM     88  C   UNL A   1      43.861  28.212  34.648  1.00  0.00     0.064 A 
ATOM     89  C   UNL A   1      45.203  28.604  34.539  1.00  0.00     0.173 A 
ATOM     90  C   UNL A   1      43.574  27.033  35.352  1.00  0.00     0.173 A 
ATOM     91  F   UNL A   1      45.530  29.714  33.861  1.00  0.00    -0.203 F 
ATOM     92  C   UNL A   1      46.221  27.827  35.087  1.00  0.00     0.198 A 
ATOM     93  C   UNL A   1      44.592  26.276  35.926  1.00  0.00     0.198 A 
ATOM     94  F   UNL A   1      42.305  26.619  35.491  1.00  0.00    -0.203 F 
ATOM     95  F   UNL A   1      47.500  28.192  34.924  1.00  0.00    -0.200 F 
ATOM     96  C   UNL A   1      45.914  26.668  35.785  1.00  0.00     0.200 A 
ATOM     97  F   UNL A   1      44.293  25.164  36.611  1.00  0.00    -0.200 F 
ATOM     98  F   UNL A   1      46.895  25.925  36.315  1.00  0.00    -0.200 F 
ENDBRANCH  65  88
ENDBRANCH  39  40
ENDBRANCH  31  34
ENDBRANCH  29  30
ENDBRANCH  28  29
ENDBRANCH   1  28
TORSDOF 15
ENDMDL
