MODEL 1
REMARK VINA RESULT:     -12.9      0.000      0.000
REMARK SMILES C/C=C(\C)[C@@H]1C(C)=C[C@@H]2[C@H]([C@@H]1/C=C/C=C/C(=O)NCCCCNC(=O)c1ccc(-c3c4nc(c(-c5c(F)c(F)c(F)c(F)c5F)c5ccc([nH]5)c(-c5c(F)c(F)c(F)c(F)c5F)c5nc(c(-c6c(F)c(F)c(F)c(F)c6F)c6ccc3[nH]6)C=C5)C=C4)cc1)[C@@H](C)CC[C@@H]2O
REMARK SMILES IDX 20 1 19 2 18 3 16 4 17 5 15 7 14 8 13 9 12 10 11 11 5 12
REMARK SMILES IDX 6 13 7 14 8 15 10 16 9 17 89 18 93 19 90 20 91 21 92 22 3 23
REMARK SMILES IDX 1 24 2 25 4 26 94 27 21 29 22 30 23 31 24 32 25 34 26 35
REMARK SMILES IDX 27 36 88 37 28 38 87 39 29 40 30 41 31 42 81 43 32 44 86 45
REMARK SMILES IDX 80 46 82 47 33 48 85 49 79 50 78 51 34 53 66 54 46 55 65 56
REMARK SMILES IDX 47 57 50 58 64 59 83 60 48 61 49 62 63 64 84 65 51 66 35 67
REMARK SMILES IDX 36 68 44 69 37 70 38 71 42 72 45 73 39 74 40 75 43 76 41 77
REMARK SMILES IDX 67 78 68 79 76 80 69 81 70 82 74 83 77 84 71 85 72 86 75 87
REMARK SMILES IDX 73 88 52 89 53 90 61 91 54 92 55 93 59 94 62 95 56 96 57 97
REMARK SMILES IDX 60 98 58 99
REMARK H PARENT 18 6 94 28 23 33 82 52 50 63
REMARK Flexibility Score: inf
ROOT
ATOM      1  C   UNL A   1      37.147  20.355  25.012  1.00  0.00     0.023 C 
ENDROOT
BRANCH   1   2
ATOM      2  C   UNL A   1      37.408  21.659  24.258  1.00  0.00     0.116 C 
BRANCH   2   3
ATOM      3  N   UNL A   1      38.085  22.640  25.089  1.00  0.00    -0.353 N 
ATOM      4  C   UNL A   1      37.587  23.723  25.755  1.00  0.00     0.243 C 
ATOM      5  O   UNL A   1      38.304  24.356  26.525  1.00  0.00    -0.270 OA
ATOM      6  H   UNL A   1      39.054  22.502  25.189  1.00  0.00     0.163 HD
BRANCH   4   7
ATOM      7  C   UNL A   1      36.151  24.060  25.639  1.00  0.00     0.071 C 
ATOM      8  C   UNL A   1      35.207  23.436  26.358  1.00  0.00     0.005 C 
BRANCH   8   9
ATOM      9  C   UNL A   1      33.846  23.916  26.427  1.00  0.00    -0.004 C 
ATOM     10  C   UNL A   1      33.557  25.153  25.987  1.00  0.00    -0.022 C 
BRANCH  10  11
ATOM     11  C   UNL A   1      32.169  25.732  25.805  1.00  0.00     0.027 C 
ATOM     12  C   UNL A   1      31.212  25.058  24.683  1.00  0.00     0.047 C 
ATOM     13  C   UNL A   1      30.383  26.153  23.990  1.00  0.00    -0.069 C 
ATOM     14  C   UNL A   1      28.925  25.910  23.704  1.00  0.00     0.040 C 
ATOM     15  C   UNL A   1      30.928  27.345  23.689  1.00  0.00    -0.021 C 
ATOM     16  C   UNL A   1      32.377  27.285  25.678  1.00  0.00     0.009 C 
ATOM     17  C   UNL A   1      32.303  27.712  24.191  1.00  0.00     0.044 C 
ATOM     18  C   UNL A   1      31.420  28.152  26.566  1.00  0.00    -0.010 C 
ATOM     19  C   UNL A   1      32.644  29.212  24.074  1.00  0.00     0.121 C 
ATOM     20  C   UNL A   1      31.547  27.840  28.064  1.00  0.00     0.008 C 
ATOM     21  C   UNL A   1      31.704  29.658  26.365  1.00  0.00     0.006 C 
ATOM     22  C   UNL A   1      31.709  30.088  24.903  1.00  0.00     0.033 C 
BRANCH  12  23
ATOM     23  C   UNL A   1      31.724  23.993  23.637  1.00  0.00    -0.070 C 
ATOM     24  C   UNL A   1      32.106  21.529  22.978  1.00  0.00     0.035 C 
ATOM     25  C   UNL A   1      31.655  22.657  23.858  1.00  0.00    -0.031 C 
ATOM     26  C   UNL A   1      32.437  24.460  22.400  1.00  0.00     0.040 C 
ENDBRANCH  12  23
BRANCH  19  27
ATOM     27  O   UNL A   1      32.658  29.646  22.716  1.00  0.00    -0.393 OA
ATOM     28  H   UNL A   1      31.943  30.285  22.573  1.00  0.00     0.210 HD
ENDBRANCH  19  27
ENDBRANCH  10  11
ENDBRANCH   8   9
ENDBRANCH   4   7
ENDBRANCH   2   3
ENDBRANCH   1   2
BRANCH   1  29
ATOM     29  C   UNL A   1      38.326  19.378  25.001  1.00  0.00     0.023 C 
BRANCH  29  30
ATOM     30  C   UNL A   1      39.574  19.857  25.738  1.00  0.00     0.116 C 
BRANCH  30  31
ATOM     31  N   UNL A   1      40.574  18.813  25.920  1.00  0.00    -0.352 N 
ATOM     32  C   UNL A   1      41.911  18.937  26.212  1.00  0.00     0.251 C 
ATOM     33  H   UNL A   1      40.246  17.890  25.821  1.00  0.00     0.163 HD
ATOM     34  O   UNL A   1      42.638  17.953  26.231  1.00  0.00    -0.269 OA
BRANCH  32  35
ATOM     35  C   UNL A   1      42.482  20.280  26.462  1.00  0.00     0.039 A 
ATOM     36  C   UNL A   1      43.084  20.963  25.402  1.00  0.00     0.014 A 
ATOM     37  C   UNL A   1      42.393  20.873  27.723  1.00  0.00     0.014 A 
ATOM     38  C   UNL A   1      43.516  22.279  25.583  1.00  0.00     0.010 A 
ATOM     39  C   UNL A   1      42.768  22.204  27.886  1.00  0.00     0.010 A 
ATOM     40  C   UNL A   1      43.316  22.925  26.813  1.00  0.00    -0.014 A 
BRANCH  40  41
ATOM     41  C   UNL A   1      43.629  24.366  26.989  1.00  0.00     0.031 A 
ATOM     42  C   UNL A   1      45.017  24.878  26.736  1.00  0.00     0.074 A 
ATOM     43  C   UNL A   1      42.682  25.194  27.473  1.00  0.00     0.049 A 
ATOM     44  N   UNL A   1      45.509  26.073  26.943  1.00  0.00    -0.248 NA
ATOM     45  C   UNL A   1      45.988  23.912  26.201  1.00  0.00     0.031 C 
ATOM     46  C   UNL A   1      41.310  24.806  27.805  1.00  0.00     0.029 A 
ATOM     47  N   UNL A   1      42.735  26.528  27.789  1.00  0.00    -0.354 N 
ATOM     48  C   UNL A   1      46.848  25.998  26.583  1.00  0.00     0.074 A 
ATOM     49  C   UNL A   1      47.102  24.631  26.183  1.00  0.00     0.031 C 
ATOM     50  C   UNL A   1      40.650  25.879  28.271  1.00  0.00     0.029 A 
ATOM     51  C   UNL A   1      41.560  27.018  28.308  1.00  0.00     0.049 A 
ATOM     52  H   UNL A   1      43.538  27.083  27.658  1.00  0.00     0.167 HD
ATOM     53  C   UNL A   1      47.774  26.986  26.574  1.00  0.00     0.037 A 
ATOM     54  C   UNL A   1      41.257  28.244  28.778  1.00  0.00     0.037 A 
ATOM     55  C   UNL A   1      47.510  28.352  26.943  1.00  0.00     0.049 A 
ATOM     56  C   UNL A   1      42.308  29.321  28.760  1.00  0.00     0.074 A 
ATOM     57  C   UNL A   1      48.362  29.441  26.886  1.00  0.00     0.029 A 
ATOM     58  N   UNL A   1      46.302  28.815  27.444  1.00  0.00    -0.354 N 
ATOM     59  N   UNL A   1      43.550  29.256  28.347  1.00  0.00    -0.248 NA
ATOM     60  C   UNL A   1      41.914  30.640  29.275  1.00  0.00     0.031 C 
ATOM     61  C   UNL A   1      47.685  30.554  27.395  1.00  0.00     0.029 A 
ATOM     62  C   UNL A   1      46.396  30.169  27.728  1.00  0.00     0.049 A 
ATOM     63  H   UNL A   1      45.497  28.264  27.579  1.00  0.00     0.167 HD
ATOM     64  C   UNL A   1      44.078  30.527  28.531  1.00  0.00     0.074 A 
ATOM     65  C   UNL A   1      43.018  31.346  29.080  1.00  0.00     0.031 C 
ATOM     66  C   UNL A   1      45.331  30.972  28.270  1.00  0.00     0.037 A 
BRANCH  53  67
ATOM     67  C   UNL A   1      49.167  26.629  26.144  1.00  0.00     0.064 A 
ATOM     68  C   UNL A   1      49.612  26.855  24.833  1.00  0.00     0.173 A 
ATOM     69  C   UNL A   1      50.081  26.101  27.067  1.00  0.00     0.173 A 
ATOM     70  F   UNL A   1      48.772  27.349  23.911  1.00  0.00    -0.203 F 
ATOM     71  C   UNL A   1      50.915  26.542  24.456  1.00  0.00     0.198 A 
ATOM     72  C   UNL A   1      51.391  25.815  26.694  1.00  0.00     0.198 A 
ATOM     73  F   UNL A   1      49.707  25.872  28.336  1.00  0.00    -0.203 F 
ATOM     74  F   UNL A   1      51.306  26.728  23.187  1.00  0.00    -0.200 F 
ATOM     75  C   UNL A   1      51.806  26.030  25.388  1.00  0.00     0.200 A 
ATOM     76  F   UNL A   1      52.255  25.332  27.598  1.00  0.00    -0.200 F 
ATOM     77  F   UNL A   1      53.062  25.738  25.025  1.00  0.00    -0.200 F 
ENDBRANCH  53  67
BRANCH  54  78
ATOM     78  C   UNL A   1      39.894  28.521  29.298  1.00  0.00     0.064 A 
ATOM     79  C   UNL A   1      39.572  28.273  30.640  1.00  0.00     0.173 A 
ATOM     80  C   UNL A   1      38.887  29.037  28.470  1.00  0.00     0.173 A 
ATOM     81  F   UNL A   1      40.495  27.758  31.465  1.00  0.00    -0.203 F 
ATOM     82  C   UNL A   1      38.288  28.510  31.127  1.00  0.00     0.198 A 
ATOM     83  C   UNL A   1      37.612  29.301  28.966  1.00  0.00     0.198 A 
ATOM     84  F   UNL A   1      39.146  29.297  27.180  1.00  0.00    -0.203 F 
ATOM     85  F   UNL A   1      37.995  28.222  32.404  1.00  0.00    -0.200 F 
ATOM     86  C   UNL A   1      37.312  29.030  30.293  1.00  0.00     0.200 A 
ATOM     87  F   UNL A   1      36.673  29.815  28.159  1.00  0.00    -0.200 F 
ATOM     88  F   UNL A   1      36.079  29.263  30.764  1.00  0.00    -0.200 F 
ENDBRANCH  54  78
BRANCH  66  89
ATOM     89  C   UNL A   1      45.622  32.416  28.554  1.00  0.00     0.064 A 
ATOM     90  C   UNL A   1      46.149  32.829  29.785  1.00  0.00     0.173 A 
ATOM     91  C   UNL A   1      45.417  33.390  27.565  1.00  0.00     0.173 A 
ATOM     92  F   UNL A   1      46.346  31.937  30.769  1.00  0.00    -0.203 F 
ATOM     93  C   UNL A   1      46.446  34.168  30.023  1.00  0.00     0.198 A 
ATOM     94  C   UNL A   1      45.740  34.724  27.797  1.00  0.00     0.198 A 
ATOM     95  F   UNL A   1      44.919  33.044  26.368  1.00  0.00    -0.203 F 
ATOM     96  F   UNL A   1      46.914  34.546  31.220  1.00  0.00    -0.200 F 
ATOM     97  C   UNL A   1      46.250  35.113  29.026  1.00  0.00     0.200 A 
ATOM     98  F   UNL A   1      45.562  35.632  26.828  1.00  0.00    -0.200 F 
ATOM     99  F   UNL A   1      46.547  36.399  29.252  1.00  0.00    -0.200 F 
ENDBRANCH  66  89
ENDBRANCH  40  41
ENDBRANCH  32  35
ENDBRANCH  30  31
ENDBRANCH  29  30
ENDBRANCH   1  29
TORSDOF 15
ENDMDL
MODEL 2
REMARK VINA RESULT:     -12.8      5.902     11.297
REMARK SMILES C/C=C(\C)[C@@H]1C(C)=C[C@@H]2[C@H]([C@@H]1/C=C/C=C/C(=O)NCCCCNC(=O)c1ccc(-c3c4nc(c(-c5c(F)c(F)c(F)c(F)c5F)c5ccc([nH]5)c(-c5c(F)c(F)c(F)c(F)c5F)c5nc(c(-c6c(F)c(F)c(F)c(F)c6F)c6ccc3[nH]6)C=C5)C=C4)cc1)[C@@H](C)CC[C@@H]2O
REMARK SMILES IDX 20 1 19 2 18 3 16 4 17 5 15 7 14 8 13 9 12 10 11 11 5 12
REMARK SMILES IDX 6 13 7 14 8 15 10 16 9 17 89 18 93 19 90 20 91 21 92 22 3 23
REMARK SMILES IDX 1 24 2 25 4 26 94 27 21 29 22 30 23 31 24 32 25 34 26 35
REMARK SMILES IDX 27 36 88 37 28 38 87 39 29 40 30 41 31 42 81 43 32 44 86 45
REMARK SMILES IDX 80 46 82 47 33 48 85 49 79 50 78 51 34 53 66 54 46 55 65 56
REMARK SMILES IDX 47 57 50 58 64 59 83 60 48 61 49 62 63 64 84 65 51 66 35 67
REMARK SMILES IDX 36 68 44 69 37 70 38 71 42 72 45 73 39 74 40 75 43 76 41 77
REMARK SMILES IDX 67 78 68 79 76 80 69 81 70 82 74 83 77 84 71 85 72 86 75 87
REMARK SMILES IDX 73 88 52 89 53 90 61 91 54 92 55 93 59 94 62 95 56 96 57 97
REMARK SMILES IDX 60 98 58 99
REMARK H PARENT 18 6 94 28 23 33 82 52 50 63
REMARK Flexibility Score: inf
ROOT
ATOM      1  C   UNL A   1      35.213  32.747  28.252  1.00  0.00     0.023 C 
ENDROOT
BRANCH   1   2
ATOM      2  C   UNL A   1      34.995  31.275  27.899  1.00  0.00     0.116 C 
BRANCH   2   3
ATOM      3  N   UNL A   1      33.586  30.918  27.904  1.00  0.00    -0.353 N 
ATOM      4  C   UNL A   1      32.923  29.939  27.222  1.00  0.00     0.243 C 
ATOM      5  O   UNL A   1      31.743  29.706  27.470  1.00  0.00    -0.270 OA
ATOM      6  H   UNL A   1      33.020  31.469  28.493  1.00  0.00     0.163 HD
BRANCH   4   7
ATOM      7  C   UNL A   1      33.660  29.081  26.268  1.00  0.00     0.071 C 
ATOM      8  C   UNL A   1      33.597  27.743  26.311  1.00  0.00     0.005 C 
BRANCH   8   9
ATOM      9  C   UNL A   1      34.116  26.911  25.250  1.00  0.00    -0.004 C 
ATOM     10  C   UNL A   1      33.876  25.588  25.269  1.00  0.00    -0.022 C 
BRANCH  10  11
ATOM     11  C   UNL A   1      34.172  24.613  24.148  1.00  0.00     0.027 C 
ATOM     12  C   UNL A   1      33.193  24.631  22.855  1.00  0.00     0.047 C 
ATOM     13  C   UNL A   1      32.988  23.194  22.345  1.00  0.00    -0.069 C 
ATOM     14  C   UNL A   1      33.018  22.920  20.866  1.00  0.00     0.040 C 
ATOM     15  C   UNL A   1      32.840  22.172  23.207  1.00  0.00    -0.021 C 
ATOM     16  C   UNL A   1      34.351  23.215  24.845  1.00  0.00     0.009 C 
ATOM     17  C   UNL A   1      33.062  22.372  24.686  1.00  0.00     0.044 C 
ATOM     18  C   UNL A   1      35.617  22.411  24.391  1.00  0.00    -0.010 C 
ATOM     19  C   UNL A   1      33.207  21.063  25.490  1.00  0.00     0.121 C 
ATOM     20  C   UNL A   1      36.929  23.168  24.641  1.00  0.00     0.008 C 
ATOM     21  C   UNL A   1      35.697  21.057  25.132  1.00  0.00     0.006 C 
ATOM     22  C   UNL A   1      34.413  20.239  25.051  1.00  0.00     0.033 C 
BRANCH  12  23
ATOM     23  C   UNL A   1      31.842  25.446  22.805  1.00  0.00    -0.070 C 
ATOM     24  C   UNL A   1      30.590  27.647  22.321  1.00  0.00     0.035 C 
ATOM     25  C   UNL A   1      31.782  26.741  22.410  1.00  0.00    -0.031 C 
ATOM     26  C   UNL A   1      30.585  24.817  23.334  1.00  0.00     0.040 C 
ENDBRANCH  12  23
BRANCH  19  27
ATOM     27  O   UNL A   1      32.020  20.276  25.435  1.00  0.00    -0.393 OA
ATOM     28  H   UNL A   1      31.297  20.806  25.065  1.00  0.00     0.210 HD
ENDBRANCH  19  27
ENDBRANCH  10  11
ENDBRANCH   8   9
ENDBRANCH   4   7
ENDBRANCH   2   3
ENDBRANCH   1   2
BRANCH   1  29
ATOM     29  C   UNL A   1      33.947  33.605  28.174  1.00  0.00     0.023 C 
BRANCH  29  30
ATOM     30  C   UNL A   1      34.126  35.066  28.576  1.00  0.00     0.116 C 
BRANCH  30  31
ATOM     31  N   UNL A   1      33.135  35.525  29.541  1.00  0.00    -0.352 N 
ATOM     32  C   UNL A   1      33.095  35.327  30.901  1.00  0.00     0.251 C 
ATOM     33  H   UNL A   1      32.391  36.050  29.168  1.00  0.00     0.163 HD
ATOM     34  O   UNL A   1      32.129  35.696  31.555  1.00  0.00    -0.269 OA
BRANCH  32  35
ATOM     35  C   UNL A   1      34.212  34.622  31.569  1.00  0.00     0.039 A 
ATOM     36  C   UNL A   1      34.031  33.290  31.956  1.00  0.00     0.014 A 
ATOM     37  C   UNL A   1      35.437  35.257  31.780  1.00  0.00     0.014 A 
ATOM     38  C   UNL A   1      35.110  32.568  32.472  1.00  0.00     0.010 A 
ATOM     39  C   UNL A   1      36.526  34.519  32.237  1.00  0.00     0.010 A 
ATOM     40  C   UNL A   1      36.377  33.164  32.570  1.00  0.00    -0.014 A 
BRANCH  40  41
ATOM     41  C   UNL A   1      37.571  32.379  32.975  1.00  0.00     0.031 A 
ATOM     42  C   UNL A   1      38.285  32.690  34.258  1.00  0.00     0.074 A 
ATOM     43  C   UNL A   1      38.067  31.450  32.134  1.00  0.00     0.049 A 
ATOM     44  N   UNL A   1      39.403  32.194  34.724  1.00  0.00    -0.248 NA
ATOM     45  C   UNL A   1      37.674  33.711  35.122  1.00  0.00     0.031 C 
ATOM     46  C   UNL A   1      37.492  31.091  30.837  1.00  0.00     0.029 A 
ATOM     47  N   UNL A   1      39.180  30.652  32.236  1.00  0.00    -0.354 N 
ATOM     48  C   UNL A   1      39.640  32.855  35.922  1.00  0.00     0.074 A 
ATOM     49  C   UNL A   1      38.571  33.814  36.093  1.00  0.00     0.031 C 
ATOM     50  C   UNL A   1      38.251  30.141  30.267  1.00  0.00     0.029 A 
ATOM     51  C   UNL A   1      39.385  29.852  31.138  1.00  0.00     0.049 A 
ATOM     52  H   UNL A   1      39.774  30.653  33.021  1.00  0.00     0.167 HD
ATOM     53  C   UNL A   1      40.649  32.664  36.804  1.00  0.00     0.037 A 
ATOM     54  C   UNL A   1      40.385  28.994  30.856  1.00  0.00     0.037 A 
ATOM     55  C   UNL A   1      41.694  31.687  36.646  1.00  0.00     0.049 A 
ATOM     56  C   UNL A   1      41.496  28.806  31.853  1.00  0.00     0.074 A 
ATOM     57  C   UNL A   1      42.712  31.361  37.525  1.00  0.00     0.029 A 
ATOM     58  N   UNL A   1      41.857  30.879  35.529  1.00  0.00    -0.354 N 
ATOM     59  N   UNL A   1      41.668  29.383  33.018  1.00  0.00    -0.248 NA
ATOM     60  C   UNL A   1      42.553  27.849  31.496  1.00  0.00     0.031 C 
ATOM     61  C   UNL A   1      43.518  30.391  36.923  1.00  0.00     0.029 A 
ATOM     62  C   UNL A   1      42.977  30.078  35.686  1.00  0.00     0.049 A 
ATOM     63  H   UNL A   1      41.266  30.876  34.742  1.00  0.00     0.167 HD
ATOM     64  C   UNL A   1      42.836  28.845  33.540  1.00  0.00     0.074 A 
ATOM     65  C   UNL A   1      43.325  27.884  32.573  1.00  0.00     0.031 C 
ATOM     66  C   UNL A   1      43.449  29.124  34.716  1.00  0.00     0.037 A 
BRANCH  53  67
ATOM     67  C   UNL A   1      40.673  33.528  38.031  1.00  0.00     0.064 A 
ATOM     68  C   UNL A   1      41.524  34.638  38.130  1.00  0.00     0.173 A 
ATOM     69  C   UNL A   1      39.799  33.271  39.097  1.00  0.00     0.173 A 
ATOM     70  F   UNL A   1      42.385  34.919  37.141  1.00  0.00    -0.203 F 
ATOM     71  C   UNL A   1      41.518  35.446  39.264  1.00  0.00     0.198 A 
ATOM     72  C   UNL A   1      39.776  34.097  40.218  1.00  0.00     0.198 A 
ATOM     73  F   UNL A   1      38.960  32.226  39.049  1.00  0.00    -0.203 F 
ATOM     74  F   UNL A   1      42.370  36.477  39.355  1.00  0.00    -0.200 F 
ATOM     75  C   UNL A   1      40.638  35.180  40.303  1.00  0.00     0.200 A 
ATOM     76  F   UNL A   1      38.918  33.847  41.216  1.00  0.00    -0.200 F 
ATOM     77  F   UNL A   1      40.627  35.964  41.390  1.00  0.00    -0.200 F 
ENDBRANCH  53  67
BRANCH  54  78
ATOM     78  C   UNL A   1      40.377  28.240  29.577  1.00  0.00     0.064 A 
ATOM     79  C   UNL A   1      41.119  28.688  28.474  1.00  0.00     0.173 A 
ATOM     80  C   UNL A   1      39.631  27.063  29.427  1.00  0.00     0.173 A 
ATOM     81  F   UNL A   1      41.830  29.821  28.563  1.00  0.00    -0.203 F 
ATOM     82  C   UNL A   1      41.097  27.997  27.265  1.00  0.00     0.198 A 
ATOM     83  C   UNL A   1      39.633  26.357  28.226  1.00  0.00     0.198 A 
ATOM     84  F   UNL A   1      38.908  26.590  30.454  1.00  0.00    -0.203 F 
ATOM     85  F   UNL A   1      41.780  28.471  26.213  1.00  0.00    -0.200 F 
ATOM     86  C   UNL A   1      40.360  26.829  27.143  1.00  0.00     0.200 A 
ATOM     87  F   UNL A   1      38.929  25.222  28.115  1.00  0.00    -0.200 F 
ATOM     88  F   UNL A   1      40.344  26.163  25.981  1.00  0.00    -0.200 F 
ENDBRANCH  54  78
BRANCH  66  89
ATOM     89  C   UNL A   1      44.705  28.368  35.035  1.00  0.00     0.064 A 
ATOM     90  C   UNL A   1      45.969  28.871  34.695  1.00  0.00     0.173 A 
ATOM     91  C   UNL A   1      44.645  27.151  35.731  1.00  0.00     0.173 A 
ATOM     92  F   UNL A   1      46.077  30.021  34.014  1.00  0.00    -0.203 F 
ATOM     93  C   UNL A   1      47.128  28.175  35.028  1.00  0.00     0.198 A 
ATOM     94  C   UNL A   1      45.807  26.472  36.085  1.00  0.00     0.198 A 
ATOM     95  F   UNL A   1      43.459  26.631  36.082  1.00  0.00    -0.203 F 
ATOM     96  F   UNL A   1      48.324  28.655  34.661  1.00  0.00    -0.200 F 
ATOM     97  C   UNL A   1      47.047  26.981  35.730  1.00  0.00     0.200 A 
ATOM     98  F   UNL A   1      45.727  25.325  36.773  1.00  0.00    -0.200 F 
ATOM     99  F   UNL A   1      48.164  26.319  36.058  1.00  0.00    -0.200 F 
ENDBRANCH  66  89
ENDBRANCH  40  41
ENDBRANCH  32  35
ENDBRANCH  30  31
ENDBRANCH  29  30
ENDBRANCH   1  29
TORSDOF 15
ENDMDL
MODEL 3
REMARK VINA RESULT:     -12.8      5.557     11.228
REMARK SMILES C/C=C(\C)[C@@H]1C(C)=C[C@@H]2[C@H]([C@@H]1/C=C/C=C/C(=O)NCCCCNC(=O)c1ccc(-c3c4nc(c(-c5c(F)c(F)c(F)c(F)c5F)c5ccc([nH]5)c(-c5c(F)c(F)c(F)c(F)c5F)c5nc(c(-c6c(F)c(F)c(F)c(F)c6F)c6ccc3[nH]6)C=C5)C=C4)cc1)[C@@H](C)CC[C@@H]2O
REMARK SMILES IDX 20 1 19 2 18 3 16 4 17 5 15 7 14 8 13 9 12 10 11 11 5 12
REMARK SMILES IDX 6 13 7 14 8 15 10 16 9 17 89 18 93 19 90 20 91 21 92 22 3 23
REMARK SMILES IDX 1 24 2 25 4 26 94 27 21 29 22 30 23 31 24 32 25 34 26 35
REMARK SMILES IDX 27 36 88 37 28 38 87 39 29 40 30 41 31 42 81 43 32 44 86 45
REMARK SMILES IDX 80 46 82 47 33 48 85 49 79 50 78 51 34 53 66 54 46 55 65 56
REMARK SMILES IDX 47 57 50 58 64 59 83 60 48 61 49 62 63 64 84 65 51 66 35 67
REMARK SMILES IDX 36 68 44 69 37 70 38 71 42 72 45 73 39 74 40 75 43 76 41 77
REMARK SMILES IDX 67 78 68 79 76 80 69 81 70 82 74 83 77 84 71 85 72 86 75 87
REMARK SMILES IDX 73 88 52 89 53 90 61 91 54 92 55 93 59 94 62 95 56 96 57 97
REMARK SMILES IDX 60 98 58 99
REMARK H PARENT 18 6 94 28 23 33 82 52 50 63
REMARK Flexibility Score: inf
ROOT
ATOM      1  C   UNL A   1      31.787  31.358  26.116  1.00  0.00     0.023 C 
ENDROOT
BRANCH   1   2
ATOM      2  C   UNL A   1      32.826  30.519  26.861  1.00  0.00     0.116 C 
BRANCH   2   3
ATOM      3  N   UNL A   1      32.205  29.542  27.741  1.00  0.00    -0.353 N 
ATOM      4  C   UNL A   1      32.004  28.203  27.567  1.00  0.00     0.243 C 
ATOM      5  O   UNL A   1      31.583  27.517  28.495  1.00  0.00    -0.270 OA
ATOM      6  H   UNL A   1      31.879  29.903  28.597  1.00  0.00     0.163 HD
BRANCH   4   7
ATOM      7  C   UNL A   1      32.408  27.559  26.298  1.00  0.00     0.071 C 
ATOM      8  C   UNL A   1      33.691  27.333  25.985  1.00  0.00     0.005 C 
BRANCH   8   9
ATOM      9  C   UNL A   1      34.079  26.499  24.870  1.00  0.00    -0.004 C 
ATOM     10  C   UNL A   1      34.103  25.163  25.019  1.00  0.00    -0.022 C 
BRANCH  10  11
ATOM     11  C   UNL A   1      34.291  24.146  23.912  1.00  0.00     0.027 C 
ATOM     12  C   UNL A   1      33.270  24.204  22.654  1.00  0.00     0.047 C 
ATOM     13  C   UNL A   1      32.949  22.774  22.187  1.00  0.00    -0.069 C 
ATOM     14  C   UNL A   1      32.906  22.467  20.714  1.00  0.00     0.040 C 
ATOM     15  C   UNL A   1      32.764  21.783  23.077  1.00  0.00    -0.021 C 
ATOM     16  C   UNL A   1      34.400  22.755  24.637  1.00  0.00     0.009 C 
ATOM     17  C   UNL A   1      33.052  21.999  24.542  1.00  0.00     0.044 C 
ATOM     18  C   UNL A   1      35.591  21.856  24.158  1.00  0.00    -0.010 C 
ATOM     19  C   UNL A   1      33.137  20.701  25.373  1.00  0.00     0.121 C 
ATOM     20  C   UNL A   1      36.960  22.527  24.344  1.00  0.00     0.008 C 
ATOM     21  C   UNL A   1      35.607  20.516  24.928  1.00  0.00     0.006 C 
ATOM     22  C   UNL A   1      34.268  19.787  24.911  1.00  0.00     0.033 C 
BRANCH  12  23
ATOM     23  C   UNL A   1      31.976  25.108  22.632  1.00  0.00    -0.070 C 
ATOM     24  C   UNL A   1      29.692  25.746  23.645  1.00  0.00     0.035 C 
ATOM     25  C   UNL A   1      30.978  24.980  23.540  1.00  0.00    -0.031 C 
ATOM     26  C   UNL A   1      31.766  26.063  21.492  1.00  0.00     0.040 C 
ENDBRANCH  12  23
BRANCH  19  27
ATOM     27  O   UNL A   1      31.898  19.996  25.377  1.00  0.00    -0.393 OA
ATOM     28  H   UNL A   1      31.807  19.497  24.551  1.00  0.00     0.210 HD
ENDBRANCH  19  27
ENDBRANCH  10  11
ENDBRANCH   8   9
ENDBRANCH   4   7
ENDBRANCH   2   3
ENDBRANCH   1   2
BRANCH   1  29
ATOM     29  C   UNL A   1      31.509  32.723  26.752  1.00  0.00     0.023 C 
BRANCH  29  30
ATOM     30  C   UNL A   1      32.650  33.295  27.588  1.00  0.00     0.116 C 
BRANCH  30  31
ATOM     31  N   UNL A   1      32.485  34.708  27.901  1.00  0.00    -0.352 N 
ATOM     32  C   UNL A   1      33.177  35.482  28.802  1.00  0.00     0.251 C 
ATOM     33  H   UNL A   1      31.779  35.174  27.398  1.00  0.00     0.163 HD
ATOM     34  O   UNL A   1      32.840  36.638  29.018  1.00  0.00    -0.269 OA
BRANCH  32  35
ATOM     35  C   UNL A   1      34.313  34.894  29.547  1.00  0.00     0.039 A 
ATOM     36  C   UNL A   1      34.092  34.415  30.842  1.00  0.00     0.014 A 
ATOM     37  C   UNL A   1      35.576  34.785  28.961  1.00  0.00     0.014 A 
ATOM     38  C   UNL A   1      35.115  33.744  31.515  1.00  0.00     0.010 A 
ATOM     39  C   UNL A   1      36.575  34.063  29.609  1.00  0.00     0.010 A 
ATOM     40  C   UNL A   1      36.349  33.520  30.883  1.00  0.00    -0.014 A 
BRANCH  40  41
ATOM     41  C   UNL A   1      37.401  32.683  31.515  1.00  0.00     0.031 A 
ATOM     42  C   UNL A   1      37.919  33.022  32.883  1.00  0.00     0.074 A 
ATOM     43  C   UNL A   1      37.956  31.677  30.812  1.00  0.00     0.049 A 
ATOM     44  N   UNL A   1      38.909  32.482  33.549  1.00  0.00    -0.248 NA
ATOM     45  C   UNL A   1      37.254  34.129  33.585  1.00  0.00     0.031 C 
ATOM     46  C   UNL A   1      37.573  31.282  29.456  1.00  0.00     0.029 A 
ATOM     47  N   UNL A   1      38.976  30.816  31.133  1.00  0.00    -0.354 N 
ATOM     48  C   UNL A   1      38.997  33.194  34.737  1.00  0.00     0.074 A 
ATOM     49  C   UNL A   1      37.988  34.230  34.684  1.00  0.00     0.031 C 
ATOM     50  C   UNL A   1      38.341  30.252  29.063  1.00  0.00     0.029 A 
ATOM     51  C   UNL A   1      39.296  29.941  30.122  1.00  0.00     0.049 A 
ATOM     52  H   UNL A   1      39.434  30.824  32.004  1.00  0.00     0.167 HD
ATOM     53  C   UNL A   1      39.834  32.990  35.782  1.00  0.00     0.037 A 
ATOM     54  C   UNL A   1      40.262  29.005  30.050  1.00  0.00     0.037 A 
ATOM     55  C   UNL A   1      40.816  31.940  35.843  1.00  0.00     0.049 A 
ATOM     56  C   UNL A   1      41.182  28.804  31.224  1.00  0.00     0.074 A 
ATOM     57  C   UNL A   1      41.652  31.600  36.893  1.00  0.00     0.029 A 
ATOM     58  N   UNL A   1      41.097  31.060  34.808  1.00  0.00    -0.354 N 
ATOM     59  N   UNL A   1      41.205  29.435  32.373  1.00  0.00    -0.248 NA
ATOM     60  C   UNL A   1      42.208  27.761  31.091  1.00  0.00     0.031 C 
ATOM     61  C   UNL A   1      42.471  30.546  36.478  1.00  0.00     0.029 A 
ATOM     62  C   UNL A   1      42.115  30.197  35.185  1.00  0.00     0.049 A 
ATOM     63  H   UNL A   1      40.642  31.049  33.935  1.00  0.00     0.167 HD
ATOM     64  C   UNL A   1      42.231  28.853  33.105  1.00  0.00     0.074 A 
ATOM     65  C   UNL A   1      42.797  27.809  32.278  1.00  0.00     0.031 C 
ATOM     66  C   UNL A   1      42.665  29.160  34.352  1.00  0.00     0.037 A 
BRANCH  53  67
ATOM     67  C   UNL A   1      39.724  33.921  36.954  1.00  0.00     0.064 A 
ATOM     68  C   UNL A   1      40.392  35.153  36.978  1.00  0.00     0.173 A 
ATOM     69  C   UNL A   1      38.900  33.597  38.042  1.00  0.00     0.173 A 
ATOM     70  F   UNL A   1      41.199  35.504  35.966  1.00  0.00    -0.203 F 
ATOM     71  C   UNL A   1      40.260  36.018  38.061  1.00  0.00     0.198 A 
ATOM     72  C   UNL A   1      38.749  34.476  39.112  1.00  0.00     0.198 A 
ATOM     73  F   UNL A   1      38.234  32.433  38.065  1.00  0.00    -0.203 F 
ATOM     74  F   UNL A   1      40.942  37.172  38.082  1.00  0.00    -0.200 F 
ATOM     75  C   UNL A   1      39.433  35.683  39.123  1.00  0.00     0.200 A 
ATOM     76  F   UNL A   1      37.940  34.157  40.131  1.00  0.00    -0.200 F 
ATOM     77  F   UNL A   1      39.301  36.520  40.161  1.00  0.00    -0.200 F 
ENDBRANCH  53  67
BRANCH  54  78
ATOM     78  C   UNL A   1      40.405  28.181  28.823  1.00  0.00     0.064 A 
ATOM     79  C   UNL A   1      41.207  28.611  27.757  1.00  0.00     0.173 A 
ATOM     80  C   UNL A   1      39.745  26.951  28.689  1.00  0.00     0.173 A 
ATOM     81  F   UNL A   1      41.841  29.791  27.831  1.00  0.00    -0.203 F 
ATOM     82  C   UNL A   1      41.327  27.852  26.595  1.00  0.00     0.198 A 
ATOM     83  C   UNL A   1      39.889  26.179  27.538  1.00  0.00     0.198 A 
ATOM     84  F   UNL A   1      38.969  26.493  29.683  1.00  0.00    -0.203 F 
ATOM     85  F   UNL A   1      42.066  28.308  25.573  1.00  0.00    -0.200 F 
ATOM     86  C   UNL A   1      40.674  26.634  26.489  1.00  0.00     0.200 A 
ATOM     87  F   UNL A   1      39.265  24.997  27.443  1.00  0.00    -0.200 F 
ATOM     88  F   UNL A   1      40.793  25.903  25.373  1.00  0.00    -0.200 F 
ENDBRANCH  54  78
BRANCH  66  89
ATOM     89  C   UNL A   1      43.794  28.344  34.908  1.00  0.00     0.064 A 
ATOM     90  C   UNL A   1      45.126  28.768  34.803  1.00  0.00     0.173 A 
ATOM     91  C   UNL A   1      43.536  27.149  35.597  1.00  0.00     0.173 A 
ATOM     92  F   UNL A   1      45.425  29.894  34.138  1.00  0.00    -0.203 F 
ATOM     93  C   UNL A   1      46.161  28.017  35.354  1.00  0.00     0.198 A 
ATOM     94  C   UNL A   1      44.570  26.415  36.169  1.00  0.00     0.198 A 
ATOM     95  F   UNL A   1      42.277  26.703  35.728  1.00  0.00    -0.203 F 
ATOM     96  F   UNL A   1      47.430  28.422  35.209  1.00  0.00    -0.200 F 
ATOM     97  C   UNL A   1      45.882  26.847  36.044  1.00  0.00     0.200 A 
ATOM     98  F   UNL A   1      44.298  25.291  36.846  1.00  0.00    -0.200 F 
ATOM     99  F   UNL A   1      46.878  26.132  36.583  1.00  0.00    -0.200 F 
ENDBRANCH  66  89
ENDBRANCH  40  41
ENDBRANCH  32  35
ENDBRANCH  30  31
ENDBRANCH  29  30
ENDBRANCH   1  29
TORSDOF 15
ENDMDL
