MODEL 1
REMARK VINA RESULT:     -12.5      0.000      0.000
REMARK SMILES Cc1nn(C)c2c1NC(=O)[C@@H](CCC(=O)NCCCCNC(=O)c1ccc(-c3c4nc(c(-c5c(F)c(F)c(F)c(F)c5F)c5ccc([nH]5)c(-c5c(F)c(F)c(F)c(F)c5F)c5nc(c(-c6c(F)c(F)c(F)c(F)c6F)c6ccc3[nH]6)C=C5)C=C4)cc1)N2
REMARK SMILES IDX 18 1 17 2 16 3 14 4 15 5 13 7 12 8 11 9 1 10 2 11 3 12 7 13
REMARK SMILES IDX 4 14 6 15 8 16 5 17 87 18 9 19 10 22 19 23 20 24 21 25 22 26
REMARK SMILES IDX 23 28 24 29 25 30 86 31 26 32 85 33 27 34 28 35 29 36 79 37
REMARK SMILES IDX 30 38 84 39 78 40 80 41 31 42 83 43 77 44 76 45 32 47 64 48
REMARK SMILES IDX 44 49 63 50 45 51 48 52 62 53 81 54 46 55 47 56 61 58 82 59
REMARK SMILES IDX 49 60 33 61 34 62 42 63 35 64 36 65 40 66 43 67 37 68 38 69
REMARK SMILES IDX 41 70 39 71 65 72 66 73 74 74 67 75 68 76 72 77 75 78 69 79
REMARK SMILES IDX 70 80 73 81 71 82 50 83 51 84 59 85 52 86 53 87 57 88 60 89
REMARK SMILES IDX 54 90 55 91 58 92 56 93
REMARK H PARENT 16 6 8 20 87 21 21 27 80 46 48 57
REMARK Flexibility Score: inf
ROOT
ATOM      1  C   UNL A   1      36.238  21.378  24.650  1.00  0.00     0.023 C 
ENDROOT
BRANCH   1   2
ATOM      2  C   UNL A   1      35.197  21.003  25.712  1.00  0.00     0.116 C 
BRANCH   2   3
ATOM      3  N   UNL A   1      34.312  19.919  25.330  1.00  0.00    -0.356 N 
ATOM      4  C   UNL A   1      33.146  19.900  24.619  1.00  0.00     0.220 C 
ATOM      5  O   UNL A   1      32.665  18.810  24.302  1.00  0.00    -0.275 OA
ATOM      6  H   UNL A   1      34.607  19.032  25.641  1.00  0.00     0.163 HD
BRANCH   4   7
ATOM      7  C   UNL A   1      32.437  21.188  24.238  1.00  0.00     0.102 C 
BRANCH   7   8
ATOM      8  C   UNL A   1      31.632  21.845  25.377  1.00  0.00     0.045 C 
BRANCH   8   9
ATOM      9  C   UNL A   1      31.880  23.349  25.497  1.00  0.00     0.171 C 
ATOM     10  C   UNL A   1      28.965  27.433  23.506  1.00  0.00     0.071 C 
ATOM     11  C   UNL A   1      30.187  26.603  23.422  1.00  0.00     0.085 A 
ATOM     12  N   UNL A   1      31.112  26.798  22.469  1.00  0.00    -0.174 NA
ATOM     13  C   UNL A   1      30.559  25.552  24.274  1.00  0.00     0.107 A 
ATOM     14  N   UNL A   1      32.057  25.856  22.728  1.00  0.00    -0.251 N 
ATOM     15  C   UNL A   1      31.711  25.026  23.760  1.00  0.00     0.149 A 
ATOM     16  N   UNL A   1      30.002  25.064  25.418  1.00  0.00    -0.320 N 
ATOM     17  C   UNL A   1      33.292  25.889  21.986  1.00  0.00     0.176 C 
ATOM     18  N   UNL A   1      32.368  23.944  24.227  1.00  0.00    -0.357 N 
ATOM     19  C   UNL A   1      30.623  24.071  26.132  1.00  0.00     0.247 C 
ATOM     20  H   UNL A   1      29.143  25.428  25.735  1.00  0.00     0.170 HD
ATOM     21  H   UNL A   1      33.139  23.565  23.747  1.00  0.00     0.163 HD
ATOM     22  O   UNL A   1      30.176  23.806  27.237  1.00  0.00    -0.272 OA
ENDBRANCH   8   9
ENDBRANCH   7   8
ENDBRANCH   4   7
ENDBRANCH   2   3
ENDBRANCH   1   2
BRANCH   1  23
ATOM     23  C   UNL A   1      37.697  21.049  24.970  1.00  0.00     0.023 C 
BRANCH  23  24
ATOM     24  C   UNL A   1      38.406  22.145  25.751  1.00  0.00     0.116 C 
BRANCH  24  25
ATOM     25  N   UNL A   1      39.354  21.558  26.686  1.00  0.00    -0.352 N 
ATOM     26  C   UNL A   1      40.397  22.102  27.366  1.00  0.00     0.251 C 
ATOM     27  H   UNL A   1      39.216  20.597  26.856  1.00  0.00     0.163 HD
ATOM     28  O   UNL A   1      41.208  21.343  27.902  1.00  0.00    -0.269 OA
BRANCH  26  29
ATOM     29  C   UNL A   1      40.579  23.557  27.478  1.00  0.00     0.039 A 
ATOM     30  C   UNL A   1      41.743  24.091  26.914  1.00  0.00     0.014 A 
ATOM     31  C   UNL A   1      39.715  24.369  28.220  1.00  0.00     0.014 A 
ATOM     32  C   UNL A   1      42.040  25.432  27.089  1.00  0.00     0.010 A 
ATOM     33  C   UNL A   1      40.003  25.721  28.381  1.00  0.00     0.010 A 
ATOM     34  C   UNL A   1      41.169  26.250  27.821  1.00  0.00    -0.014 A 
BRANCH  34  35
ATOM     35  C   UNL A   1      41.530  27.668  27.930  1.00  0.00     0.031 A 
ATOM     36  C   UNL A   1      40.391  28.631  27.809  1.00  0.00     0.074 A 
ATOM     37  C   UNL A   1      42.621  28.018  28.638  1.00  0.00     0.049 A 
ATOM     38  N   UNL A   1      39.606  28.955  28.795  1.00  0.00    -0.248 NA
ATOM     39  C   UNL A   1      39.917  29.087  26.502  1.00  0.00     0.031 C 
ATOM     40  C   UNL A   1      43.050  27.356  29.876  1.00  0.00     0.029 A 
ATOM     41  N   UNL A   1      43.448  29.111  28.529  1.00  0.00    -0.354 N 
ATOM     42  C   UNL A   1      38.528  29.635  28.254  1.00  0.00     0.074 A 
ATOM     43  C   UNL A   1      38.765  29.694  26.828  1.00  0.00     0.031 C 
ATOM     44  C   UNL A   1      43.935  28.156  30.505  1.00  0.00     0.029 A 
ATOM     45  C   UNL A   1      44.231  29.311  29.662  1.00  0.00     0.049 A 
ATOM     46  H   UNL A   1      43.481  29.690  27.734  1.00  0.00     0.167 HD
ATOM     47  C   UNL A   1      37.501  30.123  28.999  1.00  0.00     0.037 A 
ATOM     48  C   UNL A   1      44.576  30.540  30.137  1.00  0.00     0.037 A 
ATOM     49  C   UNL A   1      37.597  29.922  30.412  1.00  0.00     0.049 A 
ATOM     50  C   UNL A   1      43.248  31.012  30.680  1.00  0.00     0.074 A 
ATOM     51  C   UNL A   1      37.104  29.050  31.358  1.00  0.00     0.029 A 
ATOM     52  N   UNL A   1      38.406  30.777  31.122  1.00  0.00    -0.354 N 
ATOM     53  N   UNL A   1      42.711  30.656  31.817  1.00  0.00    -0.248 NA
ATOM     54  C   UNL A   1      42.318  31.642  29.739  1.00  0.00     0.031 C 
ATOM     55  C   UNL A   1      38.009  29.141  32.464  1.00  0.00     0.029 A 
ATOM     56  C   UNL A   1      39.019  30.027  32.091  1.00  0.00     0.049 A 
ATOM     57  H   UNL A   1      38.523  31.742  30.965  1.00  0.00     0.167 HD
ATOM     58  C   UNL A   1      41.331  30.789  31.637  1.00  0.00     0.074 A 
ATOM     59  C   UNL A   1      41.161  31.424  30.347  1.00  0.00     0.031 C 
ATOM     60  C   UNL A   1      40.404  30.210  32.455  1.00  0.00     0.037 A 
BRANCH  47  61
ATOM     61  C   UNL A   1      36.441  31.010  28.484  1.00  0.00     0.064 A 
ATOM     62  C   UNL A   1      36.636  32.394  28.601  1.00  0.00     0.173 A 
ATOM     63  C   UNL A   1      35.177  30.547  28.113  1.00  0.00     0.173 A 
ATOM     64  F   UNL A   1      37.838  32.870  28.972  1.00  0.00    -0.203 F 
ATOM     65  C   UNL A   1      35.591  33.286  28.404  1.00  0.00     0.198 A 
ATOM     66  C   UNL A   1      34.130  31.445  27.905  1.00  0.00     0.198 A 
ATOM     67  F   UNL A   1      34.942  29.231  28.002  1.00  0.00    -0.203 F 
ATOM     68  F   UNL A   1      35.795  34.598  28.582  1.00  0.00    -0.200 F 
ATOM     69  C   UNL A   1      34.334  32.810  28.068  1.00  0.00     0.200 A 
ATOM     70  F   UNL A   1      32.911  30.991  27.582  1.00  0.00    -0.200 F 
ATOM     71  F   UNL A   1      33.315  33.668  27.917  1.00  0.00    -0.200 F 
ENDBRANCH  47  61
BRANCH  48  72
ATOM     72  C   UNL A   1      45.448  31.358  29.235  1.00  0.00     0.064 A 
ATOM     73  C   UNL A   1      46.746  31.697  29.679  1.00  0.00     0.173 A 
ATOM     74  C   UNL A   1      45.093  31.835  27.965  1.00  0.00     0.173 A 
ATOM     75  F   UNL A   1      47.135  31.387  30.926  1.00  0.00    -0.203 F 
ATOM     76  C   UNL A   1      47.666  32.345  28.856  1.00  0.00     0.198 A 
ATOM     77  C   UNL A   1      46.022  32.460  27.129  1.00  0.00     0.198 A 
ATOM     78  F   UNL A   1      43.846  31.692  27.497  1.00  0.00    -0.203 F 
ATOM     79  F   UNL A   1      48.902  32.604  29.307  1.00  0.00    -0.200 F 
ATOM     80  C   UNL A   1      47.314  32.697  27.566  1.00  0.00     0.200 A 
ATOM     81  F   UNL A   1      45.666  32.809  25.885  1.00  0.00    -0.200 F 
ATOM     82  F   UNL A   1      48.211  33.264  26.749  1.00  0.00    -0.200 F 
ENDBRANCH  48  72
BRANCH  60  83
ATOM     83  C   UNL A   1      40.954  29.521  33.655  1.00  0.00     0.064 A 
ATOM     84  C   UNL A   1      41.225  28.147  33.624  1.00  0.00     0.173 A 
ATOM     85  C   UNL A   1      41.235  30.223  34.838  1.00  0.00     0.173 A 
ATOM     86  F   UNL A   1      40.986  27.434  32.512  1.00  0.00    -0.203 F 
ATOM     87  C   UNL A   1      41.769  27.503  34.730  1.00  0.00     0.198 A 
ATOM     88  C   UNL A   1      41.810  29.581  35.930  1.00  0.00     0.198 A 
ATOM     89  F   UNL A   1      40.976  31.537  34.938  1.00  0.00    -0.203 F 
ATOM     90  F   UNL A   1      42.019  26.187  34.682  1.00  0.00    -0.200 F 
ATOM     91  C   UNL A   1      42.073  28.223  35.877  1.00  0.00     0.200 A 
ATOM     92  F   UNL A   1      42.122  30.283  37.030  1.00  0.00    -0.200 F 
ATOM     93  F   UNL A   1      42.632  27.607  36.928  1.00  0.00    -0.200 F 
ENDBRANCH  60  83
ENDBRANCH  34  35
ENDBRANCH  26  29
ENDBRANCH  24  25
ENDBRANCH  23  24
ENDBRANCH   1  23
TORSDOF 13
ENDMDL
MODEL 2
REMARK VINA RESULT:     -12.3      1.120      1.904
REMARK SMILES Cc1nn(C)c2c1NC(=O)[C@@H](CCC(=O)NCCCCNC(=O)c1ccc(-c3c4nc(c(-c5c(F)c(F)c(F)c(F)c5F)c5ccc([nH]5)c(-c5c(F)c(F)c(F)c(F)c5F)c5nc(c(-c6c(F)c(F)c(F)c(F)c6F)c6ccc3[nH]6)C=C5)C=C4)cc1)N2
REMARK SMILES IDX 18 1 17 2 16 3 14 4 15 5 13 7 12 8 11 9 1 10 2 11 3 12 7 13
REMARK SMILES IDX 4 14 6 15 8 16 5 17 87 18 9 19 10 22 19 23 20 24 21 25 22 26
REMARK SMILES IDX 23 28 24 29 25 30 86 31 26 32 85 33 27 34 28 35 29 36 79 37
REMARK SMILES IDX 30 38 84 39 78 40 80 41 31 42 83 43 77 44 76 45 32 47 64 48
REMARK SMILES IDX 44 49 63 50 45 51 48 52 62 53 81 54 46 55 47 56 61 58 82 59
REMARK SMILES IDX 49 60 33 61 34 62 42 63 35 64 36 65 40 66 43 67 37 68 38 69
REMARK SMILES IDX 41 70 39 71 65 72 66 73 74 74 67 75 68 76 72 77 75 78 69 79
REMARK SMILES IDX 70 80 73 81 71 82 50 83 51 84 59 85 52 86 53 87 57 88 60 89
REMARK SMILES IDX 54 90 55 91 58 92 56 93
REMARK H PARENT 16 6 8 20 87 21 21 27 80 46 48 57
REMARK Flexibility Score: inf
ROOT
ATOM      1  C   UNL A   1      36.434  20.497  25.021  1.00  0.00     0.023 C 
ENDROOT
BRANCH   1   2
ATOM      2  C   UNL A   1      35.119  21.134  25.488  1.00  0.00     0.116 C 
BRANCH   2   3
ATOM      3  N   UNL A   1      34.010  20.205  25.606  1.00  0.00    -0.356 N 
ATOM      4  C   UNL A   1      32.725  20.255  25.147  1.00  0.00     0.220 C 
ATOM      5  O   UNL A   1      32.018  19.253  25.258  1.00  0.00    -0.275 OA
ATOM      6  H   UNL A   1      34.224  19.387  26.111  1.00  0.00     0.163 HD
BRANCH   4   7
ATOM      7  C   UNL A   1      32.161  21.524  24.530  1.00  0.00     0.102 C 
BRANCH   7   8
ATOM      8  C   UNL A   1      32.641  21.815  23.094  1.00  0.00     0.045 C 
BRANCH   8   9
ATOM      9  C   UNL A   1      32.721  23.310  22.781  1.00  0.00     0.171 C 
ATOM     10  C   UNL A   1      33.710  27.424  26.132  1.00  0.00     0.071 C 
ATOM     11  C   UNL A   1      32.726  26.670  25.325  1.00  0.00     0.085 A 
ATOM     12  N   UNL A   1      31.427  27.006  25.295  1.00  0.00    -0.174 NA
ATOM     13  C   UNL A   1      32.976  25.557  24.507  1.00  0.00     0.107 A 
ATOM     14  N   UNL A   1      30.868  26.091  24.460  1.00  0.00    -0.251 N 
ATOM     15  C   UNL A   1      31.761  25.144  24.035  1.00  0.00     0.149 A 
ATOM     16  N   UNL A   1      34.130  24.929  24.149  1.00  0.00    -0.320 N 
ATOM     17  C   UNL A   1      29.493  26.260  24.063  1.00  0.00     0.176 C 
ATOM     18  N   UNL A   1      31.534  24.054  23.272  1.00  0.00    -0.357 N 
ATOM     19  C   UNL A   1      34.116  23.901  23.240  1.00  0.00     0.247 C 
ATOM     20  H   UNL A   1      34.984  25.216  24.546  1.00  0.00     0.170 HD
ATOM     21  H   UNL A   1      30.620  23.764  23.050  1.00  0.00     0.163 HD
ATOM     22  O   UNL A   1      35.191  23.503  22.821  1.00  0.00    -0.272 OA
ENDBRANCH   8   9
ENDBRANCH   7   8
ENDBRANCH   4   7
ENDBRANCH   2   3
ENDBRANCH   1   2
BRANCH   1  23
ATOM     23  C   UNL A   1      37.551  21.453  24.602  1.00  0.00     0.023 C 
BRANCH  23  24
ATOM     24  C   UNL A   1      37.988  22.397  25.713  1.00  0.00     0.116 C 
BRANCH  24  25
ATOM     25  N   UNL A   1      38.995  21.756  26.546  1.00  0.00    -0.352 N 
ATOM     26  C   UNL A   1      40.100  22.254  27.159  1.00  0.00     0.251 C 
ATOM     27  H   UNL A   1      38.850  20.793  26.690  1.00  0.00     0.163 HD
ATOM     28  O   UNL A   1      40.934  21.460  27.599  1.00  0.00    -0.269 OA
BRANCH  26  29
ATOM     29  C   UNL A   1      40.323  23.699  27.309  1.00  0.00     0.039 A 
ATOM     30  C   UNL A   1      41.468  24.226  26.702  1.00  0.00     0.014 A 
ATOM     31  C   UNL A   1      39.519  24.505  28.122  1.00  0.00     0.014 A 
ATOM     32  C   UNL A   1      41.806  25.554  26.906  1.00  0.00     0.010 A 
ATOM     33  C   UNL A   1      39.847  25.844  28.312  1.00  0.00     0.010 A 
ATOM     34  C   UNL A   1      40.994  26.366  27.709  1.00  0.00    -0.014 A 
BRANCH  34  35
ATOM     35  C   UNL A   1      41.394  27.771  27.846  1.00  0.00     0.031 A 
ATOM     36  C   UNL A   1      40.269  28.753  27.928  1.00  0.00     0.074 A 
ATOM     37  C   UNL A   1      42.576  28.067  28.421  1.00  0.00     0.049 A 
ATOM     38  N   UNL A   1      39.626  29.031  29.027  1.00  0.00    -0.248 NA
ATOM     39  C   UNL A   1      39.635  29.288  26.723  1.00  0.00     0.031 C 
ATOM     40  C   UNL A   1      43.151  27.331  29.553  1.00  0.00     0.029 A 
ATOM     41  N   UNL A   1      43.402  29.154  28.262  1.00  0.00    -0.354 N 
ATOM     42  C   UNL A   1      38.501  29.754  28.671  1.00  0.00     0.074 A 
ATOM     43  C   UNL A   1      38.549  29.889  27.232  1.00  0.00     0.031 C 
ATOM     44  C   UNL A   1      44.126  28.083  30.101  1.00  0.00     0.029 A 
ATOM     45  C   UNL A   1      44.332  29.281  29.290  1.00  0.00     0.049 A 
ATOM     46  H   UNL A   1      43.341  29.776  27.502  1.00  0.00     0.167 HD
ATOM     47  C   UNL A   1      37.590  30.211  29.570  1.00  0.00     0.037 A 
ATOM     48  C   UNL A   1      44.761  30.476  29.781  1.00  0.00     0.037 A 
ATOM     49  C   UNL A   1      37.868  29.931  30.945  1.00  0.00     0.049 A 
ATOM     50  C   UNL A   1      43.525  30.934  30.520  1.00  0.00     0.074 A 
ATOM     51  C   UNL A   1      37.487  29.013  31.900  1.00  0.00     0.029 A 
ATOM     52  N   UNL A   1      38.780  30.734  31.587  1.00  0.00    -0.354 N 
ATOM     53  N   UNL A   1      43.135  30.521  31.698  1.00  0.00    -0.248 NA
ATOM     54  C   UNL A   1      42.492  31.627  29.746  1.00  0.00     0.031 C 
ATOM     55  C   UNL A   1      38.531  29.030  32.880  1.00  0.00     0.029 A 
ATOM     56  C   UNL A   1      39.500  29.923  32.425  1.00  0.00     0.049 A 
ATOM     57  H   UNL A   1      38.894  31.705  31.468  1.00  0.00     0.167 HD
ATOM     58  C   UNL A   1      41.746  30.681  31.709  1.00  0.00     0.074 A 
ATOM     59  C   UNL A   1      41.421  31.390  30.490  1.00  0.00     0.031 C 
ATOM     60  C   UNL A   1      40.924  30.069  32.611  1.00  0.00     0.037 A 
BRANCH  47  61
ATOM     61  C   UNL A   1      36.489  31.139  29.250  1.00  0.00     0.064 A 
ATOM     62  C   UNL A   1      35.342  30.604  28.646  1.00  0.00     0.173 A 
ATOM     63  C   UNL A   1      36.627  32.527  29.300  1.00  0.00     0.173 A 
ATOM     64  F   UNL A   1      35.188  29.270  28.568  1.00  0.00    -0.203 F 
ATOM     65  C   UNL A   1      34.387  31.426  28.063  1.00  0.00     0.198 A 
ATOM     66  C   UNL A   1      35.660  33.353  28.723  1.00  0.00     0.198 A 
ATOM     67  F   UNL A   1      37.713  33.082  29.857  1.00  0.00    -0.203 F 
ATOM     68  F   UNL A   1      33.332  30.882  27.441  1.00  0.00    -0.200 F 
ATOM     69  C   UNL A   1      34.552  32.800  28.092  1.00  0.00     0.200 A 
ATOM     70  F   UNL A   1      35.816  34.684  28.746  1.00  0.00    -0.200 F 
ATOM     71  F   UNL A   1      33.651  33.593  27.494  1.00  0.00    -0.200 F 
ENDBRANCH  47  61
BRANCH  48  72
ATOM     72  C   UNL A   1      45.522  31.333  28.817  1.00  0.00     0.064 A 
ATOM     73  C   UNL A   1      46.878  31.618  29.094  1.00  0.00     0.173 A 
ATOM     74  C   UNL A   1      45.008  31.896  27.640  1.00  0.00     0.173 A 
ATOM     75  F   UNL A   1      47.427  31.222  30.255  1.00  0.00    -0.203 F 
ATOM     76  C   UNL A   1      47.693  32.298  28.191  1.00  0.00     0.198 A 
ATOM     77  C   UNL A   1      45.830  32.555  26.722  1.00  0.00     0.198 A 
ATOM     78  F   UNL A   1      43.705  31.808  27.343  1.00  0.00    -0.203 F 
ATOM     79  F   UNL A   1      48.986  32.505  28.480  1.00  0.00    -0.200 F 
ATOM     80  C   UNL A   1      47.176  32.739  26.987  1.00  0.00     0.200 A 
ATOM     81  F   UNL A   1      45.315  32.989  25.563  1.00  0.00    -0.200 F 
ATOM     82  F   UNL A   1      47.967  33.339  26.089  1.00  0.00    -0.200 F 
ENDBRANCH  48  72
BRANCH  60  83
ATOM     83  C   UNL A   1      41.614  29.307  33.688  1.00  0.00     0.064 A 
ATOM     84  C   UNL A   1      42.015  27.981  33.476  1.00  0.00     0.173 A 
ATOM     85  C   UNL A   1      41.900  29.893  34.931  1.00  0.00     0.173 A 
ATOM     86  F   UNL A   1      41.775  27.381  32.300  1.00  0.00    -0.203 F 
ATOM     87  C   UNL A   1      42.688  27.274  34.467  1.00  0.00     0.198 A 
ATOM     88  C   UNL A   1      42.603  29.192  35.907  1.00  0.00     0.198 A 
ATOM     89  F   UNL A   1      41.521  31.151  35.203  1.00  0.00    -0.203 F 
ATOM     90  F   UNL A   1      43.061  26.005  34.247  1.00  0.00    -0.200 F 
ATOM     91  C   UNL A   1      42.993  27.883  35.675  1.00  0.00     0.200 A 
ATOM     92  F   UNL A   1      42.915  29.790  37.066  1.00  0.00    -0.200 F 
ATOM     93  F   UNL A   1      43.675  27.212  36.613  1.00  0.00    -0.200 F 
ENDBRANCH  60  83
ENDBRANCH  34  35
ENDBRANCH  26  29
ENDBRANCH  24  25
ENDBRANCH  23  24
ENDBRANCH   1  23
TORSDOF 13
ENDMDL
MODEL 3
REMARK VINA RESULT:     -12.3      3.188      8.189
REMARK SMILES Cc1nn(C)c2c1NC(=O)[C@@H](CCC(=O)NCCCCNC(=O)c1ccc(-c3c4nc(c(-c5c(F)c(F)c(F)c(F)c5F)c5ccc([nH]5)c(-c5c(F)c(F)c(F)c(F)c5F)c5nc(c(-c6c(F)c(F)c(F)c(F)c6F)c6ccc3[nH]6)C=C5)C=C4)cc1)N2
REMARK SMILES IDX 18 1 17 2 16 3 14 4 15 5 13 7 12 8 11 9 1 10 2 11 3 12 7 13
REMARK SMILES IDX 4 14 6 15 8 16 5 17 87 18 9 19 10 22 19 23 20 24 21 25 22 26
REMARK SMILES IDX 23 28 24 29 25 30 86 31 26 32 85 33 27 34 28 35 29 36 79 37
REMARK SMILES IDX 30 38 84 39 78 40 80 41 31 42 83 43 77 44 76 45 32 47 64 48
REMARK SMILES IDX 44 49 63 50 45 51 48 52 62 53 81 54 46 55 47 56 61 58 82 59
REMARK SMILES IDX 49 60 33 61 34 62 42 63 35 64 36 65 40 66 43 67 37 68 38 69
REMARK SMILES IDX 41 70 39 71 65 72 66 73 74 74 67 75 68 76 72 77 75 78 69 79
REMARK SMILES IDX 70 80 73 81 71 82 50 83 51 84 59 85 52 86 53 87 57 88 60 89
REMARK SMILES IDX 54 90 55 91 58 92 56 93
REMARK H PARENT 16 6 8 20 87 21 21 27 80 46 48 57
REMARK Flexibility Score: inf
ROOT
ATOM      1  C   UNL A   1      32.530  29.516  25.354  1.00  0.00     0.023 C 
ENDROOT
BRANCH   1   2
ATOM      2  C   UNL A   1      32.768  28.939  23.954  1.00  0.00     0.116 C 
BRANCH   2   3
ATOM      3  N   UNL A   1      31.747  29.279  22.981  1.00  0.00    -0.356 N 
ATOM      4  C   UNL A   1      30.694  28.570  22.477  1.00  0.00     0.220 C 
ATOM      5  O   UNL A   1      29.876  29.153  21.763  1.00  0.00    -0.275 OA
ATOM      6  H   UNL A   1      31.827  30.191  22.618  1.00  0.00     0.163 HD
BRANCH   4   7
ATOM      7  C   UNL A   1      30.536  27.087  22.766  1.00  0.00     0.102 C 
BRANCH   7   8
ATOM      8  C   UNL A   1      29.696  26.756  24.015  1.00  0.00     0.045 C 
BRANCH   8   9
ATOM      9  C   UNL A   1      30.232  25.556  24.797  1.00  0.00     0.171 C 
ATOM     10  C   UNL A   1      35.356  24.117  25.698  1.00  0.00     0.071 C 
ATOM     11  C   UNL A   1      34.092  23.873  24.970  1.00  0.00     0.085 A 
ATOM     12  N   UNL A   1      33.974  22.889  24.064  1.00  0.00    -0.174 NA
ATOM     13  C   UNL A   1      32.885  24.577  25.105  1.00  0.00     0.107 A 
ATOM     14  N   UNL A   1      32.691  22.992  23.630  1.00  0.00    -0.251 N 
ATOM     15  C   UNL A   1      32.030  24.060  24.173  1.00  0.00     0.149 A 
ATOM     16  N   UNL A   1      32.499  25.570  25.954  1.00  0.00    -0.320 N 
ATOM     17  C   UNL A   1      32.167  21.969  22.760  1.00  0.00     0.176 C 
ATOM     18  N   UNL A   1      30.782  24.503  23.908  1.00  0.00    -0.357 N 
ATOM     19  C   UNL A   1      31.207  26.034  25.948  1.00  0.00     0.247 C 
ATOM     20  H   UNL A   1      33.154  25.959  26.578  1.00  0.00     0.170 HD
ATOM     21  H   UNL A   1      30.259  24.143  23.156  1.00  0.00     0.163 HD
ATOM     22  O   UNL A   1      30.875  26.787  26.850  1.00  0.00    -0.272 OA
ENDBRANCH   8   9
ENDBRANCH   7   8
ENDBRANCH   4   7
ENDBRANCH   2   3
ENDBRANCH   1   2
BRANCH   1  23
ATOM     23  C   UNL A   1      33.657  29.341  26.372  1.00  0.00     0.023 C 
BRANCH  23  24
ATOM     24  C   UNL A   1      33.523  30.249  27.586  1.00  0.00     0.116 C 
BRANCH  24  25
ATOM     25  N   UNL A   1      34.222  31.503  27.351  1.00  0.00    -0.352 N 
ATOM     26  C   UNL A   1      35.455  31.928  27.732  1.00  0.00     0.251 C 
ATOM     27  H   UNL A   1      33.712  32.161  26.824  1.00  0.00     0.163 HD
ATOM     28  O   UNL A   1      35.721  33.128  27.628  1.00  0.00    -0.269 OA
BRANCH  26  29
ATOM     29  C   UNL A   1      36.468  31.002  28.259  1.00  0.00     0.039 A 
ATOM     30  C   UNL A   1      36.717  31.058  29.635  1.00  0.00     0.014 A 
ATOM     31  C   UNL A   1      37.252  30.192  27.431  1.00  0.00     0.014 A 
ATOM     32  C   UNL A   1      37.744  30.305  30.180  1.00  0.00     0.010 A 
ATOM     33  C   UNL A   1      38.271  29.420  27.980  1.00  0.00     0.010 A 
ATOM     34  C   UNL A   1      38.521  29.482  29.354  1.00  0.00    -0.014 A 
BRANCH  34  35
ATOM     35  C   UNL A   1      39.563  28.684  30.008  1.00  0.00     0.031 A 
ATOM     36  C   UNL A   1      39.770  27.314  29.445  1.00  0.00     0.074 A 
ATOM     37  C   UNL A   1      40.586  29.311  30.621  1.00  0.00     0.049 A 
ATOM     38  N   UNL A   1      40.506  27.062  28.401  1.00  0.00    -0.248 NA
ATOM     39  C   UNL A   1      38.951  26.181  29.877  1.00  0.00     0.031 C 
ATOM     40  C   UNL A   1      41.216  30.540  30.127  1.00  0.00     0.029 A 
ATOM     41  N   UNL A   1      41.385  28.911  31.666  1.00  0.00    -0.354 N 
ATOM     42  C   UNL A   1      40.242  25.757  28.019  1.00  0.00     0.074 A 
ATOM     43  C   UNL A   1      39.272  25.250  28.965  1.00  0.00     0.031 C 
ATOM     44  C   UNL A   1      42.403  30.693  30.749  1.00  0.00     0.029 A 
ATOM     45  C   UNL A   1      42.556  29.657  31.767  1.00  0.00     0.049 A 
ATOM     46  H   UNL A   1      41.153  28.174  32.277  1.00  0.00     0.167 HD
ATOM     47  C   UNL A   1      40.835  25.155  26.955  1.00  0.00     0.037 A 
ATOM     48  C   UNL A   1      43.752  29.141  32.164  1.00  0.00     0.037 A 
ATOM     49  C   UNL A   1      41.793  25.940  26.241  1.00  0.00     0.049 A 
ATOM     50  C   UNL A   1      44.108  28.303  30.957  1.00  0.00     0.074 A 
ATOM     51  C   UNL A   1      41.841  26.705  25.095  1.00  0.00     0.029 A 
ATOM     52  N   UNL A   1      43.055  26.045  26.776  1.00  0.00    -0.354 N 
ATOM     53  N   UNL A   1      44.603  28.746  29.831  1.00  0.00    -0.248 NA
ATOM     54  C   UNL A   1      43.551  26.950  30.887  1.00  0.00     0.031 C 
ATOM     55  C   UNL A   1      42.956  27.586  25.275  1.00  0.00     0.029 A 
ATOM     56  C   UNL A   1      43.478  27.327  26.542  1.00  0.00     0.049 A 
ATOM     57  H   UNL A   1      43.558  25.336  27.238  1.00  0.00     0.167 HD
ATOM     58  C   UNL A   1      44.196  27.828  28.858  1.00  0.00     0.074 A 
ATOM     59  C   UNL A   1      43.577  26.736  29.579  1.00  0.00     0.031 C 
ATOM     60  C   UNL A   1      44.217  28.092  27.518  1.00  0.00     0.037 A 
BRANCH  47  61
ATOM     61  C   UNL A   1      40.722  23.719  26.635  1.00  0.00     0.064 A 
ATOM     62  C   UNL A   1      39.483  23.250  26.173  1.00  0.00     0.173 A 
ATOM     63  C   UNL A   1      41.696  22.783  26.988  1.00  0.00     0.173 A 
ATOM     64  F   UNL A   1      38.519  24.127  25.840  1.00  0.00    -0.203 F 
ATOM     65  C   UNL A   1      39.206  21.891  26.115  1.00  0.00     0.198 A 
ATOM     66  C   UNL A   1      41.420  21.417  26.918  1.00  0.00     0.198 A 
ATOM     67  F   UNL A   1      42.890  23.187  27.446  1.00  0.00    -0.203 F 
ATOM     68  F   UNL A   1      37.993  21.477  25.726  1.00  0.00    -0.200 F 
ATOM     69  C   UNL A   1      40.171  20.975  26.499  1.00  0.00     0.200 A 
ATOM     70  F   UNL A   1      42.349  20.526  27.290  1.00  0.00    -0.200 F 
ATOM     71  F   UNL A   1      39.890  19.664  26.480  1.00  0.00    -0.200 F 
ENDBRANCH  47  61
BRANCH  48  72
ATOM     72  C   UNL A   1      43.802  28.638  33.573  1.00  0.00     0.064 A 
ATOM     73  C   UNL A   1      42.944  29.226  34.529  1.00  0.00     0.173 A 
ATOM     74  C   UNL A   1      44.638  27.618  34.049  1.00  0.00     0.173 A 
ATOM     75  F   UNL A   1      42.190  30.287  34.197  1.00  0.00    -0.203 F 
ATOM     76  C   UNL A   1      42.833  28.735  35.829  1.00  0.00     0.198 A 
ATOM     77  C   UNL A   1      44.510  27.107  35.344  1.00  0.00     0.198 A 
ATOM     78  F   UNL A   1      45.586  27.081  33.269  1.00  0.00    -0.203 F 
ATOM     79  F   UNL A   1      41.971  29.298  36.687  1.00  0.00    -0.200 F 
ATOM     80  C   UNL A   1      43.594  27.652  36.227  1.00  0.00     0.200 A 
ATOM     81  F   UNL A   1      45.263  26.065  35.722  1.00  0.00    -0.200 F 
ATOM     82  F   UNL A   1      43.451  27.136  37.455  1.00  0.00    -0.200 F 
ENDBRANCH  48  72
BRANCH  60  83
ATOM     83  C   UNL A   1      44.833  29.391  27.133  1.00  0.00     0.064 A 
ATOM     84  C   UNL A   1      44.035  30.526  26.939  1.00  0.00     0.173 A 
ATOM     85  C   UNL A   1      46.221  29.524  26.974  1.00  0.00     0.173 A 
ATOM     86  F   UNL A   1      42.704  30.453  27.091  1.00  0.00    -0.203 F 
ATOM     87  C   UNL A   1      44.607  31.751  26.610  1.00  0.00     0.198 A 
ATOM     88  C   UNL A   1      46.791  30.758  26.677  1.00  0.00     0.198 A 
ATOM     89  F   UNL A   1      47.036  28.468  27.124  1.00  0.00    -0.203 F 
ATOM     90  F   UNL A   1      43.827  32.825  26.425  1.00  0.00    -0.200 F 
ATOM     91  C   UNL A   1      45.984  31.869  26.493  1.00  0.00     0.200 A 
ATOM     92  F   UNL A   1      48.124  30.874  26.586  1.00  0.00    -0.200 F 
ATOM     93  F   UNL A   1      46.535  33.058  26.213  1.00  0.00    -0.200 F 
ENDBRANCH  60  83
ENDBRANCH  34  35
ENDBRANCH  26  29
ENDBRANCH  24  25
ENDBRANCH  23  24
ENDBRANCH   1  23
TORSDOF 13
ENDMDL
