MODEL 1
REMARK VINA RESULT:     -14.1      0.000      0.000
REMARK SMILES C[C@H]1CS(=O)(=O)N(c2cccc(C(=O)Nc3ccc(O)c(C(=O)NCCCCNC(=O)c4ccc(-c5c6nc(c(-c7c(F)c(F)c(F)c(F)c7F)c7ccc([nH]7)c(-c7c(F)c(F)c(F)c(F)c7F)c7nc(c(-c8c(F)c(F)c(F)c(F)c8F)c8ccc5[nH]8)C=C7)C=C6)cc4)c3)c2)C1=O
REMARK SMILES IDX 26 1 25 2 24 3 22 4 23 5 21 7 16 8 17 9 95 10 18 11 19 12
REMARK SMILES IDX 15 13 13 14 14 15 12 17 8 18 9 19 96 20 10 21 11 22 7 23
REMARK SMILES IDX 1 24 2 25 3 26 97 27 4 28 98 29 5 30 6 31 20 32 27 34 28 35
REMARK SMILES IDX 29 36 30 37 31 39 32 40 33 41 94 42 34 43 93 44 35 45 36 46
REMARK SMILES IDX 37 47 87 48 38 49 92 50 86 51 88 52 39 53 91 54 85 55 84 56
REMARK SMILES IDX 40 58 72 59 52 60 71 61 53 62 56 63 70 64 89 65 54 66 55 67
REMARK SMILES IDX 69 69 90 70 57 71 41 72 42 73 50 74 43 75 44 76 48 77 51 78
REMARK SMILES IDX 45 79 46 80 49 81 47 82 73 83 74 84 82 85 75 86 76 87 80 88
REMARK SMILES IDX 83 89 77 90 78 91 81 92 79 93 58 94 59 95 67 96 60 97 61 98
REMARK SMILES IDX 65 99 68 100 62 101 63 102 66 103 64 104
REMARK H PARENT 24 6 15 16 20 33 29 38 88 57 56 68
REMARK Flexibility Score: inf
ROOT
ATOM      1  C   UNL A   1      31.764  30.305  26.758  1.00  0.00     0.023 C 
ENDROOT
BRANCH   1   2
ATOM      2  C   UNL A   1      33.176  29.768  26.594  1.00  0.00     0.116 C 
BRANCH   2   3
ATOM      3  N   UNL A   1      33.544  29.707  25.183  1.00  0.00    -0.352 N 
ATOM      4  C   UNL A   1      33.055  29.103  24.051  1.00  0.00     0.255 C 
ATOM      5  O   UNL A   1      33.634  29.362  22.991  1.00  0.00    -0.269 OA
ATOM      6  H   UNL A   1      34.355  30.234  24.994  1.00  0.00     0.163 HD
BRANCH   4   7
ATOM      7  C   UNL A   1      31.825  28.272  23.976  1.00  0.00     0.083 A 
ATOM      8  C   UNL A   1      30.441  26.576  24.968  1.00  0.00     0.042 A 
ATOM      9  C   UNL A   1      29.331  26.994  24.248  1.00  0.00     0.030 A 
ATOM     10  C   UNL A   1      31.701  27.078  24.667  1.00  0.00     0.043 A 
ATOM     11  C   UNL A   1      29.461  28.088  23.395  1.00  0.00     0.049 A 
ATOM     12  C   UNL A   1      30.684  28.760  23.314  1.00  0.00     0.128 A 
BRANCH   8  13
ATOM     13  N   UNL A   1      30.274  25.737  26.070  1.00  0.00    -0.322 N 
ATOM     14  C   UNL A   1      30.504  24.374  26.181  1.00  0.00     0.255 C 
ATOM     15  O   UNL A   1      29.990  23.795  27.142  1.00  0.00    -0.269 OA
ATOM     16  H   UNL A   1      29.946  26.178  26.887  1.00  0.00     0.170 HD
BRANCH  14  17
ATOM     17  C   UNL A   1      31.407  23.568  25.262  1.00  0.00     0.042 A 
ATOM     18  C   UNL A   1      33.482  22.403  24.610  1.00  0.00     0.061 A 
ATOM     19  C   UNL A   1      32.923  22.128  23.359  1.00  0.00     0.027 A 
ATOM     20  C   UNL A   1      32.681  23.051  25.577  1.00  0.00     0.041 A 
ATOM     21  C   UNL A   1      31.631  22.550  23.051  1.00  0.00     0.003 A 
ATOM     22  C   UNL A   1      30.895  23.287  23.983  1.00  0.00     0.014 A 
BRANCH  18  23
ATOM     23  N   UNL A   1      34.882  22.151  24.811  1.00  0.00    -0.207 N 
ATOM     24  C   UNL A   1      37.389  19.466  24.758  1.00  0.00     0.019 C 
ATOM     25  C   UNL A   1      36.875  20.822  25.230  1.00  0.00     0.094 C 
ATOM     26  C   UNL A   1      37.360  21.967  24.343  1.00  0.00     0.173 C 
ATOM     27  C   UNL A   1      35.354  20.885  25.242  1.00  0.00     0.244 C 
ATOM     28  S   UNL A   1      36.100  23.225  24.403  1.00  0.00     0.242 S 
ATOM     29  O   UNL A   1      34.656  19.954  25.626  1.00  0.00    -0.273 OA
ATOM     30  O   UNL A   1      36.351  24.079  25.537  1.00  0.00    -0.206 OA
ATOM     31  O   UNL A   1      35.901  23.744  23.068  1.00  0.00    -0.206 OA
ENDBRANCH  18  23
ENDBRANCH  14  17
ENDBRANCH   8  13
BRANCH  12  32
ATOM     32  O   UNL A   1      30.672  29.924  22.589  1.00  0.00    -0.507 OA
ATOM     33  H   UNL A   1      30.158  29.984  21.808  1.00  0.00     0.293 HD
ENDBRANCH  12  32
ENDBRANCH   4   7
ENDBRANCH   2   3
ENDBRANCH   1   2
BRANCH   1  34
ATOM     34  C   UNL A   1      31.701  31.824  26.596  1.00  0.00     0.023 C 
BRANCH  34  35
ATOM     35  C   UNL A   1      32.800  32.595  27.324  1.00  0.00     0.116 C 
BRANCH  35  36
ATOM     36  N   UNL A   1      32.443  33.978  27.606  1.00  0.00    -0.352 N 
ATOM     37  C   UNL A   1      32.981  34.841  28.527  1.00  0.00     0.251 C 
ATOM     38  H   UNL A   1      31.712  34.346  27.057  1.00  0.00     0.163 HD
ATOM     39  O   UNL A   1      32.475  35.940  28.728  1.00  0.00    -0.269 OA
BRANCH  37  40
ATOM     40  C   UNL A   1      34.164  34.418  29.301  1.00  0.00     0.039 A 
ATOM     41  C   UNL A   1      33.977  33.806  30.542  1.00  0.00     0.014 A 
ATOM     42  C   UNL A   1      35.448  34.585  28.776  1.00  0.00     0.014 A 
ATOM     43  C   UNL A   1      35.078  33.287  31.223  1.00  0.00     0.010 A 
ATOM     44  C   UNL A   1      36.531  33.994  29.417  1.00  0.00     0.010 A 
ATOM     45  C   UNL A   1      36.356  33.335  30.645  1.00  0.00    -0.014 A 
BRANCH  45  46
ATOM     46  C   UNL A   1      37.527  32.695  31.297  1.00  0.00     0.031 A 
ATOM     47  C   UNL A   1      38.223  31.546  30.626  1.00  0.00     0.074 A 
ATOM     48  C   UNL A   1      37.912  33.099  32.523  1.00  0.00     0.049 A 
ATOM     49  N   UNL A   1      39.196  30.792  31.073  1.00  0.00    -0.248 NA
ATOM     50  C   UNL A   1      37.746  31.175  29.284  1.00  0.00     0.031 C 
ATOM     51  C   UNL A   1      37.292  34.178  33.293  1.00  0.00     0.029 A 
ATOM     52  N   UNL A   1      38.909  32.637  33.346  1.00  0.00    -0.354 N 
ATOM     53  C   UNL A   1      39.434  29.855  30.077  1.00  0.00     0.074 A 
ATOM     54  C   UNL A   1      38.469  30.097  29.027  1.00  0.00     0.031 C 
ATOM     55  C   UNL A   1      37.934  34.310  34.464  1.00  0.00     0.029 A 
ATOM     56  C   UNL A   1      38.978  33.293  34.551  1.00  0.00     0.049 A 
ATOM     57  H   UNL A   1      39.518  31.905  33.095  1.00  0.00     0.167 HD
ATOM     58  C   UNL A   1      40.389  28.895  30.032  1.00  0.00     0.037 A 
ATOM     59  C   UNL A   1      39.779  33.087  35.614  1.00  0.00     0.037 A 
ATOM     60  C   UNL A   1      41.357  28.670  31.073  1.00  0.00     0.049 A 
ATOM     61  C   UNL A   1      40.807  31.988  35.554  1.00  0.00     0.074 A 
ATOM     62  C   UNL A   1      42.397  27.757  31.101  1.00  0.00     0.029 A 
ATOM     63  N   UNL A   1      41.398  29.360  32.277  1.00  0.00    -0.354 N 
ATOM     64  N   UNL A   1      41.069  31.150  34.579  1.00  0.00    -0.248 NA
ATOM     65  C   UNL A   1      41.657  31.807  36.740  1.00  0.00     0.031 C 
ATOM     66  C   UNL A   1      43.027  27.850  32.345  1.00  0.00     0.029 A 
ATOM     67  C   UNL A   1      42.427  28.871  33.065  1.00  0.00     0.049 A 
ATOM     68  H   UNL A   1      40.787  30.089  32.532  1.00  0.00     0.167 HD
ATOM     69  C   UNL A   1      42.131  30.372  35.018  1.00  0.00     0.074 A 
ATOM     70  C   UNL A   1      42.474  30.841  36.344  1.00  0.00     0.031 C 
ATOM     71  C   UNL A   1      42.768  29.360  34.377  1.00  0.00     0.037 A 
BRANCH  58  72
ATOM     72  C   UNL A   1      40.432  28.012  28.818  1.00  0.00     0.064 A 
ATOM     73  C   UNL A   1      41.195  28.347  27.687  1.00  0.00     0.173 A 
ATOM     74  C   UNL A   1      39.733  26.796  28.798  1.00  0.00     0.173 A 
ATOM     75  F   UNL A   1      41.876  29.502  27.650  1.00  0.00    -0.203 F 
ATOM     76  C   UNL A   1      41.229  27.513  26.573  1.00  0.00     0.198 A 
ATOM     77  C   UNL A   1      39.798  25.948  27.695  1.00  0.00     0.198 A 
ATOM     78  F   UNL A   1      38.994  26.422  29.853  1.00  0.00    -0.203 F 
ATOM     79  F   UNL A   1      41.919  27.881  25.485  1.00  0.00    -0.200 F 
ATOM     80  C   UNL A   1      40.538  26.311  26.580  1.00  0.00     0.200 A 
ATOM     81  F   UNL A   1      39.144  24.779  27.711  1.00  0.00    -0.200 F 
ATOM     82  F   UNL A   1      40.579  25.506  25.510  1.00  0.00    -0.200 F 
ENDBRANCH  58  72
BRANCH  59  83
ATOM     83  C   UNL A   1      39.651  33.943  36.823  1.00  0.00     0.064 A 
ATOM     84  C   UNL A   1      38.854  33.546  37.906  1.00  0.00     0.173 A 
ATOM     85  C   UNL A   1      40.309  35.179  36.918  1.00  0.00     0.173 A 
ATOM     86  F   UNL A   1      38.188  32.383  37.857  1.00  0.00    -0.203 F 
ATOM     87  C   UNL A   1      38.699  34.362  39.025  1.00  0.00     0.198 A 
ATOM     88  C   UNL A   1      40.180  35.979  38.052  1.00  0.00     0.198 A 
ATOM     89  F   UNL A   1      41.088  35.605  35.914  1.00  0.00    -0.203 F 
ATOM     90  F   UNL A   1      37.888  33.982  40.022  1.00  0.00    -0.200 F 
ATOM     91  C   UNL A   1      39.366  35.576  39.100  1.00  0.00     0.200 A 
ATOM     92  F   UNL A   1      40.840  37.143  38.127  1.00  0.00    -0.200 F 
ATOM     93  F   UNL A   1      39.219  36.359  40.177  1.00  0.00    -0.200 F 
ENDBRANCH  59  83
BRANCH  71  94
ATOM     94  C   UNL A   1      43.937  28.722  35.073  1.00  0.00     0.064 A 
ATOM     95  C   UNL A   1      45.238  29.228  34.955  1.00  0.00     0.173 A 
ATOM     96  C   UNL A   1      43.734  27.624  35.925  1.00  0.00     0.173 A 
ATOM     97  F   UNL A   1      45.487  30.267  34.143  1.00  0.00    -0.203 F 
ATOM     98  C   UNL A   1      46.298  28.649  35.648  1.00  0.00     0.198 A 
ATOM     99  C   UNL A   1      44.789  27.068  36.642  1.00  0.00     0.198 A 
ATOM    100  F   UNL A   1      42.507  27.104  36.079  1.00  0.00    -0.203 F 
ATOM    101  F   UNL A   1      47.541  29.123  35.487  1.00  0.00    -0.200 F 
ATOM    102  C   UNL A   1      46.070  27.577  36.499  1.00  0.00     0.200 A 
ATOM    103  F   UNL A   1      44.564  26.045  37.478  1.00  0.00    -0.200 F 
ATOM    104  F   UNL A   1      47.088  27.032  37.179  1.00  0.00    -0.200 F 
ENDBRANCH  71  94
ENDBRANCH  45  46
ENDBRANCH  37  40
ENDBRANCH  35  36
ENDBRANCH  34  35
ENDBRANCH   1  34
TORSDOF 15
ENDMDL
MODEL 2
REMARK VINA RESULT:     -14.1      0.385      7.063
REMARK SMILES C[C@H]1CS(=O)(=O)N(c2cccc(C(=O)Nc3ccc(O)c(C(=O)NCCCCNC(=O)c4ccc(-c5c6nc(c(-c7c(F)c(F)c(F)c(F)c7F)c7ccc([nH]7)c(-c7c(F)c(F)c(F)c(F)c7F)c7nc(c(-c8c(F)c(F)c(F)c(F)c8F)c8ccc5[nH]8)C=C7)C=C6)cc4)c3)c2)C1=O
REMARK SMILES IDX 26 1 25 2 24 3 22 4 23 5 21 7 16 8 17 9 95 10 18 11 19 12
REMARK SMILES IDX 15 13 13 14 14 15 12 17 8 18 9 19 96 20 10 21 11 22 7 23
REMARK SMILES IDX 1 24 2 25 3 26 97 27 4 28 98 29 5 30 6 31 20 32 27 34 28 35
REMARK SMILES IDX 29 36 30 37 31 39 32 40 33 41 94 42 34 43 93 44 35 45 36 46
REMARK SMILES IDX 37 47 87 48 38 49 92 50 86 51 88 52 39 53 91 54 85 55 84 56
REMARK SMILES IDX 40 58 72 59 52 60 71 61 53 62 56 63 70 64 89 65 54 66 55 67
REMARK SMILES IDX 69 69 90 70 57 71 41 72 42 73 50 74 43 75 44 76 48 77 51 78
REMARK SMILES IDX 45 79 46 80 49 81 47 82 73 83 74 84 82 85 75 86 76 87 80 88
REMARK SMILES IDX 83 89 77 90 78 91 81 92 79 93 58 94 59 95 67 96 60 97 61 98
REMARK SMILES IDX 65 99 68 100 62 101 63 102 66 103 64 104
REMARK H PARENT 24 6 15 16 20 33 29 38 88 57 56 68
REMARK Flexibility Score: inf
ROOT
ATOM      1  C   UNL A   1      31.477  30.644  26.492  1.00  0.00     0.023 C 
ENDROOT
BRANCH   1   2
ATOM      2  C   UNL A   1      32.898  30.106  26.485  1.00  0.00     0.116 C 
BRANCH   2   3
ATOM      3  N   UNL A   1      33.370  29.912  25.119  1.00  0.00    -0.352 N 
ATOM      4  C   UNL A   1      32.975  29.187  24.021  1.00  0.00     0.255 C 
ATOM      5  O   UNL A   1      33.626  29.352  22.985  1.00  0.00    -0.269 OA
ATOM      6  H   UNL A   1      34.185  30.435  24.936  1.00  0.00     0.163 HD
BRANCH   4   7
ATOM      7  C   UNL A   1      31.766  28.327  23.943  1.00  0.00     0.083 A 
ATOM      8  C   UNL A   1      30.414  26.606  24.938  1.00  0.00     0.042 A 
ATOM      9  C   UNL A   1      29.300  26.992  24.204  1.00  0.00     0.030 A 
ATOM     10  C   UNL A   1      31.664  27.136  24.644  1.00  0.00     0.043 A 
ATOM     11  C   UNL A   1      29.412  28.081  23.343  1.00  0.00     0.049 A 
ATOM     12  C   UNL A   1      30.619  28.782  23.266  1.00  0.00     0.128 A 
BRANCH   8  13
ATOM     13  N   UNL A   1      30.257  25.774  26.046  1.00  0.00    -0.322 N 
ATOM     14  C   UNL A   1      30.498  24.413  26.165  1.00  0.00     0.255 C 
ATOM     15  O   UNL A   1      29.991  23.836  27.131  1.00  0.00    -0.269 OA
ATOM     16  H   UNL A   1      29.929  26.217  26.862  1.00  0.00     0.170 HD
BRANCH  14  17
ATOM     17  C   UNL A   1      31.403  23.608  25.248  1.00  0.00     0.042 A 
ATOM     18  C   UNL A   1      33.476  22.436  24.604  1.00  0.00     0.061 A 
ATOM     19  C   UNL A   1      32.926  22.171  23.347  1.00  0.00     0.027 A 
ATOM     20  C   UNL A   1      32.672  23.083  25.569  1.00  0.00     0.041 A 
ATOM     21  C   UNL A   1      31.638  22.602  23.032  1.00  0.00     0.003 A 
ATOM     22  C   UNL A   1      30.899  23.337  23.964  1.00  0.00     0.014 A 
BRANCH  18  23
ATOM     23  N   UNL A   1      34.874  22.175  24.813  1.00  0.00    -0.207 N 
ATOM     24  C   UNL A   1      37.364  19.474  24.780  1.00  0.00     0.019 C 
ATOM     25  C   UNL A   1      36.856  20.835  25.246  1.00  0.00     0.094 C 
ATOM     26  C   UNL A   1      37.353  21.975  24.359  1.00  0.00     0.173 C 
ATOM     27  C   UNL A   1      35.335  20.907  25.249  1.00  0.00     0.244 C 
ATOM     28  S   UNL A   1      36.101  23.241  24.410  1.00  0.00     0.242 S 
ATOM     29  O   UNL A   1      34.629  19.981  25.631  1.00  0.00    -0.273 OA
ATOM     30  O   UNL A   1      36.350  24.096  25.544  1.00  0.00    -0.206 OA
ATOM     31  O   UNL A   1      35.913  23.759  23.073  1.00  0.00    -0.206 OA
ENDBRANCH  18  23
ENDBRANCH  14  17
ENDBRANCH   8  13
BRANCH  12  32
ATOM     32  O   UNL A   1      30.586  29.938  22.531  1.00  0.00    -0.507 OA
ATOM     33  H   UNL A   1      30.899  30.739  22.904  1.00  0.00     0.293 HD
ENDBRANCH  12  32
ENDBRANCH   4   7
ENDBRANCH   2   3
ENDBRANCH   1   2
BRANCH   1  34
ATOM     34  C   UNL A   1      31.437  32.172  26.543  1.00  0.00     0.023 C 
BRANCH  34  35
ATOM     35  C   UNL A   1      32.616  32.822  27.263  1.00  0.00     0.116 C 
BRANCH  35  36
ATOM     36  N   UNL A   1      32.380  34.217  27.611  1.00  0.00    -0.352 N 
ATOM     37  C   UNL A   1      32.984  34.983  28.576  1.00  0.00     0.251 C 
ATOM     38  H   UNL A   1      31.687  34.673  27.080  1.00  0.00     0.163 HD
ATOM     39  O   UNL A   1      32.575  36.111  28.829  1.00  0.00    -0.269 OA
BRANCH  37  40
ATOM     40  C   UNL A   1      34.120  34.421  29.331  1.00  0.00     0.039 A 
ATOM     41  C   UNL A   1      33.864  33.687  30.491  1.00  0.00     0.014 A 
ATOM     42  C   UNL A   1      35.427  34.580  28.864  1.00  0.00     0.014 A 
ATOM     43  C   UNL A   1      34.917  33.042  31.141  1.00  0.00     0.010 A 
ATOM     44  C   UNL A   1      36.460  33.871  29.466  1.00  0.00     0.010 A 
ATOM     45  C   UNL A   1      36.215  33.091  30.608  1.00  0.00    -0.014 A 
BRANCH  45  46
ATOM     46  C   UNL A   1      37.333  32.327  31.218  1.00  0.00     0.031 A 
ATOM     47  C   UNL A   1      37.845  32.705  32.578  1.00  0.00     0.074 A 
ATOM     48  C   UNL A   1      37.932  31.346  30.516  1.00  0.00     0.049 A 
ATOM     49  N   UNL A   1      38.871  32.230  33.238  1.00  0.00    -0.248 NA
ATOM     50  C   UNL A   1      37.126  33.781  33.279  1.00  0.00     0.031 C 
ATOM     51  C   UNL A   1      37.551  30.911  29.171  1.00  0.00     0.029 A 
ATOM     52  N   UNL A   1      39.003  30.546  30.830  1.00  0.00    -0.354 N 
ATOM     53  C   UNL A   1      38.927  32.956  34.420  1.00  0.00     0.074 A 
ATOM     54  C   UNL A   1      37.869  33.941  34.364  1.00  0.00     0.031 C 
ATOM     55  C   UNL A   1      38.359  29.912  28.785  1.00  0.00     0.029 A 
ATOM     56  C   UNL A   1      39.348  29.668  29.831  1.00  0.00     0.049 A 
ATOM     57  H   UNL A   1      39.479  30.597  31.691  1.00  0.00     0.167 HD
ATOM     58  C   UNL A   1      39.769  32.798  35.469  1.00  0.00     0.037 A 
ATOM     59  C   UNL A   1      40.357  28.779  29.759  1.00  0.00     0.037 A 
ATOM     60  C   UNL A   1      40.809  31.804  35.526  1.00  0.00     0.049 A 
ATOM     61  C   UNL A   1      41.303  28.649  30.923  1.00  0.00     0.074 A 
ATOM     62  C   UNL A   1      41.682  31.529  36.564  1.00  0.00     0.029 A 
ATOM     63  N   UNL A   1      41.123  30.929  34.496  1.00  0.00    -0.354 N 
ATOM     64  N   UNL A   1      41.306  29.294  32.065  1.00  0.00    -0.248 NA
ATOM     65  C   UNL A   1      42.386  27.663  30.793  1.00  0.00     0.031 C 
ATOM     66  C   UNL A   1      42.564  30.531  36.140  1.00  0.00     0.029 A 
ATOM     67  C   UNL A   1      42.196  30.133  34.864  1.00  0.00     0.049 A 
ATOM     68  H   UNL A   1      40.652  30.879  33.633  1.00  0.00     0.167 HD
ATOM     69  C   UNL A   1      42.361  28.769  32.799  1.00  0.00     0.074 A 
ATOM     70  C   UNL A   1      42.973  27.745  31.978  1.00  0.00     0.031 C 
ATOM     71  C   UNL A   1      42.783  29.104  34.044  1.00  0.00     0.037 A 
BRANCH  58  72
ATOM     72  C   UNL A   1      39.603  33.722  36.641  1.00  0.00     0.064 A 
ATOM     73  C   UNL A   1      38.820  33.372  37.753  1.00  0.00     0.173 A 
ATOM     74  C   UNL A   1      40.267  34.958  36.672  1.00  0.00     0.173 A 
ATOM     75  F   UNL A   1      38.156  32.207  37.772  1.00  0.00    -0.203 F 
ATOM     76  C   UNL A   1      38.683  34.238  38.835  1.00  0.00     0.198 A 
ATOM     77  C   UNL A   1      40.156  35.806  37.771  1.00  0.00     0.198 A 
ATOM     78  F   UNL A   1      41.034  35.340  35.640  1.00  0.00    -0.203 F 
ATOM     79  F   UNL A   1      37.885  33.907  39.859  1.00  0.00    -0.200 F 
ATOM     80  C   UNL A   1      39.357  35.450  38.847  1.00  0.00     0.200 A 
ATOM     81  F   UNL A   1      40.822  36.968  37.788  1.00  0.00    -0.200 F 
ATOM     82  F   UNL A   1      39.231  36.278  39.892  1.00  0.00    -0.200 F 
ENDBRANCH  58  72
BRANCH  59  83
ATOM     83  C   UNL A   1      40.523  27.934  28.546  1.00  0.00     0.064 A 
ATOM     84  C   UNL A   1      41.279  28.382  27.453  1.00  0.00     0.173 A 
ATOM     85  C   UNL A   1      39.920  26.671  28.446  1.00  0.00     0.173 A 
ATOM     86  F   UNL A   1      41.858  29.590  27.491  1.00  0.00    -0.203 F 
ATOM     87  C   UNL A   1      41.405  27.611  26.299  1.00  0.00     0.198 A 
ATOM     88  C   UNL A   1      40.074  25.887  27.304  1.00  0.00     0.198 A 
ATOM     89  F   UNL A   1      39.190  26.191  29.464  1.00  0.00    -0.203 F 
ATOM     90  F   UNL A   1      42.089  28.088  25.250  1.00  0.00    -0.200 F 
ATOM     91  C   UNL A   1      40.807  26.362  26.227  1.00  0.00     0.200 A 
ATOM     92  F   UNL A   1      39.509  24.673  27.247  1.00  0.00    -0.200 F 
ATOM     93  F   UNL A   1      40.931  25.620  25.119  1.00  0.00    -0.200 F 
ENDBRANCH  59  83
BRANCH  71  94
ATOM     94  C   UNL A   1      43.929  28.324  34.624  1.00  0.00     0.064 A 
ATOM     95  C   UNL A   1      45.254  28.770  34.527  1.00  0.00     0.173 A 
ATOM     96  C   UNL A   1      43.684  27.145  35.345  1.00  0.00     0.173 A 
ATOM     97  F   UNL A   1      45.544  29.883  33.837  1.00  0.00    -0.203 F 
ATOM     98  C   UNL A   1      46.295  28.055  35.115  1.00  0.00     0.198 A 
ATOM     99  C   UNL A   1      44.721  26.451  35.960  1.00  0.00     0.198 A 
ATOM    100  F   UNL A   1      42.433  26.678  35.473  1.00  0.00    -0.203 F 
ATOM    101  F   UNL A   1      47.559  28.476  34.973  1.00  0.00    -0.200 F 
ATOM    102  C   UNL A   1      46.026  26.903  35.839  1.00  0.00     0.200 A 
ATOM    103  F   UNL A   1      44.457  25.349  36.675  1.00  0.00    -0.200 F 
ATOM    104  F   UNL A   1      47.027  26.225  36.419  1.00  0.00    -0.200 F 
ENDBRANCH  71  94
ENDBRANCH  45  46
ENDBRANCH  37  40
ENDBRANCH  35  36
ENDBRANCH  34  35
ENDBRANCH   1  34
TORSDOF 15
ENDMDL
MODEL 3
REMARK VINA RESULT:     -14.1      0.089      1.520
REMARK SMILES C[C@H]1CS(=O)(=O)N(c2cccc(C(=O)Nc3ccc(O)c(C(=O)NCCCCNC(=O)c4ccc(-c5c6nc(c(-c7c(F)c(F)c(F)c(F)c7F)c7ccc([nH]7)c(-c7c(F)c(F)c(F)c(F)c7F)c7nc(c(-c8c(F)c(F)c(F)c(F)c8F)c8ccc5[nH]8)C=C7)C=C6)cc4)c3)c2)C1=O
REMARK SMILES IDX 26 1 25 2 24 3 22 4 23 5 21 7 16 8 17 9 95 10 18 11 19 12
REMARK SMILES IDX 15 13 13 14 14 15 12 17 8 18 9 19 96 20 10 21 11 22 7 23
REMARK SMILES IDX 1 24 2 25 3 26 97 27 4 28 98 29 5 30 6 31 20 32 27 34 28 35
REMARK SMILES IDX 29 36 30 37 31 39 32 40 33 41 94 42 34 43 93 44 35 45 36 46
REMARK SMILES IDX 37 47 87 48 38 49 92 50 86 51 88 52 39 53 91 54 85 55 84 56
REMARK SMILES IDX 40 58 72 59 52 60 71 61 53 62 56 63 70 64 89 65 54 66 55 67
REMARK SMILES IDX 69 69 90 70 57 71 41 72 42 73 50 74 43 75 44 76 48 77 51 78
REMARK SMILES IDX 45 79 46 80 49 81 47 82 73 83 74 84 82 85 75 86 76 87 80 88
REMARK SMILES IDX 83 89 77 90 78 91 81 92 79 93 58 94 59 95 67 96 60 97 61 98
REMARK SMILES IDX 65 99 68 100 62 101 63 102 66 103 64 104
REMARK H PARENT 24 6 15 16 20 33 29 38 88 57 56 68
REMARK Flexibility Score: inf
ROOT
ATOM      1  C   UNL A   1      31.771  30.330  26.797  1.00  0.00     0.023 C 
ENDROOT
BRANCH   1   2
ATOM      2  C   UNL A   1      33.160  29.739  26.624  1.00  0.00     0.116 C 
BRANCH   2   3
ATOM      3  N   UNL A   1      33.531  29.695  25.213  1.00  0.00    -0.352 N 
ATOM      4  C   UNL A   1      33.047  29.099  24.075  1.00  0.00     0.255 C 
ATOM      5  O   UNL A   1      33.624  29.373  23.018  1.00  0.00    -0.269 OA
ATOM      6  H   UNL A   1      34.337  30.229  25.030  1.00  0.00     0.163 HD
BRANCH   4   7
ATOM      7  C   UNL A   1      31.823  28.260  23.991  1.00  0.00     0.083 A 
ATOM      8  C   UNL A   1      30.443  26.554  24.972  1.00  0.00     0.042 A 
ATOM      9  C   UNL A   1      29.335  26.965  24.245  1.00  0.00     0.030 A 
ATOM     10  C   UNL A   1      31.702  27.065  24.680  1.00  0.00     0.043 A 
ATOM     11  C   UNL A   1      29.464  28.061  23.394  1.00  0.00     0.049 A 
ATOM     12  C   UNL A   1      30.682  28.742  23.322  1.00  0.00     0.128 A 
BRANCH   8  13
ATOM     13  N   UNL A   1      30.275  25.713  26.072  1.00  0.00    -0.322 N 
ATOM     14  C   UNL A   1      30.508  24.350  26.182  1.00  0.00     0.255 C 
ATOM     15  O   UNL A   1      29.992  23.768  27.140  1.00  0.00    -0.269 OA
ATOM     16  H   UNL A   1      29.942  26.151  26.889  1.00  0.00     0.170 HD
BRANCH  14  17
ATOM     17  C   UNL A   1      31.417  23.549  25.265  1.00  0.00     0.042 A 
ATOM     18  C   UNL A   1      33.497  22.388  24.622  1.00  0.00     0.061 A 
ATOM     19  C   UNL A   1      32.947  22.118  23.366  1.00  0.00     0.027 A 
ATOM     20  C   UNL A   1      32.690  23.032  25.587  1.00  0.00     0.041 A 
ATOM     21  C   UNL A   1      31.657  22.540  23.052  1.00  0.00     0.003 A 
ATOM     22  C   UNL A   1      30.914  23.272  23.982  1.00  0.00     0.014 A 
BRANCH  18  23
ATOM     23  N   UNL A   1      34.896  22.135  24.830  1.00  0.00    -0.207 N 
ATOM     24  C   UNL A   1      37.412  19.460  24.743  1.00  0.00     0.019 C 
ATOM     25  C   UNL A   1      36.890  20.804  25.240  1.00  0.00     0.094 C 
ATOM     26  C   UNL A   1      37.379  21.970  24.383  1.00  0.00     0.173 C 
ATOM     27  C   UNL A   1      35.368  20.862  25.238  1.00  0.00     0.244 C 
ATOM     28  S   UNL A   1      36.115  23.222  24.458  1.00  0.00     0.242 S 
ATOM     29  O   UNL A   1      34.670  19.920  25.594  1.00  0.00    -0.273 OA
ATOM     30  O   UNL A   1      36.351  24.052  25.614  1.00  0.00    -0.206 OA
ATOM     31  O   UNL A   1      35.927  23.770  23.134  1.00  0.00    -0.206 OA
ENDBRANCH  18  23
ENDBRANCH  14  17
ENDBRANCH   8  13
BRANCH  12  32
ATOM     32  O   UNL A   1      30.668  29.906  22.598  1.00  0.00    -0.507 OA
ATOM     33  H   UNL A   1      30.825  30.725  23.025  1.00  0.00     0.293 HD
ENDBRANCH  12  32
ENDBRANCH   4   7
ENDBRANCH   2   3
ENDBRANCH   1   2
BRANCH   1  34
ATOM     34  C   UNL A   1      31.755  31.844  26.586  1.00  0.00     0.023 C 
BRANCH  34  35
ATOM     35  C   UNL A   1      32.839  32.610  27.341  1.00  0.00     0.116 C 
BRANCH  35  36
ATOM     36  N   UNL A   1      32.471  33.988  27.634  1.00  0.00    -0.352 N 
ATOM     37  C   UNL A   1      32.997  34.846  28.568  1.00  0.00     0.251 C 
ATOM     38  H   UNL A   1      31.742  34.357  27.084  1.00  0.00     0.163 HD
ATOM     39  O   UNL A   1      32.483  35.939  28.776  1.00  0.00    -0.269 OA
BRANCH  37  40
ATOM     40  C   UNL A   1      34.177  34.422  29.346  1.00  0.00     0.039 A 
ATOM     41  C   UNL A   1      33.985  33.796  30.579  1.00  0.00     0.014 A 
ATOM     42  C   UNL A   1      35.464  34.603  28.832  1.00  0.00     0.014 A 
ATOM     43  C   UNL A   1      35.085  33.277  31.263  1.00  0.00     0.010 A 
ATOM     44  C   UNL A   1      36.546  34.013  29.475  1.00  0.00     0.010 A 
ATOM     45  C   UNL A   1      36.367  33.340  30.694  1.00  0.00    -0.014 A 
BRANCH  45  46
ATOM     46  C   UNL A   1      37.537  32.701  31.348  1.00  0.00     0.031 A 
ATOM     47  C   UNL A   1      38.241  31.558  30.675  1.00  0.00     0.074 A 
ATOM     48  C   UNL A   1      37.915  33.100  32.578  1.00  0.00     0.049 A 
ATOM     49  N   UNL A   1      39.215  30.805  31.122  1.00  0.00    -0.248 NA
ATOM     50  C   UNL A   1      37.771  31.192  29.329  1.00  0.00     0.031 C 
ATOM     51  C   UNL A   1      37.288  34.173  33.350  1.00  0.00     0.029 A 
ATOM     52  N   UNL A   1      38.911  32.637  33.403  1.00  0.00    -0.354 N 
ATOM     53  C   UNL A   1      39.461  29.874  30.122  1.00  0.00     0.074 A 
ATOM     54  C   UNL A   1      38.499  30.118  29.069  1.00  0.00     0.031 C 
ATOM     55  C   UNL A   1      37.924  34.301  34.525  1.00  0.00     0.029 A 
ATOM     56  C   UNL A   1      38.972  33.287  34.612  1.00  0.00     0.049 A 
ATOM     57  H   UNL A   1      39.524  31.909  33.151  1.00  0.00     0.167 HD
ATOM     58  C   UNL A   1      40.419  28.918  30.076  1.00  0.00     0.037 A 
ATOM     59  C   UNL A   1      39.770  33.079  35.677  1.00  0.00     0.037 A 
ATOM     60  C   UNL A   1      41.383  28.691  31.120  1.00  0.00     0.049 A 
ATOM     61  C   UNL A   1      40.802  31.984  35.615  1.00  0.00     0.074 A 
ATOM     62  C   UNL A   1      42.426  27.782  31.148  1.00  0.00     0.029 A 
ATOM     63  N   UNL A   1      41.416  29.375  32.328  1.00  0.00    -0.354 N 
ATOM     64  N   UNL A   1      41.071  31.153  34.638  1.00  0.00    -0.248 NA
ATOM     65  C   UNL A   1      41.647  31.801  36.804  1.00  0.00     0.031 C 
ATOM     66  C   UNL A   1      43.051  27.871  32.395  1.00  0.00     0.029 A 
ATOM     67  C   UNL A   1      42.444  28.886  33.118  1.00  0.00     0.049 A 
ATOM     68  H   UNL A   1      40.802  30.100  32.584  1.00  0.00     0.167 HD
ATOM     69  C   UNL A   1      42.134  30.376  35.077  1.00  0.00     0.074 A 
ATOM     70  C   UNL A   1      42.469  30.839  36.407  1.00  0.00     0.031 C 
ATOM     71  C   UNL A   1      42.778  29.370  34.434  1.00  0.00     0.037 A 
BRANCH  58  72
ATOM     72  C   UNL A   1      40.471  28.042  28.858  1.00  0.00     0.064 A 
ATOM     73  C   UNL A   1      39.746  26.842  28.778  1.00  0.00     0.173 A 
ATOM     74  C   UNL A   1      41.226  28.425  27.738  1.00  0.00     0.173 A 
ATOM     75  F   UNL A   1      39.015  26.424  29.823  1.00  0.00    -0.203 F 
ATOM     76  C   UNL A   1      39.800  26.045  27.638  1.00  0.00     0.198 A 
ATOM     77  C   UNL A   1      41.249  27.642  26.586  1.00  0.00     0.198 A 
ATOM     78  F   UNL A   1      41.933  29.565  27.756  1.00  0.00    -0.203 F 
ATOM     79  F   UNL A   1      39.144  24.877  27.607  1.00  0.00    -0.200 F 
ATOM     80  C   UNL A   1      40.545  26.449  26.540  1.00  0.00     0.200 A 
ATOM     81  F   UNL A   1      41.955  28.044  25.520  1.00  0.00    -0.200 F 
ATOM     82  F   UNL A   1      40.589  25.686  25.441  1.00  0.00    -0.200 F 
ENDBRANCH  58  72
BRANCH  59  83
ATOM     83  C   UNL A   1      39.633  33.929  36.890  1.00  0.00     0.064 A 
ATOM     84  C   UNL A   1      38.844  33.517  37.973  1.00  0.00     0.173 A 
ATOM     85  C   UNL A   1      40.274  35.173  36.988  1.00  0.00     0.173 A 
ATOM     86  F   UNL A   1      38.195  32.345  37.921  1.00  0.00    -0.203 F 
ATOM     87  C   UNL A   1      38.681  34.326  39.096  1.00  0.00     0.198 A 
ATOM     88  C   UNL A   1      40.137  35.967  38.125  1.00  0.00     0.198 A 
ATOM     89  F   UNL A   1      41.045  35.614  35.983  1.00  0.00    -0.203 F 
ATOM     90  F   UNL A   1      37.878  33.930  40.093  1.00  0.00    -0.200 F 
ATOM     91  C   UNL A   1      39.332  35.548  39.174  1.00  0.00     0.200 A 
ATOM     92  F   UNL A   1      40.782  37.139  38.203  1.00  0.00    -0.200 F 
ATOM     93  F   UNL A   1      39.177  36.325  40.254  1.00  0.00    -0.200 F 
ENDBRANCH  59  83
BRANCH  71  94
ATOM     94  C   UNL A   1      43.945  28.732  35.132  1.00  0.00     0.064 A 
ATOM     95  C   UNL A   1      43.797  27.595  35.938  1.00  0.00     0.173 A 
ATOM     96  C   UNL A   1      45.243  29.232  34.934  1.00  0.00     0.173 A 
ATOM     97  F   UNL A   1      42.578  27.086  36.170  1.00  0.00    -0.203 F 
ATOM     98  C   UNL A   1      44.902  26.993  36.535  1.00  0.00     0.198 A 
ATOM     99  C   UNL A   1      46.347  28.608  35.505  1.00  0.00     0.198 A 
ATOM    100  F   UNL A   1      45.440  30.315  34.166  1.00  0.00    -0.203 F 
ATOM    101  F   UNL A   1      44.732  25.932  37.337  1.00  0.00    -0.200 F 
ATOM    102  C   UNL A   1      46.176  27.493  36.309  1.00  0.00     0.200 A 
ATOM    103  F   UNL A   1      47.579  29.082  35.269  1.00  0.00    -0.200 F 
ATOM    104  F   UNL A   1      47.239  26.901  36.871  1.00  0.00    -0.200 F 
ENDBRANCH  71  94
ENDBRANCH  45  46
ENDBRANCH  37  40
ENDBRANCH  35  36
ENDBRANCH  34  35
ENDBRANCH   1  34
TORSDOF 15
ENDMDL
