MODEL 1
REMARK VINA RESULT:     -12.6      0.000      0.000
REMARK SMILES O=C(NCCCCNC(=O)c1cccc(N[C@H]2CCCC[C@@H]2O)c1)c1ccc(-c2c3nc(c(-c4c(F)c(F)c(F)c(F)c4F)c4ccc([nH]4)c(-c4c(F)c(F)c(F)c(F)c4F)c4nc(c(-c5c(F)c(F)c(F)c(F)c5F)c5ccc2[nH]5)C=C4)C=C3)cc1
REMARK SMILES IDX 6 1 5 2 4 3 3 4 1 5 2 6 25 8 26 9 87 10 27 11 86 12 28 13
REMARK SMILES IDX 29 14 30 15 80 16 31 17 85 18 79 19 81 20 32 21 84 22 78 23
REMARK SMILES IDX 77 24 33 26 65 27 45 28 64 29 46 30 49 31 63 32 82 33 47 34
REMARK SMILES IDX 48 35 62 37 83 38 50 39 34 40 35 41 43 42 36 43 37 44 41 45
REMARK SMILES IDX 44 46 38 47 39 48 42 49 40 50 66 51 67 52 75 53 68 54 69 55
REMARK SMILES IDX 73 56 76 57 70 58 71 59 74 60 72 61 51 62 52 63 60 64 53 65
REMARK SMILES IDX 54 66 58 67 61 68 55 69 56 70 59 71 57 72 7 73 8 74 9 75
REMARK SMILES IDX 10 77 11 78 12 79 24 80 13 81 15 82 14 83 16 84 17 86 18 87
REMARK SMILES IDX 22 88 19 89 21 90 20 91 23 92
REMARK H PARENT 3 7 81 25 49 36 8 76 16 85 23 93
REMARK Flexibility Score: inf
ROOT
ATOM      1  C   UNL A   1      31.584  31.321  26.154  1.00  0.00     0.023 C 
ENDROOT
BRANCH   1   2
ATOM      2  C   UNL A   1      31.419  32.720  26.739  1.00  0.00     0.023 C 
BRANCH   2   3
ATOM      3  C   UNL A   1      32.668  33.300  27.388  1.00  0.00     0.116 C 
BRANCH   3   4
ATOM      4  N   UNL A   1      32.477  34.657  27.874  1.00  0.00    -0.352 N 
ATOM      5  O   UNL A   1      32.725  36.411  29.276  1.00  0.00    -0.269 OA
ATOM      6  C   UNL A   1      33.107  35.304  28.910  1.00  0.00     0.251 C 
ATOM      7  H   UNL A   1      31.800  35.187  27.394  1.00  0.00     0.163 HD
BRANCH   6   8
ATOM      8  C   UNL A   1      34.235  34.648  29.604  1.00  0.00     0.039 A 
ATOM      9  C   UNL A   1      35.517  34.666  29.051  1.00  0.00     0.014 A 
ATOM     10  C   UNL A   1      34.003  34.002  30.822  1.00  0.00     0.014 A 
ATOM     11  C   UNL A   1      36.532  33.919  29.638  1.00  0.00     0.010 A 
ATOM     12  C   UNL A   1      35.047  33.326  31.458  1.00  0.00     0.010 A 
ATOM     13  C   UNL A   1      36.313  33.256  30.857  1.00  0.00    -0.014 A 
BRANCH  13  14
ATOM     14  C   UNL A   1      37.444  32.559  31.518  1.00  0.00     0.031 A 
ATOM     15  C   UNL A   1      38.168  31.430  30.842  1.00  0.00     0.074 A 
ATOM     16  C   UNL A   1      37.824  32.974  32.742  1.00  0.00     0.049 A 
ATOM     17  N   UNL A   1      39.171  30.713  31.284  1.00  0.00    -0.248 NA
ATOM     18  C   UNL A   1      37.704  31.049  29.500  1.00  0.00     0.031 C 
ATOM     19  C   UNL A   1      37.187  34.054  33.497  1.00  0.00     0.029 A 
ATOM     20  N   UNL A   1      38.838  32.550  33.560  1.00  0.00    -0.354 N 
ATOM     21  C   UNL A   1      39.449  29.789  30.286  1.00  0.00     0.074 A 
ATOM     22  C   UNL A   1      38.492  30.018  29.224  1.00  0.00     0.031 C 
ATOM     23  C   UNL A   1      37.848  34.235  34.649  1.00  0.00     0.029 A 
ATOM     24  C   UNL A   1      38.912  33.243  34.743  1.00  0.00     0.049 A 
ATOM     25  H   UNL A   1      39.454  31.819  33.324  1.00  0.00     0.167 HD
ATOM     26  C   UNL A   1      40.420  28.844  30.260  1.00  0.00     0.037 A 
ATOM     27  C   UNL A   1      39.729  33.083  35.799  1.00  0.00     0.037 A 
ATOM     28  C   UNL A   1      41.377  28.633  31.317  1.00  0.00     0.049 A 
ATOM     29  C   UNL A   1      40.773  32.005  35.755  1.00  0.00     0.074 A 
ATOM     30  C   UNL A   1      42.423  27.729  31.367  1.00  0.00     0.029 A 
ATOM     31  N   UNL A   1      41.400  29.334  32.515  1.00  0.00    -0.354 N 
ATOM     32  N   UNL A   1      41.047  31.161  34.792  1.00  0.00    -0.248 NA
ATOM     33  C   UNL A   1      41.617  31.854  36.947  1.00  0.00     0.031 C 
ATOM     34  C   UNL A   1      43.048  27.848  32.614  1.00  0.00     0.029 A 
ATOM     35  C   UNL A   1      42.425  28.863  33.321  1.00  0.00     0.049 A 
ATOM     36  H   UNL A   1      40.780  30.060  32.756  1.00  0.00     0.167 HD
ATOM     37  C   UNL A   1      42.102  30.388  35.252  1.00  0.00     0.074 A 
ATOM     38  C   UNL A   1      42.434  30.879  36.574  1.00  0.00     0.031 C 
ATOM     39  C   UNL A   1      42.738  29.362  34.636  1.00  0.00     0.037 A 
BRANCH  26  40
ATOM     40  C   UNL A   1      40.491  27.946  29.058  1.00  0.00     0.064 A 
ATOM     41  C   UNL A   1      39.731  26.771  28.967  1.00  0.00     0.173 A 
ATOM     42  C   UNL A   1      41.288  28.298  27.957  1.00  0.00     0.173 A 
ATOM     43  F   UNL A   1      38.959  26.385  29.994  1.00  0.00    -0.203 F 
ATOM     44  C   UNL A   1      39.781  25.971  27.828  1.00  0.00     0.198 A 
ATOM     45  C   UNL A   1      41.316  27.509  26.810  1.00  0.00     0.198 A 
ATOM     46  F   UNL A   1      42.030  29.415  27.988  1.00  0.00    -0.203 F 
ATOM     47  F   UNL A   1      39.074  24.833  27.778  1.00  0.00    -0.200 F 
ATOM     48  C   UNL A   1      40.568  26.344  26.747  1.00  0.00     0.200 A 
ATOM     49  F   UNL A   1      42.066  27.878  25.762  1.00  0.00    -0.200 F 
ATOM     50  F   UNL A   1      40.607  25.578  25.649  1.00  0.00    -0.200 F 
ENDBRANCH  26  40
BRANCH  27  51
ATOM     51  C   UNL A   1      39.578  33.964  36.985  1.00  0.00     0.064 A 
ATOM     52  C   UNL A   1      38.817  33.561  38.090  1.00  0.00     0.173 A 
ATOM     53  C   UNL A   1      40.209  35.215  37.046  1.00  0.00     0.173 A 
ATOM     54  F   UNL A   1      38.180  32.381  38.071  1.00  0.00    -0.203 F 
ATOM     55  C   UNL A   1      38.682  34.383  39.207  1.00  0.00     0.198 A 
ATOM     56  C   UNL A   1      40.099  36.022  38.175  1.00  0.00     0.198 A 
ATOM     57  F   UNL A   1      40.954  35.642  36.016  1.00  0.00    -0.203 F 
ATOM     58  F   UNL A   1      37.918  33.991  40.236  1.00  0.00    -0.200 F 
ATOM     59  C   UNL A   1      39.330  35.609  39.252  1.00  0.00     0.200 A 
ATOM     60  F   UNL A   1      40.741  37.197  38.221  1.00  0.00    -0.200 F 
ATOM     61  F   UNL A   1      39.209  36.393  40.331  1.00  0.00    -0.200 F 
ENDBRANCH  27  51
BRANCH  39  62
ATOM     62  C   UNL A   1      43.869  28.716  35.380  1.00  0.00     0.064 A 
ATOM     63  C   UNL A   1      43.649  27.665  36.282  1.00  0.00     0.173 A 
ATOM     64  C   UNL A   1      45.191  29.137  35.168  1.00  0.00     0.173 A 
ATOM     65  F   UNL A   1      42.402  27.241  36.532  1.00  0.00    -0.203 F 
ATOM     66  C   UNL A   1      44.710  27.073  36.962  1.00  0.00     0.198 A 
ATOM     67  C   UNL A   1      46.251  28.524  35.829  1.00  0.00     0.198 A 
ATOM     68  F   UNL A   1      45.454  30.136  34.312  1.00  0.00    -0.203 F 
ATOM     69  F   UNL A   1      44.473  26.103  37.855  1.00  0.00    -0.200 F 
ATOM     70  C   UNL A   1      46.010  27.498  36.730  1.00  0.00     0.200 A 
ATOM     71  F   UNL A   1      47.508  28.927  35.595  1.00  0.00    -0.200 F 
ATOM     72  F   UNL A   1      47.029  26.924  37.382  1.00  0.00    -0.200 F 
ENDBRANCH  39  62
ENDBRANCH  13  14
ENDBRANCH   6   8
ENDBRANCH   3   4
ENDBRANCH   2   3
ENDBRANCH   1   2
BRANCH   1  73
ATOM     73  C   UNL A   1      32.742  30.511  26.727  1.00  0.00     0.116 C 
BRANCH  73  74
ATOM     74  N   UNL A   1      32.295  29.409  27.567  1.00  0.00    -0.352 N 
ATOM     75  C   UNL A   1      32.001  28.115  27.216  1.00  0.00     0.251 C 
ATOM     76  H   UNL A   1      32.189  29.623  28.523  1.00  0.00     0.163 HD
ATOM     77  O   UNL A   1      31.493  27.354  28.032  1.00  0.00    -0.269 OA
BRANCH  75  78
ATOM     78  C   UNL A   1      32.274  27.654  25.843  1.00  0.00     0.041 A 
ATOM     79  C   UNL A   1      33.530  27.131  25.548  1.00  0.00     0.014 A 
ATOM     80  C   UNL A   1      31.282  27.732  24.856  1.00  0.00     0.039 A 
ATOM     81  C   UNL A   1      33.767  26.639  24.271  1.00  0.00     0.003 A 
ATOM     82  C   UNL A   1      31.479  27.188  23.582  1.00  0.00     0.035 A 
ATOM     83  C   UNL A   1      32.748  26.664  23.309  1.00  0.00     0.026 A 
BRANCH  82  84
ATOM     84  N   UNL A   1      30.428  27.236  22.689  1.00  0.00    -0.380 N 
ATOM     85  H   UNL A   1      30.277  26.417  22.163  1.00  0.00     0.160 HD
BRANCH  84  86
ATOM     86  C   UNL A   1      29.507  28.343  22.417  1.00  0.00     0.107 C 
ATOM     87  C   UNL A   1      28.205  28.173  23.210  1.00  0.00     0.027 C 
ATOM     88  C   UNL A   1      30.189  29.732  22.538  1.00  0.00     0.136 C 
ATOM     89  C   UNL A   1      27.281  29.377  23.090  1.00  0.00     0.002 C 
ATOM     90  C   UNL A   1      29.182  30.881  22.461  1.00  0.00     0.034 C 
ATOM     91  C   UNL A   1      28.015  30.672  23.416  1.00  0.00     0.003 C 
BRANCH  88  92
ATOM     92  O   UNL A   1      31.164  29.919  21.501  1.00  0.00    -0.391 OA
ATOM     93  H   UNL A   1      30.734  29.844  20.634  1.00  0.00     0.211 HD
ENDBRANCH  88  92
ENDBRANCH  84  86
ENDBRANCH  82  84
ENDBRANCH  75  78
ENDBRANCH  73  74
ENDBRANCH   1  73
TORSDOF 14
ENDMDL
MODEL 2
REMARK VINA RESULT:     -12.6      0.723      1.819
REMARK SMILES O=C(NCCCCNC(=O)c1cccc(N[C@H]2CCCC[C@@H]2O)c1)c1ccc(-c2c3nc(c(-c4c(F)c(F)c(F)c(F)c4F)c4ccc([nH]4)c(-c4c(F)c(F)c(F)c(F)c4F)c4nc(c(-c5c(F)c(F)c(F)c(F)c5F)c5ccc2[nH]5)C=C4)C=C3)cc1
REMARK SMILES IDX 6 1 5 2 4 3 3 4 1 5 2 6 25 8 26 9 87 10 27 11 86 12 28 13
REMARK SMILES IDX 29 14 30 15 80 16 31 17 85 18 79 19 81 20 32 21 84 22 78 23
REMARK SMILES IDX 77 24 33 26 65 27 45 28 64 29 46 30 49 31 63 32 82 33 47 34
REMARK SMILES IDX 48 35 62 37 83 38 50 39 34 40 35 41 43 42 36 43 37 44 41 45
REMARK SMILES IDX 44 46 38 47 39 48 42 49 40 50 66 51 67 52 75 53 68 54 69 55
REMARK SMILES IDX 73 56 76 57 70 58 71 59 74 60 72 61 51 62 52 63 60 64 53 65
REMARK SMILES IDX 54 66 58 67 61 68 55 69 56 70 59 71 57 72 7 73 8 74 9 75
REMARK SMILES IDX 10 77 11 78 12 79 24 80 13 81 15 82 14 83 16 84 17 86 18 87
REMARK SMILES IDX 22 88 19 89 21 90 20 91 23 92
REMARK H PARENT 3 7 81 25 49 36 8 76 16 85 23 93
REMARK Flexibility Score: inf
ROOT
ATOM      1  C   UNL A   1      31.460  30.890  26.070  1.00  0.00     0.023 C 
ENDROOT
BRANCH   1   2
ATOM      2  C   UNL A   1      31.317  32.336  26.534  1.00  0.00     0.023 C 
BRANCH   2   3
ATOM      3  C   UNL A   1      32.547  32.921  27.214  1.00  0.00     0.116 C 
BRANCH   3   4
ATOM      4  N   UNL A   1      32.344  34.284  27.679  1.00  0.00    -0.352 N 
ATOM      5  O   UNL A   1      32.593  36.067  29.044  1.00  0.00    -0.269 OA
ATOM      6  C   UNL A   1      32.986  34.960  28.689  1.00  0.00     0.251 C 
ATOM      7  H   UNL A   1      31.648  34.793  27.206  1.00  0.00     0.163 HD
BRANCH   6   8
ATOM      8  C   UNL A   1      34.140  34.336  29.368  1.00  0.00     0.039 A 
ATOM      9  C   UNL A   1      35.441  34.564  28.915  1.00  0.00     0.014 A 
ATOM     10  C   UNL A   1      33.915  33.506  30.471  1.00  0.00     0.014 A 
ATOM     11  C   UNL A   1      36.499  33.854  29.470  1.00  0.00     0.010 A 
ATOM     12  C   UNL A   1      34.991  32.861  31.084  1.00  0.00     0.010 A 
ATOM     13  C   UNL A   1      36.289  33.008  30.571  1.00  0.00    -0.014 A 
BRANCH  13  14
ATOM     14  C   UNL A   1      37.453  32.349  31.214  1.00  0.00     0.031 A 
ATOM     15  C   UNL A   1      38.215  31.258  30.517  1.00  0.00     0.074 A 
ATOM     16  C   UNL A   1      37.828  32.763  32.439  1.00  0.00     0.049 A 
ATOM     17  N   UNL A   1      39.249  30.576  30.940  1.00  0.00    -0.248 NA
ATOM     18  C   UNL A   1      37.754  30.875  29.174  1.00  0.00     0.031 C 
ATOM     19  C   UNL A   1      37.156  33.808  33.214  1.00  0.00     0.029 A 
ATOM     20  N   UNL A   1      38.866  32.369  33.243  1.00  0.00    -0.354 N 
ATOM     21  C   UNL A   1      39.554  29.675  29.928  1.00  0.00     0.074 A 
ATOM     22  C   UNL A   1      38.579  29.879  28.878  1.00  0.00     0.031 C 
ATOM     23  C   UNL A   1      37.820  34.000  34.362  1.00  0.00     0.029 A 
ATOM     24  C   UNL A   1      38.923  33.050  34.434  1.00  0.00     0.049 A 
ATOM     25  H   UNL A   1      39.508  31.666  32.992  1.00  0.00     0.167 HD
ATOM     26  C   UNL A   1      40.561  28.769  29.882  1.00  0.00     0.037 A 
ATOM     27  C   UNL A   1      39.756  32.910  35.480  1.00  0.00     0.037 A 
ATOM     28  C   UNL A   1      41.535  28.584  30.927  1.00  0.00     0.049 A 
ATOM     29  C   UNL A   1      40.841  31.874  35.414  1.00  0.00     0.074 A 
ATOM     30  C   UNL A   1      42.617  27.721  30.957  1.00  0.00     0.029 A 
ATOM     31  N   UNL A   1      41.542  29.271  32.134  1.00  0.00    -0.354 N 
ATOM     32  N   UNL A   1      41.139  31.054  34.437  1.00  0.00    -0.248 NA
ATOM     33  C   UNL A   1      41.702  31.742  36.596  1.00  0.00     0.031 C 
ATOM     34  C   UNL A   1      43.248  27.849  32.199  1.00  0.00     0.029 A 
ATOM     35  C   UNL A   1      42.592  28.830  32.925  1.00  0.00     0.049 A 
ATOM     36  H   UNL A   1      40.896  29.969  32.390  1.00  0.00     0.167 HD
ATOM     37  C   UNL A   1      42.228  30.317  34.878  1.00  0.00     0.074 A 
ATOM     38  C   UNL A   1      42.553  30.805  36.203  1.00  0.00     0.031 C 
ATOM     39  C   UNL A   1      42.898  29.325  34.243  1.00  0.00     0.037 A 
BRANCH  26  40
ATOM     40  C   UNL A   1      40.656  27.890  28.668  1.00  0.00     0.064 A 
ATOM     41  C   UNL A   1      39.983  26.662  28.591  1.00  0.00     0.173 A 
ATOM     42  C   UNL A   1      41.385  28.311  27.544  1.00  0.00     0.173 A 
ATOM     43  F   UNL A   1      39.280  26.210  29.640  1.00  0.00    -0.203 F 
ATOM     44  C   UNL A   1      40.052  25.878  27.441  1.00  0.00     0.198 A 
ATOM     45  C   UNL A   1      41.430  27.536  26.388  1.00  0.00     0.198 A 
ATOM     46  F   UNL A   1      42.041  29.480  27.562  1.00  0.00    -0.203 F 
ATOM     47  F   UNL A   1      39.432  24.691  27.403  1.00  0.00    -0.200 F 
ATOM     48  C   UNL A   1      40.770  26.318  26.338  1.00  0.00     0.200 A 
ATOM     49  F   UNL A   1      42.113  27.970  25.318  1.00  0.00    -0.200 F 
ATOM     50  F   UNL A   1      40.827  25.567  25.231  1.00  0.00    -0.200 F 
ENDBRANCH  26  40
BRANCH  27  51
ATOM     51  C   UNL A   1      39.581  33.769  36.678  1.00  0.00     0.064 A 
ATOM     52  C   UNL A   1      40.165  35.041  36.745  1.00  0.00     0.173 A 
ATOM     53  C   UNL A   1      38.810  33.346  37.770  1.00  0.00     0.173 A 
ATOM     54  F   UNL A   1      40.926  35.483  35.733  1.00  0.00    -0.203 F 
ATOM     55  C   UNL A   1      39.993  35.852  37.865  1.00  0.00     0.198 A 
ATOM     56  C   UNL A   1      38.613  34.168  38.875  1.00  0.00     0.198 A 
ATOM     57  F   UNL A   1      38.225  32.139  37.751  1.00  0.00    -0.203 F 
ATOM     58  F   UNL A   1      40.592  37.050  37.920  1.00  0.00    -0.200 F 
ATOM     59  C   UNL A   1      39.211  35.419  38.925  1.00  0.00     0.200 A 
ATOM     60  F   UNL A   1      37.842  33.753  39.889  1.00  0.00    -0.200 F 
ATOM     61  F   UNL A   1      39.037  36.204  39.997  1.00  0.00    -0.200 F 
ENDBRANCH  27  51
BRANCH  39  62
ATOM     62  C   UNL A   1      44.061  28.716  34.969  1.00  0.00     0.064 A 
ATOM     63  C   UNL A   1      45.352  29.253  34.867  1.00  0.00     0.173 A 
ATOM     64  C   UNL A   1      43.875  27.599  35.798  1.00  0.00     0.173 A 
ATOM     65  F   UNL A   1      45.584  30.309  34.073  1.00  0.00    -0.203 F 
ATOM     66  C   UNL A   1      46.421  28.679  35.551  1.00  0.00     0.198 A 
ATOM     67  C   UNL A   1      44.940  27.045  36.501  1.00  0.00     0.198 A 
ATOM     68  F   UNL A   1      42.658  27.051  35.932  1.00  0.00    -0.203 F 
ATOM     69  F   UNL A   1      47.655  29.178  35.401  1.00  0.00    -0.200 F 
ATOM     70  C   UNL A   1      46.213  27.581  36.372  1.00  0.00     0.200 A 
ATOM     71  F   UNL A   1      44.736  25.992  37.304  1.00  0.00    -0.200 F 
ATOM     72  F   UNL A   1      47.242  27.033  37.032  1.00  0.00    -0.200 F 
ENDBRANCH  39  62
ENDBRANCH  13  14
ENDBRANCH   6   8
ENDBRANCH   3   4
ENDBRANCH   2   3
ENDBRANCH   1   2
BRANCH   1  73
ATOM     73  C   UNL A   1      31.824  29.891  27.163  1.00  0.00     0.116 C 
BRANCH  73  74
ATOM     74  N   UNL A   1      33.076  29.198  26.897  1.00  0.00    -0.352 N 
ATOM     75  C   UNL A   1      33.281  27.973  26.312  1.00  0.00     0.251 C 
ATOM     76  H   UNL A   1      33.890  29.674  27.179  1.00  0.00     0.163 HD
ATOM     77  O   UNL A   1      34.401  27.473  26.301  1.00  0.00    -0.269 OA
BRANCH  75  78
ATOM     78  C   UNL A   1      32.142  27.250  25.718  1.00  0.00     0.041 A 
ATOM     79  C   UNL A   1      31.568  26.202  26.430  1.00  0.00     0.014 A 
ATOM     80  C   UNL A   1      31.640  27.622  24.464  1.00  0.00     0.039 A 
ATOM     81  C   UNL A   1      30.455  25.562  25.899  1.00  0.00     0.003 A 
ATOM     82  C   UNL A   1      30.485  27.032  23.938  1.00  0.00     0.035 A 
ATOM     83  C   UNL A   1      29.923  25.982  24.673  1.00  0.00     0.026 A 
BRANCH  82  84
ATOM     84  N   UNL A   1      30.010  27.505  22.731  1.00  0.00    -0.380 N 
ATOM     85  H   UNL A   1      30.266  26.981  21.938  1.00  0.00     0.160 HD
BRANCH  84  86
ATOM     86  C   UNL A   1      29.176  28.682  22.472  1.00  0.00     0.107 C 
ATOM     87  C   UNL A   1      27.896  28.637  23.317  1.00  0.00     0.027 C 
ATOM     88  C   UNL A   1      29.978  30.010  22.541  1.00  0.00     0.136 C 
ATOM     89  C   UNL A   1      27.074  29.913  23.209  1.00  0.00     0.002 C 
ATOM     90  C   UNL A   1      29.070  31.238  22.480  1.00  0.00     0.034 C 
ATOM     91  C   UNL A   1      27.927  31.146  23.481  1.00  0.00     0.003 C 
BRANCH  88  92
ATOM     92  O   UNL A   1      30.924  30.095  21.464  1.00  0.00    -0.391 OA
ATOM     93  H   UNL A   1      30.597  29.587  20.705  1.00  0.00     0.211 HD
ENDBRANCH  88  92
ENDBRANCH  84  86
ENDBRANCH  82  84
ENDBRANCH  75  78
ENDBRANCH  73  74
ENDBRANCH   1  73
TORSDOF 14
ENDMDL
MODEL 3
REMARK VINA RESULT:     -12.6      6.688     11.967
REMARK SMILES O=C(NCCCCNC(=O)c1cccc(N[C@H]2CCCC[C@@H]2O)c1)c1ccc(-c2c3nc(c(-c4c(F)c(F)c(F)c(F)c4F)c4ccc([nH]4)c(-c4c(F)c(F)c(F)c(F)c4F)c4nc(c(-c5c(F)c(F)c(F)c(F)c5F)c5ccc2[nH]5)C=C4)C=C3)cc1
REMARK SMILES IDX 6 1 5 2 4 3 3 4 1 5 2 6 25 8 26 9 87 10 27 11 86 12 28 13
REMARK SMILES IDX 29 14 30 15 80 16 31 17 85 18 79 19 81 20 32 21 84 22 78 23
REMARK SMILES IDX 77 24 33 26 65 27 45 28 64 29 46 30 49 31 63 32 82 33 47 34
REMARK SMILES IDX 48 35 62 37 83 38 50 39 34 40 35 41 43 42 36 43 37 44 41 45
REMARK SMILES IDX 44 46 38 47 39 48 42 49 40 50 66 51 67 52 75 53 68 54 69 55
REMARK SMILES IDX 73 56 76 57 70 58 71 59 74 60 72 61 51 62 52 63 60 64 53 65
REMARK SMILES IDX 54 66 58 67 61 68 55 69 56 70 59 71 57 72 7 73 8 74 9 75
REMARK SMILES IDX 10 77 11 78 12 79 24 80 13 81 15 82 14 83 16 84 17 86 18 87
REMARK SMILES IDX 22 88 19 89 21 90 20 91 23 92
REMARK H PARENT 3 7 81 25 49 36 8 76 16 85 23 93
REMARK Flexibility Score: inf
ROOT
ATOM      1  C   UNL A   1      37.366  20.002  24.966  1.00  0.00     0.023 C 
ENDROOT
BRANCH   1   2
ATOM      2  C   UNL A   1      38.492  19.039  25.330  1.00  0.00     0.023 C 
BRANCH   2   3
ATOM      3  C   UNL A   1      39.765  19.699  25.841  1.00  0.00     0.116 C 
BRANCH   3   4
ATOM      4  N   UNL A   1      40.873  18.766  25.976  1.00  0.00    -0.352 N 
ATOM      5  O   UNL A   1      43.032  18.120  26.132  1.00  0.00    -0.269 OA
ATOM      6  C   UNL A   1      42.206  19.028  26.179  1.00  0.00     0.251 C 
ATOM      7  H   UNL A   1      40.633  17.814  25.913  1.00  0.00     0.163 HD
BRANCH   6   8
ATOM      8  C   UNL A   1      42.651  20.414  26.429  1.00  0.00     0.039 A 
ATOM      9  C   UNL A   1      42.611  20.953  27.717  1.00  0.00     0.014 A 
ATOM     10  C   UNL A   1      43.107  21.187  25.358  1.00  0.00     0.014 A 
ATOM     11  C   UNL A   1      42.889  22.301  27.909  1.00  0.00     0.010 A 
ATOM     12  C   UNL A   1      43.472  22.519  25.569  1.00  0.00     0.010 A 
ATOM     13  C   UNL A   1      43.339  23.094  26.841  1.00  0.00    -0.014 A 
BRANCH  13  14
ATOM     14  C   UNL A   1      43.736  24.501  27.098  1.00  0.00     0.031 A 
ATOM     15  C   UNL A   1      42.756  25.501  27.642  1.00  0.00     0.074 A 
ATOM     16  C   UNL A   1      45.008  24.864  26.847  1.00  0.00     0.049 A 
ATOM     17  N   UNL A   1      42.939  26.769  27.917  1.00  0.00    -0.248 NA
ATOM     18  C   UNL A   1      41.391  25.022  27.907  1.00  0.00     0.031 C 
ATOM     19  C   UNL A   1      46.043  23.978  26.309  1.00  0.00     0.029 A 
ATOM     20  N   UNL A   1      45.653  26.061  27.020  1.00  0.00    -0.354 N 
ATOM     21  C   UNL A   1      41.716  27.243  28.369  1.00  0.00     0.074 A 
ATOM     22  C   UNL A   1      40.788  26.133  28.310  1.00  0.00     0.031 C 
ATOM     23  C   UNL A   1      47.200  24.650  26.232  1.00  0.00     0.029 A 
ATOM     24  C   UNL A   1      46.975  26.027  26.653  1.00  0.00     0.049 A 
ATOM     25  H   UNL A   1      45.211  26.867  27.372  1.00  0.00     0.167 HD
ATOM     26  C   UNL A   1      41.403  28.488  28.802  1.00  0.00     0.037 A 
ATOM     27  C   UNL A   1      47.901  27.003  26.634  1.00  0.00     0.037 A 
ATOM     28  C   UNL A   1      42.338  29.583  28.871  1.00  0.00     0.049 A 
ATOM     29  C   UNL A   1      47.515  28.381  27.086  1.00  0.00     0.074 A 
ATOM     30  C   UNL A   1      42.128  30.871  29.332  1.00  0.00     0.029 A 
ATOM     31  N   UNL A   1      43.663  29.519  28.460  1.00  0.00    -0.354 N 
ATOM     32  N   UNL A   1      46.364  28.807  27.545  1.00  0.00    -0.248 NA
ATOM     33  C   UNL A   1      48.555  29.415  27.015  1.00  0.00     0.031 C 
ATOM     34  C   UNL A   1      43.309  31.600  29.155  1.00  0.00     0.029 A 
ATOM     35  C   UNL A   1      44.272  30.752  28.632  1.00  0.00     0.049 A 
ATOM     36  H   UNL A   1      44.104  28.716  28.100  1.00  0.00     0.167 HD
ATOM     37  C   UNL A   1      46.543  30.153  27.830  1.00  0.00     0.074 A 
ATOM     38  C   UNL A   1      47.921  30.467  27.513  1.00  0.00     0.031 C 
ATOM     39  C   UNL A   1      45.645  31.048  28.308  1.00  0.00     0.037 A 
BRANCH  26  40
ATOM     40  C   UNL A   1      39.984  28.748  29.221  1.00  0.00     0.064 A 
ATOM     41  C   UNL A   1      39.015  29.197  28.310  1.00  0.00     0.173 A 
ATOM     42  C   UNL A   1      39.575  28.489  30.538  1.00  0.00     0.173 A 
ATOM     43  F   UNL A   1      39.356  29.468  27.042  1.00  0.00    -0.203 F 
ATOM     44  C   UNL A   1      37.696  29.396  28.708  1.00  0.00     0.198 A 
ATOM     45  C   UNL A   1      38.249  28.664  30.926  1.00  0.00     0.198 A 
ATOM     46  F   UNL A   1      40.458  28.051  31.447  1.00  0.00    -0.203 F 
ATOM     47  F   UNL A   1      36.795  29.861  27.831  1.00  0.00    -0.200 F 
ATOM     48  C   UNL A   1      37.312  29.123  30.013  1.00  0.00     0.200 A 
ATOM     49  F   UNL A   1      37.877  28.387  32.183  1.00  0.00    -0.200 F 
ATOM     50  F   UNL A   1      36.039  29.306  30.391  1.00  0.00    -0.200 F 
ENDBRANCH  26  40
BRANCH  27  51
ATOM     51  C   UNL A   1      49.275  26.702  26.158  1.00  0.00     0.064 A 
ATOM     52  C   UNL A   1      49.642  26.928  24.825  1.00  0.00     0.173 A 
ATOM     53  C   UNL A   1      50.253  26.205  27.031  1.00  0.00     0.173 A 
ATOM     54  F   UNL A   1      48.736  27.386  23.949  1.00  0.00    -0.203 F 
ATOM     55  C   UNL A   1      50.934  26.655  24.380  1.00  0.00     0.198 A 
ATOM     56  C   UNL A   1      51.552  25.961  26.593  1.00  0.00     0.198 A 
ATOM     57  F   UNL A   1      49.952  25.978  28.318  1.00  0.00    -0.203 F 
ATOM     58  F   UNL A   1      51.250  26.845  23.092  1.00  0.00    -0.200 F 
ATOM     59  C   UNL A   1      51.890  26.180  25.266  1.00  0.00     0.200 A 
ATOM     60  F   UNL A   1      52.477  25.520  27.456  1.00  0.00    -0.200 F 
ATOM     61  F   UNL A   1      53.135  25.929  24.840  1.00  0.00    -0.200 F 
ENDBRANCH  27  51
BRANCH  39  62
ATOM     62  C   UNL A   1      46.134  32.447  28.536  1.00  0.00     0.064 A 
ATOM     63  C   UNL A   1      46.708  32.834  29.755  1.00  0.00     0.173 A 
ATOM     64  C   UNL A   1      46.052  33.404  27.513  1.00  0.00     0.173 A 
ATOM     65  F   UNL A   1      46.792  31.961  30.770  1.00  0.00    -0.203 F 
ATOM     66  C   UNL A   1      47.162  34.136  29.951  1.00  0.00     0.198 A 
ATOM     67  C   UNL A   1      46.533  34.697  27.703  1.00  0.00     0.198 A 
ATOM     68  F   UNL A   1      45.515  33.082  26.327  1.00  0.00    -0.203 F 
ATOM     69  F   UNL A   1      47.663  34.498  31.139  1.00  0.00    -0.200 F 
ATOM     70  C   UNL A   1      47.081  35.063  28.923  1.00  0.00     0.200 A 
ATOM     71  F   UNL A   1      46.464  35.588  26.704  1.00  0.00    -0.200 F 
ATOM     72  F   UNL A   1      47.522  36.314  29.111  1.00  0.00    -0.200 F 
ENDBRANCH  39  62
ENDBRANCH  13  14
ENDBRANCH   6   8
ENDBRANCH   3   4
ENDBRANCH   2   3
ENDBRANCH   1   2
BRANCH   1  73
ATOM     73  C   UNL A   1      37.644  21.470  25.270  1.00  0.00     0.116 C 
BRANCH  73  74
ATOM     74  N   UNL A   1      37.362  22.342  24.140  1.00  0.00    -0.352 N 
ATOM     75  C   UNL A   1      36.169  22.899  23.750  1.00  0.00     0.251 C 
ATOM     76  H   UNL A   1      38.137  22.564  23.574  1.00  0.00     0.163 HD
ATOM     77  O   UNL A   1      36.084  23.493  22.681  1.00  0.00    -0.269 OA
BRANCH  75  78
ATOM     78  C   UNL A   1      34.984  22.756  24.614  1.00  0.00     0.041 A 
ATOM     79  C   UNL A   1      34.804  23.654  25.662  1.00  0.00     0.014 A 
ATOM     80  C   UNL A   1      34.049  21.739  24.376  1.00  0.00     0.039 A 
ATOM     81  C   UNL A   1      33.655  23.558  26.436  1.00  0.00     0.003 A 
ATOM     82  C   UNL A   1      32.857  21.661  25.104  1.00  0.00     0.035 A 
ATOM     83  C   UNL A   1      32.696  22.576  26.151  1.00  0.00     0.026 A 
BRANCH  82  84
ATOM     84  N   UNL A   1      31.952  20.677  24.760  1.00  0.00    -0.380 N 
ATOM     85  H   UNL A   1      31.010  20.961  24.716  1.00  0.00     0.160 HD
BRANCH  84  86
ATOM     86  C   UNL A   1      32.205  19.267  24.453  1.00  0.00     0.107 C 
ATOM     87  C   UNL A   1      32.395  19.066  22.944  1.00  0.00     0.027 C 
ATOM     88  C   UNL A   1      33.304  18.645  25.355  1.00  0.00     0.136 C 
ATOM     89  C   UNL A   1      32.822  17.649  22.587  1.00  0.00     0.002 C 
ATOM     90  C   UNL A   1      33.710  17.245  24.894  1.00  0.00     0.034 C 
ATOM     91  C   UNL A   1      34.031  17.212  23.406  1.00  0.00     0.003 C 
BRANCH  88  92
ATOM     92  O   UNL A   1      32.863  18.559  26.719  1.00  0.00    -0.391 OA
ATOM     93  H   UNL A   1      31.897  18.655  26.753  1.00  0.00     0.211 HD
ENDBRANCH  88  92
ENDBRANCH  84  86
ENDBRANCH  82  84
ENDBRANCH  75  78
ENDBRANCH  73  74
ENDBRANCH   1  73
TORSDOF 14
ENDMDL
