MODEL 1
REMARK VINA RESULT:     -12.5      0.000      0.000
REMARK SMILES C[C@@H](C(=O)NCCCCNC(=O)c1ccc(-c2c3nc(c(-c4c(F)c(F)c(F)c(F)c4F)c4ccc([nH]4)c(-c4c(F)c(F)c(F)c(F)c4F)c4nc(c(-c5c(F)c(F)c(F)c(F)c5F)c5ccc2[nH]5)C=C4)C=C3)cc1)c1ccc(O[C@H]2CCCC2=O)cc1F
REMARK SMILES IDX 7 1 6 2 5 3 3 4 4 5 2 7 1 8 76 9 77 10 88 11 78 12 87 13
REMARK SMILES IDX 89 14 79 15 80 16 81 17 82 18 85 19 83 20 84 21 86 22 8 23
REMARK SMILES IDX 9 24 10 25 11 26 12 28 13 29 14 30 75 31 15 32 74 33 16 34
REMARK SMILES IDX 17 35 18 36 68 37 19 38 73 39 67 40 69 41 20 42 72 43 66 44
REMARK SMILES IDX 65 45 21 47 53 48 33 49 52 50 34 51 37 52 51 53 70 54 35 55
REMARK SMILES IDX 36 56 50 58 71 59 38 60 22 61 23 62 31 63 24 64 25 65 29 66
REMARK SMILES IDX 32 67 26 68 27 69 30 70 28 71 54 72 55 73 63 74 56 75 57 76
REMARK SMILES IDX 61 77 64 78 58 79 59 80 62 81 60 82 39 83 40 84 48 85 41 86
REMARK SMILES IDX 42 87 46 88 49 89 43 90 44 91 47 92 45 93
REMARK H PARENT 5 6 10 27 69 46 37 57
REMARK Flexibility Score: inf
ROOT
ATOM      1  C   UNL A   1      31.483  30.561  25.756  1.00  0.00     0.023 C 
ENDROOT
BRANCH   1   2
ATOM      2  C   UNL A   1      32.756  29.726  25.928  1.00  0.00     0.116 C 
BRANCH   2   3
ATOM      3  N   UNL A   1      32.471  28.521  26.676  1.00  0.00    -0.356 N 
ATOM      4  C   UNL A   1      32.116  27.279  26.234  1.00  0.00     0.227 C 
ATOM      5  O   UNL A   1      31.682  26.497  27.083  1.00  0.00    -0.274 OA
ATOM      6  H   UNL A   1      32.545  28.610  27.654  1.00  0.00     0.163 HD
BRANCH   4   7
ATOM      7  C   UNL A   1      32.288  26.899  24.749  1.00  0.00     0.108 C 
ATOM      8  C   UNL A   1      33.703  27.228  24.261  1.00  0.00     0.023 C 
BRANCH   7   9
ATOM      9  C   UNL A   1      31.196  27.540  23.893  1.00  0.00     0.000 A 
ATOM     10  C   UNL A   1      31.435  28.591  23.000  1.00  0.00     0.011 A 
ATOM     11  C   UNL A   1      29.873  27.100  24.029  1.00  0.00     0.130 A 
ATOM     12  C   UNL A   1      30.382  29.171  22.288  1.00  0.00     0.047 A 
ATOM     13  C   UNL A   1      28.815  27.690  23.333  1.00  0.00     0.086 A 
ATOM     14  F   UNL A   1      29.598  26.079  24.856  1.00  0.00    -0.207 F 
ATOM     15  C   UNL A   1      29.066  28.732  22.452  1.00  0.00     0.123 A 
BRANCH  15  16
ATOM     16  O   UNL A   1      28.169  29.423  21.698  1.00  0.00    -0.483 OA
BRANCH  16  17
ATOM     17  C   UNL A   1      27.738  30.715  22.035  1.00  0.00     0.239 C 
ATOM     18  C   UNL A   1      27.911  31.066  23.519  1.00  0.00     0.054 C 
ATOM     19  C   UNL A   1      28.181  31.980  21.307  1.00  0.00     0.173 C 
ATOM     20  C   UNL A   1      28.610  32.422  23.580  1.00  0.00     0.012 C 
ATOM     21  C   UNL A   1      28.332  33.130  22.262  1.00  0.00     0.080 C 
ATOM     22  O   UNL A   1      28.329  32.082  20.096  1.00  0.00    -0.296 OA
ENDBRANCH  16  17
ENDBRANCH  15  16
ENDBRANCH   7   9
ENDBRANCH   4   7
ENDBRANCH   2   3
ENDBRANCH   1   2
BRANCH   1  23
ATOM     23  C   UNL A   1      31.350  31.734  26.732  1.00  0.00     0.023 C 
BRANCH  23  24
ATOM     24  C   UNL A   1      32.647  32.470  27.046  1.00  0.00     0.116 C 
BRANCH  24  25
ATOM     25  N   UNL A   1      32.426  33.833  27.499  1.00  0.00    -0.352 N 
ATOM     26  C   UNL A   1      33.091  34.553  28.456  1.00  0.00     0.251 C 
ATOM     27  H   UNL A   1      31.689  34.309  27.053  1.00  0.00     0.163 HD
ATOM     28  O   UNL A   1      32.665  35.661  28.787  1.00  0.00    -0.269 OA
BRANCH  26  29
ATOM     29  C   UNL A   1      34.293  34.003  29.118  1.00  0.00     0.039 A 
ATOM     30  C   UNL A   1      34.119  33.021  30.098  1.00  0.00     0.014 A 
ATOM     31  C   UNL A   1      35.579  34.453  28.802  1.00  0.00     0.014 A 
ATOM     32  C   UNL A   1      35.232  32.459  30.722  1.00  0.00     0.010 A 
ATOM     33  C   UNL A   1      36.692  33.839  29.372  1.00  0.00     0.010 A 
ATOM     34  C   UNL A   1      36.530  32.840  30.343  1.00  0.00    -0.014 A 
BRANCH  34  35
ATOM     35  C   UNL A   1      37.714  32.188  30.958  1.00  0.00     0.031 A 
ATOM     36  C   UNL A   1      38.181  32.582  32.332  1.00  0.00     0.074 A 
ATOM     37  C   UNL A   1      38.382  31.248  30.262  1.00  0.00     0.049 A 
ATOM     38  N   UNL A   1      39.174  32.100  33.036  1.00  0.00    -0.248 NA
ATOM     39  C   UNL A   1      37.453  33.676  32.992  1.00  0.00     0.031 C 
ATOM     40  C   UNL A   1      38.070  30.828  28.895  1.00  0.00     0.029 A 
ATOM     41  N   UNL A   1      39.462  30.474  30.608  1.00  0.00    -0.354 N 
ATOM     42  C   UNL A   1      39.186  32.826  34.219  1.00  0.00     0.074 A 
ATOM     43  C   UNL A   1      38.146  33.825  34.113  1.00  0.00     0.031 C 
ATOM     44  C   UNL A   1      38.919  29.855  28.529  1.00  0.00     0.029 A 
ATOM     45  C   UNL A   1      39.848  29.598  29.624  1.00  0.00     0.049 A 
ATOM     46  H   UNL A   1      39.915  30.542  31.479  1.00  0.00     0.167 HD
ATOM     47  C   UNL A   1      39.971  32.654  35.310  1.00  0.00     0.037 A 
ATOM     48  C   UNL A   1      40.838  28.686  29.609  1.00  0.00     0.037 A 
ATOM     49  C   UNL A   1      41.002  31.654  35.419  1.00  0.00     0.049 A 
ATOM     50  C   UNL A   1      41.685  28.504  30.839  1.00  0.00     0.074 A 
ATOM     51  C   UNL A   1      41.829  31.377  36.493  1.00  0.00     0.029 A 
ATOM     52  N   UNL A   1      41.347  30.764  34.411  1.00  0.00    -0.354 N 
ATOM     53  N   UNL A   1      41.635  29.146  31.981  1.00  0.00    -0.248 NA
ATOM     54  C   UNL A   1      42.712  27.455  30.784  1.00  0.00     0.031 C 
ATOM     55  C   UNL A   1      42.700  30.346  36.123  1.00  0.00     0.029 A 
ATOM     56  C   UNL A   1      42.383  29.946  34.835  1.00  0.00     0.049 A 
ATOM     57  H   UNL A   1      40.919  30.721  33.526  1.00  0.00     0.167 HD
ATOM     58  C   UNL A   1      42.608  28.569  32.786  1.00  0.00     0.074 A 
ATOM     59  C   UNL A   1      43.211  27.504  32.011  1.00  0.00     0.031 C 
ATOM     60  C   UNL A   1      42.974  28.894  34.050  1.00  0.00     0.037 A 
BRANCH  47  61
ATOM     61  C   UNL A   1      39.731  33.558  36.485  1.00  0.00     0.064 A 
ATOM     62  C   UNL A   1      40.349  34.817  36.576  1.00  0.00     0.173 A 
ATOM     63  C   UNL A   1      38.847  33.187  37.509  1.00  0.00     0.173 A 
ATOM     64  F   UNL A   1      41.212  35.215  35.630  1.00  0.00    -0.203 F 
ATOM     65  C   UNL A   1      40.110  35.656  37.661  1.00  0.00     0.198 A 
ATOM     66  C   UNL A   1      38.588  34.043  38.578  1.00  0.00     0.198 A 
ATOM     67  F   UNL A   1      38.226  31.999  37.470  1.00  0.00    -0.203 F 
ATOM     68  F   UNL A   1      40.747  36.832  37.748  1.00  0.00    -0.200 F 
ATOM     69  C   UNL A   1      39.225  35.272  38.656  1.00  0.00     0.200 A 
ATOM     70  F   UNL A   1      37.722  33.677  39.532  1.00  0.00    -0.200 F 
ATOM     71  F   UNL A   1      38.989  36.086  39.695  1.00  0.00    -0.200 F 
ENDBRANCH  47  61
BRANCH  48  72
ATOM     72  C   UNL A   1      41.062  27.852  28.399  1.00  0.00     0.064 A 
ATOM     73  C   UNL A   1      40.429  26.611  28.248  1.00  0.00     0.173 A 
ATOM     74  C   UNL A   1      41.921  28.277  27.374  1.00  0.00     0.173 A 
ATOM     75  F   UNL A   1      39.612  26.154  29.208  1.00  0.00    -0.203 F 
ATOM     76  C   UNL A   1      40.667  25.813  27.131  1.00  0.00     0.198 A 
ATOM     77  C   UNL A   1      42.134  27.491  26.243  1.00  0.00     0.198 A 
ATOM     78  F   UNL A   1      42.544  29.460  27.467  1.00  0.00    -0.203 F 
ATOM     79  F   UNL A   1      40.090  24.607  27.037  1.00  0.00    -0.200 F 
ATOM     80  C   UNL A   1      41.516  26.255  26.128  1.00  0.00     0.200 A 
ATOM     81  F   UNL A   1      42.943  27.930  25.270  1.00  0.00    -0.200 F 
ATOM     82  F   UNL A   1      41.745  25.488  25.054  1.00  0.00    -0.200 F 
ENDBRANCH  48  72
BRANCH  60  83
ATOM     83  C   UNL A   1      44.063  28.072  34.676  1.00  0.00     0.064 A 
ATOM     84  C   UNL A   1      43.779  26.892  35.381  1.00  0.00     0.173 A 
ATOM     85  C   UNL A   1      45.405  28.462  34.563  1.00  0.00     0.173 A 
ATOM     86  F   UNL A   1      42.510  26.483  35.531  1.00  0.00    -0.203 F 
ATOM     87  C   UNL A   1      44.797  26.155  35.981  1.00  0.00     0.198 A 
ATOM     88  C   UNL A   1      46.424  27.705  35.136  1.00  0.00     0.198 A 
ATOM     89  F   UNL A   1      45.731  29.577  33.892  1.00  0.00    -0.203 F 
ATOM     90  F   UNL A   1      44.496  25.065  36.702  1.00  0.00    -0.200 F 
ATOM     91  C   UNL A   1      46.118  26.559  35.855  1.00  0.00     0.200 A 
ATOM     92  F   UNL A   1      47.700  28.090  35.002  1.00  0.00    -0.200 F 
ATOM     93  F   UNL A   1      47.095  25.850  36.435  1.00  0.00    -0.200 F 
ENDBRANCH  60  83
ENDBRANCH  34  35
ENDBRANCH  26  29
ENDBRANCH  24  25
ENDBRANCH  23  24
ENDBRANCH   1  23
TORSDOF 14
ENDMDL
MODEL 2
REMARK VINA RESULT:     -12.5      0.127      1.598
REMARK SMILES C[C@@H](C(=O)NCCCCNC(=O)c1ccc(-c2c3nc(c(-c4c(F)c(F)c(F)c(F)c4F)c4ccc([nH]4)c(-c4c(F)c(F)c(F)c(F)c4F)c4nc(c(-c5c(F)c(F)c(F)c(F)c5F)c5ccc2[nH]5)C=C4)C=C3)cc1)c1ccc(O[C@H]2CCCC2=O)cc1F
REMARK SMILES IDX 7 1 6 2 5 3 3 4 4 5 2 7 1 8 76 9 77 10 88 11 78 12 87 13
REMARK SMILES IDX 89 14 79 15 80 16 81 17 82 18 85 19 83 20 84 21 86 22 8 23
REMARK SMILES IDX 9 24 10 25 11 26 12 28 13 29 14 30 75 31 15 32 74 33 16 34
REMARK SMILES IDX 17 35 18 36 68 37 19 38 73 39 67 40 69 41 20 42 72 43 66 44
REMARK SMILES IDX 65 45 21 47 53 48 33 49 52 50 34 51 37 52 51 53 70 54 35 55
REMARK SMILES IDX 36 56 50 58 71 59 38 60 22 61 23 62 31 63 24 64 25 65 29 66
REMARK SMILES IDX 32 67 26 68 27 69 30 70 28 71 54 72 55 73 63 74 56 75 57 76
REMARK SMILES IDX 61 77 64 78 58 79 59 80 62 81 60 82 39 83 40 84 48 85 41 86
REMARK SMILES IDX 42 87 46 88 49 89 43 90 44 91 47 92 45 93
REMARK H PARENT 5 6 10 27 69 46 37 57
REMARK Flexibility Score: inf
ROOT
ATOM      1  C   UNL A   1      31.403  30.561  25.706  1.00  0.00     0.023 C 
ENDROOT
BRANCH   1   2
ATOM      2  C   UNL A   1      32.674  29.720  25.856  1.00  0.00     0.116 C 
BRANCH   2   3
ATOM      3  N   UNL A   1      32.418  28.562  26.685  1.00  0.00    -0.356 N 
ATOM      4  C   UNL A   1      32.057  27.294  26.331  1.00  0.00     0.227 C 
ATOM      5  O   UNL A   1      31.650  26.564  27.239  1.00  0.00    -0.274 OA
ATOM      6  H   UNL A   1      32.519  28.712  27.653  1.00  0.00     0.163 HD
BRANCH   4   7
ATOM      7  C   UNL A   1      32.188  26.823  24.868  1.00  0.00     0.108 C 
ATOM      8  C   UNL A   1      33.608  27.061  24.343  1.00  0.00     0.023 C 
BRANCH   7   9
ATOM      9  C   UNL A   1      31.111  27.463  23.991  1.00  0.00     0.000 A 
ATOM     10  C   UNL A   1      31.382  28.448  23.034  1.00  0.00     0.011 A 
ATOM     11  C   UNL A   1      29.772  27.094  24.173  1.00  0.00     0.130 A 
ATOM     12  C   UNL A   1      30.344  29.033  22.304  1.00  0.00     0.047 A 
ATOM     13  C   UNL A   1      28.730  27.691  23.459  1.00  0.00     0.086 A 
ATOM     14  F   UNL A   1      29.465  26.137  25.064  1.00  0.00    -0.207 F 
ATOM     15  C   UNL A   1      29.013  28.666  22.514  1.00  0.00     0.123 A 
BRANCH  15  16
ATOM     16  O   UNL A   1      28.134  29.352  21.733  1.00  0.00    -0.483 OA
BRANCH  16  17
ATOM     17  C   UNL A   1      27.735  30.666  22.024  1.00  0.00     0.239 C 
ATOM     18  C   UNL A   1      27.916  31.065  23.495  1.00  0.00     0.054 C 
ATOM     19  C   UNL A   1      28.209  31.893  21.252  1.00  0.00     0.173 C 
ATOM     20  C   UNL A   1      28.649  32.405  23.508  1.00  0.00     0.012 C 
ATOM     21  C   UNL A   1      28.389  33.072  22.166  1.00  0.00     0.080 C 
ATOM     22  O   UNL A   1      28.361  31.948  20.038  1.00  0.00    -0.296 OA
ENDBRANCH  16  17
ENDBRANCH  15  16
ENDBRANCH   7   9
ENDBRANCH   4   7
ENDBRANCH   2   3
ENDBRANCH   1   2
BRANCH   1  23
ATOM     23  C   UNL A   1      31.284  31.723  26.698  1.00  0.00     0.023 C 
BRANCH  23  24
ATOM     24  C   UNL A   1      32.578  32.478  26.976  1.00  0.00     0.116 C 
BRANCH  24  25
ATOM     25  N   UNL A   1      32.349  33.834  27.447  1.00  0.00    -0.352 N 
ATOM     26  C   UNL A   1      33.008  34.543  28.416  1.00  0.00     0.251 C 
ATOM     27  H   UNL A   1      31.613  34.313  27.004  1.00  0.00     0.163 HD
ATOM     28  O   UNL A   1      32.576  35.644  28.762  1.00  0.00    -0.269 OA
BRANCH  26  29
ATOM     29  C   UNL A   1      34.210  33.989  29.075  1.00  0.00     0.039 A 
ATOM     30  C   UNL A   1      34.034  33.012  30.060  1.00  0.00     0.014 A 
ATOM     31  C   UNL A   1      35.496  34.430  28.752  1.00  0.00     0.014 A 
ATOM     32  C   UNL A   1      35.147  32.445  30.681  1.00  0.00     0.010 A 
ATOM     33  C   UNL A   1      36.609  33.812  29.319  1.00  0.00     0.010 A 
ATOM     34  C   UNL A   1      36.446  32.818  30.295  1.00  0.00    -0.014 A 
BRANCH  34  35
ATOM     35  C   UNL A   1      37.628  32.161  30.907  1.00  0.00     0.031 A 
ATOM     36  C   UNL A   1      38.101  32.555  32.279  1.00  0.00     0.074 A 
ATOM     37  C   UNL A   1      38.290  31.217  30.211  1.00  0.00     0.049 A 
ATOM     38  N   UNL A   1      39.094  32.070  32.981  1.00  0.00    -0.248 NA
ATOM     39  C   UNL A   1      37.380  33.653  32.940  1.00  0.00     0.031 C 
ATOM     40  C   UNL A   1      37.972  30.797  28.845  1.00  0.00     0.029 A 
ATOM     41  N   UNL A   1      39.367  30.439  30.555  1.00  0.00    -0.354 N 
ATOM     42  C   UNL A   1      39.113  32.796  34.164  1.00  0.00     0.074 A 
ATOM     43  C   UNL A   1      38.076  33.801  34.059  1.00  0.00     0.031 C 
ATOM     44  C   UNL A   1      38.815  29.820  28.478  1.00  0.00     0.029 A 
ATOM     45  C   UNL A   1      39.747  29.560  29.570  1.00  0.00     0.049 A 
ATOM     46  H   UNL A   1      39.824  30.506  31.424  1.00  0.00     0.167 HD
ATOM     47  C   UNL A   1      39.901  32.623  35.253  1.00  0.00     0.037 A 
ATOM     48  C   UNL A   1      40.733  28.644  29.553  1.00  0.00     0.037 A 
ATOM     49  C   UNL A   1      40.927  31.619  35.359  1.00  0.00     0.049 A 
ATOM     50  C   UNL A   1      41.583  28.460  30.782  1.00  0.00     0.074 A 
ATOM     51  C   UNL A   1      41.756  31.340  36.431  1.00  0.00     0.029 A 
ATOM     52  N   UNL A   1      41.265  30.726  34.351  1.00  0.00    -0.354 N 
ATOM     53  N   UNL A   1      41.539  29.104  31.923  1.00  0.00    -0.248 NA
ATOM     54  C   UNL A   1      42.605  27.406  30.725  1.00  0.00     0.031 C 
ATOM     55  C   UNL A   1      42.621  30.304  36.060  1.00  0.00     0.029 A 
ATOM     56  C   UNL A   1      42.299  29.904  34.773  1.00  0.00     0.049 A 
ATOM     57  H   UNL A   1      40.835  30.684  33.468  1.00  0.00     0.167 HD
ATOM     58  C   UNL A   1      42.511  28.523  32.725  1.00  0.00     0.074 A 
ATOM     59  C   UNL A   1      43.108  27.455  31.950  1.00  0.00     0.031 C 
ATOM     60  C   UNL A   1      42.883  28.848  33.988  1.00  0.00     0.037 A 
BRANCH  47  61
ATOM     61  C   UNL A   1      39.668  33.530  36.427  1.00  0.00     0.064 A 
ATOM     62  C   UNL A   1      38.832  33.149  37.489  1.00  0.00     0.173 A 
ATOM     63  C   UNL A   1      40.315  34.771  36.515  1.00  0.00     0.173 A 
ATOM     64  F   UNL A   1      38.180  31.977  37.449  1.00  0.00    -0.203 F 
ATOM     65  C   UNL A   1      38.632  33.988  38.582  1.00  0.00     0.198 A 
ATOM     66  C   UNL A   1      40.136  35.595  37.625  1.00  0.00     0.198 A 
ATOM     67  F   UNL A   1      41.129  35.182  35.532  1.00  0.00    -0.203 F 
ATOM     68  F   UNL A   1      37.793  33.623  39.561  1.00  0.00    -0.200 F 
ATOM     69  C   UNL A   1      39.290  35.206  38.652  1.00  0.00     0.200 A 
ATOM     70  F   UNL A   1      40.783  36.766  37.698  1.00  0.00    -0.200 F 
ATOM     71  F   UNL A   1      39.105  36.010  39.709  1.00  0.00    -0.200 F 
ENDBRANCH  47  61
BRANCH  48  72
ATOM     72  C   UNL A   1      40.949  27.808  28.344  1.00  0.00     0.064 A 
ATOM     73  C   UNL A   1      40.313  26.568  28.198  1.00  0.00     0.173 A 
ATOM     74  C   UNL A   1      41.804  28.229  27.314  1.00  0.00     0.173 A 
ATOM     75  F   UNL A   1      39.501  26.114  29.163  1.00  0.00    -0.203 F 
ATOM     76  C   UNL A   1      40.546  25.767  27.081  1.00  0.00     0.198 A 
ATOM     77  C   UNL A   1      42.011  27.441  26.184  1.00  0.00     0.198 A 
ATOM     78  F   UNL A   1      42.430  29.412  27.402  1.00  0.00    -0.203 F 
ATOM     79  F   UNL A   1      39.966  24.562  26.992  1.00  0.00    -0.200 F 
ATOM     80  C   UNL A   1      41.390  26.206  26.073  1.00  0.00     0.200 A 
ATOM     81  F   UNL A   1      42.816  27.876  25.206  1.00  0.00    -0.200 F 
ATOM     82  F   UNL A   1      41.613  25.437  25.000  1.00  0.00    -0.200 F 
ENDBRANCH  48  72
BRANCH  60  83
ATOM     83  C   UNL A   1      43.970  28.022  34.612  1.00  0.00     0.064 A 
ATOM     84  C   UNL A   1      45.319  28.400  34.530  1.00  0.00     0.173 A 
ATOM     85  C   UNL A   1      43.659  26.845  35.308  1.00  0.00     0.173 A 
ATOM     86  F   UNL A   1      45.671  29.509  33.863  1.00  0.00    -0.203 F 
ATOM     87  C   UNL A   1      46.319  27.608  35.089  1.00  0.00     0.198 A 
ATOM     88  C   UNL A   1      44.658  26.072  35.894  1.00  0.00     0.198 A 
ATOM     89  F   UNL A   1      42.384  26.443  35.423  1.00  0.00    -0.203 F 
ATOM     90  F   UNL A   1      47.605  27.956  34.945  1.00  0.00    -0.200 F 
ATOM     91  C   UNL A   1      45.988  26.448  35.775  1.00  0.00     0.200 A 
ATOM     92  F   UNL A   1      44.336  24.960  36.567  1.00  0.00    -0.200 F 
ATOM     93  F   UNL A   1      46.951  25.686  36.310  1.00  0.00    -0.200 F 
ENDBRANCH  60  83
ENDBRANCH  34  35
ENDBRANCH  26  29
ENDBRANCH  24  25
ENDBRANCH  23  24
ENDBRANCH   1  23
TORSDOF 14
ENDMDL
MODEL 3
REMARK VINA RESULT:     -12.4      0.884      7.443
REMARK SMILES C[C@@H](C(=O)NCCCCNC(=O)c1ccc(-c2c3nc(c(-c4c(F)c(F)c(F)c(F)c4F)c4ccc([nH]4)c(-c4c(F)c(F)c(F)c(F)c4F)c4nc(c(-c5c(F)c(F)c(F)c(F)c5F)c5ccc2[nH]5)C=C4)C=C3)cc1)c1ccc(O[C@H]2CCCC2=O)cc1F
REMARK SMILES IDX 7 1 6 2 5 3 3 4 4 5 2 7 1 8 76 9 77 10 88 11 78 12 87 13
REMARK SMILES IDX 89 14 79 15 80 16 81 17 82 18 85 19 83 20 84 21 86 22 8 23
REMARK SMILES IDX 9 24 10 25 11 26 12 28 13 29 14 30 75 31 15 32 74 33 16 34
REMARK SMILES IDX 17 35 18 36 68 37 19 38 73 39 67 40 69 41 20 42 72 43 66 44
REMARK SMILES IDX 65 45 21 47 53 48 33 49 52 50 34 51 37 52 51 53 70 54 35 55
REMARK SMILES IDX 36 56 50 58 71 59 38 60 22 61 23 62 31 63 24 64 25 65 29 66
REMARK SMILES IDX 32 67 26 68 27 69 30 70 28 71 54 72 55 73 63 74 56 75 57 76
REMARK SMILES IDX 61 77 64 78 58 79 59 80 62 81 60 82 39 83 40 84 48 85 41 86
REMARK SMILES IDX 42 87 46 88 49 89 43 90 44 91 47 92 45 93
REMARK H PARENT 5 6 10 27 69 46 37 57
REMARK Flexibility Score: inf
ROOT
ATOM      1  C   UNL A   1      31.418  31.027  26.192  1.00  0.00     0.023 C 
ENDROOT
BRANCH   1   2
ATOM      2  C   UNL A   1      32.662  30.302  26.714  1.00  0.00     0.116 C 
BRANCH   2   3
ATOM      3  N   UNL A   1      32.286  29.088  27.405  1.00  0.00    -0.356 N 
ATOM      4  C   UNL A   1      32.064  27.833  26.914  1.00  0.00     0.227 C 
ATOM      5  O   UNL A   1      31.506  27.037  27.672  1.00  0.00    -0.274 OA
ATOM      6  H   UNL A   1      32.172  29.181  28.378  1.00  0.00     0.163 HD
BRANCH   4   7
ATOM      7  C   UNL A   1      32.524  27.459  25.491  1.00  0.00     0.108 C 
ATOM      8  C   UNL A   1      33.926  28.012  25.205  1.00  0.00     0.023 C 
BRANCH   7   9
ATOM      9  C   UNL A   1      31.489  27.890  24.451  1.00  0.00     0.000 A 
ATOM     10  C   UNL A   1      31.687  28.953  23.562  1.00  0.00     0.011 A 
ATOM     11  C   UNL A   1      30.253  27.232  24.403  1.00  0.00     0.130 A 
ATOM     12  C   UNL A   1      30.677  29.332  22.674  1.00  0.00     0.047 A 
ATOM     13  C   UNL A   1      29.234  27.621  23.530  1.00  0.00     0.086 A 
ATOM     14  F   UNL A   1      30.026  26.192  25.221  1.00  0.00    -0.207 F 
ATOM     15  C   UNL A   1      29.443  28.677  22.655  1.00  0.00     0.123 A 
BRANCH  15  16
ATOM     16  O   UNL A   1      28.573  29.192  21.744  1.00  0.00    -0.483 OA
BRANCH  16  17
ATOM     17  C   UNL A   1      27.917  30.417  21.938  1.00  0.00     0.239 C 
ATOM     18  C   UNL A   1      27.902  30.895  23.397  1.00  0.00     0.054 C 
ATOM     19  C   UNL A   1      28.219  31.682  21.142  1.00  0.00     0.173 C 
ATOM     20  C   UNL A   1      28.373  32.348  23.396  1.00  0.00     0.012 C 
ATOM     21  C   UNL A   1      28.104  32.906  22.006  1.00  0.00     0.080 C 
ATOM     22  O   UNL A   1      28.455  31.721  19.941  1.00  0.00    -0.296 OA
ENDBRANCH  16  17
ENDBRANCH  15  16
ENDBRANCH   7   9
ENDBRANCH   4   7
ENDBRANCH   2   3
ENDBRANCH   1   2
BRANCH   1  23
ATOM     23  C   UNL A   1      31.351  32.517  26.544  1.00  0.00     0.023 C 
BRANCH  23  24
ATOM     24  C   UNL A   1      32.561  33.065  27.290  1.00  0.00     0.116 C 
BRANCH  24  25
ATOM     25  N   UNL A   1      32.374  34.436  27.736  1.00  0.00    -0.352 N 
ATOM     26  C   UNL A   1      33.023  35.128  28.724  1.00  0.00     0.251 C 
ATOM     27  H   UNL A   1      31.679  34.942  27.258  1.00  0.00     0.163 HD
ATOM     28  O   UNL A   1      32.628  36.252  29.039  1.00  0.00    -0.269 OA
BRANCH  26  29
ATOM     29  C   UNL A   1      34.171  34.529  29.439  1.00  0.00     0.039 A 
ATOM     30  C   UNL A   1      33.938  33.925  30.678  1.00  0.00     0.014 A 
ATOM     31  C   UNL A   1      35.467  34.573  28.917  1.00  0.00     0.014 A 
ATOM     32  C   UNL A   1      34.991  33.324  31.366  1.00  0.00     0.010 A 
ATOM     33  C   UNL A   1      36.504  33.909  29.570  1.00  0.00     0.010 A 
ATOM     34  C   UNL A   1      36.278  33.283  30.804  1.00  0.00    -0.014 A 
BRANCH  34  35
ATOM     35  C   UNL A   1      37.381  32.580  31.506  1.00  0.00     0.031 A 
ATOM     36  C   UNL A   1      38.091  31.423  30.858  1.00  0.00     0.074 A 
ATOM     37  C   UNL A   1      37.730  32.976  32.745  1.00  0.00     0.049 A 
ATOM     38  N   UNL A   1      39.093  30.711  31.309  1.00  0.00    -0.248 NA
ATOM     39  C   UNL A   1      37.596  30.994  29.541  1.00  0.00     0.031 C 
ATOM     40  C   UNL A   1      37.073  34.039  33.508  1.00  0.00     0.029 A 
ATOM     41  N   UNL A   1      38.724  32.533  33.582  1.00  0.00    -0.354 N 
ATOM     42  C   UNL A   1      39.350  29.758  30.333  1.00  0.00     0.074 A 
ATOM     43  C   UNL A   1      38.358  29.938  29.296  1.00  0.00     0.031 C 
ATOM     44  C   UNL A   1      37.697  34.185  34.687  1.00  0.00     0.029 A 
ATOM     45  C   UNL A   1      38.782  33.213  34.774  1.00  0.00     0.049 A 
ATOM     46  H   UNL A   1      39.336  31.798  33.349  1.00  0.00     0.167 HD
ATOM     47  C   UNL A   1      40.344  28.838  30.289  1.00  0.00     0.037 A 
ATOM     48  C   UNL A   1      39.621  33.072  35.817  1.00  0.00     0.037 A 
ATOM     49  C   UNL A   1      41.336  28.665  31.319  1.00  0.00     0.049 A 
ATOM     50  C   UNL A   1      40.726  32.053  35.736  1.00  0.00     0.074 A 
ATOM     51  C   UNL A   1      42.402  27.784  31.353  1.00  0.00     0.029 A 
ATOM     52  N   UNL A   1      41.380  29.391  32.501  1.00  0.00    -0.354 N 
ATOM     53  N   UNL A   1      41.005  31.209  34.772  1.00  0.00    -0.248 NA
ATOM     54  C   UNL A   1      41.645  31.983  36.880  1.00  0.00     0.031 C 
ATOM     55  C   UNL A   1      43.070  27.950  32.572  1.00  0.00     0.029 A 
ATOM     56  C   UNL A   1      42.450  28.970  33.276  1.00  0.00     0.049 A 
ATOM     57  H   UNL A   1      40.747  30.101  32.751  1.00  0.00     0.167 HD
ATOM     58  C   UNL A   1      42.139  30.522  35.183  1.00  0.00     0.074 A 
ATOM     59  C   UNL A   1      42.513  31.070  36.470  1.00  0.00     0.031 C 
ATOM     60  C   UNL A   1      42.807  29.523  34.556  1.00  0.00     0.037 A 
BRANCH  47  61
ATOM     61  C   UNL A   1      40.418  27.957  29.075  1.00  0.00     0.064 A 
ATOM     62  C   UNL A   1      39.696  26.754  29.000  1.00  0.00     0.173 A 
ATOM     63  C   UNL A   1      41.181  28.333  27.960  1.00  0.00     0.173 A 
ATOM     64  F   UNL A   1      38.960  26.343  30.043  1.00  0.00    -0.203 F 
ATOM     65  C   UNL A   1      39.757  25.950  27.865  1.00  0.00     0.198 A 
ATOM     66  C   UNL A   1      41.216  27.540  26.815  1.00  0.00     0.198 A 
ATOM     67  F   UNL A   1      41.886  29.474  27.975  1.00  0.00    -0.203 F 
ATOM     68  F   UNL A   1      39.097  24.784  27.836  1.00  0.00    -0.200 F 
ATOM     69  C   UNL A   1      40.511  26.348  26.771  1.00  0.00     0.200 A 
ATOM     70  F   UNL A   1      41.934  27.931  25.753  1.00  0.00    -0.200 F 
ATOM     71  F   UNL A   1      40.562  25.577  25.676  1.00  0.00    -0.200 F 
ENDBRANCH  47  61
BRANCH  48  72
ATOM     72  C   UNL A   1      39.469  33.938  37.015  1.00  0.00     0.064 A 
ATOM     73  C   UNL A   1      40.049  35.213  37.065  1.00  0.00     0.173 A 
ATOM     74  C   UNL A   1      38.749  33.504  38.138  1.00  0.00     0.173 A 
ATOM     75  F   UNL A   1      40.762  35.665  36.023  1.00  0.00    -0.203 F 
ATOM     76  C   UNL A   1      39.938  36.010  38.202  1.00  0.00     0.198 A 
ATOM     77  C   UNL A   1      38.613  34.315  39.263  1.00  0.00     0.198 A 
ATOM     78  F   UNL A   1      38.167  32.296  38.137  1.00  0.00    -0.203 F 
ATOM     79  F   UNL A   1      40.548  37.203  38.243  1.00  0.00    -0.200 F 
ATOM     80  C   UNL A   1      39.217  35.563  39.298  1.00  0.00     0.200 A 
ATOM     81  F   UNL A   1      37.902  33.884  40.313  1.00  0.00    -0.200 F 
ATOM     82  F   UNL A   1      39.109  36.329  40.391  1.00  0.00    -0.200 F 
ENDBRANCH  48  72
BRANCH  60  83
ATOM     83  C   UNL A   1      44.022  28.978  35.247  1.00  0.00     0.064 A 
ATOM     84  C   UNL A   1      43.930  27.941  36.188  1.00  0.00     0.173 A 
ATOM     85  C   UNL A   1      45.296  29.491  34.960  1.00  0.00     0.173 A 
ATOM     86  F   UNL A   1      42.734  27.425  36.509  1.00  0.00    -0.203 F 
ATOM     87  C   UNL A   1      45.064  27.465  36.842  1.00  0.00     0.198 A 
ATOM     88  C   UNL A   1      46.431  28.991  35.592  1.00  0.00     0.198 A 
ATOM     89  F   UNL A   1      45.440  30.478  34.062  1.00  0.00    -0.203 F 
ATOM     90  F   UNL A   1      44.943  26.516  37.782  1.00  0.00    -0.200 F 
ATOM     91  C   UNL A   1      46.313  27.987  36.541  1.00  0.00     0.200 A 
ATOM     92  F   UNL A   1      47.638  29.488  35.289  1.00  0.00    -0.200 F 
ATOM     93  F   UNL A   1      47.402  27.530  37.173  1.00  0.00    -0.200 F 
ENDBRANCH  60  83
ENDBRANCH  34  35
ENDBRANCH  26  29
ENDBRANCH  24  25
ENDBRANCH  23  24
ENDBRANCH   1  23
TORSDOF 14
ENDMDL
