MODEL 1
REMARK VINA RESULT:     -14.1      0.000      0.000
REMARK SMILES O=C(NCCCCNC(=O)c1cc(S(=O)(=O)NNC(=O)[C@H]2C=C(c3ccccc3)N=N2)ccc1F)c1ccc(-c2c3nc(c(-c4c(F)c(F)c(F)c(F)c4F)c4ccc([nH]4)c(-c4c(F)c(F)c(F)c(F)c4F)c4nc(c(-c5c(F)c(F)c(F)c(F)c5F)c5ccc2[nH]5)C=C4)C=C3)cc1
REMARK SMILES IDX 7 1 6 2 5 3 4 4 3 5 1 6 2 7 36 9 37 10 98 11 38 12 97 13
REMARK SMILES IDX 39 14 40 15 41 16 91 17 42 18 96 19 90 20 92 21 43 22 95 23
REMARK SMILES IDX 89 24 88 25 44 27 76 28 56 29 75 30 57 31 60 32 74 33 93 34
REMARK SMILES IDX 58 35 59 36 73 38 94 39 61 40 45 41 46 42 54 43 47 44 48 45
REMARK SMILES IDX 52 46 55 47 49 48 50 49 53 50 51 51 77 52 78 53 86 54 79 55
REMARK SMILES IDX 80 56 84 57 87 58 81 59 82 60 85 61 83 62 62 63 63 64 71 65
REMARK SMILES IDX 64 66 65 67 69 68 72 69 66 70 67 71 70 72 68 73 8 74 9 75
REMARK SMILES IDX 10 77 11 78 12 79 34 80 13 81 33 82 35 83 32 84 14 85 15 86
REMARK SMILES IDX 16 87 17 88 18 90 19 91 20 93 21 94 22 95 31 96 23 97 30 98
REMARK SMILES IDX 24 99 25 100 29 101 26 102 28 103 27 104
REMARK H PARENT 3 8 92 26 60 37 8 76 17 89 18 92
REMARK Flexibility Score: inf
ROOT
ATOM      1  C   UNL A   1      37.297  23.601  25.925  1.00  0.00     0.116 C 
ENDROOT
BRANCH   1   2
ATOM      2  C   UNL A   1      38.666  23.327  26.540  1.00  0.00     0.023 C 
BRANCH   2   3
ATOM      3  C   UNL A   1      39.301  21.976  26.197  1.00  0.00     0.023 C 
BRANCH   3   4
ATOM      4  C   UNL A   1      40.733  21.777  26.693  1.00  0.00     0.116 C 
BRANCH   4   5
ATOM      5  N   UNL A   1      41.750  22.299  25.803  1.00  0.00    -0.352 N 
ATOM      6  O   UNL A   1      43.379  23.475  24.904  1.00  0.00    -0.269 OA
ATOM      7  C   UNL A   1      42.421  23.482  25.682  1.00  0.00     0.251 C 
ATOM      8  H   UNL A   1      42.023  21.642  25.123  1.00  0.00     0.163 HD
BRANCH   7   9
ATOM      9  C   UNL A   1      42.058  24.768  26.344  1.00  0.00     0.039 A 
ATOM     10  C   UNL A   1      41.342  25.820  25.774  1.00  0.00     0.014 A 
ATOM     11  C   UNL A   1      42.545  24.928  27.658  1.00  0.00     0.014 A 
ATOM     12  C   UNL A   1      41.190  27.025  26.463  1.00  0.00     0.010 A 
ATOM     13  C   UNL A   1      42.393  26.124  28.352  1.00  0.00     0.010 A 
ATOM     14  C   UNL A   1      41.749  27.190  27.737  1.00  0.00    -0.014 A 
BRANCH  14  15
ATOM     15  C   UNL A   1      41.518  28.447  28.452  1.00  0.00     0.031 A 
ATOM     16  C   UNL A   1      42.555  29.500  28.214  1.00  0.00     0.074 A 
ATOM     17  C   UNL A   1      40.395  28.720  29.150  1.00  0.00     0.049 A 
ATOM     18  N   UNL A   1      43.293  30.115  29.082  1.00  0.00    -0.248 NA
ATOM     19  C   UNL A   1      42.864  29.850  26.817  1.00  0.00     0.031 C 
ATOM     20  C   UNL A   1      39.164  27.931  29.240  1.00  0.00     0.029 A 
ATOM     21  N   UNL A   1      40.088  29.835  29.877  1.00  0.00    -0.354 N 
ATOM     22  C   UNL A   1      44.061  31.032  28.363  1.00  0.00     0.074 A 
ATOM     23  C   UNL A   1      43.835  30.752  26.969  1.00  0.00     0.031 C 
ATOM     24  C   UNL A   1      38.183  28.684  29.791  1.00  0.00     0.029 A 
ATOM     25  C   UNL A   1      38.746  29.952  30.222  1.00  0.00     0.049 A 
ATOM     26  H   UNL A   1      40.764  30.503  30.137  1.00  0.00     0.167 HD
ATOM     27  C   UNL A   1      44.703  32.070  28.968  1.00  0.00     0.037 A 
ATOM     28  C   UNL A   1      38.140  31.034  30.775  1.00  0.00     0.037 A 
ATOM     29  C   UNL A   1      44.872  31.836  30.374  1.00  0.00     0.049 A 
ATOM     30  C   UNL A   1      39.202  31.866  31.393  1.00  0.00     0.074 A 
ATOM     31  C   UNL A   1      45.570  30.911  31.124  1.00  0.00     0.029 A 
ATOM     32  N   UNL A   1      43.991  32.428  31.243  1.00  0.00    -0.354 N 
ATOM     33  N   UNL A   1      39.905  31.502  32.429  1.00  0.00    -0.248 NA
ATOM     34  C   UNL A   1      39.773  32.928  30.582  1.00  0.00     0.031 C 
ATOM     35  C   UNL A   1      44.732  30.642  32.245  1.00  0.00     0.029 A 
ATOM     36  C   UNL A   1      43.609  31.464  32.139  1.00  0.00     0.049 A 
ATOM     37  H   UNL A   1      43.691  33.365  31.225  1.00  0.00     0.167 HD
ATOM     38  C   UNL A   1      41.180  31.977  32.166  1.00  0.00     0.074 A 
ATOM     39  C   UNL A   1      41.021  32.910  31.052  1.00  0.00     0.031 C 
ATOM     40  C   UNL A   1      42.280  31.365  32.689  1.00  0.00     0.037 A 
BRANCH  27  41
ATOM     41  C   UNL A   1      44.902  33.433  28.353  1.00  0.00     0.064 A 
ATOM     42  C   UNL A   1      43.867  34.383  28.225  1.00  0.00     0.173 A 
ATOM     43  C   UNL A   1      46.209  33.930  28.165  1.00  0.00     0.173 A 
ATOM     44  F   UNL A   1      42.588  34.074  28.475  1.00  0.00    -0.203 F 
ATOM     45  C   UNL A   1      44.117  35.726  27.945  1.00  0.00     0.198 A 
ATOM     46  C   UNL A   1      46.458  35.286  27.935  1.00  0.00     0.198 A 
ATOM     47  F   UNL A   1      47.273  33.122  28.287  1.00  0.00    -0.203 F 
ATOM     48  F   UNL A   1      43.090  36.585  27.871  1.00  0.00    -0.200 F 
ATOM     49  C   UNL A   1      45.412  36.183  27.831  1.00  0.00     0.200 A 
ATOM     50  F   UNL A   1      47.722  35.731  27.883  1.00  0.00    -0.200 F 
ATOM     51  F   UNL A   1      45.650  37.492  27.671  1.00  0.00    -0.200 F 
ENDBRANCH  27  41
BRANCH  28  52
ATOM     52  C   UNL A   1      36.794  31.595  30.483  1.00  0.00     0.064 A 
ATOM     53  C   UNL A   1      36.483  32.115  29.213  1.00  0.00     0.173 A 
ATOM     54  C   UNL A   1      35.903  31.920  31.523  1.00  0.00     0.173 A 
ATOM     55  F   UNL A   1      37.306  31.924  28.173  1.00  0.00    -0.203 F 
ATOM     56  C   UNL A   1      35.372  32.936  29.002  1.00  0.00     0.198 A 
ATOM     57  C   UNL A   1      34.793  32.747  31.311  1.00  0.00     0.198 A 
ATOM     58  F   UNL A   1      36.148  31.506  32.775  1.00  0.00    -0.203 F 
ATOM     59  F   UNL A   1      35.158  33.463  27.788  1.00  0.00    -0.200 F 
ATOM     60  C   UNL A   1      34.537  33.265  30.053  1.00  0.00     0.200 A 
ATOM     61  F   UNL A   1      34.009  33.094  32.341  1.00  0.00    -0.200 F 
ATOM     62  F   UNL A   1      33.517  34.114  29.862  1.00  0.00    -0.200 F 
ENDBRANCH  28  52
BRANCH  40  63
ATOM     63  C   UNL A   1      42.079  30.320  33.748  1.00  0.00     0.064 A 
ATOM     64  C   UNL A   1      42.323  30.681  35.080  1.00  0.00     0.173 A 
ATOM     65  C   UNL A   1      41.869  28.958  33.472  1.00  0.00     0.173 A 
ATOM     66  F   UNL A   1      42.577  31.961  35.391  1.00  0.00    -0.203 F 
ATOM     67  C   UNL A   1      42.385  29.723  36.087  1.00  0.00     0.198 A 
ATOM     68  C   UNL A   1      41.898  28.004  34.489  1.00  0.00     0.198 A 
ATOM     69  F   UNL A   1      41.713  28.523  32.217  1.00  0.00    -0.203 F 
ATOM     70  F   UNL A   1      42.700  30.092  37.336  1.00  0.00    -0.200 F 
ATOM     71  C   UNL A   1      42.172  28.386  35.793  1.00  0.00     0.200 A 
ATOM     72  F   UNL A   1      41.713  26.707  34.201  1.00  0.00    -0.200 F 
ATOM     73  F   UNL A   1      42.267  27.462  36.759  1.00  0.00    -0.200 F 
ENDBRANCH  40  63
ENDBRANCH  14  15
ENDBRANCH   7   9
ENDBRANCH   4   5
ENDBRANCH   3   4
ENDBRANCH   2   3
ENDBRANCH   1   2
BRANCH   1  74
ATOM     74  N   UNL A   1      37.284  23.493  24.475  1.00  0.00    -0.352 N 
ATOM     75  C   UNL A   1      36.341  22.919  23.656  1.00  0.00     0.254 C 
ATOM     76  H   UNL A   1      38.061  23.887  24.015  1.00  0.00     0.163 HD
ATOM     77  O   UNL A   1      36.526  22.866  22.444  1.00  0.00    -0.269 OA
BRANCH  75  78
ATOM     78  C   UNL A   1      35.137  22.291  24.228  1.00  0.00     0.076 A 
ATOM     79  C   UNL A   1      33.942  23.015  24.229  1.00  0.00     0.038 A 
ATOM     80  C   UNL A   1      35.165  21.010  24.773  1.00  0.00     0.136 A 
ATOM     81  C   UNL A   1      32.764  22.406  24.682  1.00  0.00     0.085 A 
ATOM     82  C   UNL A   1      33.988  20.391  25.192  1.00  0.00     0.041 A 
ATOM     83  F   UNL A   1      36.316  20.330  24.880  1.00  0.00    -0.206 F 
ATOM     84  C   UNL A   1      32.774  21.076  25.117  1.00  0.00     0.025 A 
BRANCH  81  85
ATOM     85  S   UNL A   1      31.316  23.429  24.780  1.00  0.00     0.257 S 
ATOM     86  O   UNL A   1      30.710  23.409  23.456  1.00  0.00    -0.205 OA
ATOM     87  O   UNL A   1      30.600  23.040  25.962  1.00  0.00    -0.205 OA
BRANCH  85  88
ATOM     88  N   UNL A   1      31.871  25.017  25.034  1.00  0.00    -0.123 NA
ATOM     89  H   UNL A   1      31.500  25.586  24.273  1.00  0.00     0.167 HD
BRANCH  88  90
ATOM     90  N   UNL A   1      31.546  25.701  26.264  1.00  0.00    -0.275 N 
ATOM     91  C   UNL A   1      31.518  27.056  26.451  1.00  0.00     0.265 C 
ATOM     92  H   UNL A   1      31.325  25.139  27.042  1.00  0.00     0.186 HD
ATOM     93  O   UNL A   1      30.970  27.474  27.478  1.00  0.00    -0.271 OA
BRANCH  91  94
ATOM     94  C   UNL A   1      32.143  28.019  25.435  1.00  0.00     0.244 C 
ATOM     95  C   UNL A   1      31.167  28.223  24.332  1.00  0.00     0.042 C 
ATOM     96  N   UNL A   1      32.273  29.396  25.990  1.00  0.00    -0.171 NA
ATOM     97  C   UNL A   1      30.793  29.499  24.419  1.00  0.00     0.091 C 
ATOM     98  N   UNL A   1      31.486  30.182  25.387  1.00  0.00    -0.155 NA
BRANCH  97  99
ATOM     99  C   UNL A   1      29.735  30.109  23.618  1.00  0.00     0.002 A 
ATOM    100  C   UNL A   1      29.156  31.323  24.007  1.00  0.00     0.010 A 
ATOM    101  C   UNL A   1      29.278  29.481  22.448  1.00  0.00     0.010 A 
ATOM    102  C   UNL A   1      28.153  31.908  23.230  1.00  0.00     0.001 A 
ATOM    103  C   UNL A   1      28.267  30.062  21.679  1.00  0.00     0.001 A 
ATOM    104  C   UNL A   1      27.711  31.278  22.066  1.00  0.00     0.000 A 
ENDBRANCH  97  99
ENDBRANCH  91  94
ENDBRANCH  88  90
ENDBRANCH  85  88
ENDBRANCH  81  85
ENDBRANCH  75  78
ENDBRANCH   1  74
TORSDOF 16
ENDMDL
MODEL 2
REMARK VINA RESULT:     -14.1      1.197      2.217
REMARK SMILES O=C(NCCCCNC(=O)c1cc(S(=O)(=O)NNC(=O)[C@H]2C=C(c3ccccc3)N=N2)ccc1F)c1ccc(-c2c3nc(c(-c4c(F)c(F)c(F)c(F)c4F)c4ccc([nH]4)c(-c4c(F)c(F)c(F)c(F)c4F)c4nc(c(-c5c(F)c(F)c(F)c(F)c5F)c5ccc2[nH]5)C=C4)C=C3)cc1
REMARK SMILES IDX 7 1 6 2 5 3 4 4 3 5 1 6 2 7 36 9 37 10 98 11 38 12 97 13
REMARK SMILES IDX 39 14 40 15 41 16 91 17 42 18 96 19 90 20 92 21 43 22 95 23
REMARK SMILES IDX 89 24 88 25 44 27 76 28 56 29 75 30 57 31 60 32 74 33 93 34
REMARK SMILES IDX 58 35 59 36 73 38 94 39 61 40 45 41 46 42 54 43 47 44 48 45
REMARK SMILES IDX 52 46 55 47 49 48 50 49 53 50 51 51 77 52 78 53 86 54 79 55
REMARK SMILES IDX 80 56 84 57 87 58 81 59 82 60 85 61 83 62 62 63 63 64 71 65
REMARK SMILES IDX 64 66 65 67 69 68 72 69 66 70 67 71 70 72 68 73 8 74 9 75
REMARK SMILES IDX 10 77 11 78 12 79 34 80 13 81 33 82 35 83 32 84 14 85 15 86
REMARK SMILES IDX 16 87 17 88 18 90 19 91 20 93 21 94 22 95 31 96 23 97 30 98
REMARK SMILES IDX 24 99 25 100 29 101 26 102 28 103 27 104
REMARK H PARENT 3 8 92 26 60 37 8 76 17 89 18 92
REMARK Flexibility Score: inf
ROOT
ATOM      1  C   UNL A   1      37.305  23.758  26.005  1.00  0.00     0.116 C 
ENDROOT
BRANCH   1   2
ATOM      2  C   UNL A   1      38.692  23.443  26.557  1.00  0.00     0.023 C 
BRANCH   2   3
ATOM      3  C   UNL A   1      39.261  22.064  26.208  1.00  0.00     0.023 C 
BRANCH   3   4
ATOM      4  C   UNL A   1      40.700  21.813  26.657  1.00  0.00     0.116 C 
BRANCH   4   5
ATOM      5  N   UNL A   1      41.706  22.347  25.761  1.00  0.00    -0.352 N 
ATOM      6  O   UNL A   1      43.326  23.532  24.857  1.00  0.00    -0.269 OA
ATOM      7  C   UNL A   1      42.379  23.530  25.650  1.00  0.00     0.251 C 
ATOM      8  H   UNL A   1      41.966  21.701  25.065  1.00  0.00     0.163 HD
BRANCH   7   9
ATOM      9  C   UNL A   1      42.031  24.805  26.340  1.00  0.00     0.039 A 
ATOM     10  C   UNL A   1      41.298  25.863  25.803  1.00  0.00     0.014 A 
ATOM     11  C   UNL A   1      42.551  24.947  27.643  1.00  0.00     0.014 A 
ATOM     12  C   UNL A   1      41.162  27.058  26.514  1.00  0.00     0.010 A 
ATOM     13  C   UNL A   1      42.416  26.133  28.357  1.00  0.00     0.010 A 
ATOM     14  C   UNL A   1      41.754  27.207  27.774  1.00  0.00    -0.014 A 
BRANCH  14  15
ATOM     15  C   UNL A   1      41.539  28.453  28.513  1.00  0.00     0.031 A 
ATOM     16  C   UNL A   1      42.600  29.488  28.311  1.00  0.00     0.074 A 
ATOM     17  C   UNL A   1      40.413  28.734  29.203  1.00  0.00     0.049 A 
ATOM     18  N   UNL A   1      43.339  30.070  29.201  1.00  0.00    -0.248 NA
ATOM     19  C   UNL A   1      42.935  29.862  26.926  1.00  0.00     0.031 C 
ATOM     20  C   UNL A   1      39.165  27.968  29.260  1.00  0.00     0.029 A 
ATOM     21  N   UNL A   1      40.120  29.839  29.949  1.00  0.00    -0.354 N 
ATOM     22  C   UNL A   1      44.135  30.986  28.511  1.00  0.00     0.074 A 
ATOM     23  C   UNL A   1      43.921  30.740  27.109  1.00  0.00     0.031 C 
ATOM     24  C   UNL A   1      38.192  28.730  29.815  1.00  0.00     0.029 A 
ATOM     25  C   UNL A   1      38.776  29.977  30.280  1.00  0.00     0.049 A 
ATOM     26  H   UNL A   1      40.805  30.488  30.232  1.00  0.00     0.167 HD
ATOM     27  C   UNL A   1      44.790  31.998  29.147  1.00  0.00     0.037 A 
ATOM     28  C   UNL A   1      38.185  31.060  30.848  1.00  0.00     0.037 A 
ATOM     29  C   UNL A   1      44.936  31.731  30.549  1.00  0.00     0.049 A 
ATOM     30  C   UNL A   1      39.255  31.856  31.497  1.00  0.00     0.074 A 
ATOM     31  C   UNL A   1      45.605  30.776  31.288  1.00  0.00     0.029 A 
ATOM     32  N   UNL A   1      44.056  32.322  31.419  1.00  0.00    -0.354 N 
ATOM     33  N   UNL A   1      39.937  31.456  32.533  1.00  0.00    -0.248 NA
ATOM     34  C   UNL A   1      39.858  32.923  30.716  1.00  0.00     0.031 C 
ATOM     35  C   UNL A   1      44.747  30.501  32.392  1.00  0.00     0.029 A 
ATOM     36  C   UNL A   1      43.643  31.348  32.290  1.00  0.00     0.049 A 
ATOM     37  H   UNL A   1      43.775  33.265  31.418  1.00  0.00     0.167 HD
ATOM     38  C   UNL A   1      41.224  31.910  32.296  1.00  0.00     0.074 A 
ATOM     39  C   UNL A   1      41.099  32.869  31.201  1.00  0.00     0.031 C 
ATOM     40  C   UNL A   1      42.304  31.265  32.821  1.00  0.00     0.037 A 
BRANCH  27  41
ATOM     41  C   UNL A   1      45.025  33.369  28.563  1.00  0.00     0.064 A 
ATOM     42  C   UNL A   1      46.265  33.781  28.032  1.00  0.00     0.173 A 
ATOM     43  C   UNL A   1      43.924  34.189  28.242  1.00  0.00     0.173 A 
ATOM     44  F   UNL A   1      47.375  33.046  28.172  1.00  0.00    -0.203 F 
ATOM     45  C   UNL A   1      46.393  34.915  27.230  1.00  0.00     0.198 A 
ATOM     46  C   UNL A   1      44.047  35.296  27.397  1.00  0.00     0.198 A 
ATOM     47  F   UNL A   1      42.691  33.880  28.673  1.00  0.00    -0.203 F 
ATOM     48  F   UNL A   1      47.595  35.233  26.727  1.00  0.00    -0.200 F 
ATOM     49  C   UNL A   1      45.281  35.654  26.888  1.00  0.00     0.200 A 
ATOM     50  F   UNL A   1      42.953  35.974  27.023  1.00  0.00    -0.200 F 
ATOM     51  F   UNL A   1      45.394  36.677  26.030  1.00  0.00    -0.200 F 
ENDBRANCH  27  41
BRANCH  28  52
ATOM     52  C   UNL A   1      36.854  31.654  30.551  1.00  0.00     0.064 A 
ATOM     53  C   UNL A   1      36.616  32.336  29.343  1.00  0.00     0.173 A 
ATOM     54  C   UNL A   1      35.900  31.840  31.569  1.00  0.00     0.173 A 
ATOM     55  F   UNL A   1      37.501  32.283  28.339  1.00  0.00    -0.203 F 
ATOM     56  C   UNL A   1      35.513  33.178  29.174  1.00  0.00     0.198 A 
ATOM     57  C   UNL A   1      34.798  32.687  31.400  1.00  0.00     0.198 A 
ATOM     58  F   UNL A   1      36.073  31.265  32.768  1.00  0.00    -0.203 F 
ATOM     59  F   UNL A   1      35.368  33.860  28.029  1.00  0.00    -0.200 F 
ATOM     60  C   UNL A   1      34.614  33.366  30.207  1.00  0.00     0.200 A 
ATOM     61  F   UNL A   1      33.951  32.896  32.417  1.00  0.00    -0.200 F 
ATOM     62  F   UNL A   1      33.600  34.233  30.068  1.00  0.00    -0.200 F 
ENDBRANCH  28  52
BRANCH  40  63
ATOM     63  C   UNL A   1      42.069  30.202  33.854  1.00  0.00     0.064 A 
ATOM     64  C   UNL A   1      42.349  30.514  35.191  1.00  0.00     0.173 A 
ATOM     65  C   UNL A   1      41.789  28.859  33.546  1.00  0.00     0.173 A 
ATOM     66  F   UNL A   1      42.669  31.772  35.533  1.00  0.00    -0.203 F 
ATOM     67  C   UNL A   1      42.380  29.527  36.172  1.00  0.00     0.198 A 
ATOM     68  C   UNL A   1      41.786  27.878  34.537  1.00  0.00     0.198 A 
ATOM     69  F   UNL A   1      41.594  28.468  32.282  1.00  0.00    -0.203 F 
ATOM     70  F   UNL A   1      42.730  29.847  37.425  1.00  0.00    -0.200 F 
ATOM     71  C   UNL A   1      42.098  28.211  35.846  1.00  0.00     0.200 A 
ATOM     72  F   UNL A   1      41.534  26.599  34.217  1.00  0.00    -0.200 F 
ATOM     73  F   UNL A   1      42.162  27.257  36.785  1.00  0.00    -0.200 F 
ENDBRANCH  40  63
ENDBRANCH  14  15
ENDBRANCH   7   9
ENDBRANCH   4   5
ENDBRANCH   3   4
ENDBRANCH   2   3
ENDBRANCH   1   2
BRANCH   1  74
ATOM     74  N   UNL A   1      37.209  23.600  24.563  1.00  0.00    -0.352 N 
ATOM     75  C   UNL A   1      36.183  23.075  23.814  1.00  0.00     0.254 C 
ATOM     76  H   UNL A   1      37.990  23.913  24.050  1.00  0.00     0.163 HD
ATOM     77  O   UNL A   1      36.300  22.965  22.597  1.00  0.00    -0.269 OA
BRANCH  75  78
ATOM     78  C   UNL A   1      34.965  22.566  24.468  1.00  0.00     0.076 A 
ATOM     79  C   UNL A   1      33.947  23.471  24.783  1.00  0.00     0.038 A 
ATOM     80  C   UNL A   1      34.810  21.220  24.789  1.00  0.00     0.136 A 
ATOM     81  C   UNL A   1      32.742  22.998  25.320  1.00  0.00     0.085 A 
ATOM     82  C   UNL A   1      33.599  20.744  25.290  1.00  0.00     0.041 A 
ATOM     83  F   UNL A   1      35.808  20.345  24.594  1.00  0.00    -0.206 F 
ATOM     84  C   UNL A   1      32.546  21.629  25.528  1.00  0.00     0.025 A 
BRANCH  81  85
ATOM     85  S   UNL A   1      31.551  24.218  25.819  1.00  0.00     0.257 S 
ATOM     86  O   UNL A   1      30.481  23.494  26.491  1.00  0.00    -0.205 OA
ATOM     87  O   UNL A   1      32.274  25.286  26.448  1.00  0.00    -0.205 OA
BRANCH  85  88
ATOM     88  N   UNL A   1      30.883  24.845  24.385  1.00  0.00    -0.123 NA
ATOM     89  H   UNL A   1      30.789  24.064  23.735  1.00  0.00     0.167 HD
BRANCH  88  90
ATOM     90  N   UNL A   1      29.602  25.512  24.424  1.00  0.00    -0.275 N 
ATOM     91  C   UNL A   1      29.273  26.663  23.763  1.00  0.00     0.265 C 
ATOM     92  H   UNL A   1      28.901  25.100  24.978  1.00  0.00     0.186 HD
ATOM     93  O   UNL A   1      28.071  26.952  23.694  1.00  0.00    -0.271 OA
BRANCH  91  94
ATOM     94  C   UNL A   1      30.343  27.565  23.138  1.00  0.00     0.244 C 
ATOM     95  C   UNL A   1      30.746  28.574  24.153  1.00  0.00     0.042 C 
ATOM     96  N   UNL A   1      31.620  26.830  22.912  1.00  0.00    -0.171 NA
ATOM     97  C   UNL A   1      32.011  28.288  24.457  1.00  0.00     0.091 C 
ATOM     98  N   UNL A   1      32.517  27.273  23.685  1.00  0.00    -0.155 NA
BRANCH  97  99
ATOM     99  C   UNL A   1      32.776  28.938  25.519  1.00  0.00     0.002 A 
ATOM    100  C   UNL A   1      32.333  30.140  26.082  1.00  0.00     0.010 A 
ATOM    101  C   UNL A   1      33.973  28.368  25.982  1.00  0.00     0.010 A 
ATOM    102  C   UNL A   1      33.063  30.751  27.105  1.00  0.00     0.001 A 
ATOM    103  C   UNL A   1      34.706  28.986  26.997  1.00  0.00     0.001 A 
ATOM    104  C   UNL A   1      34.248  30.173  27.563  1.00  0.00     0.000 A 
ENDBRANCH  97  99
ENDBRANCH  91  94
ENDBRANCH  88  90
ENDBRANCH  85  88
ENDBRANCH  81  85
ENDBRANCH  75  78
ENDBRANCH   1  74
TORSDOF 16
ENDMDL
MODEL 3
REMARK VINA RESULT:     -13.8      3.443      9.380
REMARK SMILES O=C(NCCCCNC(=O)c1cc(S(=O)(=O)NNC(=O)[C@H]2C=C(c3ccccc3)N=N2)ccc1F)c1ccc(-c2c3nc(c(-c4c(F)c(F)c(F)c(F)c4F)c4ccc([nH]4)c(-c4c(F)c(F)c(F)c(F)c4F)c4nc(c(-c5c(F)c(F)c(F)c(F)c5F)c5ccc2[nH]5)C=C4)C=C3)cc1
REMARK SMILES IDX 7 1 6 2 5 3 4 4 3 5 1 6 2 7 36 9 37 10 98 11 38 12 97 13
REMARK SMILES IDX 39 14 40 15 41 16 91 17 42 18 96 19 90 20 92 21 43 22 95 23
REMARK SMILES IDX 89 24 88 25 44 27 76 28 56 29 75 30 57 31 60 32 74 33 93 34
REMARK SMILES IDX 58 35 59 36 73 38 94 39 61 40 45 41 46 42 54 43 47 44 48 45
REMARK SMILES IDX 52 46 55 47 49 48 50 49 53 50 51 51 77 52 78 53 86 54 79 55
REMARK SMILES IDX 80 56 84 57 87 58 81 59 82 60 85 61 83 62 62 63 63 64 71 65
REMARK SMILES IDX 64 66 65 67 69 68 72 69 66 70 67 71 70 72 68 73 8 74 9 75
REMARK SMILES IDX 10 77 11 78 12 79 34 80 13 81 33 82 35 83 32 84 14 85 15 86
REMARK SMILES IDX 16 87 17 88 18 90 19 91 20 93 21 94 22 95 31 96 23 97 30 98
REMARK SMILES IDX 24 99 25 100 29 101 26 102 28 103 27 104
REMARK H PARENT 3 8 92 26 60 37 8 76 17 89 18 92
REMARK Flexibility Score: inf
ROOT
ATOM      1  C   UNL A   1      33.614  29.484  26.435  1.00  0.00     0.116 C 
ENDROOT
BRANCH   1   2
ATOM      2  C   UNL A   1      32.386  30.321  26.782  1.00  0.00     0.023 C 
BRANCH   2   3
ATOM      3  C   UNL A   1      32.659  31.699  27.392  1.00  0.00     0.023 C 
BRANCH   3   4
ATOM      4  C   UNL A   1      34.093  31.938  27.863  1.00  0.00     0.116 C 
BRANCH   4   5
ATOM      5  N   UNL A   1      34.219  32.200  29.283  1.00  0.00    -0.352 N 
ATOM      6  O   UNL A   1      34.993  32.544  31.314  1.00  0.00    -0.269 OA
ATOM      7  C   UNL A   1      35.182  31.988  30.228  1.00  0.00     0.251 C 
ATOM      8  H   UNL A   1      33.418  32.634  29.655  1.00  0.00     0.163 HD
BRANCH   7   9
ATOM      9  C   UNL A   1      36.377  31.109  30.081  1.00  0.00     0.039 A 
ATOM     10  C   UNL A   1      36.389  29.715  30.120  1.00  0.00     0.014 A 
ATOM     11  C   UNL A   1      37.608  31.783  29.943  1.00  0.00     0.014 A 
ATOM     12  C   UNL A   1      37.600  29.020  30.106  1.00  0.00     0.010 A 
ATOM     13  C   UNL A   1      38.817  31.096  29.925  1.00  0.00     0.010 A 
ATOM     14  C   UNL A   1      38.816  29.712  30.047  1.00  0.00    -0.014 A 
BRANCH  14  15
ATOM     15  C   UNL A   1      40.063  28.947  29.975  1.00  0.00     0.031 A 
ATOM     16  C   UNL A   1      40.756  28.759  31.288  1.00  0.00     0.074 A 
ATOM     17  C   UNL A   1      40.496  28.317  28.862  1.00  0.00     0.049 A 
ATOM     18  N   UNL A   1      41.963  29.093  31.617  1.00  0.00    -0.248 NA
ATOM     19  C   UNL A   1      39.971  28.198  32.400  1.00  0.00     0.031 C 
ATOM     20  C   UNL A   1      39.801  28.148  27.582  1.00  0.00     0.029 A 
ATOM     21  N   UNL A   1      41.648  27.609  28.671  1.00  0.00    -0.354 N 
ATOM     22  C   UNL A   1      42.143  28.662  32.932  1.00  0.00     0.074 A 
ATOM     23  C   UNL A   1      40.857  28.216  33.397  1.00  0.00     0.031 C 
ATOM     24  C   UNL A   1      40.442  27.216  26.839  1.00  0.00     0.029 A 
ATOM     25  C   UNL A   1      41.665  26.828  27.521  1.00  0.00     0.049 A 
ATOM     26  H   UNL A   1      42.406  27.649  29.298  1.00  0.00     0.167 HD
ATOM     27  C   UNL A   1      43.381  28.546  33.492  1.00  0.00     0.037 A 
ATOM     28  C   UNL A   1      42.594  25.895  27.186  1.00  0.00     0.037 A 
ATOM     29  C   UNL A   1      44.355  29.322  32.779  1.00  0.00     0.049 A 
ATOM     30  C   UNL A   1      43.816  26.187  27.975  1.00  0.00     0.074 A 
ATOM     31  C   UNL A   1      44.539  30.670  32.548  1.00  0.00     0.029 A 
ATOM     32  N   UNL A   1      45.166  28.679  31.879  1.00  0.00    -0.354 N 
ATOM     33  N   UNL A   1      44.555  27.248  27.812  1.00  0.00    -0.248 NA
ATOM     34  C   UNL A   1      43.967  25.500  29.246  1.00  0.00     0.031 C 
ATOM     35  C   UNL A   1      45.037  30.749  31.216  1.00  0.00     0.029 A 
ATOM     36  C   UNL A   1      45.184  29.444  30.743  1.00  0.00     0.049 A 
ATOM     37  H   UNL A   1      45.645  27.831  32.023  1.00  0.00     0.167 HD
ATOM     38  C   UNL A   1      44.940  27.602  29.096  1.00  0.00     0.074 A 
ATOM     39  C   UNL A   1      44.610  26.448  29.929  1.00  0.00     0.031 C 
ATOM     40  C   UNL A   1      45.232  28.896  29.410  1.00  0.00     0.037 A 
BRANCH  27  41
ATOM     41  C   UNL A   1      43.774  27.490  34.494  1.00  0.00     0.064 A 
ATOM     42  C   UNL A   1      43.799  27.716  35.886  1.00  0.00     0.173 A 
ATOM     43  C   UNL A   1      43.833  26.138  34.097  1.00  0.00     0.173 A 
ATOM     44  F   UNL A   1      43.650  28.939  36.408  1.00  0.00    -0.203 F 
ATOM     45  C   UNL A   1      43.863  26.673  36.810  1.00  0.00     0.198 A 
ATOM     46  C   UNL A   1      43.845  25.094  35.026  1.00  0.00     0.198 A 
ATOM     47  F   UNL A   1      43.792  25.803  32.798  1.00  0.00    -0.203 F 
ATOM     48  F   UNL A   1      43.848  26.953  38.121  1.00  0.00    -0.200 F 
ATOM     49  C   UNL A   1      43.855  25.362  36.382  1.00  0.00     0.200 A 
ATOM     50  F   UNL A   1      43.780  23.824  34.603  1.00  0.00    -0.200 F 
ATOM     51  F   UNL A   1      43.806  24.366  37.275  1.00  0.00    -0.200 F 
ENDBRANCH  27  41
BRANCH  28  52
ATOM     52  C   UNL A   1      42.390  24.570  26.543  1.00  0.00     0.064 A 
ATOM     53  C   UNL A   1      41.592  23.583  27.151  1.00  0.00     0.173 A 
ATOM     54  C   UNL A   1      43.221  24.138  25.493  1.00  0.00     0.173 A 
ATOM     55  F   UNL A   1      40.821  23.877  28.207  1.00  0.00    -0.203 F 
ATOM     56  C   UNL A   1      41.647  22.243  26.758  1.00  0.00     0.198 A 
ATOM     57  C   UNL A   1      43.278  22.794  25.104  1.00  0.00     0.198 A 
ATOM     58  F   UNL A   1      44.049  25.003  24.889  1.00  0.00    -0.203 F 
ATOM     59  F   UNL A   1      40.919  21.329  27.415  1.00  0.00    -0.200 F 
ATOM     60  C   UNL A   1      42.501  21.846  25.746  1.00  0.00     0.200 A 
ATOM     61  F   UNL A   1      44.136  22.408  24.149  1.00  0.00    -0.200 F 
ATOM     62  F   UNL A   1      42.606  20.549  25.424  1.00  0.00    -0.200 F 
ENDBRANCH  28  52
BRANCH  40  63
ATOM     63  C   UNL A   1      45.368  29.889  28.292  1.00  0.00     0.064 A 
ATOM     64  C   UNL A   1      46.660  30.274  27.911  1.00  0.00     0.173 A 
ATOM     65  C   UNL A   1      44.289  30.609  27.750  1.00  0.00     0.173 A 
ATOM     66  F   UNL A   1      47.727  29.651  28.434  1.00  0.00    -0.203 F 
ATOM     67  C   UNL A   1      46.868  31.349  27.052  1.00  0.00     0.198 A 
ATOM     68  C   UNL A   1      44.500  31.664  26.862  1.00  0.00     0.198 A 
ATOM     69  F   UNL A   1      43.031  30.357  28.129  1.00  0.00    -0.203 F 
ATOM     70  F   UNL A   1      48.119  31.742  26.771  1.00  0.00    -0.200 F 
ATOM     71  C   UNL A   1      45.790  32.043  26.528  1.00  0.00     0.200 A 
ATOM     72  F   UNL A   1      43.457  32.350  26.371  1.00  0.00    -0.200 F 
ATOM     73  F   UNL A   1      45.995  33.100  25.729  1.00  0.00    -0.200 F 
ENDBRANCH  40  63
ENDBRANCH  14  15
ENDBRANCH   7   9
ENDBRANCH   4   5
ENDBRANCH   3   4
ENDBRANCH   2   3
ENDBRANCH   1   2
BRANCH   1  74
ATOM     74  N   UNL A   1      33.765  29.247  25.008  1.00  0.00    -0.352 N 
ATOM     75  C   UNL A   1      33.529  28.099  24.290  1.00  0.00     0.254 C 
ATOM     76  H   UNL A   1      34.081  30.017  24.482  1.00  0.00     0.163 HD
ATOM     77  O   UNL A   1      33.769  28.062  23.087  1.00  0.00    -0.269 OA
BRANCH  75  78
ATOM     78  C   UNL A   1      33.059  26.876  24.967  1.00  0.00     0.076 A 
ATOM     79  C   UNL A   1      33.992  25.880  25.269  1.00  0.00     0.038 A 
ATOM     80  C   UNL A   1      31.720  26.688  25.299  1.00  0.00     0.136 A 
ATOM     81  C   UNL A   1      33.587  24.751  25.994  1.00  0.00     0.085 A 
ATOM     82  C   UNL A   1      31.324  25.583  26.051  1.00  0.00     0.041 A 
ATOM     83  F   UNL A   1      30.787  27.578  24.933  1.00  0.00    -0.206 F 
ATOM     84  C   UNL A   1      32.265  24.623  26.431  1.00  0.00     0.025 A 
BRANCH  81  85
ATOM     85  S   UNL A   1      34.793  23.467  26.222  1.00  0.00     0.257 S 
ATOM     86  O   UNL A   1      36.086  24.059  25.908  1.00  0.00    -0.205 OA
ATOM     87  O   UNL A   1      34.517  22.844  27.486  1.00  0.00    -0.205 OA
BRANCH  85  88
ATOM     88  N   UNL A   1      34.487  22.306  25.016  1.00  0.00    -0.123 NA
ATOM     89  H   UNL A   1      33.595  21.868  25.246  1.00  0.00     0.167 HD
BRANCH  88  90
ATOM     90  N   UNL A   1      34.408  22.715  23.633  1.00  0.00    -0.275 N 
ATOM     91  C   UNL A   1      33.317  22.595  22.817  1.00  0.00     0.265 C 
ATOM     92  H   UNL A   1      35.217  23.117  23.240  1.00  0.00     0.186 HD
ATOM     93  O   UNL A   1      33.334  23.228  21.754  1.00  0.00    -0.271 OA
BRANCH  91  94
ATOM     94  C   UNL A   1      32.124  21.710  23.197  1.00  0.00     0.244 C 
ATOM     95  C   UNL A   1      32.531  20.291  23.028  1.00  0.00     0.042 C 
ATOM     96  N   UNL A   1      31.833  21.775  24.658  1.00  0.00    -0.171 NA
ATOM     97  C   UNL A   1      32.544  19.775  24.257  1.00  0.00     0.091 C 
ATOM     98  N   UNL A   1      32.095  20.663  25.201  1.00  0.00    -0.155 NA
BRANCH  97  99
ATOM     99  C   UNL A   1      33.022  18.435  24.589  1.00  0.00     0.002 A 
ATOM    100  C   UNL A   1      32.195  17.531  25.263  1.00  0.00     0.010 A 
ATOM    101  C   UNL A   1      34.325  18.040  24.242  1.00  0.00     0.010 A 
ATOM    102  C   UNL A   1      32.654  16.246  25.568  1.00  0.00     0.001 A 
ATOM    103  C   UNL A   1      34.785  16.759  24.557  1.00  0.00     0.001 A 
ATOM    104  C   UNL A   1      33.947  15.861  25.213  1.00  0.00     0.000 A 
ENDBRANCH  97  99
ENDBRANCH  91  94
ENDBRANCH  88  90
ENDBRANCH  85  88
ENDBRANCH  81  85
ENDBRANCH  75  78
ENDBRANCH   1  74
TORSDOF 16
ENDMDL
