MODEL 1
REMARK VINA RESULT:     -11.7      0.000      0.000
REMARK SMILES C[NH2+][C@@]1(C(=O)NCCCCNC(=O)c2ccc(-c3c4nc(c(-c5c(F)c(F)c(F)c(F)c5F)c5ccc([nH]5)c(-c5c(F)c(F)c(F)c(F)c5F)c5nc(c(-c6c(F)c(F)c(F)c(F)c6F)c6ccc3[nH]6)C=C5)C=C4)cc2)CCC[C@H]1CCn1ccc(C(F)(F)F)n1
REMARK SMILES IDX 7 1 6 2 4 3 5 4 3 6 77 7 80 8 78 9 79 10 2 11 1 12 81 15
REMARK SMILES IDX 82 16 83 17 84 18 91 19 85 20 86 21 87 22 88 23 89 24 90 25
REMARK SMILES IDX 8 26 9 27 10 28 11 29 12 30 13 32 14 33 15 34 76 35 16 36
REMARK SMILES IDX 75 37 17 38 18 39 19 40 69 41 20 42 74 43 68 44 70 45 21 46
REMARK SMILES IDX 73 47 67 48 66 49 22 51 54 52 34 53 53 54 35 55 38 56 52 57
REMARK SMILES IDX 71 58 36 59 37 60 51 62 72 63 39 64 23 65 24 66 32 67 25 68
REMARK SMILES IDX 26 69 30 70 33 71 27 72 28 73 31 74 29 75 55 76 56 77 64 78
REMARK SMILES IDX 57 79 58 80 62 81 65 82 59 83 60 84 63 85 61 86 40 87 41 88
REMARK SMILES IDX 49 89 42 90 43 91 47 92 50 93 44 94 45 95 48 96 46 97
REMARK H PARENT 6 5 2 13 2 14 11 31 70 50 38 61
REMARK Flexibility Score: inf
ROOT
ATOM      1  C   UNL A   1      36.828  22.576  25.712  1.00  0.00     0.116 C 
ENDROOT
BRANCH   1   2
ATOM      2  N   UNL A   1      35.675  22.056  26.401  1.00  0.00    -0.351 N 
ATOM      3  C   UNL A   1      34.399  21.942  25.949  1.00  0.00     0.281 C 
ATOM      4  O   UNL A   1      33.895  20.827  26.164  1.00  0.00    -0.268 OA
ATOM      5  H   UNL A   1      35.832  21.743  27.321  1.00  0.00     0.163 HD
BRANCH   3   6
ATOM      6  C   UNL A   1      33.563  23.080  25.197  1.00  0.00     0.178 C 
ATOM      7  C   UNL A   1      32.258  22.452  24.662  1.00  0.00     0.079 C 
ATOM      8  C   UNL A   1      34.183  23.785  23.942  1.00  0.00     0.062 C 
ATOM      9  C   UNL A   1      32.450  22.172  23.182  1.00  0.00     0.008 C 
ATOM     10  C   UNL A   1      33.676  22.953  22.732  1.00  0.00     0.011 C 
BRANCH   6  11
ATOM     11  N   UNL A   1      33.138  24.076  26.240  1.00  0.00    -0.336 N 
ATOM     12  C   UNL A   1      31.843  23.786  26.870  1.00  0.00     0.331 C 
ATOM     13  H   UNL A   1      33.850  24.095  26.971  1.00  0.00     0.346 HD
ATOM     14  H   UNL A   1      33.034  24.971  25.761  1.00  0.00     0.346 HD
ENDBRANCH   6  11
BRANCH   8  15
ATOM     15  C   UNL A   1      33.743  25.246  23.611  1.00  0.00     0.034 C 
BRANCH  15  16
ATOM     16  C   UNL A   1      32.782  25.528  22.458  1.00  0.00     0.144 C 
BRANCH  16  17
ATOM     17  N   UNL A   1      31.549  26.195  22.825  1.00  0.00    -0.272 N 
ATOM     18  C   UNL A   1      30.641  25.790  23.760  1.00  0.00     0.109 A 
ATOM     19  N   UNL A   1      31.273  27.408  22.321  1.00  0.00    -0.168 NA
ATOM     20  C   UNL A   1      29.726  26.810  23.873  1.00  0.00     0.055 A 
ATOM     21  C   UNL A   1      30.157  27.808  22.958  1.00  0.00     0.166 A 
BRANCH  21  22
ATOM     22  C   UNL A   1      29.513  29.145  22.711  1.00  0.00     0.435 C 
ATOM     23  F   UNL A   1      30.136  29.823  21.706  1.00  0.00    -0.164 F 
ATOM     24  F   UNL A   1      28.211  29.016  22.335  1.00  0.00    -0.164 F 
ATOM     25  F   UNL A   1      29.526  29.968  23.795  1.00  0.00    -0.164 F 
ENDBRANCH  21  22
ENDBRANCH  16  17
ENDBRANCH  15  16
ENDBRANCH   8  15
ENDBRANCH   3   6
ENDBRANCH   1   2
BRANCH   1  26
ATOM     26  C   UNL A   1      37.289  21.685  24.566  1.00  0.00     0.023 C 
BRANCH  26  27
ATOM     27  C   UNL A   1      37.937  20.372  25.010  1.00  0.00     0.023 C 
BRANCH  27  28
ATOM     28  C   UNL A   1      39.173  20.514  25.896  1.00  0.00     0.116 C 
BRANCH  28  29
ATOM     29  N   UNL A   1      40.037  19.341  25.908  1.00  0.00    -0.352 N 
ATOM     30  C   UNL A   1      41.395  19.285  26.125  1.00  0.00     0.251 C 
ATOM     31  H   UNL A   1      39.592  18.479  25.738  1.00  0.00     0.163 HD
ATOM     32  O   UNL A   1      42.003  18.228  26.039  1.00  0.00    -0.269 OA
BRANCH  30  33
ATOM     33  C   UNL A   1      42.116  20.540  26.416  1.00  0.00     0.039 A 
ATOM     34  C   UNL A   1      42.594  21.303  25.351  1.00  0.00     0.014 A 
ATOM     35  C   UNL A   1      42.244  20.991  27.733  1.00  0.00     0.014 A 
ATOM     36  C   UNL A   1      43.129  22.568  25.599  1.00  0.00     0.010 A 
ATOM     37  C   UNL A   1      42.713  22.278  27.971  1.00  0.00     0.010 A 
ATOM     38  C   UNL A   1      43.149  23.082  26.906  1.00  0.00    -0.014 A 
BRANCH  38  39
ATOM     39  C   UNL A   1      43.606  24.466  27.182  1.00  0.00     0.031 A 
ATOM     40  C   UNL A   1      42.634  25.490  27.693  1.00  0.00     0.074 A 
ATOM     41  C   UNL A   1      44.871  24.819  26.887  1.00  0.00     0.049 A 
ATOM     42  N   UNL A   1      42.816  26.768  27.910  1.00  0.00    -0.248 NA
ATOM     43  C   UNL A   1      41.266  25.022  27.967  1.00  0.00     0.031 C 
ATOM     44  C   UNL A   1      45.890  23.930  26.326  1.00  0.00     0.029 A 
ATOM     45  N   UNL A   1      45.514  26.027  27.005  1.00  0.00    -0.354 N 
ATOM     46  C   UNL A   1      41.584  27.258  28.320  1.00  0.00     0.074 A 
ATOM     47  C   UNL A   1      40.652  26.152  28.278  1.00  0.00     0.031 C 
ATOM     48  C   UNL A   1      47.033  24.617  26.165  1.00  0.00     0.029 A 
ATOM     49  C   UNL A   1      46.820  25.999  26.582  1.00  0.00     0.049 A 
ATOM     50  H   UNL A   1      45.079  26.836  27.360  1.00  0.00     0.167 HD
ATOM     51  C   UNL A   1      41.265  28.514  28.717  1.00  0.00     0.037 A 
ATOM     52  C   UNL A   1      47.740  26.982  26.533  1.00  0.00     0.037 A 
ATOM     53  C   UNL A   1      42.205  29.600  28.794  1.00  0.00     0.049 A 
ATOM     54  C   UNL A   1      47.370  28.359  27.010  1.00  0.00     0.074 A 
ATOM     55  C   UNL A   1      42.000  30.887  29.258  1.00  0.00     0.029 A 
ATOM     56  N   UNL A   1      43.532  29.523  28.399  1.00  0.00    -0.354 N 
ATOM     57  N   UNL A   1      46.222  28.794  27.469  1.00  0.00    -0.248 NA
ATOM     58  C   UNL A   1      48.425  29.380  26.972  1.00  0.00     0.031 C 
ATOM     59  C   UNL A   1      43.194  31.600  29.111  1.00  0.00     0.029 A 
ATOM     60  C   UNL A   1      44.155  30.745  28.593  1.00  0.00     0.049 A 
ATOM     61  H   UNL A   1      43.968  28.719  28.034  1.00  0.00     0.167 HD
ATOM     62  C   UNL A   1      46.421  30.127  27.796  1.00  0.00     0.074 A 
ATOM     63  C   UNL A   1      47.806  30.428  27.496  1.00  0.00     0.031 C 
ATOM     64  C   UNL A   1      45.536  31.023  28.297  1.00  0.00     0.037 A 
BRANCH  51  65
ATOM     65  C   UNL A   1      39.841  28.775  29.106  1.00  0.00     0.064 A 
ATOM     66  C   UNL A   1      39.401  28.617  30.429  1.00  0.00     0.173 A 
ATOM     67  C   UNL A   1      38.912  29.216  28.153  1.00  0.00     0.173 A 
ATOM     68  F   UNL A   1      40.248  28.184  31.375  1.00  0.00    -0.203 F 
ATOM     69  C   UNL A   1      38.076  28.864  30.777  1.00  0.00     0.198 A 
ATOM     70  C   UNL A   1      37.594  29.490  28.510  1.00  0.00     0.198 A 
ATOM     71  F   UNL A   1      39.283  29.387  26.875  1.00  0.00    -0.203 F 
ATOM     72  F   UNL A   1      37.667  28.659  32.037  1.00  0.00    -0.200 F 
ATOM     73  C   UNL A   1      37.175  29.307  29.819  1.00  0.00     0.200 A 
ATOM     74  F   UNL A   1      36.727  29.927  27.587  1.00  0.00    -0.200 F 
ATOM     75  F   UNL A   1      35.902  29.549  30.158  1.00  0.00    -0.200 F 
ENDBRANCH  51  65
BRANCH  52  76
ATOM     76  C   UNL A   1      49.111  26.688  26.043  1.00  0.00     0.064 A 
ATOM     77  C   UNL A   1      49.479  26.982  24.722  1.00  0.00     0.173 A 
ATOM     78  C   UNL A   1      50.079  26.113  26.878  1.00  0.00     0.173 A 
ATOM     79  F   UNL A   1      48.581  27.514  23.880  1.00  0.00    -0.203 F 
ATOM     80  C   UNL A   1      50.759  26.696  24.251  1.00  0.00     0.198 A 
ATOM     81  C   UNL A   1      51.366  25.850  26.413  1.00  0.00     0.198 A 
ATOM     82  F   UNL A   1      49.778  25.819  28.152  1.00  0.00    -0.203 F 
ATOM     83  F   UNL A   1      51.072  26.950  22.973  1.00  0.00    -0.200 F 
ATOM     84  C   UNL A   1      51.703  26.135  25.098  1.00  0.00     0.200 A 
ATOM     85  F   UNL A   1      52.279  25.321  27.238  1.00  0.00    -0.200 F 
ATOM     86  F   UNL A   1      52.934  25.863  24.645  1.00  0.00    -0.200 F 
ENDBRANCH  52  76
BRANCH  64  87
ATOM     87  C   UNL A   1      46.045  32.404  28.584  1.00  0.00     0.064 A 
ATOM     88  C   UNL A   1      46.639  32.727  29.811  1.00  0.00     0.173 A 
ATOM     89  C   UNL A   1      45.980  33.402  27.599  1.00  0.00     0.173 A 
ATOM     90  F   UNL A   1      46.710  31.810  30.789  1.00  0.00    -0.203 F 
ATOM     91  C   UNL A   1      47.131  34.006  30.053  1.00  0.00     0.198 A 
ATOM     92  C   UNL A   1      46.497  34.673  27.834  1.00  0.00     0.198 A 
ATOM     93  F   UNL A   1      45.427  33.140  26.406  1.00  0.00    -0.203 F 
ATOM     94  F   UNL A   1      47.659  34.306  31.248  1.00  0.00    -0.200 F 
ATOM     95  C   UNL A   1      47.067  34.975  29.062  1.00  0.00     0.200 A 
ATOM     96  F   UNL A   1      46.445  35.604  26.872  1.00  0.00    -0.200 F 
ATOM     97  F   UNL A   1      47.549  36.204  29.293  1.00  0.00    -0.200 F 
ENDBRANCH  64  87
ENDBRANCH  38  39
ENDBRANCH  30  33
ENDBRANCH  28  29
ENDBRANCH  27  28
ENDBRANCH  26  27
ENDBRANCH   1  26
TORSDOF 16
ENDMDL
MODEL 2
REMARK VINA RESULT:     -11.7      5.831     11.099
REMARK SMILES C[NH2+][C@@]1(C(=O)NCCCCNC(=O)c2ccc(-c3c4nc(c(-c5c(F)c(F)c(F)c(F)c5F)c5ccc([nH]5)c(-c5c(F)c(F)c(F)c(F)c5F)c5nc(c(-c6c(F)c(F)c(F)c(F)c6F)c6ccc3[nH]6)C=C5)C=C4)cc2)CCC[C@H]1CCn1ccc(C(F)(F)F)n1
REMARK SMILES IDX 7 1 6 2 4 3 5 4 3 6 77 7 80 8 78 9 79 10 2 11 1 12 81 15
REMARK SMILES IDX 82 16 83 17 84 18 91 19 85 20 86 21 87 22 88 23 89 24 90 25
REMARK SMILES IDX 8 26 9 27 10 28 11 29 12 30 13 32 14 33 15 34 76 35 16 36
REMARK SMILES IDX 75 37 17 38 18 39 19 40 69 41 20 42 74 43 68 44 70 45 21 46
REMARK SMILES IDX 73 47 67 48 66 49 22 51 54 52 34 53 53 54 35 55 38 56 52 57
REMARK SMILES IDX 71 58 36 59 37 60 51 62 72 63 39 64 23 65 24 66 32 67 25 68
REMARK SMILES IDX 26 69 30 70 33 71 27 72 28 73 31 74 29 75 55 76 56 77 64 78
REMARK SMILES IDX 57 79 58 80 62 81 65 82 59 83 60 84 63 85 61 86 40 87 41 88
REMARK SMILES IDX 49 89 42 90 43 91 47 92 50 93 44 94 45 95 48 96 46 97
REMARK H PARENT 6 5 2 13 2 14 11 31 70 50 38 61
REMARK Flexibility Score: inf
ROOT
ATOM      1  C   UNL A   1      33.180  29.373  26.298  1.00  0.00     0.116 C 
ENDROOT
BRANCH   1   2
ATOM      2  N   UNL A   1      34.046  28.939  25.233  1.00  0.00    -0.351 N 
ATOM      3  C   UNL A   1      33.731  28.217  24.127  1.00  0.00     0.281 C 
ATOM      4  O   UNL A   1      34.191  28.695  23.076  1.00  0.00    -0.268 OA
ATOM      5  H   UNL A   1      34.993  29.199  25.319  1.00  0.00     0.163 HD
BRANCH   3   6
ATOM      6  C   UNL A   1      32.854  26.880  24.095  1.00  0.00     0.178 C 
ATOM      7  C   UNL A   1      31.662  27.103  23.140  1.00  0.00     0.079 C 
ATOM      8  C   UNL A   1      32.186  26.370  25.417  1.00  0.00     0.062 C 
ATOM      9  C   UNL A   1      30.439  27.411  23.985  1.00  0.00     0.008 C 
ATOM     10  C   UNL A   1      30.770  27.009  25.416  1.00  0.00     0.011 C 
BRANCH   6  11
ATOM     11  N   UNL A   1      33.698  25.815  23.453  1.00  0.00    -0.336 N 
ATOM     12  C   UNL A   1      33.212  25.356  22.145  1.00  0.00     0.331 C 
ATOM     13  H   UNL A   1      34.640  26.187  23.329  1.00  0.00     0.346 HD
ATOM     14  H   UNL A   1      33.667  25.006  24.074  1.00  0.00     0.346 HD
ENDBRANCH   6  11
BRANCH   8  15
ATOM     15  C   UNL A   1      31.913  24.840  25.576  1.00  0.00     0.034 C 
BRANCH  15  16
ATOM     16  C   UNL A   1      32.803  23.978  26.468  1.00  0.00     0.144 C 
BRANCH  16  17
ATOM     17  N   UNL A   1      33.704  23.083  25.770  1.00  0.00    -0.272 N 
ATOM     18  C   UNL A   1      33.438  21.811  25.351  1.00  0.00     0.109 A 
ATOM     19  N   UNL A   1      34.895  23.533  25.348  1.00  0.00    -0.168 NA
ATOM     20  C   UNL A   1      34.524  21.419  24.605  1.00  0.00     0.055 A 
ATOM     21  C   UNL A   1      35.415  22.526  24.622  1.00  0.00     0.166 A 
BRANCH  21  22
ATOM     22  C   UNL A   1      36.748  22.623  23.931  1.00  0.00     0.435 C 
ATOM     23  F   UNL A   1      37.445  23.720  24.340  1.00  0.00    -0.164 F 
ATOM     24  F   UNL A   1      37.537  21.547  24.202  1.00  0.00    -0.164 F 
ATOM     25  F   UNL A   1      36.657  22.709  22.576  1.00  0.00    -0.164 F 
ENDBRANCH  21  22
ENDBRANCH  16  17
ENDBRANCH  15  16
ENDBRANCH   8  15
ENDBRANCH   3   6
ENDBRANCH   1   2
BRANCH   1  26
ATOM     26  C   UNL A   1      32.165  30.417  25.852  1.00  0.00     0.023 C 
BRANCH  26  27
ATOM     27  C   UNL A   1      31.805  31.447  26.925  1.00  0.00     0.023 C 
BRANCH  27  28
ATOM     28  C   UNL A   1      32.927  32.404  27.321  1.00  0.00     0.116 C 
BRANCH  28  29
ATOM     29  N   UNL A   1      32.488  33.773  27.558  1.00  0.00    -0.352 N 
ATOM     30  C   UNL A   1      33.007  34.694  28.440  1.00  0.00     0.251 C 
ATOM     31  H   UNL A   1      31.723  34.078  27.019  1.00  0.00     0.163 HD
ATOM     32  O   UNL A   1      32.491  35.793  28.579  1.00  0.00    -0.269 OA
BRANCH  30  33
ATOM     33  C   UNL A   1      34.176  34.310  29.255  1.00  0.00     0.039 A 
ATOM     34  C   UNL A   1      33.963  33.645  30.464  1.00  0.00     0.014 A 
ATOM     35  C   UNL A   1      35.472  34.538  28.784  1.00  0.00     0.014 A 
ATOM     36  C   UNL A   1      35.054  33.129  31.165  1.00  0.00     0.010 A 
ATOM     37  C   UNL A   1      36.551  33.964  29.448  1.00  0.00     0.010 A 
ATOM     38  C   UNL A   1      36.351  33.246  30.637  1.00  0.00    -0.014 A 
BRANCH  38  39
ATOM     39  C   UNL A   1      37.513  32.608  31.303  1.00  0.00     0.031 A 
ATOM     40  C   UNL A   1      38.225  31.465  30.639  1.00  0.00     0.074 A 
ATOM     41  C   UNL A   1      37.867  33.001  32.541  1.00  0.00     0.049 A 
ATOM     42  N   UNL A   1      39.200  30.720  31.096  1.00  0.00    -0.248 NA
ATOM     43  C   UNL A   1      37.758  31.087  29.297  1.00  0.00     0.031 C 
ATOM     44  C   UNL A   1      37.211  34.057  33.315  1.00  0.00     0.029 A 
ATOM     45  N   UNL A   1      38.860  32.547  33.374  1.00  0.00    -0.354 N 
ATOM     46  C   UNL A   1      39.443  29.775  30.110  1.00  0.00     0.074 A 
ATOM     47  C   UNL A   1      38.486  30.009  29.051  1.00  0.00     0.031 C 
ATOM     48  C   UNL A   1      37.829  34.182  34.500  1.00  0.00     0.029 A 
ATOM     49  C   UNL A   1      38.902  33.197  34.584  1.00  0.00     0.049 A 
ATOM     50  H   UNL A   1      39.481  31.825  33.128  1.00  0.00     0.167 HD
ATOM     51  C   UNL A   1      40.396  28.812  30.081  1.00  0.00     0.037 A 
ATOM     52  C   UNL A   1      39.715  33.013  35.642  1.00  0.00     0.037 A 
ATOM     53  C   UNL A   1      41.371  28.609  31.118  1.00  0.00     0.049 A 
ATOM     54  C   UNL A   1      40.786  31.959  35.571  1.00  0.00     0.074 A 
ATOM     55  C   UNL A   1      42.425  27.713  31.148  1.00  0.00     0.029 A 
ATOM     56  N   UNL A   1      41.412  29.315  32.311  1.00  0.00    -0.354 N 
ATOM     57  N   UNL A   1      41.057  31.121  34.601  1.00  0.00    -0.248 NA
ATOM     58  C   UNL A   1      41.670  31.832  36.738  1.00  0.00     0.031 C 
ATOM     59  C   UNL A   1      43.084  27.854  32.374  1.00  0.00     0.029 A 
ATOM     60  C   UNL A   1      42.464  28.866  33.091  1.00  0.00     0.049 A 
ATOM     61  H   UNL A   1      40.786  30.031  32.565  1.00  0.00     0.167 HD
ATOM     62  C   UNL A   1      42.153  30.384  35.028  1.00  0.00     0.074 A 
ATOM     63  C   UNL A   1      42.506  30.885  36.340  1.00  0.00     0.031 C 
ATOM     64  C   UNL A   1      42.806  29.382  34.391  1.00  0.00     0.037 A 
BRANCH  51  65
ATOM     65  C   UNL A   1      40.432  27.911  28.883  1.00  0.00     0.064 A 
ATOM     66  C   UNL A   1      39.715  26.705  28.848  1.00  0.00     0.173 A 
ATOM     67  C   UNL A   1      41.169  28.270  27.745  1.00  0.00     0.173 A 
ATOM     68  F   UNL A   1      39.006  26.311  29.917  1.00  0.00    -0.203 F 
ATOM     69  C   UNL A   1      39.757  25.879  27.728  1.00  0.00     0.198 A 
ATOM     70  C   UNL A   1      41.186  27.455  26.616  1.00  0.00     0.198 A 
ATOM     71  F   UNL A   1      41.869  29.414  27.725  1.00  0.00    -0.203 F 
ATOM     72  F   UNL A   1      39.103  24.709  27.737  1.00  0.00    -0.200 F 
ATOM     73  C   UNL A   1      40.487  26.257  26.611  1.00  0.00     0.200 A 
ATOM     74  F   UNL A   1      41.883  27.825  25.533  1.00  0.00    -0.200 F 
ATOM     75  F   UNL A   1      40.522  25.463  25.533  1.00  0.00    -0.200 F 
ENDBRANCH  51  65
BRANCH  52  76
ATOM     76  C   UNL A   1      39.569  33.871  36.845  1.00  0.00     0.064 A 
ATOM     77  C   UNL A   1      38.809  33.443  37.943  1.00  0.00     0.173 A 
ATOM     78  C   UNL A   1      40.183  35.129  36.927  1.00  0.00     0.173 A 
ATOM     79  F   UNL A   1      38.186  32.255  37.903  1.00  0.00    -0.203 F 
ATOM     80  C   UNL A   1      38.655  34.248  39.069  1.00  0.00     0.198 A 
ATOM     81  C   UNL A   1      40.048  35.923  38.064  1.00  0.00     0.198 A 
ATOM     82  F   UNL A   1      40.925  35.581  35.905  1.00  0.00    -0.203 F 
ATOM     83  F   UNL A   1      37.891  33.831  40.089  1.00  0.00    -0.200 F 
ATOM     84  C   UNL A   1      39.278  35.485  39.131  1.00  0.00     0.200 A 
ATOM     85  F   UNL A   1      40.663  37.111  38.125  1.00  0.00    -0.200 F 
ATOM     86  F   UNL A   1      39.133  36.257  40.216  1.00  0.00    -0.200 F 
ENDBRANCH  52  76
BRANCH  64  87
ATOM     87  C   UNL A   1      43.989  28.782  35.089  1.00  0.00     0.064 A 
ATOM     88  C   UNL A   1      43.858  27.664  35.925  1.00  0.00     0.173 A 
ATOM     89  C   UNL A   1      45.276  29.303  34.881  1.00  0.00     0.173 A 
ATOM     90  F   UNL A   1      42.647  27.140  36.167  1.00  0.00    -0.203 F 
ATOM     91  C   UNL A   1      44.970  27.101  36.546  1.00  0.00     0.198 A 
ATOM     92  C   UNL A   1      46.389  28.721  35.482  1.00  0.00     0.198 A 
ATOM     93  F   UNL A   1      45.454  30.367  34.085  1.00  0.00    -0.203 F 
ATOM     94  F   UNL A   1      44.818  26.057  37.373  1.00  0.00    -0.200 F 
ATOM     95  C   UNL A   1      46.234  27.625  36.317  1.00  0.00     0.200 A 
ATOM     96  F   UNL A   1      47.611  29.221  35.251  1.00  0.00    -0.200 F 
ATOM     97  F   UNL A   1      47.304  27.076  36.907  1.00  0.00    -0.200 F 
ENDBRANCH  64  87
ENDBRANCH  38  39
ENDBRANCH  30  33
ENDBRANCH  28  29
ENDBRANCH  27  28
ENDBRANCH  26  27
ENDBRANCH   1  26
TORSDOF 16
ENDMDL
MODEL 3
REMARK VINA RESULT:     -11.6      6.176     11.315
REMARK SMILES C[NH2+][C@@]1(C(=O)NCCCCNC(=O)c2ccc(-c3c4nc(c(-c5c(F)c(F)c(F)c(F)c5F)c5ccc([nH]5)c(-c5c(F)c(F)c(F)c(F)c5F)c5nc(c(-c6c(F)c(F)c(F)c(F)c6F)c6ccc3[nH]6)C=C5)C=C4)cc2)CCC[C@H]1CCn1ccc(C(F)(F)F)n1
REMARK SMILES IDX 7 1 6 2 4 3 5 4 3 6 77 7 80 8 78 9 79 10 2 11 1 12 81 15
REMARK SMILES IDX 82 16 83 17 84 18 91 19 85 20 86 21 87 22 88 23 89 24 90 25
REMARK SMILES IDX 8 26 9 27 10 28 11 29 12 30 13 32 14 33 15 34 76 35 16 36
REMARK SMILES IDX 75 37 17 38 18 39 19 40 69 41 20 42 74 43 68 44 70 45 21 46
REMARK SMILES IDX 73 47 67 48 66 49 22 51 54 52 34 53 53 54 35 55 38 56 52 57
REMARK SMILES IDX 71 58 36 59 37 60 51 62 72 63 39 64 23 65 24 66 32 67 25 68
REMARK SMILES IDX 26 69 30 70 33 71 27 72 28 73 31 74 29 75 55 76 56 77 64 78
REMARK SMILES IDX 57 79 58 80 62 81 65 82 59 83 60 84 63 85 61 86 40 87 41 88
REMARK SMILES IDX 49 89 42 90 43 91 47 92 50 93 44 94 45 95 48 96 46 97
REMARK H PARENT 6 5 2 13 2 14 11 31 70 50 38 61
REMARK Flexibility Score: inf
ROOT
ATOM      1  C   UNL A   1      32.989  29.892  25.600  1.00  0.00     0.116 C 
ENDROOT
BRANCH   1   2
ATOM      2  N   UNL A   1      32.193  29.723  24.412  1.00  0.00    -0.351 N 
ATOM      3  C   UNL A   1      31.351  28.706  24.094  1.00  0.00     0.281 C 
ATOM      4  O   UNL A   1      30.245  29.091  23.679  1.00  0.00    -0.268 OA
ATOM      5  H   UNL A   1      32.270  30.440  23.741  1.00  0.00     0.163 HD
BRANCH   3   6
ATOM      6  C   UNL A   1      31.673  27.144  24.221  1.00  0.00     0.178 C 
ATOM      7  C   UNL A   1      30.615  26.363  23.415  1.00  0.00     0.079 C 
ATOM      8  C   UNL A   1      31.643  26.469  25.635  1.00  0.00     0.062 C 
ATOM      9  C   UNL A   1      29.587  25.824  24.394  1.00  0.00     0.008 C 
ATOM     10  C   UNL A   1      30.193  25.934  25.787  1.00  0.00     0.011 C 
BRANCH   6  11
ATOM     11  N   UNL A   1      32.980  26.906  23.519  1.00  0.00    -0.336 N 
ATOM     12  C   UNL A   1      32.873  26.763  22.061  1.00  0.00     0.331 C 
ATOM     13  H   UNL A   1      33.596  27.695  23.717  1.00  0.00     0.346 HD
ATOM     14  H   UNL A   1      33.341  26.019  23.872  1.00  0.00     0.346 HD
ENDBRANCH   6  11
BRANCH   8  15
ATOM     15  C   UNL A   1      32.539  25.214  25.884  1.00  0.00     0.034 C 
BRANCH  15  16
ATOM     16  C   UNL A   1      31.922  23.893  26.336  1.00  0.00     0.144 C 
BRANCH  16  17
ATOM     17  N   UNL A   1      31.988  22.812  25.373  1.00  0.00    -0.272 N 
ATOM     18  C   UNL A   1      31.733  22.887  24.034  1.00  0.00     0.109 A 
ATOM     19  N   UNL A   1      32.467  21.615  25.747  1.00  0.00    -0.168 NA
ATOM     20  C   UNL A   1      32.077  21.663  23.510  1.00  0.00     0.055 A 
ATOM     21  C   UNL A   1      32.536  20.894  24.613  1.00  0.00     0.166 A 
BRANCH  21  22
ATOM     22  C   UNL A   1      33.055  19.483  24.576  1.00  0.00     0.435 C 
ATOM     23  F   UNL A   1      34.353  19.416  24.983  1.00  0.00    -0.164 F 
ATOM     24  F   UNL A   1      32.352  18.664  25.406  1.00  0.00    -0.164 F 
ATOM     25  F   UNL A   1      33.010  18.915  23.340  1.00  0.00    -0.164 F 
ENDBRANCH  21  22
ENDBRANCH  16  17
ENDBRANCH  15  16
ENDBRANCH   8  15
ENDBRANCH   3   6
ENDBRANCH   1   2
BRANCH   1  26
ATOM     26  C   UNL A   1      32.165  30.290  26.817  1.00  0.00     0.023 C 
BRANCH  26  27
ATOM     27  C   UNL A   1      31.808  31.777  26.878  1.00  0.00     0.023 C 
BRANCH  27  28
ATOM     28  C   UNL A   1      32.912  32.699  27.392  1.00  0.00     0.116 C 
BRANCH  28  29
ATOM     29  N   UNL A   1      32.474  34.063  27.660  1.00  0.00    -0.352 N 
ATOM     30  C   UNL A   1      32.988  34.959  28.568  1.00  0.00     0.251 C 
ATOM     31  H   UNL A   1      31.712  34.382  27.124  1.00  0.00     0.163 HD
ATOM     32  O   UNL A   1      32.473  36.056  28.732  1.00  0.00    -0.269 OA
BRANCH  30  33
ATOM     33  C   UNL A   1      34.151  34.553  29.382  1.00  0.00     0.039 A 
ATOM     34  C   UNL A   1      33.927  33.956  30.623  1.00  0.00     0.014 A 
ATOM     35  C   UNL A   1      35.448  34.692  28.880  1.00  0.00     0.014 A 
ATOM     36  C   UNL A   1      35.003  33.416  31.329  1.00  0.00     0.010 A 
ATOM     37  C   UNL A   1      36.508  34.094  29.551  1.00  0.00     0.010 A 
ATOM     38  C   UNL A   1      36.294  33.441  30.775  1.00  0.00    -0.014 A 
BRANCH  38  39
ATOM     39  C   UNL A   1      37.433  32.775  31.451  1.00  0.00     0.031 A 
ATOM     40  C   UNL A   1      38.116  31.607  30.799  1.00  0.00     0.074 A 
ATOM     41  C   UNL A   1      37.793  33.166  32.689  1.00  0.00     0.049 A 
ATOM     42  N   UNL A   1      39.067  30.838  31.265  1.00  0.00    -0.248 NA
ATOM     43  C   UNL A   1      37.644  31.234  29.456  1.00  0.00     0.031 C 
ATOM     44  C   UNL A   1      37.164  34.245  33.452  1.00  0.00     0.029 A 
ATOM     45  N   UNL A   1      38.768  32.689  33.530  1.00  0.00    -0.354 N 
ATOM     46  C   UNL A   1      39.288  29.880  30.286  1.00  0.00     0.074 A 
ATOM     47  C   UNL A   1      38.342  30.134  29.221  1.00  0.00     0.031 C 
ATOM     48  C   UNL A   1      37.780  34.360  34.640  1.00  0.00     0.029 A 
ATOM     49  C   UNL A   1      38.824  33.345  34.735  1.00  0.00     0.049 A 
ATOM     50  H   UNL A   1      39.370  31.948  33.291  1.00  0.00     0.167 HD
ATOM     51  C   UNL A   1      40.212  28.889  30.268  1.00  0.00     0.037 A 
ATOM     52  C   UNL A   1      39.626  33.145  35.798  1.00  0.00     0.037 A 
ATOM     53  C   UNL A   1      41.177  28.665  31.311  1.00  0.00     0.049 A 
ATOM     54  C   UNL A   1      40.667  32.061  35.740  1.00  0.00     0.074 A 
ATOM     55  C   UNL A   1      42.204  27.740  31.352  1.00  0.00     0.029 A 
ATOM     56  N   UNL A   1      41.232  29.378  32.500  1.00  0.00    -0.354 N 
ATOM     57  N   UNL A   1      40.918  31.208  34.776  1.00  0.00    -0.248 NA
ATOM     58  C   UNL A   1      41.541  31.915  36.912  1.00  0.00     0.031 C 
ATOM     59  C   UNL A   1      42.861  27.870  32.580  1.00  0.00     0.029 A 
ATOM     60  C   UNL A   1      42.267  28.904  33.288  1.00  0.00     0.049 A 
ATOM     61  H   UNL A   1      40.626  30.113  32.746  1.00  0.00     0.167 HD
ATOM     62  C   UNL A   1      41.990  30.443  35.213  1.00  0.00     0.074 A 
ATOM     63  C   UNL A   1      42.351  30.942  36.524  1.00  0.00     0.031 C 
ATOM     64  C   UNL A   1      42.618  29.419  34.586  1.00  0.00     0.037 A 
BRANCH  51  65
ATOM     65  C   UNL A   1      40.229  27.980  29.076  1.00  0.00     0.064 A 
ATOM     66  C   UNL A   1      39.516  26.771  29.064  1.00  0.00     0.173 A 
ATOM     67  C   UNL A   1      40.941  28.334  27.921  1.00  0.00     0.173 A 
ATOM     68  F   UNL A   1      38.831  26.381  30.150  1.00  0.00    -0.203 F 
ATOM     69  C   UNL A   1      39.540  25.937  27.950  1.00  0.00     0.198 A 
ATOM     70  C   UNL A   1      40.939  27.510  26.798  1.00  0.00     0.198 A 
ATOM     71  F   UNL A   1      41.635  29.481  27.878  1.00  0.00    -0.203 F 
ATOM     72  F   UNL A   1      38.891  24.764  27.980  1.00  0.00    -0.200 F 
ATOM     73  C   UNL A   1      40.245  26.310  26.816  1.00  0.00     0.200 A 
ATOM     74  F   UNL A   1      41.612  27.876  25.698  1.00  0.00    -0.200 F 
ATOM     75  F   UNL A   1      40.262  25.508  25.742  1.00  0.00    -0.200 F 
ENDBRANCH  51  65
BRANCH  52  76
ATOM     76  C   UNL A   1      39.499  34.014  36.995  1.00  0.00     0.064 A 
ATOM     77  C   UNL A   1      38.765  33.593  38.114  1.00  0.00     0.173 A 
ATOM     78  C   UNL A   1      40.106  35.277  37.051  1.00  0.00     0.173 A 
ATOM     79  F   UNL A   1      38.150  32.401  38.099  1.00  0.00    -0.203 F 
ATOM     80  C   UNL A   1      38.629  34.409  39.234  1.00  0.00     0.198 A 
ATOM     81  C   UNL A   1      39.989  36.083  38.182  1.00  0.00     0.198 A 
ATOM     82  F   UNL A   1      40.823  35.723  36.009  1.00  0.00    -0.203 F 
ATOM     83  F   UNL A   1      37.889  33.998  40.273  1.00  0.00    -0.200 F 
ATOM     84  C   UNL A   1      39.245  35.651  39.270  1.00  0.00     0.200 A 
ATOM     85  F   UNL A   1      40.597  37.276  38.218  1.00  0.00    -0.200 F 
ATOM     86  F   UNL A   1      39.116  36.434  40.350  1.00  0.00    -0.200 F 
ENDBRANCH  52  76
BRANCH  64  87
ATOM     87  C   UNL A   1      43.780  28.789  35.294  1.00  0.00     0.064 A 
ATOM     88  C   UNL A   1      45.088  29.264  35.123  1.00  0.00     0.173 A 
ATOM     89  C   UNL A   1      43.574  27.729  36.190  1.00  0.00     0.173 A 
ATOM     90  F   UNL A   1      45.336  30.266  34.265  1.00  0.00    -0.203 F 
ATOM     91  C   UNL A   1      46.153  28.686  35.808  1.00  0.00     0.198 A 
ATOM     92  C   UNL A   1      44.638  27.171  36.894  1.00  0.00     0.198 A 
ATOM     93  F   UNL A   1      42.341  27.244  36.393  1.00  0.00    -0.203 F 
ATOM     94  F   UNL A   1      47.401  29.129  35.600  1.00  0.00    -0.200 F 
ATOM     95  C   UNL A   1      45.926  27.646  36.698  1.00  0.00     0.200 A 
ATOM     96  F   UNL A   1      44.416  26.174  37.762  1.00  0.00    -0.200 F 
ATOM     97  F   UNL A   1      46.951  27.097  37.363  1.00  0.00    -0.200 F 
ENDBRANCH  64  87
ENDBRANCH  38  39
ENDBRANCH  30  33
ENDBRANCH  28  29
ENDBRANCH  27  28
ENDBRANCH  26  27
ENDBRANCH   1  26
TORSDOF 16
ENDMDL
