MODEL 1
REMARK VINA RESULT:     -14.3      0.000      0.000
REMARK SMILES Cc1nn([C@H]2CCS(=O)(=O)C2)c(C)c1/C=C(\CC(=O)NCCCCNC(=O)c1ccc(-c2c3nc(c(-c4c(F)c(F)c(F)c(F)c4F)c4ccc([nH]4)c(-c4c(F)c(F)c(F)c(F)c4F)c4nc(c(-c5c(F)c(F)c(F)c(F)c5F)c5ccc2[nH]5)C=C4)C=C3)cc1)c1nc2ccccc2s1
REMARK SMILES IDX 22 1 21 2 20 3 18 4 19 5 17 7 16 8 15 9 14 10 1 11 2 12 3 13
REMARK SMILES IDX 4 14 12 15 13 16 5 17 6 18 11 19 7 20 8 21 9 22 10 23 91 24
REMARK SMILES IDX 92 25 99 26 93 27 98 28 94 29 97 30 95 31 96 32 23 33 24 34
REMARK SMILES IDX 25 35 26 36 27 38 28 39 29 40 90 41 30 42 89 43 31 44 32 45
REMARK SMILES IDX 33 46 83 47 34 48 88 49 82 50 84 51 35 52 87 53 81 54 80 55
REMARK SMILES IDX 36 57 68 58 48 59 67 60 49 61 52 62 66 63 85 64 50 65 51 66
REMARK SMILES IDX 65 68 86 69 53 70 37 71 38 72 46 73 39 74 40 75 44 76 47 77
REMARK SMILES IDX 41 78 42 79 45 80 43 81 69 82 70 83 78 84 71 85 72 86 76 87
REMARK SMILES IDX 79 88 73 89 74 90 77 91 75 92 54 93 55 94 63 95 56 96 57 97
REMARK SMILES IDX 61 98 64 99 58 100 59 101 62 102 60 103
REMARK H PARENT 20 6 25 37 84 56 52 67
REMARK Flexibility Score: inf
ROOT
ATOM      1  C   UNL A   1      36.721  21.669  25.299  1.00  0.00     0.023 C 
ENDROOT
BRANCH   1   2
ATOM      2  C   UNL A   1      36.594  23.193  25.257  1.00  0.00     0.116 C 
BRANCH   2   3
ATOM      3  N   UNL A   1      35.866  23.629  24.083  1.00  0.00    -0.356 N 
ATOM      4  C   UNL A   1      34.587  24.101  24.010  1.00  0.00     0.224 C 
ATOM      5  O   UNL A   1      34.061  24.214  22.902  1.00  0.00    -0.275 OA
ATOM      6  H   UNL A   1      36.356  23.580  23.230  1.00  0.00     0.163 HD
BRANCH   4   7
ATOM      7  C   UNL A   1      33.925  24.648  25.267  1.00  0.00     0.138 C 
BRANCH   7   8
ATOM      8  C   UNL A   1      32.429  24.433  25.450  1.00  0.00    -0.002 C 
ATOM      9  C   UNL A   1      31.859  23.217  25.661  1.00  0.00     0.019 C 
BRANCH   9  10
ATOM     10  C   UNL A   1      32.542  21.952  25.652  1.00  0.00     0.019 A 
ATOM     11  C   UNL A   1      34.021  22.094  27.810  1.00  0.00     0.069 C 
ATOM     12  C   UNL A   1      33.390  21.410  26.652  1.00  0.00     0.067 A 
ATOM     13  N   UNL A   1      33.620  20.107  26.434  1.00  0.00    -0.177 NA
ATOM     14  N   UNL A   1      32.983  19.845  25.275  1.00  0.00    -0.265 N 
ATOM     15  C   UNL A   1      32.582  21.002  24.643  1.00  0.00     0.043 A 
ATOM     16  C   UNL A   1      32.268  21.103  23.191  1.00  0.00     0.067 C 
BRANCH  14  17
ATOM     17  C   UNL A   1      32.829  18.457  24.850  1.00  0.00     0.123 C 
ATOM     18  C   UNL A   1      33.662  18.094  23.595  1.00  0.00     0.044 C 
ATOM     19  C   UNL A   1      33.285  17.443  25.898  1.00  0.00     0.164 C 
ATOM     20  C   UNL A   1      33.560  16.586  23.400  1.00  0.00     0.139 C 
ATOM     21  S   UNL A   1      33.416  15.903  25.035  1.00  0.00     0.152 S 
ATOM     22  O   UNL A   1      32.155  15.215  25.139  1.00  0.00    -0.229 OA
ATOM     23  O   UNL A   1      34.679  15.282  25.399  1.00  0.00    -0.229 OA
ENDBRANCH  14  17
ENDBRANCH   9  10
BRANCH   8  24
ATOM     24  C   UNL A   1      31.584  25.592  25.373  1.00  0.00     0.121 A 
ATOM     25  N   UNL A   1      30.522  25.667  24.598  1.00  0.00    -0.236 NA
ATOM     26  S   UNL A   1      32.079  27.107  26.037  1.00  0.00    -0.114 S 
ATOM     27  C   UNL A   1      30.324  26.973  24.201  1.00  0.00     0.082 A 
ATOM     28  C   UNL A   1      31.111  27.918  24.861  1.00  0.00     0.055 A 
ATOM     29  C   UNL A   1      29.478  27.393  23.158  1.00  0.00     0.030 A 
ATOM     30  C   UNL A   1      31.082  29.277  24.511  1.00  0.00     0.021 A 
ATOM     31  C   UNL A   1      29.502  28.729  22.748  1.00  0.00     0.002 A 
ATOM     32  C   UNL A   1      30.297  29.655  23.416  1.00  0.00     0.002 A 
ENDBRANCH   8  24
ENDBRANCH   7   8
ENDBRANCH   4   7
ENDBRANCH   2   3
ENDBRANCH   1   2
BRANCH   1  33
ATOM     33  C   UNL A   1      38.164  21.149  25.327  1.00  0.00     0.023 C 
BRANCH  33  34
ATOM     34  C   UNL A   1      39.106  22.014  26.149  1.00  0.00     0.116 C 
BRANCH  34  35
ATOM     35  N   UNL A   1      40.509  21.765  25.819  1.00  0.00    -0.352 N 
ATOM     36  C   UNL A   1      41.565  22.650  25.862  1.00  0.00     0.251 C 
ATOM     37  H   UNL A   1      40.727  20.849  25.528  1.00  0.00     0.163 HD
ATOM     38  O   UNL A   1      42.592  22.456  25.226  1.00  0.00    -0.269 OA
BRANCH  36  39
ATOM     39  C   UNL A   1      41.436  23.836  26.719  1.00  0.00     0.039 A 
ATOM     40  C   UNL A   1      41.987  23.875  28.002  1.00  0.00     0.014 A 
ATOM     41  C   UNL A   1      40.782  24.941  26.179  1.00  0.00     0.014 A 
ATOM     42  C   UNL A   1      41.940  25.071  28.713  1.00  0.00     0.010 A 
ATOM     43  C   UNL A   1      40.871  26.151  26.812  1.00  0.00     0.010 A 
ATOM     44  C   UNL A   1      41.391  26.208  28.102  1.00  0.00    -0.014 A 
BRANCH  44  45
ATOM     45  C   UNL A   1      41.429  27.509  28.758  1.00  0.00     0.031 A 
ATOM     46  C   UNL A   1      42.571  28.383  28.363  1.00  0.00     0.074 A 
ATOM     47  C   UNL A   1      40.366  27.973  29.452  1.00  0.00     0.049 A 
ATOM     48  N   UNL A   1      43.504  28.870  29.114  1.00  0.00    -0.248 NA
ATOM     49  C   UNL A   1      42.764  28.662  26.929  1.00  0.00     0.031 C 
ATOM     50  C   UNL A   1      39.045  27.349  29.613  1.00  0.00     0.029 A 
ATOM     51  N   UNL A   1      40.198  29.174  30.064  1.00  0.00    -0.354 N 
ATOM     52  C   UNL A   1      44.298  29.665  28.285  1.00  0.00     0.074 A 
ATOM     53  C   UNL A   1      43.900  29.362  26.937  1.00  0.00     0.031 C 
ATOM     54  C   UNL A   1      38.158  28.270  30.049  1.00  0.00     0.029 A 
ATOM     55  C   UNL A   1      38.880  29.485  30.373  1.00  0.00     0.049 A 
ATOM     56  H   UNL A   1      40.950  29.776  30.272  1.00  0.00     0.167 HD
ATOM     57  C   UNL A   1      45.057  30.678  28.793  1.00  0.00     0.037 A 
ATOM     58  C   UNL A   1      38.412  30.672  30.829  1.00  0.00     0.037 A 
ATOM     59  C   UNL A   1      45.212  30.535  30.217  1.00  0.00     0.049 A 
ATOM     60  C   UNL A   1      39.577  31.433  31.343  1.00  0.00     0.074 A 
ATOM     61  C   UNL A   1      45.781  29.585  31.042  1.00  0.00     0.029 A 
ATOM     62  N   UNL A   1      44.404  31.296  31.022  1.00  0.00    -0.354 N 
ATOM     63  N   UNL A   1      40.267  31.082  32.394  1.00  0.00    -0.248 NA
ATOM     64  C   UNL A   1      40.256  32.325  30.417  1.00  0.00     0.031 C 
ATOM     65  C   UNL A   1      44.917  29.521  32.174  1.00  0.00     0.029 A 
ATOM     66  C   UNL A   1      43.918  30.482  32.010  1.00  0.00     0.049 A 
ATOM     67  H   UNL A   1      44.208  32.255  30.912  1.00  0.00     0.167 HD
ATOM     68  C   UNL A   1      41.584  31.353  32.056  1.00  0.00     0.074 A 
ATOM     69  C   UNL A   1      41.508  32.198  30.867  1.00  0.00     0.031 C 
ATOM     70  C   UNL A   1      42.607  30.629  32.597  1.00  0.00     0.037 A 
BRANCH  57  71
ATOM     71  C   UNL A   1      45.339  31.994  28.097  1.00  0.00     0.064 A 
ATOM     72  C   UNL A   1      44.254  32.841  27.777  1.00  0.00     0.173 A 
ATOM     73  C   UNL A   1      46.557  32.311  27.460  1.00  0.00     0.173 A 
ATOM     74  F   UNL A   1      43.045  32.641  28.320  1.00  0.00    -0.203 F 
ATOM     75  C   UNL A   1      44.360  33.851  26.818  1.00  0.00     0.198 A 
ATOM     76  C   UNL A   1      46.671  33.355  26.543  1.00  0.00     0.198 A 
ATOM     77  F   UNL A   1      47.656  31.564  27.605  1.00  0.00    -0.203 F 
ATOM     78  F   UNL A   1      43.268  34.534  26.447  1.00  0.00    -0.200 F 
ATOM     79  C   UNL A   1      45.567  34.101  26.192  1.00  0.00     0.200 A 
ATOM     80  F   UNL A   1      47.848  33.572  25.937  1.00  0.00    -0.200 F 
ATOM     81  F   UNL A   1      45.656  35.021  25.223  1.00  0.00    -0.200 F 
ENDBRANCH  57  71
BRANCH  58  82
ATOM     82  C   UNL A   1      37.101  31.306  30.564  1.00  0.00     0.064 A 
ATOM     83  C   UNL A   1      36.177  31.527  31.596  1.00  0.00     0.173 A 
ATOM     84  C   UNL A   1      36.850  31.959  29.342  1.00  0.00     0.173 A 
ATOM     85  F   UNL A   1      36.378  30.987  32.806  1.00  0.00    -0.203 F 
ATOM     86  C   UNL A   1      35.069  32.363  31.418  1.00  0.00     0.198 A 
ATOM     87  C   UNL A   1      35.740  32.789  29.163  1.00  0.00     0.198 A 
ATOM     88  F   UNL A   1      37.739  31.886  28.342  1.00  0.00    -0.203 F 
ATOM     89  F   UNL A   1      34.241  32.602  32.445  1.00  0.00    -0.200 F 
ATOM     90  C   UNL A   1      34.857  32.998  30.205  1.00  0.00     0.200 A 
ATOM     91  F   UNL A   1      35.572  33.443  28.005  1.00  0.00    -0.200 F 
ATOM     92  F   UNL A   1      33.831  33.849  30.057  1.00  0.00    -0.200 F 
ENDBRANCH  58  82
BRANCH  70  93
ATOM     93  C   UNL A   1      42.299  29.730  33.761  1.00  0.00     0.064 A 
ATOM     94  C   UNL A   1      41.881  28.394  33.636  1.00  0.00     0.173 A 
ATOM     95  C   UNL A   1      42.625  30.187  35.044  1.00  0.00     0.173 A 
ATOM     96  F   UNL A   1      41.637  27.853  32.438  1.00  0.00    -0.203 F 
ATOM     97  C   UNL A   1      41.773  27.563  34.752  1.00  0.00     0.198 A 
ATOM     98  C   UNL A   1      42.552  29.346  36.150  1.00  0.00     0.198 A 
ATOM     99  F   UNL A   1      43.080  31.439  35.214  1.00  0.00    -0.203 F 
ATOM    100  F   UNL A   1      41.376  26.290  34.607  1.00  0.00    -0.200 F 
ATOM    101  C   UNL A   1      42.122  28.038  36.005  1.00  0.00     0.200 A 
ATOM    102  F   UNL A   1      42.937  29.795  37.353  1.00  0.00    -0.200 F 
ATOM    103  F   UNL A   1      42.073  27.225  37.070  1.00  0.00    -0.200 F 
ENDBRANCH  70  93
ENDBRANCH  44  45
ENDBRANCH  36  39
ENDBRANCH  34  35
ENDBRANCH  33  34
ENDBRANCH   1  33
TORSDOF 15
ENDMDL
MODEL 2
REMARK VINA RESULT:     -14.3      3.456      9.380
REMARK SMILES Cc1nn([C@H]2CCS(=O)(=O)C2)c(C)c1/C=C(\CC(=O)NCCCCNC(=O)c1ccc(-c2c3nc(c(-c4c(F)c(F)c(F)c(F)c4F)c4ccc([nH]4)c(-c4c(F)c(F)c(F)c(F)c4F)c4nc(c(-c5c(F)c(F)c(F)c(F)c5F)c5ccc2[nH]5)C=C4)C=C3)cc1)c1nc2ccccc2s1
REMARK SMILES IDX 22 1 21 2 20 3 18 4 19 5 17 7 16 8 15 9 14 10 1 11 2 12 3 13
REMARK SMILES IDX 4 14 12 15 13 16 5 17 6 18 11 19 7 20 8 21 9 22 10 23 91 24
REMARK SMILES IDX 92 25 99 26 93 27 98 28 94 29 97 30 95 31 96 32 23 33 24 34
REMARK SMILES IDX 25 35 26 36 27 38 28 39 29 40 90 41 30 42 89 43 31 44 32 45
REMARK SMILES IDX 33 46 83 47 34 48 88 49 82 50 84 51 35 52 87 53 81 54 80 55
REMARK SMILES IDX 36 57 68 58 48 59 67 60 49 61 52 62 66 63 85 64 50 65 51 66
REMARK SMILES IDX 65 68 86 69 53 70 37 71 38 72 46 73 39 74 40 75 44 76 47 77
REMARK SMILES IDX 41 78 42 79 45 80 43 81 69 82 70 83 78 84 71 85 72 86 76 87
REMARK SMILES IDX 79 88 73 89 74 90 77 91 75 92 54 93 55 94 63 95 56 96 57 97
REMARK SMILES IDX 61 98 64 99 58 100 59 101 62 102 60 103
REMARK H PARENT 20 6 25 37 84 56 52 67
REMARK Flexibility Score: inf
ROOT
ATOM      1  C   UNL A   1      32.222  28.735  27.432  1.00  0.00     0.023 C 
ENDROOT
BRANCH   1   2
ATOM      2  C   UNL A   1      31.428  27.887  26.437  1.00  0.00     0.116 C 
BRANCH   2   3
ATOM      3  N   UNL A   1      31.367  26.502  26.855  1.00  0.00    -0.356 N 
ATOM      4  C   UNL A   1      31.941  25.414  26.261  1.00  0.00     0.224 C 
ATOM      5  O   UNL A   1      31.598  24.291  26.630  1.00  0.00    -0.275 OA
ATOM      6  H   UNL A   1      30.846  26.322  27.671  1.00  0.00     0.163 HD
BRANCH   4   7
ATOM      7  C   UNL A   1      33.111  25.621  25.310  1.00  0.00     0.138 C 
BRANCH   7   8
ATOM      8  C   UNL A   1      32.992  25.087  23.889  1.00  0.00    -0.002 C 
ATOM      9  C   UNL A   1      32.477  25.800  22.852  1.00  0.00     0.019 C 
BRANCH   9  10
ATOM     10  C   UNL A   1      31.888  27.109  22.938  1.00  0.00     0.019 A 
ATOM     11  C   UNL A   1      33.989  28.661  23.145  1.00  0.00     0.069 C 
ATOM     12  C   UNL A   1      32.548  28.365  22.942  1.00  0.00     0.067 A 
ATOM     13  N   UNL A   1      31.677  29.366  22.752  1.00  0.00    -0.177 NA
ATOM     14  N   UNL A   1      30.475  28.758  22.698  1.00  0.00    -0.265 N 
ATOM     15  C   UNL A   1      30.553  27.442  23.103  1.00  0.00     0.043 A 
ATOM     16  C   UNL A   1      29.395  26.638  23.580  1.00  0.00     0.067 C 
BRANCH  14  17
ATOM     17  C   UNL A   1      29.310  29.527  22.269  1.00  0.00     0.123 C 
ATOM     18  C   UNL A   1      28.396  29.978  23.436  1.00  0.00     0.044 C 
ATOM     19  C   UNL A   1      29.667  30.831  21.559  1.00  0.00     0.164 C 
ATOM     20  C   UNL A   1      27.355  30.929  22.859  1.00  0.00     0.139 C 
ATOM     21  S   UNL A   1      28.168  31.772  21.522  1.00  0.00     0.152 S 
ATOM     22  O   UNL A   1      27.474  31.472  20.296  1.00  0.00    -0.229 OA
ATOM     23  O   UNL A   1      28.471  33.130  21.938  1.00  0.00    -0.229 OA
ENDBRANCH  14  17
ENDBRANCH   9  10
BRANCH   8  24
ATOM     24  C   UNL A   1      33.435  23.741  23.653  1.00  0.00     0.121 A 
ATOM     25  N   UNL A   1      32.712  22.836  23.026  1.00  0.00    -0.236 NA
ATOM     26  S   UNL A   1      34.816  23.098  24.465  1.00  0.00    -0.114 S 
ATOM     27  C   UNL A   1      33.014  21.580  23.508  1.00  0.00     0.082 A 
ATOM     28  C   UNL A   1      34.130  21.519  24.344  1.00  0.00     0.055 A 
ATOM     29  C   UNL A   1      32.255  20.415  23.291  1.00  0.00     0.030 A 
ATOM     30  C   UNL A   1      34.514  20.327  24.976  1.00  0.00     0.021 A 
ATOM     31  C   UNL A   1      32.581  19.243  23.979  1.00  0.00     0.002 A 
ATOM     32  C   UNL A   1      33.695  19.204  24.812  1.00  0.00     0.002 A 
ENDBRANCH   8  24
ENDBRANCH   7   8
ENDBRANCH   4   7
ENDBRANCH   2   3
ENDBRANCH   1   2
BRANCH   1  33
ATOM     33  C   UNL A   1      32.654  30.108  26.899  1.00  0.00     0.023 C 
BRANCH  33  34
ATOM     34  C   UNL A   1      34.047  30.523  27.343  1.00  0.00     0.116 C 
BRANCH  34  35
ATOM     35  N   UNL A   1      34.008  31.542  28.391  1.00  0.00    -0.352 N 
ATOM     36  C   UNL A   1      34.875  31.711  29.449  1.00  0.00     0.251 C 
ATOM     37  H   UNL A   1      33.268  32.191  28.333  1.00  0.00     0.163 HD
ATOM     38  O   UNL A   1      34.553  32.337  30.450  1.00  0.00    -0.269 OA
BRANCH  36  39
ATOM     39  C   UNL A   1      36.221  31.134  29.336  1.00  0.00     0.039 A 
ATOM     40  C   UNL A   1      37.346  31.935  29.127  1.00  0.00     0.014 A 
ATOM     41  C   UNL A   1      36.335  29.755  29.496  1.00  0.00     0.014 A 
ATOM     42  C   UNL A   1      38.604  31.341  29.156  1.00  0.00     0.010 A 
ATOM     43  C   UNL A   1      37.573  29.199  29.676  1.00  0.00     0.010 A 
ATOM     44  C   UNL A   1      38.707  29.973  29.445  1.00  0.00    -0.014 A 
BRANCH  44  45
ATOM     45  C   UNL A   1      40.006  29.332  29.607  1.00  0.00     0.031 A 
ATOM     46  C   UNL A   1      40.485  29.220  31.015  1.00  0.00     0.074 A 
ATOM     47  C   UNL A   1      40.585  28.660  28.587  1.00  0.00     0.049 A 
ATOM     48  N   UNL A   1      41.559  29.715  31.538  1.00  0.00    -0.248 NA
ATOM     49  C   UNL A   1      39.602  28.565  31.995  1.00  0.00     0.031 C 
ATOM     50  C   UNL A   1      40.040  28.397  27.248  1.00  0.00     0.029 A 
ATOM     51  N   UNL A   1      41.745  27.952  28.575  1.00  0.00    -0.354 N 
ATOM     52  C   UNL A   1      41.583  29.284  32.866  1.00  0.00     0.074 A 
ATOM     53  C   UNL A   1      40.281  28.732  33.132  1.00  0.00     0.031 C 
ATOM     54  C   UNL A   1      40.738  27.400  26.661  1.00  0.00     0.029 A 
ATOM     55  C   UNL A   1      41.881  27.087  27.496  1.00  0.00     0.049 A 
ATOM     56  H   UNL A   1      42.433  28.045  29.273  1.00  0.00     0.167 HD
ATOM     57  C   UNL A   1      42.751  29.208  33.564  1.00  0.00     0.037 A 
ATOM     58  C   UNL A   1      42.847  26.153  27.323  1.00  0.00     0.037 A 
ATOM     59  C   UNL A   1      43.786  29.966  32.909  1.00  0.00     0.049 A 
ATOM     60  C   UNL A   1      43.957  26.495  28.245  1.00  0.00     0.074 A 
ATOM     61  C   UNL A   1      43.965  31.299  32.596  1.00  0.00     0.029 A 
ATOM     62  N   UNL A   1      44.687  29.274  32.139  1.00  0.00    -0.354 N 
ATOM     63  N   UNL A   1      44.698  27.562  28.126  1.00  0.00    -0.248 NA
ATOM     64  C   UNL A   1      43.940  25.890  29.568  1.00  0.00     0.031 C 
ATOM     65  C   UNL A   1      44.601  31.290  31.320  1.00  0.00     0.029 A 
ATOM     66  C   UNL A   1      44.840  29.962  30.965  1.00  0.00     0.049 A 
ATOM     67  H   UNL A   1      45.141  28.436  32.385  1.00  0.00     0.167 HD
ATOM     68  C   UNL A   1      44.893  28.003  29.426  1.00  0.00     0.074 A 
ATOM     69  C   UNL A   1      44.481  26.887  30.273  1.00  0.00     0.031 C 
ATOM     70  C   UNL A   1      45.091  29.327  29.692  1.00  0.00     0.037 A 
BRANCH  57  71
ATOM     71  C   UNL A   1      43.080  28.163  34.609  1.00  0.00     0.064 A 
ATOM     72  C   UNL A   1      43.452  28.589  35.904  1.00  0.00     0.173 A 
ATOM     73  C   UNL A   1      43.350  26.809  34.322  1.00  0.00     0.173 A 
ATOM     74  F   UNL A   1      43.247  29.855  36.295  1.00  0.00    -0.203 F 
ATOM     75  C   UNL A   1      44.136  27.754  36.792  1.00  0.00     0.198 A 
ATOM     76  C   UNL A   1      43.984  25.963  35.232  1.00  0.00     0.198 A 
ATOM     77  F   UNL A   1      43.120  26.273  33.119  1.00  0.00    -0.203 F 
ATOM     78  F   UNL A   1      44.592  28.247  37.952  1.00  0.00    -0.200 F 
ATOM     79  C   UNL A   1      44.410  26.443  36.452  1.00  0.00     0.200 A 
ATOM     80  F   UNL A   1      44.253  24.698  34.877  1.00  0.00    -0.200 F 
ATOM     81  F   UNL A   1      45.124  25.661  37.270  1.00  0.00    -0.200 F 
ENDBRANCH  57  71
BRANCH  58  82
ATOM     82  C   UNL A   1      42.743  24.835  26.658  1.00  0.00     0.064 A 
ATOM     83  C   UNL A   1      43.414  24.569  25.455  1.00  0.00     0.173 A 
ATOM     84  C   UNL A   1      42.205  23.725  27.338  1.00  0.00     0.173 A 
ATOM     85  F   UNL A   1      44.002  25.566  24.780  1.00  0.00    -0.203 F 
ATOM     86  C   UNL A   1      43.552  23.265  24.967  1.00  0.00     0.198 A 
ATOM     87  C   UNL A   1      42.337  22.423  26.847  1.00  0.00     0.198 A 
ATOM     88  F   UNL A   1      41.642  23.879  28.544  1.00  0.00    -0.203 F 
ATOM     89  F   UNL A   1      44.254  23.041  23.848  1.00  0.00    -0.200 F 
ATOM     90  C   UNL A   1      43.019  22.194  25.667  1.00  0.00     0.200 A 
ATOM     91  F   UNL A   1      41.868  21.388  27.557  1.00  0.00    -0.200 F 
ATOM     92  F   UNL A   1      43.207  20.940  25.230  1.00  0.00    -0.200 F 
ENDBRANCH  58  82
BRANCH  70  93
ATOM     93  C   UNL A   1      45.367  30.247  28.537  1.00  0.00     0.064 A 
ATOM     94  C   UNL A   1      44.372  30.934  27.820  1.00  0.00     0.173 A 
ATOM     95  C   UNL A   1      46.700  30.588  28.277  1.00  0.00     0.173 A 
ATOM     96  F   UNL A   1      43.074  30.733  28.072  1.00  0.00    -0.203 F 
ATOM     97  C   UNL A   1      44.702  31.901  26.870  1.00  0.00     0.198 A 
ATOM     98  C   UNL A   1      47.026  31.579  27.356  1.00  0.00     0.198 A 
ATOM     99  F   UNL A   1      47.689  30.002  28.970  1.00  0.00    -0.203 F 
ATOM    100  F   UNL A   1      43.734  32.546  26.202  1.00  0.00    -0.200 F 
ATOM    101  C   UNL A   1      46.029  32.230  26.650  1.00  0.00     0.200 A 
ATOM    102  F   UNL A   1      48.308  31.928  27.181  1.00  0.00    -0.200 F 
ATOM    103  F   UNL A   1      46.345  33.199  25.778  1.00  0.00    -0.200 F 
ENDBRANCH  70  93
ENDBRANCH  44  45
ENDBRANCH  36  39
ENDBRANCH  34  35
ENDBRANCH  33  34
ENDBRANCH   1  33
TORSDOF 15
ENDMDL
MODEL 3
REMARK VINA RESULT:     -14.2      1.757      5.095
REMARK SMILES Cc1nn([C@H]2CCS(=O)(=O)C2)c(C)c1/C=C(\CC(=O)NCCCCNC(=O)c1ccc(-c2c3nc(c(-c4c(F)c(F)c(F)c(F)c4F)c4ccc([nH]4)c(-c4c(F)c(F)c(F)c(F)c4F)c4nc(c(-c5c(F)c(F)c(F)c(F)c5F)c5ccc2[nH]5)C=C4)C=C3)cc1)c1nc2ccccc2s1
REMARK SMILES IDX 22 1 21 2 20 3 18 4 19 5 17 7 16 8 15 9 14 10 1 11 2 12 3 13
REMARK SMILES IDX 4 14 12 15 13 16 5 17 6 18 11 19 7 20 8 21 9 22 10 23 91 24
REMARK SMILES IDX 92 25 99 26 93 27 98 28 94 29 97 30 95 31 96 32 23 33 24 34
REMARK SMILES IDX 25 35 26 36 27 38 28 39 29 40 90 41 30 42 89 43 31 44 32 45
REMARK SMILES IDX 33 46 83 47 34 48 88 49 82 50 84 51 35 52 87 53 81 54 80 55
REMARK SMILES IDX 36 57 68 58 48 59 67 60 49 61 52 62 66 63 85 64 50 65 51 66
REMARK SMILES IDX 65 68 86 69 53 70 37 71 38 72 46 73 39 74 40 75 44 76 47 77
REMARK SMILES IDX 41 78 42 79 45 80 43 81 69 82 70 83 78 84 71 85 72 86 76 87
REMARK SMILES IDX 79 88 73 89 74 90 77 91 75 92 54 93 55 94 63 95 56 96 57 97
REMARK SMILES IDX 61 98 64 99 58 100 59 101 62 102 60 103
REMARK H PARENT 20 6 25 37 84 56 52 67
REMARK Flexibility Score: inf
ROOT
ATOM      1  C   UNL A   1      37.226  20.786  25.182  1.00  0.00     0.023 C 
ENDROOT
BRANCH   1   2
ATOM      2  C   UNL A   1      35.829  21.079  24.631  1.00  0.00     0.116 C 
BRANCH   2   3
ATOM      3  N   UNL A   1      35.018  21.787  25.600  1.00  0.00    -0.356 N 
ATOM      4  C   UNL A   1      34.184  22.847  25.389  1.00  0.00     0.224 C 
ATOM      5  O   UNL A   1      33.748  23.459  26.364  1.00  0.00    -0.275 OA
ATOM      6  H   UNL A   1      35.077  21.463  26.528  1.00  0.00     0.163 HD
BRANCH   4   7
ATOM      7  C   UNL A   1      33.669  23.116  23.982  1.00  0.00     0.138 C 
BRANCH   7   8
ATOM      8  C   UNL A   1      32.280  22.616  23.610  1.00  0.00    -0.002 C 
ATOM      9  C   UNL A   1      31.268  23.427  23.200  1.00  0.00     0.019 C 
BRANCH   9  10
ATOM     10  C   UNL A   1      31.309  24.862  23.138  1.00  0.00     0.019 A 
ATOM     11  C   UNL A   1      32.894  25.296  21.097  1.00  0.00     0.069 C 
ATOM     12  C   UNL A   1      31.916  25.678  22.149  1.00  0.00     0.067 A 
ATOM     13  N   UNL A   1      31.517  26.952  22.264  1.00  0.00    -0.177 NA
ATOM     14  N   UNL A   1      30.723  26.956  23.353  1.00  0.00    -0.265 N 
ATOM     15  C   UNL A   1      30.823  25.777  24.060  1.00  0.00     0.043 A 
ATOM     16  C   UNL A   1      30.450  25.620  25.492  1.00  0.00     0.067 C 
BRANCH  14  17
ATOM     17  C   UNL A   1      29.924  28.144  23.643  1.00  0.00     0.123 C 
ATOM     18  C   UNL A   1      30.769  29.381  24.038  1.00  0.00     0.044 C 
ATOM     19  C   UNL A   1      29.097  28.630  22.454  1.00  0.00     0.164 C 
ATOM     20  C   UNL A   1      29.824  30.575  24.107  1.00  0.00     0.139 C 
ATOM     21  S   UNL A   1      28.574  30.265  22.883  1.00  0.00     0.152 S 
ATOM     22  O   UNL A   1      27.295  30.176  23.540  1.00  0.00    -0.229 OA
ATOM     23  O   UNL A   1      28.808  31.133  21.741  1.00  0.00    -0.229 OA
ENDBRANCH  14  17
ENDBRANCH   9  10
BRANCH   8  24
ATOM     24  C   UNL A   1      32.036  21.205  23.727  1.00  0.00     0.121 A 
ATOM     25  N   UNL A   1      32.015  20.564  24.876  1.00  0.00    -0.236 NA
ATOM     26  S   UNL A   1      32.080  20.172  22.345  1.00  0.00    -0.114 S 
ATOM     27  C   UNL A   1      32.434  19.263  24.693  1.00  0.00     0.082 A 
ATOM     28  C   UNL A   1      32.558  18.862  23.363  1.00  0.00     0.055 A 
ATOM     29  C   UNL A   1      32.812  18.372  25.716  1.00  0.00     0.030 A 
ATOM     30  C   UNL A   1      33.052  17.595  23.016  1.00  0.00     0.021 A 
ATOM     31  C   UNL A   1      33.381  17.141  25.380  1.00  0.00     0.002 A 
ATOM     32  C   UNL A   1      33.501  16.762  24.047  1.00  0.00     0.002 A 
ENDBRANCH   8  24
ENDBRANCH   7   8
ENDBRANCH   4   7
ENDBRANCH   2   3
ENDBRANCH   1   2
BRANCH   1  33
ATOM     33  C   UNL A   1      38.127  22.021  25.326  1.00  0.00     0.023 C 
BRANCH  33  34
ATOM     34  C   UNL A   1      39.147  21.903  26.446  1.00  0.00     0.116 C 
BRANCH  34  35
ATOM     35  N   UNL A   1      40.508  21.745  25.935  1.00  0.00    -0.352 N 
ATOM     36  C   UNL A   1      41.500  22.697  25.846  1.00  0.00     0.251 C 
ATOM     37  H   UNL A   1      40.745  20.844  25.614  1.00  0.00     0.163 HD
ATOM     38  O   UNL A   1      42.447  22.568  25.081  1.00  0.00    -0.269 OA
BRANCH  36  39
ATOM     39  C   UNL A   1      41.407  23.874  26.720  1.00  0.00     0.039 A 
ATOM     40  C   UNL A   1      42.100  23.944  27.931  1.00  0.00     0.014 A 
ATOM     41  C   UNL A   1      40.637  24.941  26.265  1.00  0.00     0.014 A 
ATOM     42  C   UNL A   1      42.070  25.135  28.650  1.00  0.00     0.010 A 
ATOM     43  C   UNL A   1      40.732  26.154  26.892  1.00  0.00     0.010 A 
ATOM     44  C   UNL A   1      41.393  26.240  28.114  1.00  0.00    -0.014 A 
BRANCH  44  45
ATOM     45  C   UNL A   1      41.436  27.542  28.769  1.00  0.00     0.031 A 
ATOM     46  C   UNL A   1      42.576  28.415  28.366  1.00  0.00     0.074 A 
ATOM     47  C   UNL A   1      40.378  28.006  29.471  1.00  0.00     0.049 A 
ATOM     48  N   UNL A   1      43.514  28.903  29.109  1.00  0.00    -0.248 NA
ATOM     49  C   UNL A   1      42.758  28.694  26.930  1.00  0.00     0.031 C 
ATOM     50  C   UNL A   1      39.058  27.382  29.641  1.00  0.00     0.029 A 
ATOM     51  N   UNL A   1      40.215  29.208  30.083  1.00  0.00    -0.354 N 
ATOM     52  C   UNL A   1      44.302  29.698  28.275  1.00  0.00     0.074 A 
ATOM     53  C   UNL A   1      43.894  29.394  26.929  1.00  0.00     0.031 C 
ATOM     54  C   UNL A   1      38.174  28.303  30.083  1.00  0.00     0.029 A 
ATOM     55  C   UNL A   1      38.899  29.518  30.401  1.00  0.00     0.049 A 
ATOM     56  H   UNL A   1      40.968  29.809  30.285  1.00  0.00     0.167 HD
ATOM     57  C   UNL A   1      45.064  30.711  28.776  1.00  0.00     0.037 A 
ATOM     58  C   UNL A   1      38.435  30.706  30.860  1.00  0.00     0.037 A 
ATOM     59  C   UNL A   1      45.229  30.568  30.200  1.00  0.00     0.049 A 
ATOM     60  C   UNL A   1      39.603  31.467  31.366  1.00  0.00     0.074 A 
ATOM     61  C   UNL A   1      45.805  29.619  31.021  1.00  0.00     0.029 A 
ATOM     62  N   UNL A   1      44.427  31.330  31.010  1.00  0.00    -0.354 N 
ATOM     63  N   UNL A   1      40.300  31.116  32.411  1.00  0.00    -0.248 NA
ATOM     64  C   UNL A   1      40.275  32.358  30.434  1.00  0.00     0.031 C 
ATOM     65  C   UNL A   1      44.949  29.555  32.159  1.00  0.00     0.029 A 
ATOM     66  C   UNL A   1      43.948  30.515  32.001  1.00  0.00     0.049 A 
ATOM     67  H   UNL A   1      44.231  32.288  30.901  1.00  0.00     0.167 HD
ATOM     68  C   UNL A   1      41.615  31.387  32.064  1.00  0.00     0.074 A 
ATOM     69  C   UNL A   1      41.530  32.231  30.876  1.00  0.00     0.031 C 
ATOM     70  C   UNL A   1      42.642  30.663  32.598  1.00  0.00     0.037 A 
BRANCH  57  71
ATOM     71  C   UNL A   1      45.341  32.026  28.078  1.00  0.00     0.064 A 
ATOM     72  C   UNL A   1      44.251  32.852  27.724  1.00  0.00     0.173 A 
ATOM     73  C   UNL A   1      46.570  32.360  27.471  1.00  0.00     0.173 A 
ATOM     74  F   UNL A   1      43.031  32.633  28.235  1.00  0.00    -0.203 F 
ATOM     75  C   UNL A   1      44.364  33.857  26.759  1.00  0.00     0.198 A 
ATOM     76  C   UNL A   1      46.690  33.400  26.549  1.00  0.00     0.198 A 
ATOM     77  F   UNL A   1      47.678  31.634  27.651  1.00  0.00    -0.203 F 
ATOM     78  F   UNL A   1      43.270  34.517  26.355  1.00  0.00    -0.200 F 
ATOM     79  C   UNL A   1      45.582  34.123  26.164  1.00  0.00     0.200 A 
ATOM     80  F   UNL A   1      47.879  33.634  25.974  1.00  0.00    -0.200 F 
ATOM     81  F   UNL A   1      45.681  35.037  25.191  1.00  0.00    -0.200 F 
ENDBRANCH  57  71
BRANCH  58  82
ATOM     82  C   UNL A   1      37.121  31.340  30.605  1.00  0.00     0.064 A 
ATOM     83  C   UNL A   1      36.214  31.582  31.646  1.00  0.00     0.173 A 
ATOM     84  C   UNL A   1      36.853  31.971  29.375  1.00  0.00     0.173 A 
ATOM     85  F   UNL A   1      36.432  31.064  32.862  1.00  0.00    -0.203 F 
ATOM     86  C   UNL A   1      35.107  32.420  31.471  1.00  0.00     0.198 A 
ATOM     87  C   UNL A   1      35.744  32.802  29.198  1.00  0.00     0.198 A 
ATOM     88  F   UNL A   1      37.726  31.877  28.362  1.00  0.00    -0.203 F 
ATOM     89  F   UNL A   1      34.295  32.680  32.506  1.00  0.00    -0.200 F 
ATOM     90  C   UNL A   1      34.877  33.033  30.250  1.00  0.00     0.200 A 
ATOM     91  F   UNL A   1      35.559  33.436  28.031  1.00  0.00    -0.200 F 
ATOM     92  F   UNL A   1      33.852  33.885  30.103  1.00  0.00    -0.200 F 
ENDBRANCH  58  82
BRANCH  70  93
ATOM     93  C   UNL A   1      42.342  29.764  33.765  1.00  0.00     0.064 A 
ATOM     94  C   UNL A   1      41.929  28.426  33.644  1.00  0.00     0.173 A 
ATOM     95  C   UNL A   1      42.670  30.225  35.046  1.00  0.00     0.173 A 
ATOM     96  F   UNL A   1      41.684  27.883  32.446  1.00  0.00    -0.203 F 
ATOM     97  C   UNL A   1      41.829  27.597  34.761  1.00  0.00     0.198 A 
ATOM     98  C   UNL A   1      42.605  29.385  36.154  1.00  0.00     0.198 A 
ATOM     99  F   UNL A   1      43.120  31.479  35.212  1.00  0.00    -0.203 F 
ATOM    100  F   UNL A   1      41.438  26.322  34.619  1.00  0.00    -0.200 F 
ATOM    101  C   UNL A   1      42.180  28.075  36.012  1.00  0.00     0.200 A 
ATOM    102  F   UNL A   1      42.993  29.838  37.354  1.00  0.00    -0.200 F 
ATOM    103  F   UNL A   1      42.139  27.263  37.078  1.00  0.00    -0.200 F 
ENDBRANCH  70  93
ENDBRANCH  44  45
ENDBRANCH  36  39
ENDBRANCH  34  35
ENDBRANCH  33  34
ENDBRANCH   1  33
TORSDOF 15
ENDMDL
