MODEL 1
REMARK VINA RESULT:     -11.9      0.000      0.000
REMARK SMILES C[C@H]([C@@H](C)O)[N@H+]1CC[C@@](C)(C(=O)NCCCCNC(=O)c2ccc(-c3c4nc(c(-c5c(F)c(F)c(F)c(F)c5F)c5ccc([nH]5)c(-c5c(F)c(F)c(F)c(F)c5F)c5nc(c(-c6c(F)c(F)c(F)c(F)c6F)c6ccc3[nH]6)C=C5)C=C4)cc2)C1
REMARK SMILES IDX 15 1 14 2 13 3 11 4 12 5 9 7 6 8 7 9 84 10 8 12 10 13 2 14
REMARK SMILES IDX 1 15 3 16 4 17 5 18 16 20 17 21 18 22 19 23 20 25 21 26
REMARK SMILES IDX 22 27 83 28 23 29 82 30 24 31 25 32 26 33 76 34 27 35 81 36
REMARK SMILES IDX 75 37 77 38 28 39 80 40 74 41 73 42 29 44 61 45 41 46 60 47
REMARK SMILES IDX 42 48 45 49 59 50 78 51 43 52 44 53 58 55 79 56 46 57 30 58
REMARK SMILES IDX 31 59 39 60 32 61 33 62 37 63 40 64 34 65 35 66 38 67 36 68
REMARK SMILES IDX 62 69 63 70 71 71 64 72 65 73 69 74 72 75 66 76 67 77 70 78
REMARK SMILES IDX 68 79 47 80 48 81 56 82 49 83 50 84 54 85 57 86 51 87 52 88
REMARK SMILES IDX 55 89 53 90
REMARK H PARENT 13 6 6 11 5 19 18 24 77 43 45 54
REMARK Flexibility Score: inf
ROOT
ATOM      1  C   UNL A   1      31.562  30.918  25.943  1.00  0.00     0.023 C 
ENDROOT
BRANCH   1   2
ATOM      2  C   UNL A   1      32.839  30.099  26.141  1.00  0.00     0.116 C 
BRANCH   2   3
ATOM      3  N   UNL A   1      33.400  29.702  24.866  1.00  0.00    -0.355 N 
ATOM      4  C   UNL A   1      33.136  28.636  24.058  1.00  0.00     0.231 C 
ATOM      5  O   UNL A   1      33.828  28.562  23.040  1.00  0.00    -0.274 OA
ATOM      6  H   UNL A   1      34.097  30.308  24.524  1.00  0.00     0.163 HD
BRANCH   4   7
ATOM      7  C   UNL A   1      31.981  27.648  24.351  1.00  0.00     0.100 C 
ATOM      8  N   UNL A   1      30.022  28.060  23.004  1.00  0.00    -0.330 N 
ATOM      9  C   UNL A   1      30.990  27.362  22.189  1.00  0.00     0.263 C 
ATOM     10  C   UNL A   1      30.615  28.394  24.302  1.00  0.00     0.279 C 
ATOM     11  H   UNL A   1      29.270  27.394  23.182  1.00  0.00     0.348 HD
ATOM     12  C   UNL A   1      31.771  26.605  23.247  1.00  0.00     0.084 C 
ATOM     13  C   UNL A   1      32.226  27.024  25.734  1.00  0.00     0.028 C 
BRANCH   8  14
ATOM     14  C   UNL A   1      28.996  28.919  22.405  1.00  0.00     0.209 C 
ATOM     15  C   UNL A   1      29.594  30.154  21.699  1.00  0.00     0.078 C 
BRANCH  14  16
ATOM     16  C   UNL A   1      27.785  29.323  23.305  1.00  0.00     0.169 C 
ATOM     17  C   UNL A   1      27.605  30.826  23.490  1.00  0.00     0.045 C 
BRANCH  16  18
ATOM     18  O   UNL A   1      26.565  28.773  22.786  1.00  0.00    -0.387 OA
ATOM     19  H   UNL A   1      25.811  29.277  23.131  1.00  0.00     0.211 HD
ENDBRANCH  16  18
ENDBRANCH  14  16
ENDBRANCH   8  14
ENDBRANCH   4   7
ENDBRANCH   2   3
ENDBRANCH   1   2
BRANCH   1  20
ATOM     20  C   UNL A   1      31.377  32.064  26.938  1.00  0.00     0.023 C 
BRANCH  20  21
ATOM     21  C   UNL A   1      32.644  32.841  27.269  1.00  0.00     0.116 C 
BRANCH  21  22
ATOM     22  N   UNL A   1      32.390  34.228  27.630  1.00  0.00    -0.352 N 
ATOM     23  C   UNL A   1      33.027  34.997  28.572  1.00  0.00     0.251 C 
ATOM     24  H   UNL A   1      31.667  34.673  27.133  1.00  0.00     0.163 HD
ATOM     25  O   UNL A   1      32.624  36.125  28.833  1.00  0.00    -0.269 OA
BRANCH  23  26
ATOM     26  C   UNL A   1      34.179  34.434  29.302  1.00  0.00     0.039 A 
ATOM     27  C   UNL A   1      33.944  33.709  30.471  1.00  0.00     0.014 A 
ATOM     28  C   UNL A   1      35.477  34.583  28.806  1.00  0.00     0.014 A 
ATOM     29  C   UNL A   1      35.007  33.069  31.108  1.00  0.00     0.010 A 
ATOM     30  C   UNL A   1      36.524  33.891  29.403  1.00  0.00     0.010 A 
ATOM     31  C   UNL A   1      36.298  33.123  30.555  1.00  0.00    -0.014 A 
BRANCH  31  32
ATOM     32  C   UNL A   1      37.423  32.371  31.160  1.00  0.00     0.031 A 
ATOM     33  C   UNL A   1      37.931  32.742  32.522  1.00  0.00     0.074 A 
ATOM     34  C   UNL A   1      38.032  31.405  30.446  1.00  0.00     0.049 A 
ATOM     35  N   UNL A   1      38.948  32.254  33.186  1.00  0.00    -0.248 NA
ATOM     36  C   UNL A   1      37.220  33.825  33.218  1.00  0.00     0.031 C 
ATOM     37  C   UNL A   1      37.662  30.993  29.090  1.00  0.00     0.029 A 
ATOM     38  N   UNL A   1      39.101  30.603  30.756  1.00  0.00    -0.354 N 
ATOM     39  C   UNL A   1      39.007  32.979  34.368  1.00  0.00     0.074 A 
ATOM     40  C   UNL A   1      37.957  33.974  34.309  1.00  0.00     0.031 C 
ATOM     41  C   UNL A   1      38.477  30.003  28.693  1.00  0.00     0.029 A 
ATOM     42  C   UNL A   1      39.447  29.733  29.750  1.00  0.00     0.049 A 
ATOM     43  H   UNL A   1      39.575  30.647  31.618  1.00  0.00     0.167 HD
ATOM     44  C   UNL A   1      39.847  32.815  35.417  1.00  0.00     0.037 A 
ATOM     45  C   UNL A   1      40.439  28.826  29.687  1.00  0.00     0.037 A 
ATOM     46  C   UNL A   1      40.871  31.806  35.482  1.00  0.00     0.049 A 
ATOM     47  C   UNL A   1      41.356  28.662  30.868  1.00  0.00     0.074 A 
ATOM     48  C   UNL A   1      41.726  31.510  36.528  1.00  0.00     0.029 A 
ATOM     49  N   UNL A   1      41.181  30.930  34.452  1.00  0.00    -0.354 N 
ATOM     50  N   UNL A   1      41.356  29.301  32.011  1.00  0.00    -0.248 NA
ATOM     51  C   UNL A   1      42.411  27.644  30.749  1.00  0.00     0.031 C 
ATOM     52  C   UNL A   1      42.580  30.481  36.117  1.00  0.00     0.029 A 
ATOM     53  C   UNL A   1      42.229  30.107  34.830  1.00  0.00     0.049 A 
ATOM     54  H   UNL A   1      40.722  30.898  33.581  1.00  0.00     0.167 HD
ATOM     55  C   UNL A   1      42.390  28.752  32.757  1.00  0.00     0.074 A 
ATOM     56  C   UNL A   1      42.986  27.714  31.941  1.00  0.00     0.031 C 
ATOM     57  C   UNL A   1      42.808  29.079  34.004  1.00  0.00     0.037 A 
BRANCH  44  58
ATOM     58  C   UNL A   1      39.686  33.744  36.584  1.00  0.00     0.064 A 
ATOM     59  C   UNL A   1      40.326  34.993  36.623  1.00  0.00     0.173 A 
ATOM     60  C   UNL A   1      38.861  33.395  37.664  1.00  0.00     0.173 A 
ATOM     61  F   UNL A   1      41.136  35.367  35.621  1.00  0.00    -0.203 F 
ATOM     62  C   UNL A   1      40.169  35.844  37.714  1.00  0.00     0.198 A 
ATOM     63  C   UNL A   1      38.685  34.262  38.739  1.00  0.00     0.198 A 
ATOM     64  F   UNL A   1      38.223  32.216  37.675  1.00  0.00    -0.203 F 
ATOM     65  F   UNL A   1      40.831  37.010  37.751  1.00  0.00    -0.200 F 
ATOM     66  C   UNL A   1      39.344  35.481  38.767  1.00  0.00     0.200 A 
ATOM     67  F   UNL A   1      37.877  33.916  39.752  1.00  0.00    -0.200 F 
ATOM     68  F   UNL A   1      39.191  36.305  39.813  1.00  0.00    -0.200 F 
ENDBRANCH  44  58
BRANCH  45  69
ATOM     69  C   UNL A   1      40.597  27.985  28.474  1.00  0.00     0.064 A 
ATOM     70  C   UNL A   1      39.979  26.730  28.385  1.00  0.00     0.173 A 
ATOM     71  C   UNL A   1      41.361  28.416  27.380  1.00  0.00     0.173 A 
ATOM     72  F   UNL A   1      39.254  26.268  29.415  1.00  0.00    -0.203 F 
ATOM     73  C   UNL A   1      40.132  25.930  27.255  1.00  0.00     0.198 A 
ATOM     74  C   UNL A   1      41.493  27.626  26.240  1.00  0.00     0.198 A 
ATOM     75  F   UNL A   1      41.969  29.611  27.414  1.00  0.00    -0.203 F 
ATOM     76  F   UNL A   1      39.562  24.719  27.213  1.00  0.00    -0.200 F 
ATOM     77  C   UNL A   1      40.884  26.380  26.181  1.00  0.00     0.200 A 
ATOM     78  F   UNL A   1      42.209  28.070  25.198  1.00  0.00    -0.200 F 
ATOM     79  F   UNL A   1      41.027  25.613  25.092  1.00  0.00    -0.200 F 
ENDBRANCH  45  69
BRANCH  57  80
ATOM     80  C   UNL A   1      43.951  28.291  34.571  1.00  0.00     0.064 A 
ATOM     81  C   UNL A   1      45.278  28.732  34.449  1.00  0.00     0.173 A 
ATOM     82  C   UNL A   1      43.715  27.104  35.279  1.00  0.00     0.173 A 
ATOM     83  F   UNL A   1      45.556  29.853  33.766  1.00  0.00    -0.203 F 
ATOM     84  C   UNL A   1      46.327  28.000  34.997  1.00  0.00     0.198 A 
ATOM     85  C   UNL A   1      44.764  26.389  35.850  1.00  0.00     0.198 A 
ATOM     86  F   UNL A   1      42.464  26.643  35.427  1.00  0.00    -0.203 F 
ATOM     87  F   UNL A   1      47.590  28.417  34.832  1.00  0.00    -0.200 F 
ATOM     88  C   UNL A   1      46.069  26.834  35.704  1.00  0.00     0.200 A 
ATOM     89  F   UNL A   1      44.512  25.269  36.542  1.00  0.00    -0.200 F 
ATOM     90  F   UNL A   1      47.080  26.136  36.237  1.00  0.00    -0.200 F 
ENDBRANCH  57  80
ENDBRANCH  31  32
ENDBRANCH  23  26
ENDBRANCH  21  22
ENDBRANCH  20  21
ENDBRANCH   1  20
TORSDOF 14
ENDMDL
MODEL 2
REMARK VINA RESULT:     -11.9      0.524      7.631
REMARK SMILES C[C@H]([C@@H](C)O)[N@H+]1CC[C@@](C)(C(=O)NCCCCNC(=O)c2ccc(-c3c4nc(c(-c5c(F)c(F)c(F)c(F)c5F)c5ccc([nH]5)c(-c5c(F)c(F)c(F)c(F)c5F)c5nc(c(-c6c(F)c(F)c(F)c(F)c6F)c6ccc3[nH]6)C=C5)C=C4)cc2)C1
REMARK SMILES IDX 15 1 14 2 13 3 11 4 12 5 9 7 6 8 7 9 84 10 8 12 10 13 2 14
REMARK SMILES IDX 1 15 3 16 4 17 5 18 16 20 17 21 18 22 19 23 20 25 21 26
REMARK SMILES IDX 22 27 83 28 23 29 82 30 24 31 25 32 26 33 76 34 27 35 81 36
REMARK SMILES IDX 75 37 77 38 28 39 80 40 74 41 73 42 29 44 61 45 41 46 60 47
REMARK SMILES IDX 42 48 45 49 59 50 78 51 43 52 44 53 58 55 79 56 46 57 30 58
REMARK SMILES IDX 31 59 39 60 32 61 33 62 37 63 40 64 34 65 35 66 38 67 36 68
REMARK SMILES IDX 62 69 63 70 71 71 64 72 65 73 69 74 72 75 66 76 67 77 70 78
REMARK SMILES IDX 68 79 47 80 48 81 56 82 49 83 50 84 54 85 57 86 51 87 52 88
REMARK SMILES IDX 55 89 53 90
REMARK H PARENT 13 6 6 11 5 19 18 24 77 43 45 54
REMARK Flexibility Score: inf
ROOT
ATOM      1  C   UNL A   1      31.664  30.541  26.833  1.00  0.00     0.023 C 
ENDROOT
BRANCH   1   2
ATOM      2  C   UNL A   1      32.993  29.805  26.651  1.00  0.00     0.116 C 
BRANCH   2   3
ATOM      3  N   UNL A   1      33.380  29.776  25.256  1.00  0.00    -0.355 N 
ATOM      4  C   UNL A   1      33.028  28.936  24.240  1.00  0.00     0.231 C 
ATOM      5  O   UNL A   1      33.573  29.160  23.157  1.00  0.00    -0.274 OA
ATOM      6  H   UNL A   1      34.009  30.486  24.994  1.00  0.00     0.163 HD
BRANCH   4   7
ATOM      7  C   UNL A   1      31.946  27.843  24.414  1.00  0.00     0.100 C 
ATOM      8  N   UNL A   1      30.020  28.188  23.003  1.00  0.00    -0.330 N 
ATOM      9  C   UNL A   1      31.076  27.624  22.193  1.00  0.00     0.263 C 
ATOM     10  C   UNL A   1      30.526  28.481  24.346  1.00  0.00     0.279 C 
ATOM     11  H   UNL A   1      29.317  27.455  23.101  1.00  0.00     0.348 HD
ATOM     12  C   UNL A   1      31.869  26.862  23.238  1.00  0.00     0.084 C 
ATOM     13  C   UNL A   1      32.180  27.149  25.766  1.00  0.00     0.028 C 
BRANCH   8  14
ATOM     14  C   UNL A   1      28.955  29.002  22.409  1.00  0.00     0.209 C 
ATOM     15  C   UNL A   1      29.494  30.259  21.696  1.00  0.00     0.078 C 
BRANCH  14  16
ATOM     16  C   UNL A   1      27.734  29.357  23.317  1.00  0.00     0.169 C 
ATOM     17  C   UNL A   1      27.507  30.852  23.520  1.00  0.00     0.045 C 
BRANCH  16  18
ATOM     18  O   UNL A   1      26.531  28.775  22.795  1.00  0.00    -0.387 OA
ATOM     19  H   UNL A   1      25.842  29.456  22.734  1.00  0.00     0.211 HD
ENDBRANCH  16  18
ENDBRANCH  14  16
ENDBRANCH   8  14
ENDBRANCH   4   7
ENDBRANCH   2   3
ENDBRANCH   1   2
BRANCH   1  20
ATOM     20  C   UNL A   1      31.727  32.047  26.576  1.00  0.00     0.023 C 
BRANCH  20  21
ATOM     21  C   UNL A   1      32.812  32.787  27.347  1.00  0.00     0.116 C 
BRANCH  21  22
ATOM     22  N   UNL A   1      32.454  34.161  27.665  1.00  0.00    -0.352 N 
ATOM     23  C   UNL A   1      33.016  34.996  28.598  1.00  0.00     0.251 C 
ATOM     24  H   UNL A   1      31.712  34.542  27.143  1.00  0.00     0.163 HD
ATOM     25  O   UNL A   1      32.530  36.100  28.821  1.00  0.00    -0.269 OA
BRANCH  23  26
ATOM     26  C   UNL A   1      34.189  34.534  29.364  1.00  0.00     0.039 A 
ATOM     27  C   UNL A   1      33.986  33.940  30.611  1.00  0.00     0.014 A 
ATOM     28  C   UNL A   1      35.476  34.648  28.832  1.00  0.00     0.014 A 
ATOM     29  C   UNL A   1      35.070  33.390  31.294  1.00  0.00     0.010 A 
ATOM     30  C   UNL A   1      36.545  34.041  29.482  1.00  0.00     0.010 A 
ATOM     31  C   UNL A   1      36.350  33.402  30.715  1.00  0.00    -0.014 A 
BRANCH  31  32
ATOM     32  C   UNL A   1      37.498  32.738  31.378  1.00  0.00     0.031 A 
ATOM     33  C   UNL A   1      38.195  31.592  30.707  1.00  0.00     0.074 A 
ATOM     34  C   UNL A   1      37.857  33.120  32.618  1.00  0.00     0.049 A 
ATOM     35  N   UNL A   1      39.166  30.836  31.155  1.00  0.00    -0.248 NA
ATOM     36  C   UNL A   1      37.720  31.226  29.364  1.00  0.00     0.031 C 
ATOM     37  C   UNL A   1      37.218  34.185  33.394  1.00  0.00     0.029 A 
ATOM     38  N   UNL A   1      38.841  32.648  33.450  1.00  0.00    -0.354 N 
ATOM     39  C   UNL A   1      39.406  29.901  30.158  1.00  0.00     0.074 A 
ATOM     40  C   UNL A   1      38.446  30.150  29.103  1.00  0.00     0.031 C 
ATOM     41  C   UNL A   1      37.838  34.298  34.580  1.00  0.00     0.029 A 
ATOM     42  C   UNL A   1      38.893  33.293  34.662  1.00  0.00     0.049 A 
ATOM     43  H   UNL A   1      39.450  31.915  33.203  1.00  0.00     0.167 HD
ATOM     44  C   UNL A   1      40.355  28.937  30.117  1.00  0.00     0.037 A 
ATOM     45  C   UNL A   1      39.699  33.091  35.721  1.00  0.00     0.037 A 
ATOM     46  C   UNL A   1      41.325  28.713  31.156  1.00  0.00     0.049 A 
ATOM     47  C   UNL A   1      40.748  32.015  35.648  1.00  0.00     0.074 A 
ATOM     48  C   UNL A   1      42.373  27.811  31.179  1.00  0.00     0.029 A 
ATOM     49  N   UNL A   1      41.360  29.399  32.362  1.00  0.00    -0.354 N 
ATOM     50  N   UNL A   1      41.016  31.186  34.670  1.00  0.00    -0.248 NA
ATOM     51  C   UNL A   1      41.610  31.851  36.828  1.00  0.00     0.031 C 
ATOM     52  C   UNL A   1      43.019  27.922  32.416  1.00  0.00     0.029 A 
ATOM     53  C   UNL A   1      42.399  28.923  33.146  1.00  0.00     0.049 A 
ATOM     54  H   UNL A   1      40.739  30.117  32.622  1.00  0.00     0.167 HD
ATOM     55  C   UNL A   1      42.087  30.418  35.103  1.00  0.00     0.074 A 
ATOM     56  C   UNL A   1      42.432  30.892  36.428  1.00  0.00     0.031 C 
ATOM     57  C   UNL A   1      42.727  29.409  34.461  1.00  0.00     0.037 A 
BRANCH  44  58
ATOM     58  C   UNL A   1      40.395  28.057  28.902  1.00  0.00     0.064 A 
ATOM     59  C   UNL A   1      41.155  28.397  27.772  1.00  0.00     0.173 A 
ATOM     60  C   UNL A   1      39.689  26.845  28.878  1.00  0.00     0.173 A 
ATOM     61  F   UNL A   1      41.838  29.551  27.741  1.00  0.00    -0.203 F 
ATOM     62  C   UNL A   1      41.181  27.571  26.652  1.00  0.00     0.198 A 
ATOM     63  C   UNL A   1      39.741  26.008  27.766  1.00  0.00     0.198 A 
ATOM     64  F   UNL A   1      38.951  26.470  29.934  1.00  0.00    -0.203 F 
ATOM     65  F   UNL A   1      41.873  27.942  25.565  1.00  0.00    -0.200 F 
ATOM     66  C   UNL A   1      40.480  26.375  26.652  1.00  0.00     0.200 A 
ATOM     67  F   UNL A   1      39.072  24.846  27.772  1.00  0.00    -0.200 F 
ATOM     68  F   UNL A   1      40.511  25.579  25.574  1.00  0.00    -0.200 F 
ENDBRANCH  44  58
BRANCH  45  69
ATOM     69  C   UNL A   1      39.563  33.945  36.928  1.00  0.00     0.064 A 
ATOM     70  C   UNL A   1      40.205  35.189  37.003  1.00  0.00     0.173 A 
ATOM     71  C   UNL A   1      38.789  33.542  38.025  1.00  0.00     0.173 A 
ATOM     72  F   UNL A   1      40.972  35.608  35.985  1.00  0.00    -0.203 F 
ATOM     73  C   UNL A   1      40.092  35.990  38.137  1.00  0.00     0.198 A 
ATOM     74  C   UNL A   1      38.656  34.356  39.149  1.00  0.00     0.198 A 
ATOM     75  F   UNL A   1      38.151  32.363  38.001  1.00  0.00    -0.203 F 
ATOM     76  F   UNL A   1      40.748  37.157  38.197  1.00  0.00    -0.200 F 
ATOM     77  C   UNL A   1      39.314  35.576  39.206  1.00  0.00     0.200 A 
ATOM     78  F   UNL A   1      37.892  33.958  40.175  1.00  0.00    -0.200 F 
ATOM     79  F   UNL A   1      39.201  36.349  40.295  1.00  0.00    -0.200 F 
ENDBRANCH  45  69
BRANCH  57  80
ATOM     80  C   UNL A   1      43.879  28.767  35.174  1.00  0.00     0.064 A 
ATOM     81  C   UNL A   1      43.703  27.632  35.980  1.00  0.00     0.173 A 
ATOM     82  C   UNL A   1      45.181  29.266  35.018  1.00  0.00     0.173 A 
ATOM     83  F   UNL A   1      42.475  27.127  36.175  1.00  0.00    -0.203 F 
ATOM     84  C   UNL A   1      44.784  27.034  36.620  1.00  0.00     0.198 A 
ATOM     85  C   UNL A   1      46.264  28.649  35.637  1.00  0.00     0.198 A 
ATOM     86  F   UNL A   1      45.403  30.346  34.254  1.00  0.00    -0.203 F 
ATOM     87  F   UNL A   1      44.587  25.977  37.420  1.00  0.00    -0.200 F 
ATOM     88  C   UNL A   1      46.065  27.538  36.442  1.00  0.00     0.200 A 
ATOM     89  F   UNL A   1      47.502  29.131  35.455  1.00  0.00    -0.200 F 
ATOM     90  F   UNL A   1      47.105  26.957  37.053  1.00  0.00    -0.200 F 
ENDBRANCH  57  80
ENDBRANCH  31  32
ENDBRANCH  23  26
ENDBRANCH  21  22
ENDBRANCH  20  21
ENDBRANCH   1  20
TORSDOF 14
ENDMDL
MODEL 3
REMARK VINA RESULT:     -11.8      1.511      7.842
REMARK SMILES C[C@H]([C@@H](C)O)[N@H+]1CC[C@@](C)(C(=O)NCCCCNC(=O)c2ccc(-c3c4nc(c(-c5c(F)c(F)c(F)c(F)c5F)c5ccc([nH]5)c(-c5c(F)c(F)c(F)c(F)c5F)c5nc(c(-c6c(F)c(F)c(F)c(F)c6F)c6ccc3[nH]6)C=C5)C=C4)cc2)C1
REMARK SMILES IDX 15 1 14 2 13 3 11 4 12 5 9 7 6 8 7 9 84 10 8 12 10 13 2 14
REMARK SMILES IDX 1 15 3 16 4 17 5 18 16 20 17 21 18 22 19 23 20 25 21 26
REMARK SMILES IDX 22 27 83 28 23 29 82 30 24 31 25 32 26 33 76 34 27 35 81 36
REMARK SMILES IDX 75 37 77 38 28 39 80 40 74 41 73 42 29 44 61 45 41 46 60 47
REMARK SMILES IDX 42 48 45 49 59 50 78 51 43 52 44 53 58 55 79 56 46 57 30 58
REMARK SMILES IDX 31 59 39 60 32 61 33 62 37 63 40 64 34 65 35 66 38 67 36 68
REMARK SMILES IDX 62 69 63 70 71 71 64 72 65 73 69 74 72 75 66 76 67 77 70 78
REMARK SMILES IDX 68 79 47 80 48 81 56 82 49 83 50 84 54 85 57 86 51 87 52 88
REMARK SMILES IDX 55 89 53 90
REMARK H PARENT 13 6 6 11 5 19 18 24 77 43 45 54
REMARK Flexibility Score: inf
ROOT
ATOM      1  C   UNL A   1      31.843  30.622  26.236  1.00  0.00     0.023 C 
ENDROOT
BRANCH   1   2
ATOM      2  C   UNL A   1      32.261  29.569  27.264  1.00  0.00     0.116 C 
BRANCH   2   3
ATOM      3  N   UNL A   1      31.478  28.360  27.112  1.00  0.00    -0.355 N 
ATOM      4  C   UNL A   1      31.620  27.294  26.272  1.00  0.00     0.231 C 
ATOM      5  O   UNL A   1      30.747  26.429  26.367  1.00  0.00    -0.274 OA
ATOM      6  H   UNL A   1      30.707  28.296  27.720  1.00  0.00     0.163 HD
BRANCH   4   7
ATOM      7  C   UNL A   1      32.845  27.139  25.339  1.00  0.00     0.100 C 
ATOM      8  N   UNL A   1      32.390  25.774  23.403  1.00  0.00    -0.330 N 
ATOM      9  C   UNL A   1      31.834  27.087  23.168  1.00  0.00     0.263 C 
ATOM     10  C   UNL A   1      32.905  25.690  24.772  1.00  0.00     0.279 C 
ATOM     11  H   UNL A   1      33.191  25.691  22.777  1.00  0.00     0.348 HD
ATOM     12  C   UNL A   1      32.733  27.944  24.039  1.00  0.00     0.084 C 
ATOM     13  C   UNL A   1      34.108  27.472  26.150  1.00  0.00     0.028 C 
BRANCH   8  14
ATOM     14  C   UNL A   1      31.856  24.587  22.727  1.00  0.00     0.209 C 
ATOM     15  C   UNL A   1      30.636  23.987  23.457  1.00  0.00     0.078 C 
BRANCH  14  16
ATOM     16  C   UNL A   1      32.873  23.470  22.333  1.00  0.00     0.169 C 
ATOM     17  C   UNL A   1      32.408  22.050  22.638  1.00  0.00     0.045 C 
BRANCH  16  18
ATOM     18  O   UNL A   1      33.203  23.557  20.939  1.00  0.00    -0.387 OA
ATOM     19  H   UNL A   1      32.782  22.825  20.460  1.00  0.00     0.211 HD
ENDBRANCH  16  18
ENDBRANCH  14  16
ENDBRANCH   8  14
ENDBRANCH   4   7
ENDBRANCH   2   3
ENDBRANCH   1   2
BRANCH   1  20
ATOM     20  C   UNL A   1      31.492  31.987  26.826  1.00  0.00     0.023 C 
BRANCH  20  21
ATOM     21  C   UNL A   1      32.672  32.772  27.384  1.00  0.00     0.116 C 
BRANCH  21  22
ATOM     22  N   UNL A   1      32.359  34.167  27.652  1.00  0.00    -0.352 N 
ATOM     23  C   UNL A   1      32.962  35.023  28.540  1.00  0.00     0.251 C 
ATOM     24  H   UNL A   1      31.619  34.548  27.127  1.00  0.00     0.163 HD
ATOM     25  O   UNL A   1      32.511  36.149  28.726  1.00  0.00    -0.269 OA
BRANCH  23  26
ATOM     26  C   UNL A   1      34.134  34.558  29.305  1.00  0.00     0.039 A 
ATOM     27  C   UNL A   1      33.938  34.029  30.582  1.00  0.00     0.014 A 
ATOM     28  C   UNL A   1      35.413  34.604  28.743  1.00  0.00     0.014 A 
ATOM     29  C   UNL A   1      35.018  33.476  31.270  1.00  0.00     0.010 A 
ATOM     30  C   UNL A   1      36.475  33.993  29.401  1.00  0.00     0.010 A 
ATOM     31  C   UNL A   1      36.285  33.419  30.667  1.00  0.00    -0.014 A 
BRANCH  31  32
ATOM     32  C   UNL A   1      37.424  32.748  31.338  1.00  0.00     0.031 A 
ATOM     33  C   UNL A   1      38.113  31.591  30.678  1.00  0.00     0.074 A 
ATOM     34  C   UNL A   1      37.783  33.137  32.577  1.00  0.00     0.049 A 
ATOM     35  N   UNL A   1      39.074  30.829  31.134  1.00  0.00    -0.248 NA
ATOM     36  C   UNL A   1      37.638  31.220  29.336  1.00  0.00     0.031 C 
ATOM     37  C   UNL A   1      37.152  34.214  33.342  1.00  0.00     0.029 A 
ATOM     38  N   UNL A   1      38.759  32.662  33.415  1.00  0.00    -0.354 N 
ATOM     39  C   UNL A   1      39.308  29.885  30.145  1.00  0.00     0.074 A 
ATOM     40  C   UNL A   1      38.355  30.134  29.085  1.00  0.00     0.031 C 
ATOM     41  C   UNL A   1      37.769  34.330  34.529  1.00  0.00     0.029 A 
ATOM     42  C   UNL A   1      38.815  33.315  34.622  1.00  0.00     0.049 A 
ATOM     43  H   UNL A   1      39.363  31.921  33.175  1.00  0.00     0.167 HD
ATOM     44  C   UNL A   1      40.248  28.911  30.115  1.00  0.00     0.037 A 
ATOM     45  C   UNL A   1      39.615  33.114  35.685  1.00  0.00     0.037 A 
ATOM     46  C   UNL A   1      41.212  28.685  31.159  1.00  0.00     0.049 A 
ATOM     47  C   UNL A   1      40.653  32.027  35.624  1.00  0.00     0.074 A 
ATOM     48  C   UNL A   1      42.251  27.773  31.192  1.00  0.00     0.029 A 
ATOM     49  N   UNL A   1      41.251  29.380  32.360  1.00  0.00    -0.354 N 
ATOM     50  N   UNL A   1      40.916  31.187  34.653  1.00  0.00    -0.248 NA
ATOM     51  C   UNL A   1      41.510  31.863  36.807  1.00  0.00     0.031 C 
ATOM     52  C   UNL A   1      42.895  27.887  32.430  1.00  0.00     0.029 A 
ATOM     53  C   UNL A   1      42.282  28.900  33.150  1.00  0.00     0.049 A 
ATOM     54  H   UNL A   1      40.636  30.106  32.612  1.00  0.00     0.167 HD
ATOM     55  C   UNL A   1      41.978  30.412  35.095  1.00  0.00     0.074 A 
ATOM     56  C   UNL A   1      42.324  30.893  36.417  1.00  0.00     0.031 C 
ATOM     57  C   UNL A   1      42.611  29.393  34.463  1.00  0.00     0.037 A 
BRANCH  44  58
ATOM     58  C   UNL A   1      40.284  28.021  28.907  1.00  0.00     0.064 A 
ATOM     59  C   UNL A   1      41.016  28.366  27.761  1.00  0.00     0.173 A 
ATOM     60  C   UNL A   1      39.600  26.795  28.906  1.00  0.00     0.173 A 
ATOM     61  F   UNL A   1      41.676  29.532  27.708  1.00  0.00    -0.203 F 
ATOM     62  C   UNL A   1      41.038  27.531  26.647  1.00  0.00     0.198 A 
ATOM     63  C   UNL A   1      39.648  25.950  27.800  1.00  0.00     0.198 A 
ATOM     64  F   UNL A   1      38.889  26.416  29.977  1.00  0.00    -0.203 F 
ATOM     65  F   UNL A   1      41.703  27.905  25.545  1.00  0.00    -0.200 F 
ATOM     66  C   UNL A   1      40.360  26.322  26.670  1.00  0.00     0.200 A 
ATOM     67  F   UNL A   1      39.002  24.776  27.827  1.00  0.00    -0.200 F 
ATOM     68  F   UNL A   1      40.387  25.517  25.598  1.00  0.00    -0.200 F 
ENDBRANCH  44  58
BRANCH  45  69
ATOM     69  C   UNL A   1      39.484  33.977  36.885  1.00  0.00     0.064 A 
ATOM     70  C   UNL A   1      40.123  35.223  36.946  1.00  0.00     0.173 A 
ATOM     71  C   UNL A   1      38.717  33.582  37.991  1.00  0.00     0.173 A 
ATOM     72  F   UNL A   1      40.883  35.635  35.920  1.00  0.00    -0.203 F 
ATOM     73  C   UNL A   1      40.014  36.035  38.073  1.00  0.00     0.198 A 
ATOM     74  C   UNL A   1      38.588  34.406  39.107  1.00  0.00     0.198 A 
ATOM     75  F   UNL A   1      38.082  32.401  37.980  1.00  0.00    -0.203 F 
ATOM     76  F   UNL A   1      40.667  37.203  38.119  1.00  0.00    -0.200 F 
ATOM     77  C   UNL A   1      39.242  35.628  39.150  1.00  0.00     0.200 A 
ATOM     78  F   UNL A   1      37.830  34.016  40.142  1.00  0.00    -0.200 F 
ATOM     79  F   UNL A   1      39.134  36.411  40.233  1.00  0.00    -0.200 F 
ENDBRANCH  45  69
BRANCH  57  80
ATOM     80  C   UNL A   1      43.755  28.745  35.185  1.00  0.00     0.064 A 
ATOM     81  C   UNL A   1      45.057  29.260  35.108  1.00  0.00     0.173 A 
ATOM     82  C   UNL A   1      43.539  27.621  35.996  1.00  0.00     0.173 A 
ATOM     83  F   UNL A   1      45.317  30.324  34.332  1.00  0.00    -0.203 F 
ATOM     84  C   UNL A   1      46.106  28.660  35.799  1.00  0.00     0.198 A 
ATOM     85  C   UNL A   1      44.584  27.040  36.708  1.00  0.00     0.198 A 
ATOM     86  F   UNL A   1      42.311  27.093  36.106  1.00  0.00    -0.203 F 
ATOM     87  F   UNL A   1      47.350  29.143  35.677  1.00  0.00    -0.200 F 
ATOM     88  C   UNL A   1      45.867  27.556  36.604  1.00  0.00     0.200 A 
ATOM     89  F   UNL A   1      44.350  25.980  37.494  1.00  0.00    -0.200 F 
ATOM     90  F   UNL A   1      46.876  26.984  37.274  1.00  0.00    -0.200 F 
ENDBRANCH  57  80
ENDBRANCH  31  32
ENDBRANCH  23  26
ENDBRANCH  21  22
ENDBRANCH  20  21
ENDBRANCH   1  20
TORSDOF 14
ENDMDL
