MODEL 1
REMARK VINA RESULT:     -13.2      0.000      0.000
REMARK SMILES C[C@H](NC(=O)[C@]1(C)Sc2ccccc2NC1=O)C(=O)NCCCCNC(=O)c1ccc(-c2c3nc(c(-c4c(F)c(F)c(F)c(F)c4F)c4ccc([nH]4)c(-c4c(F)c(F)c(F)c(F)c4F)c4nc(c(-c5c(F)c(F)c(F)c(F)c5F)c5ccc2[nH]5)C=C4)C=C3)cc1
REMARK SMILES IDX 22 1 21 2 20 3 18 4 19 5 2 7 1 8 3 9 4 10 5 12 6 13 8 14
REMARK SMILES IDX 16 15 7 16 9 17 15 18 17 19 10 20 14 21 11 23 13 24 12 25
REMARK SMILES IDX 23 26 24 27 25 28 26 29 27 31 28 32 29 33 90 34 30 35 89 36
REMARK SMILES IDX 31 37 32 38 33 39 83 40 34 41 88 42 82 43 84 44 35 45 87 46
REMARK SMILES IDX 81 47 80 48 36 50 68 51 48 52 67 53 49 54 52 55 66 56 85 57
REMARK SMILES IDX 50 58 51 59 65 61 86 62 53 63 37 64 38 65 46 66 39 67 40 68
REMARK SMILES IDX 44 69 47 70 41 71 42 72 45 73 43 74 69 75 70 76 78 77 71 78
REMARK SMILES IDX 72 79 76 80 79 81 73 82 74 83 77 84 75 85 54 86 55 87 63 88
REMARK SMILES IDX 56 89 57 90 61 91 64 92 58 93 59 94 62 95 60 96
REMARK H PARENT 20 6 3 11 15 22 25 30 84 49 52 60
REMARK Flexibility Score: inf
ROOT
ATOM      1  C   UNL A   1      32.005  30.266  26.743  1.00  0.00     0.023 C 
ENDROOT
BRANCH   1   2
ATOM      2  C   UNL A   1      32.650  29.716  25.475  1.00  0.00     0.116 C 
BRANCH   2   3
ATOM      3  N   UNL A   1      31.707  29.542  24.389  1.00  0.00    -0.354 N 
ATOM      4  C   UNL A   1      31.432  28.450  23.619  1.00  0.00     0.242 C 
ATOM      5  O   UNL A   1      30.338  28.441  23.047  1.00  0.00    -0.273 OA
ATOM      6  H   UNL A   1      31.179  30.343  24.171  1.00  0.00     0.163 HD
BRANCH   4   7
ATOM      7  C   UNL A   1      32.336  27.201  23.598  1.00  0.00     0.168 C 
ATOM      8  C   UNL A   1      33.405  27.334  22.516  1.00  0.00     0.041 C 
BRANCH   7   9
ATOM      9  N   UNL A   1      31.620  25.931  23.458  1.00  0.00    -0.343 N 
ATOM     10  C   UNL A   1      31.360  24.897  24.304  1.00  0.00     0.246 C 
ATOM     11  H   UNL A   1      31.246  25.797  22.558  1.00  0.00     0.164 HD
ATOM     12  O   UNL A   1      30.612  24.042  23.806  1.00  0.00    -0.273 OA
BRANCH  10  13
ATOM     13  C   UNL A   1      31.868  24.789  25.772  1.00  0.00     0.175 C 
ATOM     14  S   UNL A   1      33.703  24.468  25.739  1.00  0.00    -0.097 SA
ATOM     15  C   UNL A   1      31.113  23.663  26.477  1.00  0.00     0.250 C 
ATOM     16  C   UNL A   1      31.784  26.092  26.579  1.00  0.00     0.045 C 
ATOM     17  C   UNL A   1      33.739  22.722  25.427  1.00  0.00     0.032 A 
ATOM     18  N   UNL A   1      31.477  22.360  26.297  1.00  0.00    -0.323 N 
ATOM     19  O   UNL A   1      30.080  23.876  27.121  1.00  0.00    -0.273 OA
ATOM     20  C   UNL A   1      34.929  22.165  24.941  1.00  0.00     0.017 A 
ATOM     21  C   UNL A   1      32.663  21.882  25.726  1.00  0.00     0.054 A 
ATOM     22  H   UNL A   1      30.834  21.679  26.603  1.00  0.00     0.170 HD
ATOM     23  C   UNL A   1      35.038  20.791  24.732  1.00  0.00     0.001 A 
ATOM     24  C   UNL A   1      32.776  20.503  25.519  1.00  0.00     0.027 A 
ATOM     25  C   UNL A   1      33.959  19.959  25.015  1.00  0.00     0.002 A 
ENDBRANCH  10  13
ENDBRANCH   7   9
ENDBRANCH   4   7
ENDBRANCH   2   3
ENDBRANCH   1   2
BRANCH   1  26
ATOM     26  C   UNL A   1      31.756  31.775  26.756  1.00  0.00     0.023 C 
BRANCH  26  27
ATOM     27  C   UNL A   1      32.862  32.632  27.365  1.00  0.00     0.116 C 
BRANCH  27  28
ATOM     28  N   UNL A   1      32.446  33.993  27.671  1.00  0.00    -0.352 N 
ATOM     29  C   UNL A   1      32.988  34.883  28.571  1.00  0.00     0.251 C 
ATOM     30  H   UNL A   1      31.670  34.323  27.164  1.00  0.00     0.163 HD
ATOM     31  O   UNL A   1      32.457  35.972  28.764  1.00  0.00    -0.269 OA
BRANCH  29  32
ATOM     32  C   UNL A   1      34.188  34.498  29.347  1.00  0.00     0.039 A 
ATOM     33  C   UNL A   1      35.467  34.698  28.827  1.00  0.00     0.014 A 
ATOM     34  C   UNL A   1      34.020  33.873  30.587  1.00  0.00     0.014 A 
ATOM     35  C   UNL A   1      36.561  34.111  29.454  1.00  0.00     0.010 A 
ATOM     36  C   UNL A   1      35.131  33.352  31.255  1.00  0.00     0.010 A 
ATOM     37  C   UNL A   1      36.402  33.413  30.663  1.00  0.00    -0.014 A 
BRANCH  37  38
ATOM     38  C   UNL A   1      37.571  32.721  31.265  1.00  0.00     0.031 A 
ATOM     39  C   UNL A   1      38.025  33.053  32.660  1.00  0.00     0.074 A 
ATOM     40  C   UNL A   1      38.181  31.736  30.579  1.00  0.00     0.049 A 
ATOM     41  N   UNL A   1      38.996  32.523  33.363  1.00  0.00    -0.248 NA
ATOM     42  C   UNL A   1      37.298  34.123  33.361  1.00  0.00     0.031 C 
ATOM     43  C   UNL A   1      37.818  31.308  29.229  1.00  0.00     0.029 A 
ATOM     44  N   UNL A   1      39.204  30.894  30.936  1.00  0.00    -0.354 N 
ATOM     45  C   UNL A   1      39.004  33.200  34.576  1.00  0.00     0.074 A 
ATOM     46  C   UNL A   1      37.963  34.203  34.505  1.00  0.00     0.031 C 
ATOM     47  C   UNL A   1      38.562  30.242  28.894  1.00  0.00     0.029 A 
ATOM     48  C   UNL A   1      39.490  29.949  29.983  1.00  0.00     0.049 A 
ATOM     49  H   UNL A   1      39.685  30.962  31.792  1.00  0.00     0.167 HD
ATOM     50  C   UNL A   1      39.796  32.994  35.655  1.00  0.00     0.037 A 
ATOM     51  C   UNL A   1      40.401  28.957  29.983  1.00  0.00     0.037 A 
ATOM     52  C   UNL A   1      40.818  31.983  35.735  1.00  0.00     0.049 A 
ATOM     53  C   UNL A   1      41.300  28.782  31.170  1.00  0.00     0.074 A 
ATOM     54  C   UNL A   1      41.659  31.687  36.794  1.00  0.00     0.029 A 
ATOM     55  N   UNL A   1      41.134  31.099  34.714  1.00  0.00    -0.354 N 
ATOM     56  N   UNL A   1      41.303  29.435  32.306  1.00  0.00    -0.248 NA
ATOM     57  C   UNL A   1      42.332  27.741  31.071  1.00  0.00     0.031 C 
ATOM     58  C   UNL A   1      42.510  30.649  36.400  1.00  0.00     0.029 A 
ATOM     59  C   UNL A   1      42.172  30.270  35.111  1.00  0.00     0.049 A 
ATOM     60  H   UNL A   1      40.687  31.063  33.838  1.00  0.00     0.167 HD
ATOM     61  C   UNL A   1      42.334  28.888  33.057  1.00  0.00     0.074 A 
ATOM     62  C   UNL A   1      42.919  27.831  32.256  1.00  0.00     0.031 C 
ATOM     63  C   UNL A   1      42.756  29.234  34.297  1.00  0.00     0.037 A 
BRANCH  50  64
ATOM     64  C   UNL A   1      39.598  33.893  36.842  1.00  0.00     0.064 A 
ATOM     65  C   UNL A   1      38.802  33.508  37.930  1.00  0.00     0.173 A 
ATOM     66  C   UNL A   1      40.245  35.136  36.909  1.00  0.00     0.173 A 
ATOM     67  F   UNL A   1      38.152  32.334  37.908  1.00  0.00    -0.203 F 
ATOM     68  C   UNL A   1      38.641  34.344  39.031  1.00  0.00     0.198 A 
ATOM     69  C   UNL A   1      40.102  35.959  38.024  1.00  0.00     0.198 A 
ATOM     70  F   UNL A   1      41.024  35.549  35.898  1.00  0.00    -0.203 F 
ATOM     71  F   UNL A   1      37.841  33.974  40.041  1.00  0.00    -0.200 F 
ATOM     72  C   UNL A   1      39.295  35.565  39.080  1.00  0.00     0.200 A 
ATOM     73  F   UNL A   1      40.744  37.134  38.074  1.00  0.00    -0.200 F 
ATOM     74  F   UNL A   1      39.144  36.367  40.144  1.00  0.00    -0.200 F 
ENDBRANCH  50  64
BRANCH  51  75
ATOM     75  C   UNL A   1      40.478  28.049  28.812  1.00  0.00     0.064 A 
ATOM     76  C   UNL A   1      39.751  26.852  28.788  1.00  0.00     0.173 A 
ATOM     77  C   UNL A   1      41.225  28.387  27.674  1.00  0.00     0.173 A 
ATOM     78  F   UNL A   1      39.038  26.479  29.862  1.00  0.00    -0.203 F 
ATOM     79  C   UNL A   1      39.759  26.030  27.663  1.00  0.00     0.198 A 
ATOM     80  C   UNL A   1      41.214  27.577  26.542  1.00  0.00     0.198 A 
ATOM     81  F   UNL A   1      41.933  29.525  27.651  1.00  0.00    -0.203 F 
ATOM     82  F   UNL A   1      39.066  24.884  27.668  1.00  0.00    -0.200 F 
ATOM     83  C   UNL A   1      40.482  26.398  26.538  1.00  0.00     0.200 A 
ATOM     84  F   UNL A   1      41.900  27.944  25.451  1.00  0.00    -0.200 F 
ATOM     85  F   UNL A   1      40.470  25.620  25.447  1.00  0.00    -0.200 F 
ENDBRANCH  51  75
BRANCH  63  86
ATOM     86  C   UNL A   1      43.914  28.472  34.868  1.00  0.00     0.064 A 
ATOM     87  C   UNL A   1      45.229  28.946  34.744  1.00  0.00     0.173 A 
ATOM     88  C   UNL A   1      43.704  27.291  35.594  1.00  0.00     0.173 A 
ATOM     89  F   UNL A   1      45.478  30.064  34.047  1.00  0.00    -0.203 F 
ATOM     90  C   UNL A   1      46.292  28.257  35.319  1.00  0.00     0.198 A 
ATOM     91  C   UNL A   1      44.769  26.616  36.185  1.00  0.00     0.198 A 
ATOM     92  F   UNL A   1      42.464  26.800  35.743  1.00  0.00    -0.203 F 
ATOM     93  F   UNL A   1      47.544  28.712  35.163  1.00  0.00    -0.200 F 
ATOM     94  C   UNL A   1      46.061  27.099  36.045  1.00  0.00     0.200 A 
ATOM     95  F   UNL A   1      44.543  25.503  36.896  1.00  0.00    -0.200 F 
ATOM     96  F   UNL A   1      47.087  26.443  36.606  1.00  0.00    -0.200 F 
ENDBRANCH  63  86
ENDBRANCH  37  38
ENDBRANCH  29  32
ENDBRANCH  27  28
ENDBRANCH  26  27
ENDBRANCH   1  26
TORSDOF 13
ENDMDL
MODEL 2
REMARK VINA RESULT:     -13.1      0.122      1.588
REMARK SMILES C[C@H](NC(=O)[C@]1(C)Sc2ccccc2NC1=O)C(=O)NCCCCNC(=O)c1ccc(-c2c3nc(c(-c4c(F)c(F)c(F)c(F)c4F)c4ccc([nH]4)c(-c4c(F)c(F)c(F)c(F)c4F)c4nc(c(-c5c(F)c(F)c(F)c(F)c5F)c5ccc2[nH]5)C=C4)C=C3)cc1
REMARK SMILES IDX 22 1 21 2 20 3 18 4 19 5 2 7 1 8 3 9 4 10 5 12 6 13 8 14
REMARK SMILES IDX 16 15 7 16 9 17 15 18 17 19 10 20 14 21 11 23 13 24 12 25
REMARK SMILES IDX 23 26 24 27 25 28 26 29 27 31 28 32 29 33 90 34 30 35 89 36
REMARK SMILES IDX 31 37 32 38 33 39 83 40 34 41 88 42 82 43 84 44 35 45 87 46
REMARK SMILES IDX 81 47 80 48 36 50 68 51 48 52 67 53 49 54 52 55 66 56 85 57
REMARK SMILES IDX 50 58 51 59 65 61 86 62 53 63 37 64 38 65 46 66 39 67 40 68
REMARK SMILES IDX 44 69 47 70 41 71 42 72 45 73 43 74 69 75 70 76 78 77 71 78
REMARK SMILES IDX 72 79 76 80 79 81 73 82 74 83 77 84 75 85 54 86 55 87 63 88
REMARK SMILES IDX 56 89 57 90 61 91 64 92 58 93 59 94 62 95 60 96
REMARK H PARENT 20 6 3 11 15 22 25 30 84 49 52 60
REMARK Flexibility Score: inf
ROOT
ATOM      1  C   UNL A   1      32.070  30.199  26.697  1.00  0.00     0.023 C 
ENDROOT
BRANCH   1   2
ATOM      2  C   UNL A   1      32.681  29.723  25.383  1.00  0.00     0.116 C 
BRANCH   2   3
ATOM      3  N   UNL A   1      31.695  29.513  24.342  1.00  0.00    -0.354 N 
ATOM      4  C   UNL A   1      31.394  28.397  23.618  1.00  0.00     0.242 C 
ATOM      5  O   UNL A   1      30.277  28.366  23.092  1.00  0.00    -0.273 OA
ATOM      6  H   UNL A   1      31.153  30.305  24.123  1.00  0.00     0.163 HD
BRANCH   4   7
ATOM      7  C   UNL A   1      32.304  27.152  23.596  1.00  0.00     0.168 C 
ATOM      8  C   UNL A   1      33.374  27.292  22.516  1.00  0.00     0.041 C 
BRANCH   7   9
ATOM      9  N   UNL A   1      31.593  25.880  23.451  1.00  0.00    -0.343 N 
ATOM     10  C   UNL A   1      31.336  24.842  24.294  1.00  0.00     0.246 C 
ATOM     11  H   UNL A   1      31.222  25.745  22.550  1.00  0.00     0.164 HD
ATOM     12  O   UNL A   1      30.593  23.985  23.792  1.00  0.00    -0.273 OA
BRANCH  10  13
ATOM     13  C   UNL A   1      31.842  24.733  25.764  1.00  0.00     0.175 C 
ATOM     14  S   UNL A   1      33.674  24.399  25.733  1.00  0.00    -0.097 SA
ATOM     15  C   UNL A   1      31.077  23.614  26.469  1.00  0.00     0.250 C 
ATOM     16  C   UNL A   1      31.766  26.038  26.568  1.00  0.00     0.045 C 
ATOM     17  C   UNL A   1      33.697  22.652  25.425  1.00  0.00     0.032 A 
ATOM     18  N   UNL A   1      31.432  22.308  26.292  1.00  0.00    -0.323 N 
ATOM     19  O   UNL A   1      30.045  23.836  27.111  1.00  0.00    -0.273 OA
ATOM     20  C   UNL A   1      34.884  22.086  24.941  1.00  0.00     0.017 A 
ATOM     21  C   UNL A   1      32.615  21.821  25.724  1.00  0.00     0.054 A 
ATOM     22  H   UNL A   1      30.784  21.633  26.599  1.00  0.00     0.170 HD
ATOM     23  C   UNL A   1      34.983  20.710  24.735  1.00  0.00     0.001 A 
ATOM     24  C   UNL A   1      32.718  20.440  25.519  1.00  0.00     0.027 A 
ATOM     25  C   UNL A   1      33.898  19.887  25.019  1.00  0.00     0.002 A 
ENDBRANCH  10  13
ENDBRANCH   7   9
ENDBRANCH   4   7
ENDBRANCH   2   3
ENDBRANCH   1   2
BRANCH   1  26
ATOM     26  C   UNL A   1      31.769  31.696  26.782  1.00  0.00     0.023 C 
BRANCH  26  27
ATOM     27  C   UNL A   1      32.886  32.573  27.339  1.00  0.00     0.116 C 
BRANCH  27  28
ATOM     28  N   UNL A   1      32.463  33.930  27.653  1.00  0.00    -0.352 N 
ATOM     29  C   UNL A   1      33.001  34.818  28.558  1.00  0.00     0.251 C 
ATOM     30  H   UNL A   1      31.685  34.259  27.149  1.00  0.00     0.163 HD
ATOM     31  O   UNL A   1      32.464  35.904  28.758  1.00  0.00    -0.269 OA
BRANCH  29  32
ATOM     32  C   UNL A   1      34.203  34.436  29.331  1.00  0.00     0.039 A 
ATOM     33  C   UNL A   1      35.481  34.656  28.817  1.00  0.00     0.014 A 
ATOM     34  C   UNL A   1      34.040  33.793  30.563  1.00  0.00     0.014 A 
ATOM     35  C   UNL A   1      36.580  34.072  29.438  1.00  0.00     0.010 A 
ATOM     36  C   UNL A   1      35.154  33.275  31.226  1.00  0.00     0.010 A 
ATOM     37  C   UNL A   1      36.426  33.357  30.637  1.00  0.00    -0.014 A 
BRANCH  37  38
ATOM     38  C   UNL A   1      37.602  32.670  31.232  1.00  0.00     0.031 A 
ATOM     39  C   UNL A   1      38.062  33.003  32.625  1.00  0.00     0.074 A 
ATOM     40  C   UNL A   1      38.211  31.688  30.543  1.00  0.00     0.049 A 
ATOM     41  N   UNL A   1      39.039  32.476  33.322  1.00  0.00    -0.248 NA
ATOM     42  C   UNL A   1      37.334  34.069  33.331  1.00  0.00     0.031 C 
ATOM     43  C   UNL A   1      37.843  31.258  29.194  1.00  0.00     0.029 A 
ATOM     44  N   UNL A   1      39.240  30.850  30.893  1.00  0.00    -0.354 N 
ATOM     45  C   UNL A   1      39.051  33.153  34.535  1.00  0.00     0.074 A 
ATOM     46  C   UNL A   1      38.005  34.151  34.471  1.00  0.00     0.031 C 
ATOM     47  C   UNL A   1      38.589  30.196  28.854  1.00  0.00     0.029 A 
ATOM     48  C   UNL A   1      39.525  29.907  29.938  1.00  0.00     0.049 A 
ATOM     49  H   UNL A   1      39.725  30.919  31.746  1.00  0.00     0.167 HD
ATOM     50  C   UNL A   1      39.850  32.950  35.610  1.00  0.00     0.037 A 
ATOM     51  C   UNL A   1      40.439  28.918  29.932  1.00  0.00     0.037 A 
ATOM     52  C   UNL A   1      40.876  31.943  35.684  1.00  0.00     0.049 A 
ATOM     53  C   UNL A   1      41.346  28.745  31.115  1.00  0.00     0.074 A 
ATOM     54  C   UNL A   1      41.724  31.649  36.737  1.00  0.00     0.029 A 
ATOM     55  N   UNL A   1      41.190  31.060  34.661  1.00  0.00    -0.354 N 
ATOM     56  N   UNL A   1      41.353  29.398  32.251  1.00  0.00    -0.248 NA
ATOM     57  C   UNL A   1      42.381  27.709  31.009  1.00  0.00     0.031 C 
ATOM     58  C   UNL A   1      42.578  30.615  36.339  1.00  0.00     0.029 A 
ATOM     59  C   UNL A   1      42.234  30.235  35.051  1.00  0.00     0.049 A 
ATOM     60  H   UNL A   1      40.738  31.023  33.787  1.00  0.00     0.167 HD
ATOM     61  C   UNL A   1      42.389  28.855  32.996  1.00  0.00     0.074 A 
ATOM     62  C   UNL A   1      42.974  27.801  32.191  1.00  0.00     0.031 C 
ATOM     63  C   UNL A   1      42.817  29.202  34.233  1.00  0.00     0.037 A 
BRANCH  50  64
ATOM     64  C   UNL A   1      39.655  33.846  36.798  1.00  0.00     0.064 A 
ATOM     65  C   UNL A   1      40.253  35.112  36.869  1.00  0.00     0.173 A 
ATOM     66  C   UNL A   1      38.826  33.451  37.859  1.00  0.00     0.173 A 
ATOM     67  F   UNL A   1      41.063  35.532  35.886  1.00  0.00    -0.203 F 
ATOM     68  C   UNL A   1      40.049  35.940  37.970  1.00  0.00     0.198 A 
ATOM     69  C   UNL A   1      38.604  34.292  38.948  1.00  0.00     0.198 A 
ATOM     70  F   UNL A   1      38.224  32.252  37.838  1.00  0.00    -0.203 F 
ATOM     71  F   UNL A   1      40.665  37.129  38.036  1.00  0.00    -0.200 F 
ATOM     72  C   UNL A   1      39.221  35.533  39.005  1.00  0.00     0.200 A 
ATOM     73  F   UNL A   1      37.795  33.901  39.942  1.00  0.00    -0.200 F 
ATOM     74  F   UNL A   1      39.021  36.333  40.062  1.00  0.00    -0.200 F 
ENDBRANCH  50  64
BRANCH  51  75
ATOM     75  C   UNL A   1      40.513  28.011  28.761  1.00  0.00     0.064 A 
ATOM     76  C   UNL A   1      39.785  26.815  28.736  1.00  0.00     0.173 A 
ATOM     77  C   UNL A   1      41.260  28.348  27.622  1.00  0.00     0.173 A 
ATOM     78  F   UNL A   1      39.072  26.442  29.810  1.00  0.00    -0.203 F 
ATOM     79  C   UNL A   1      39.790  25.994  27.610  1.00  0.00     0.198 A 
ATOM     80  C   UNL A   1      41.246  27.539  26.490  1.00  0.00     0.198 A 
ATOM     81  F   UNL A   1      41.970  29.485  27.599  1.00  0.00    -0.203 F 
ATOM     82  F   UNL A   1      39.094  24.849  27.615  1.00  0.00    -0.200 F 
ATOM     83  C   UNL A   1      40.512  26.362  26.485  1.00  0.00     0.200 A 
ATOM     84  F   UNL A   1      41.931  27.906  25.398  1.00  0.00    -0.200 F 
ATOM     85  F   UNL A   1      40.498  25.585  25.394  1.00  0.00    -0.200 F 
ENDBRANCH  51  75
BRANCH  63  86
ATOM     86  C   UNL A   1      43.982  28.444  34.797  1.00  0.00     0.064 A 
ATOM     87  C   UNL A   1      43.796  27.249  35.508  1.00  0.00     0.173 A 
ATOM     88  C   UNL A   1      45.295  28.883  34.575  1.00  0.00     0.173 A 
ATOM     89  F   UNL A   1      42.557  26.799  35.756  1.00  0.00    -0.203 F 
ATOM     90  C   UNL A   1      44.885  26.527  35.985  1.00  0.00     0.198 A 
ATOM     91  C   UNL A   1      46.382  28.146  35.036  1.00  0.00     0.198 A 
ATOM     92  F   UNL A   1      45.523  30.018  33.897  1.00  0.00    -0.203 F 
ATOM     93  F   UNL A   1      44.685  25.403  36.688  1.00  0.00    -0.200 F 
ATOM     94  C   UNL A   1      46.176  26.971  35.743  1.00  0.00     0.200 A 
ATOM     95  F   UNL A   1      47.630  28.570  34.791  1.00  0.00    -0.200 F 
ATOM     96  F   UNL A   1      47.224  26.267  36.195  1.00  0.00    -0.200 F 
ENDBRANCH  63  86
ENDBRANCH  37  38
ENDBRANCH  29  32
ENDBRANCH  27  28
ENDBRANCH  26  27
ENDBRANCH   1  26
TORSDOF 13
ENDMDL
MODEL 3
REMARK VINA RESULT:     -13.0      1.839      3.033
REMARK SMILES C[C@H](NC(=O)[C@]1(C)Sc2ccccc2NC1=O)C(=O)NCCCCNC(=O)c1ccc(-c2c3nc(c(-c4c(F)c(F)c(F)c(F)c4F)c4ccc([nH]4)c(-c4c(F)c(F)c(F)c(F)c4F)c4nc(c(-c5c(F)c(F)c(F)c(F)c5F)c5ccc2[nH]5)C=C4)C=C3)cc1
REMARK SMILES IDX 22 1 21 2 20 3 18 4 19 5 2 7 1 8 3 9 4 10 5 12 6 13 8 14
REMARK SMILES IDX 16 15 7 16 9 17 15 18 17 19 10 20 14 21 11 23 13 24 12 25
REMARK SMILES IDX 23 26 24 27 25 28 26 29 27 31 28 32 29 33 90 34 30 35 89 36
REMARK SMILES IDX 31 37 32 38 33 39 83 40 34 41 88 42 82 43 84 44 35 45 87 46
REMARK SMILES IDX 81 47 80 48 36 50 68 51 48 52 67 53 49 54 52 55 66 56 85 57
REMARK SMILES IDX 50 58 51 59 65 61 86 62 53 63 37 64 38 65 46 66 39 67 40 68
REMARK SMILES IDX 44 69 47 70 41 71 42 72 45 73 43 74 69 75 70 76 78 77 71 78
REMARK SMILES IDX 72 79 76 80 79 81 73 82 74 83 77 84 75 85 54 86 55 87 63 88
REMARK SMILES IDX 56 89 57 90 61 91 64 92 58 93 59 94 62 95 60 96
REMARK H PARENT 20 6 3 11 15 22 25 30 84 49 52 60
REMARK Flexibility Score: inf
ROOT
ATOM      1  C   UNL A   1      31.821  28.275  27.470  1.00  0.00     0.023 C 
ENDROOT
BRANCH   1   2
ATOM      2  C   UNL A   1      31.790  27.086  26.515  1.00  0.00     0.116 C 
BRANCH   2   3
ATOM      3  N   UNL A   1      30.715  27.165  25.546  1.00  0.00    -0.354 N 
ATOM      4  C   UNL A   1      30.182  26.209  24.733  1.00  0.00     0.242 C 
ATOM      5  O   UNL A   1      29.043  26.421  24.305  1.00  0.00    -0.273 OA
ATOM      6  H   UNL A   1      30.303  28.055  25.460  1.00  0.00     0.163 HD
BRANCH   4   7
ATOM      7  C   UNL A   1      30.863  24.845  24.500  1.00  0.00     0.168 C 
ATOM      8  C   UNL A   1      30.433  24.257  23.158  1.00  0.00     0.041 C 
BRANCH   7   9
ATOM      9  N   UNL A   1      30.661  23.870  25.575  1.00  0.00    -0.343 N 
ATOM     10  C   UNL A   1      31.488  23.021  26.245  1.00  0.00     0.246 C 
ATOM     11  H   UNL A   1      29.726  23.817  25.877  1.00  0.00     0.164 HD
ATOM     12  O   UNL A   1      30.920  22.429  27.176  1.00  0.00    -0.273 OA
BRANCH  10  13
ATOM     13  C   UNL A   1      33.006  22.831  25.954  1.00  0.00     0.175 C 
ATOM     14  S   UNL A   1      33.198  22.188  24.217  1.00  0.00    -0.097 SA
ATOM     15  C   UNL A   1      33.590  21.861  26.981  1.00  0.00     0.250 C 
ATOM     16  C   UNL A   1      33.820  24.132  25.908  1.00  0.00     0.045 C 
ATOM     17  C   UNL A   1      32.862  20.463  24.451  1.00  0.00     0.032 A 
ATOM     18  N   UNL A   1      33.433  20.513  26.833  1.00  0.00    -0.323 N 
ATOM     19  O   UNL A   1      34.102  22.258  28.033  1.00  0.00    -0.273 OA
ATOM     20  C   UNL A   1      32.519  19.701  23.327  1.00  0.00     0.017 A 
ATOM     21  C   UNL A   1      33.008  19.829  25.688  1.00  0.00     0.054 A 
ATOM     22  H   UNL A   1      33.644  19.959  27.620  1.00  0.00     0.170 HD
ATOM     23  C   UNL A   1      32.301  18.327  23.437  1.00  0.00     0.001 A 
ATOM     24  C   UNL A   1      32.791  18.451  25.796  1.00  0.00     0.027 A 
ATOM     25  C   UNL A   1      32.431  17.703  24.674  1.00  0.00     0.002 A 
ENDBRANCH  10  13
ENDBRANCH   7   9
ENDBRANCH   4   7
ENDBRANCH   2   3
ENDBRANCH   1   2
BRANCH   1  26
ATOM     26  C   UNL A   1      31.448  29.625  26.856  1.00  0.00     0.023 C 
BRANCH  26  27
ATOM     27  C   UNL A   1      32.613  30.506  26.416  1.00  0.00     0.116 C 
BRANCH  27  28
ATOM     28  N   UNL A   1      32.496  31.891  26.849  1.00  0.00    -0.352 N 
ATOM     29  C   UNL A   1      33.386  32.650  27.577  1.00  0.00     0.251 C 
ATOM     30  H   UNL A   1      31.666  32.349  26.584  1.00  0.00     0.163 HD
ATOM     31  O   UNL A   1      33.089  33.787  27.929  1.00  0.00    -0.269 OA
BRANCH  29  32
ATOM     32  C   UNL A   1      34.684  32.066  27.980  1.00  0.00     0.039 A 
ATOM     33  C   UNL A   1      34.779  30.723  28.345  1.00  0.00     0.014 A 
ATOM     34  C   UNL A   1      35.807  32.897  28.050  1.00  0.00     0.014 A 
ATOM     35  C   UNL A   1      35.941  30.258  28.953  1.00  0.00     0.010 A 
ATOM     36  C   UNL A   1      36.999  32.406  28.587  1.00  0.00     0.010 A 
ATOM     37  C   UNL A   1      37.056  31.100  29.100  1.00  0.00    -0.014 A 
BRANCH  37  38
ATOM     38  C   UNL A   1      38.251  30.605  29.831  1.00  0.00     0.031 A 
ATOM     39  C   UNL A   1      38.483  30.982  31.269  1.00  0.00     0.074 A 
ATOM     40  C   UNL A   1      39.092  29.750  29.218  1.00  0.00     0.049 A 
ATOM     41  N   UNL A   1      39.446  30.610  32.077  1.00  0.00    -0.248 NA
ATOM     42  C   UNL A   1      37.511  31.899  31.882  1.00  0.00     0.031 C 
ATOM     43  C   UNL A   1      38.961  29.293  27.836  1.00  0.00     0.029 A 
ATOM     44  N   UNL A   1      40.197  29.087  29.689  1.00  0.00    -0.354 N 
ATOM     45  C   UNL A   1      39.202  31.255  33.283  1.00  0.00     0.074 A 
ATOM     46  C   UNL A   1      38.021  32.069  33.095  1.00  0.00     0.031 C 
ATOM     47  C   UNL A   1      39.907  28.375  27.587  1.00  0.00     0.029 A 
ATOM     48  C   UNL A   1      40.744  28.223  28.774  1.00  0.00     0.049 A 
ATOM     49  H   UNL A   1      40.561  29.218  30.594  1.00  0.00     0.167 HD
ATOM     50  C   UNL A   1      39.893  31.165  34.445  1.00  0.00     0.037 A 
ATOM     51  C   UNL A   1      41.805  27.399  28.877  1.00  0.00     0.037 A 
ATOM     52  C   UNL A   1      41.056  30.340  34.640  1.00  0.00     0.049 A 
ATOM     53  C   UNL A   1      42.582  27.355  30.159  1.00  0.00     0.074 A 
ATOM     54  C   UNL A   1      41.812  30.170  35.787  1.00  0.00     0.029 A 
ATOM     55  N   UNL A   1      41.630  29.541  33.661  1.00  0.00    -0.354 N 
ATOM     56  N   UNL A   1      42.348  27.977  31.288  1.00  0.00    -0.248 NA
ATOM     57  C   UNL A   1      43.781  26.505  30.177  1.00  0.00     0.031 C 
ATOM     58  C   UNL A   1      42.866  29.298  35.493  1.00  0.00     0.029 A 
ATOM     59  C   UNL A   1      42.743  28.893  34.173  1.00  0.00     0.049 A 
ATOM     60  H   UNL A   1      41.296  29.448  32.740  1.00  0.00     0.167 HD
ATOM     61  C   UNL A   1      43.366  27.598  32.151  1.00  0.00     0.074 A 
ATOM     62  C   UNL A   1      44.208  26.671  31.421  1.00  0.00     0.031 C 
ATOM     63  C   UNL A   1      43.582  27.986  33.431  1.00  0.00     0.037 A 
BRANCH  50  64
ATOM     64  C   UNL A   1      39.414  31.994  35.601  1.00  0.00     0.064 A 
ATOM     65  C   UNL A   1      38.491  31.494  36.531  1.00  0.00     0.173 A 
ATOM     66  C   UNL A   1      39.915  33.289  35.805  1.00  0.00     0.173 A 
ATOM     67  F   UNL A   1      37.973  30.266  36.374  1.00  0.00    -0.203 F 
ATOM     68  C   UNL A   1      38.068  32.268  37.608  1.00  0.00     0.198 A 
ATOM     69  C   UNL A   1      39.509  34.051  36.898  1.00  0.00     0.198 A 
ATOM     70  F   UNL A   1      40.805  33.813  34.949  1.00  0.00    -0.203 F 
ATOM     71  F   UNL A   1      37.153  31.786  38.461  1.00  0.00    -0.200 F 
ATOM     72  C   UNL A   1      38.582  33.543  37.794  1.00  0.00     0.200 A 
ATOM     73  F   UNL A   1      40.014  35.279  37.082  1.00  0.00    -0.200 F 
ATOM     74  F   UNL A   1      38.178  34.285  38.836  1.00  0.00    -0.200 F 
ENDBRANCH  50  64
BRANCH  51  75
ATOM     75  C   UNL A   1      42.165  26.539  27.723  1.00  0.00     0.064 A 
ATOM     76  C   UNL A   1      43.163  26.934  26.823  1.00  0.00     0.173 A 
ATOM     77  C   UNL A   1      41.568  25.285  27.533  1.00  0.00     0.173 A 
ATOM     78  F   UNL A   1      43.748  28.134  26.954  1.00  0.00    -0.203 F 
ATOM     79  C   UNL A   1      43.559  26.099  25.780  1.00  0.00     0.198 A 
ATOM     80  C   UNL A   1      41.980  24.442  26.505  1.00  0.00     0.198 A 
ATOM     81  F   UNL A   1      40.611  24.864  28.372  1.00  0.00    -0.203 F 
ATOM     82  F   UNL A   1      44.507  26.503  24.924  1.00  0.00    -0.200 F 
ATOM     83  C   UNL A   1      42.975  24.850  25.628  1.00  0.00     0.200 A 
ATOM     84  F   UNL A   1      41.425  23.230  26.372  1.00  0.00    -0.200 F 
ATOM     85  F   UNL A   1      43.373  24.037  24.640  1.00  0.00    -0.200 F 
ENDBRANCH  51  75
BRANCH  63  86
ATOM     86  C   UNL A   1      44.782  27.420  34.129  1.00  0.00     0.064 A 
ATOM     87  C   UNL A   1      44.723  26.184  34.789  1.00  0.00     0.173 A 
ATOM     88  C   UNL A   1      46.014  28.088  34.087  1.00  0.00     0.173 A 
ATOM     89  F   UNL A   1      43.562  25.516  34.866  1.00  0.00    -0.203 F 
ATOM     90  C   UNL A   1      45.853  25.642  35.393  1.00  0.00     0.198 A 
ATOM     91  C   UNL A   1      47.148  27.532  34.674  1.00  0.00     0.198 A 
ATOM     92  F   UNL A   1      46.121  29.271  33.464  1.00  0.00    -0.203 F 
ATOM     93  F   UNL A   1      45.768  24.474  36.044  1.00  0.00    -0.200 F 
ATOM     94  C   UNL A   1      47.066  26.312  35.328  1.00  0.00     0.200 A 
ATOM     95  F   UNL A   1      48.322  28.175  34.601  1.00  0.00    -0.200 F 
ATOM     96  F   UNL A   1      48.156  25.784  35.901  1.00  0.00    -0.200 F 
ENDBRANCH  63  86
ENDBRANCH  37  38
ENDBRANCH  29  32
ENDBRANCH  27  28
ENDBRANCH  26  27
ENDBRANCH   1  26
TORSDOF 13
ENDMDL
