MODEL 1
REMARK VINA RESULT:     -12.5      0.000      0.000
REMARK SMILES CC(C)C[C@H](C(=O)NCCCCNC(=O)c1ccc(-c2c3nc(c(-c4c(F)c(F)c(F)c(F)c4F)c4ccc([nH]4)c(-c4c(F)c(F)c(F)c(F)c4F)c4nc(c(-c5c(F)c(F)c(F)c(F)c5F)c5ccc2[nH]5)C=C4)C=C3)cc1)[C@@H]1CCO[C@]2(CCOC2)C1
REMARK SMILES IDX 10 1 9 2 8 3 6 4 7 5 5 7 4 8 2 9 1 10 3 11 79 12 80 13 88 14
REMARK SMILES IDX 81 15 83 16 82 17 84 18 87 19 85 20 86 21 11 22 12 23 13 24
REMARK SMILES IDX 14 25 15 27 16 28 17 29 78 30 18 31 77 32 19 33 20 34 21 35
REMARK SMILES IDX 71 36 22 37 76 38 70 39 72 40 23 41 75 42 69 43 68 44 24 46
REMARK SMILES IDX 56 47 36 48 55 49 37 50 40 51 54 52 73 53 38 54 39 55 53 57
REMARK SMILES IDX 74 58 41 59 25 60 26 61 34 62 27 63 28 64 32 65 35 66 29 67
REMARK SMILES IDX 30 68 33 69 31 70 57 71 58 72 66 73 59 74 60 75 64 76 67 77
REMARK SMILES IDX 61 78 62 79 65 80 63 81 42 82 43 83 51 84 44 85 45 86 49 87
REMARK SMILES IDX 52 88 46 89 47 90 50 91 48 92
REMARK H PARENT 8 6 13 26 72 45 40 56
REMARK Flexibility Score: inf
ROOT
ATOM      1  C   UNL A   1      31.723  30.548  26.340  1.00  0.00     0.023 C 
ENDROOT
BRANCH   1   2
ATOM      2  C   UNL A   1      33.133  29.963  26.181  1.00  0.00     0.116 C 
BRANCH   2   3
ATOM      3  N   UNL A   1      33.466  29.530  24.834  1.00  0.00    -0.356 N 
ATOM      4  C   UNL A   1      32.781  28.989  23.788  1.00  0.00     0.223 C 
ATOM      5  O   UNL A   1      33.428  28.966  22.732  1.00  0.00    -0.275 OA
ATOM      6  H   UNL A   1      34.419  29.659  24.627  1.00  0.00     0.163 HD
BRANCH   4   7
ATOM      7  C   UNL A   1      31.321  28.461  23.826  1.00  0.00     0.082 C 
BRANCH   7   8
ATOM      8  C   UNL A   1      30.447  29.448  22.949  1.00  0.00     0.016 C 
BRANCH   8   9
ATOM      9  C   UNL A   1      29.079  29.941  23.519  1.00  0.00    -0.017 C 
ATOM     10  C   UNL A   1      28.963  31.465  23.688  1.00  0.00     0.007 C 
ATOM     11  C   UNL A   1      27.947  29.519  22.570  1.00  0.00     0.007 C 
ENDBRANCH   8   9
ENDBRANCH   7   8
BRANCH   7  12
ATOM     12  C   UNL A   1      30.900  26.988  23.477  1.00  0.00     0.007 C 
ATOM     13  C   UNL A   1      29.627  26.502  24.149  1.00  0.00     0.033 C 
ATOM     14  C   UNL A   1      31.902  25.821  23.479  1.00  0.00     0.042 C 
ATOM     15  C   UNL A   1      29.862  25.872  25.491  1.00  0.00     0.161 C 
ATOM     16  C   UNL A   1      32.217  25.260  24.865  1.00  0.00     0.094 C 
ATOM     17  O   UNL A   1      31.067  25.149  25.705  1.00  0.00    -0.372 OA
ATOM     18  C   UNL A   1      33.414  26.023  25.436  1.00  0.00     0.066 C 
ATOM     19  C   UNL A   1      32.822  23.844  24.846  1.00  0.00     0.195 C 
ATOM     20  C   UNL A   1      34.622  25.115  25.390  1.00  0.00     0.163 C 
ATOM     21  O   UNL A   1      34.230  23.972  24.640  1.00  0.00    -0.378 OA
ENDBRANCH   7  12
ENDBRANCH   4   7
ENDBRANCH   2   3
ENDBRANCH   1   2
BRANCH   1  22
ATOM     22  C   UNL A   1      31.534  32.022  26.666  1.00  0.00     0.023 C 
BRANCH  22  23
ATOM     23  C   UNL A   1      32.686  32.674  27.379  1.00  0.00     0.116 C 
BRANCH  23  24
ATOM     24  N   UNL A   1      32.451  34.087  27.630  1.00  0.00    -0.352 N 
ATOM     25  C   UNL A   1      33.004  34.925  28.570  1.00  0.00     0.251 C 
ATOM     26  H   UNL A   1      31.792  34.511  27.034  1.00  0.00     0.163 HD
ATOM     27  O   UNL A   1      32.514  36.029  28.770  1.00  0.00    -0.269 OA
BRANCH  25  28
ATOM     28  C   UNL A   1      34.175  34.479  29.357  1.00  0.00     0.039 A 
ATOM     29  C   UNL A   1      33.982  33.961  30.639  1.00  0.00     0.014 A 
ATOM     30  C   UNL A   1      35.462  34.551  28.821  1.00  0.00     0.014 A 
ATOM     31  C   UNL A   1      35.069  33.438  31.342  1.00  0.00     0.010 A 
ATOM     32  C   UNL A   1      36.513  33.911  29.459  1.00  0.00     0.010 A 
ATOM     33  C   UNL A   1      36.332  33.359  30.734  1.00  0.00    -0.014 A 
BRANCH  33  34
ATOM     34  C   UNL A   1      37.485  32.713  31.407  1.00  0.00     0.031 A 
ATOM     35  C   UNL A   1      38.176  31.546  30.752  1.00  0.00     0.074 A 
ATOM     36  C   UNL A   1      37.848  33.120  32.640  1.00  0.00     0.049 A 
ATOM     37  N   UNL A   1      39.130  30.782  31.218  1.00  0.00    -0.248 NA
ATOM     38  C   UNL A   1      37.707  31.161  29.409  1.00  0.00     0.031 C 
ATOM     39  C   UNL A   1      37.207  34.194  33.401  1.00  0.00     0.029 A 
ATOM     40  N   UNL A   1      38.836  32.666  33.478  1.00  0.00    -0.354 N 
ATOM     41  C   UNL A   1      39.356  29.823  30.239  1.00  0.00     0.074 A 
ATOM     42  C   UNL A   1      38.402  30.058  29.180  1.00  0.00     0.031 C 
ATOM     43  C   UNL A   1      37.834  34.335  34.580  1.00  0.00     0.029 A 
ATOM     44  C   UNL A   1      38.887  33.331  34.680  1.00  0.00     0.049 A 
ATOM     45  H   UNL A   1      39.450  31.936  33.241  1.00  0.00     0.167 HD
ATOM     46  C   UNL A   1      40.296  28.849  30.217  1.00  0.00     0.037 A 
ATOM     47  C   UNL A   1      39.683  33.137  35.749  1.00  0.00     0.037 A 
ATOM     48  C   UNL A   1      41.269  28.651  31.257  1.00  0.00     0.049 A 
ATOM     49  C   UNL A   1      40.720  32.047  35.691  1.00  0.00     0.074 A 
ATOM     50  C   UNL A   1      42.322  27.754  31.290  1.00  0.00     0.029 A 
ATOM     51  N   UNL A   1      41.306  29.360  32.448  1.00  0.00    -0.354 N 
ATOM     52  N   UNL A   1      40.987  31.208  34.719  1.00  0.00    -0.248 NA
ATOM     53  C   UNL A   1      41.567  31.875  36.879  1.00  0.00     0.031 C 
ATOM     54  C   UNL A   1      42.959  27.879  32.527  1.00  0.00     0.029 A 
ATOM     55  C   UNL A   1      42.341  28.894  33.240  1.00  0.00     0.049 A 
ATOM     56  H   UNL A   1      40.688  30.086  32.693  1.00  0.00     0.167 HD
ATOM     57  C   UNL A   1      42.043  30.427  35.168  1.00  0.00     0.074 A 
ATOM     58  C   UNL A   1      42.387  30.911  36.488  1.00  0.00     0.031 C 
ATOM     59  C   UNL A   1      42.667  29.394  34.550  1.00  0.00     0.037 A 
BRANCH  46  60
ATOM     60  C   UNL A   1      40.333  27.930  29.031  1.00  0.00     0.064 A 
ATOM     61  C   UNL A   1      39.600  26.735  29.001  1.00  0.00     0.173 A 
ATOM     62  C   UNL A   1      41.054  28.286  27.881  1.00  0.00     0.173 A 
ATOM     63  F   UNL A   1      38.904  26.341  30.079  1.00  0.00    -0.203 F 
ATOM     64  C   UNL A   1      39.597  25.923  27.869  1.00  0.00     0.198 A 
ATOM     65  C   UNL A   1      41.025  27.488  26.741  1.00  0.00     0.198 A 
ATOM     66  F   UNL A   1      41.772  29.420  27.856  1.00  0.00    -0.203 F 
ATOM     67  F   UNL A   1      38.918  24.768  27.876  1.00  0.00    -0.200 F 
ATOM     68  C   UNL A   1      40.300  26.306  26.737  1.00  0.00     0.200 A 
ATOM     69  F   UNL A   1      41.694  27.866  25.642  1.00  0.00    -0.200 F 
ATOM     70  F   UNL A   1      40.279  25.534  25.642  1.00  0.00    -0.200 F 
ENDBRANCH  46  60
BRANCH  47  71
ATOM     71  C   UNL A   1      39.537  33.985  36.963  1.00  0.00     0.064 A 
ATOM     72  C   UNL A   1      38.775  33.553  38.059  1.00  0.00     0.173 A 
ATOM     73  C   UNL A   1      40.121  35.258  37.040  1.00  0.00     0.173 A 
ATOM     74  F   UNL A   1      38.179  32.352  38.028  1.00  0.00    -0.203 F 
ATOM     75  C   UNL A   1      38.573  34.375  39.167  1.00  0.00     0.198 A 
ATOM     76  C   UNL A   1      39.947  36.065  38.164  1.00  0.00     0.198 A 
ATOM     77  F   UNL A   1      40.864  35.719  36.024  1.00  0.00    -0.203 F 
ATOM     78  F   UNL A   1      37.786  33.961  40.169  1.00  0.00    -0.200 F 
ATOM     79  C   UNL A   1      39.162  35.629  39.219  1.00  0.00     0.200 A 
ATOM     80  F   UNL A   1      40.533  37.269  38.217  1.00  0.00    -0.200 F 
ATOM     81  F   UNL A   1      38.963  36.420  40.282  1.00  0.00    -0.200 F 
ENDBRANCH  47  71
BRANCH  59  82
ATOM     82  C   UNL A   1      43.796  28.735  35.287  1.00  0.00     0.064 A 
ATOM     83  C   UNL A   1      43.570  27.670  36.172  1.00  0.00     0.173 A 
ATOM     84  C   UNL A   1      45.121  29.143  35.073  1.00  0.00     0.173 A 
ATOM     85  F   UNL A   1      42.319  27.253  36.421  1.00  0.00    -0.203 F 
ATOM     86  C   UNL A   1      44.628  27.057  36.837  1.00  0.00     0.198 A 
ATOM     87  C   UNL A   1      46.179  28.504  35.712  1.00  0.00     0.198 A 
ATOM     88  F   UNL A   1      45.391  30.151  34.229  1.00  0.00    -0.203 F 
ATOM     89  F   UNL A   1      44.384  26.076  37.717  1.00  0.00    -0.200 F 
ATOM     90  C   UNL A   1      45.931  27.469  36.599  1.00  0.00     0.200 A 
ATOM     91  F   UNL A   1      47.438  28.892  35.468  1.00  0.00    -0.200 F 
ATOM     92  F   UNL A   1      46.949  26.870  37.232  1.00  0.00    -0.200 F 
ENDBRANCH  59  82
ENDBRANCH  33  34
ENDBRANCH  25  28
ENDBRANCH  23  24
ENDBRANCH  22  23
ENDBRANCH   1  22
TORSDOF 14
ENDMDL
MODEL 2
REMARK VINA RESULT:     -12.5      0.115      1.606
REMARK SMILES CC(C)C[C@H](C(=O)NCCCCNC(=O)c1ccc(-c2c3nc(c(-c4c(F)c(F)c(F)c(F)c4F)c4ccc([nH]4)c(-c4c(F)c(F)c(F)c(F)c4F)c4nc(c(-c5c(F)c(F)c(F)c(F)c5F)c5ccc2[nH]5)C=C4)C=C3)cc1)[C@@H]1CCO[C@]2(CCOC2)C1
REMARK SMILES IDX 10 1 9 2 8 3 6 4 7 5 5 7 4 8 2 9 1 10 3 11 79 12 80 13 88 14
REMARK SMILES IDX 81 15 83 16 82 17 84 18 87 19 85 20 86 21 11 22 12 23 13 24
REMARK SMILES IDX 14 25 15 27 16 28 17 29 78 30 18 31 77 32 19 33 20 34 21 35
REMARK SMILES IDX 71 36 22 37 76 38 70 39 72 40 23 41 75 42 69 43 68 44 24 46
REMARK SMILES IDX 56 47 36 48 55 49 37 50 40 51 54 52 73 53 38 54 39 55 53 57
REMARK SMILES IDX 74 58 41 59 25 60 26 61 34 62 27 63 28 64 32 65 35 66 29 67
REMARK SMILES IDX 30 68 33 69 31 70 57 71 58 72 66 73 59 74 60 75 64 76 67 77
REMARK SMILES IDX 61 78 62 79 65 80 63 81 42 82 43 83 51 84 44 85 45 86 49 87
REMARK SMILES IDX 52 88 46 89 47 90 50 91 48 92
REMARK H PARENT 8 6 13 26 72 45 40 56
REMARK Flexibility Score: inf
ROOT
ATOM      1  C   UNL A   1      31.709  30.516  26.270  1.00  0.00     0.023 C 
ENDROOT
BRANCH   1   2
ATOM      2  C   UNL A   1      33.136  29.973  26.111  1.00  0.00     0.116 C 
BRANCH   2   3
ATOM      3  N   UNL A   1      33.471  29.520  24.771  1.00  0.00    -0.356 N 
ATOM      4  C   UNL A   1      32.787  28.961  23.733  1.00  0.00     0.223 C 
ATOM      5  O   UNL A   1      33.435  28.924  22.678  1.00  0.00    -0.275 OA
ATOM      6  H   UNL A   1      34.424  29.648  24.562  1.00  0.00     0.163 HD
BRANCH   4   7
ATOM      7  C   UNL A   1      31.329  28.432  23.778  1.00  0.00     0.082 C 
BRANCH   7   8
ATOM      8  C   UNL A   1      30.452  29.408  22.891  1.00  0.00     0.016 C 
BRANCH   8   9
ATOM      9  C   UNL A   1      29.079  29.897  23.452  1.00  0.00    -0.017 C 
ATOM     10  C   UNL A   1      28.984  31.414  23.686  1.00  0.00     0.007 C 
ATOM     11  C   UNL A   1      27.963  29.536  22.461  1.00  0.00     0.007 C 
ENDBRANCH   8   9
ENDBRANCH   7   8
BRANCH   7  12
ATOM     12  C   UNL A   1      30.910  26.955  23.446  1.00  0.00     0.007 C 
ATOM     13  C   UNL A   1      29.639  26.474  24.125  1.00  0.00     0.033 C 
ATOM     14  C   UNL A   1      31.914  25.789  23.459  1.00  0.00     0.042 C 
ATOM     15  C   UNL A   1      29.877  25.859  25.474  1.00  0.00     0.161 C 
ATOM     16  C   UNL A   1      32.233  25.245  24.851  1.00  0.00     0.094 C 
ATOM     17  O   UNL A   1      31.084  25.140  25.694  1.00  0.00    -0.372 OA
ATOM     18  C   UNL A   1      33.429  26.016  25.411  1.00  0.00     0.066 C 
ATOM     19  C   UNL A   1      32.840  23.830  24.847  1.00  0.00     0.195 C 
ATOM     20  C   UNL A   1      34.639  25.110  25.373  1.00  0.00     0.163 C 
ATOM     21  O   UNL A   1      34.247  23.958  24.636  1.00  0.00    -0.378 OA
ENDBRANCH   7  12
ENDBRANCH   4   7
ENDBRANCH   2   3
ENDBRANCH   1   2
BRANCH   1  22
ATOM     22  C   UNL A   1      31.476  31.951  26.716  1.00  0.00     0.023 C 
BRANCH  22  23
ATOM     23  C   UNL A   1      32.675  32.642  27.305  1.00  0.00     0.116 C 
BRANCH  23  24
ATOM     24  N   UNL A   1      32.437  34.057  27.543  1.00  0.00    -0.352 N 
ATOM     25  C   UNL A   1      32.974  34.901  28.486  1.00  0.00     0.251 C 
ATOM     26  H   UNL A   1      31.787  34.477  26.933  1.00  0.00     0.163 HD
ATOM     27  O   UNL A   1      32.480  36.006  28.670  1.00  0.00    -0.269 OA
BRANCH  25  28
ATOM     28  C   UNL A   1      34.132  34.460  29.295  1.00  0.00     0.039 A 
ATOM     29  C   UNL A   1      33.912  33.885  30.548  1.00  0.00     0.014 A 
ATOM     30  C   UNL A   1      35.432  34.596  28.808  1.00  0.00     0.014 A 
ATOM     31  C   UNL A   1      34.991  33.368  31.267  1.00  0.00     0.010 A 
ATOM     32  C   UNL A   1      36.482  33.964  29.457  1.00  0.00     0.010 A 
ATOM     33  C   UNL A   1      36.276  33.355  30.701  1.00  0.00    -0.014 A 
BRANCH  33  34
ATOM     34  C   UNL A   1      37.427  32.719  31.388  1.00  0.00     0.031 A 
ATOM     35  C   UNL A   1      38.123  31.546  30.751  1.00  0.00     0.074 A 
ATOM     36  C   UNL A   1      37.782  33.140  32.619  1.00  0.00     0.049 A 
ATOM     37  N   UNL A   1      39.077  30.789  31.231  1.00  0.00    -0.248 NA
ATOM     38  C   UNL A   1      37.664  31.145  29.410  1.00  0.00     0.031 C 
ATOM     39  C   UNL A   1      37.134  34.222  33.365  1.00  0.00     0.029 A 
ATOM     40  N   UNL A   1      38.766  32.698  33.468  1.00  0.00    -0.354 N 
ATOM     41  C   UNL A   1      39.310  29.820  30.265  1.00  0.00     0.074 A 
ATOM     42  C   UNL A   1      38.362  30.041  29.198  1.00  0.00     0.031 C 
ATOM     43  C   UNL A   1      37.754  34.378  34.545  1.00  0.00     0.029 A 
ATOM     44  C   UNL A   1      38.808  33.377  34.663  1.00  0.00     0.049 A 
ATOM     45  H   UNL A   1      39.383  31.966  33.243  1.00  0.00     0.167 HD
ATOM     46  C   UNL A   1      40.252  28.848  30.260  1.00  0.00     0.037 A 
ATOM     47  C   UNL A   1      39.599  33.197  35.738  1.00  0.00     0.037 A 
ATOM     48  C   UNL A   1      41.220  28.663  31.307  1.00  0.00     0.049 A 
ATOM     49  C   UNL A   1      40.638  32.108  35.699  1.00  0.00     0.074 A 
ATOM     50  C   UNL A   1      42.274  27.769  31.356  1.00  0.00     0.029 A 
ATOM     51  N   UNL A   1      41.248  29.386  32.490  1.00  0.00    -0.354 N 
ATOM     52  N   UNL A   1      40.912  31.259  34.738  1.00  0.00    -0.248 NA
ATOM     53  C   UNL A   1      41.479  31.951  36.894  1.00  0.00     0.031 C 
ATOM     54  C   UNL A   1      42.904  27.909  32.595  1.00  0.00     0.029 A 
ATOM     55  C   UNL A   1      42.280  28.931  33.293  1.00  0.00     0.049 A 
ATOM     56  H   UNL A   1      40.627  30.113  32.723  1.00  0.00     0.167 HD
ATOM     57  C   UNL A   1      41.967  30.485  35.202  1.00  0.00     0.074 A 
ATOM     58  C   UNL A   1      42.303  30.985  36.518  1.00  0.00     0.031 C 
ATOM     59  C   UNL A   1      42.597  29.447  34.599  1.00  0.00     0.037 A 
BRANCH  46  60
ATOM     60  C   UNL A   1      40.299  27.915  29.084  1.00  0.00     0.064 A 
ATOM     61  C   UNL A   1      39.563  26.721  29.061  1.00  0.00     0.173 A 
ATOM     62  C   UNL A   1      41.030  28.257  27.936  1.00  0.00     0.173 A 
ATOM     63  F   UNL A   1      38.858  26.340  30.137  1.00  0.00    -0.203 F 
ATOM     64  C   UNL A   1      39.569  25.897  27.938  1.00  0.00     0.198 A 
ATOM     65  C   UNL A   1      41.009  27.447  26.805  1.00  0.00     0.198 A 
ATOM     66  F   UNL A   1      41.750  29.389  27.905  1.00  0.00    -0.203 F 
ATOM     67  F   UNL A   1      38.888  24.743  27.952  1.00  0.00    -0.200 F 
ATOM     68  C   UNL A   1      40.283  26.265  26.808  1.00  0.00     0.200 A 
ATOM     69  F   UNL A   1      41.689  27.811  25.708  1.00  0.00    -0.200 F 
ATOM     70  F   UNL A   1      40.270  25.482  25.721  1.00  0.00    -0.200 F 
ENDBRANCH  46  60
BRANCH  47  71
ATOM     71  C   UNL A   1      39.443  34.058  36.942  1.00  0.00     0.064 A 
ATOM     72  C   UNL A   1      40.075  35.308  37.024  1.00  0.00     0.173 A 
ATOM     73  C   UNL A   1      38.693  33.635  38.050  1.00  0.00     0.173 A 
ATOM     74  F   UNL A   1      40.819  35.750  36.000  1.00  0.00    -0.203 F 
ATOM     75  C   UNL A   1      39.992  36.083  38.180  1.00  0.00     0.198 A 
ATOM     76  C   UNL A   1      38.584  34.428  39.192  1.00  0.00     0.198 A 
ATOM     77  F   UNL A   1      38.064  32.451  38.024  1.00  0.00    -0.203 F 
ATOM     78  F   UNL A   1      40.661  37.242  38.253  1.00  0.00    -0.200 F 
ATOM     79  C   UNL A   1      39.245  35.644  39.261  1.00  0.00     0.200 A 
ATOM     80  F   UNL A   1      37.845  34.007  40.227  1.00  0.00    -0.200 F 
ATOM     81  F   UNL A   1      39.172  36.388  40.373  1.00  0.00    -0.200 F 
ENDBRANCH  47  71
BRANCH  59  82
ATOM     82  C   UNL A   1      43.723  28.799  35.350  1.00  0.00     0.064 A 
ATOM     83  C   UNL A   1      45.052  29.219  35.186  1.00  0.00     0.173 A 
ATOM     84  C   UNL A   1      43.466  27.777  36.276  1.00  0.00     0.173 A 
ATOM     85  F   UNL A   1      45.350  30.183  34.301  1.00  0.00    -0.203 F 
ATOM     86  C   UNL A   1      46.084  28.619  35.900  1.00  0.00     0.198 A 
ATOM     87  C   UNL A   1      44.497  27.205  37.016  1.00  0.00     0.198 A 
ATOM     88  F   UNL A   1      42.211  27.346  36.478  1.00  0.00    -0.203 F 
ATOM     89  F   UNL A   1      47.351  29.001  35.688  1.00  0.00    -0.200 F 
ATOM     90  C   UNL A   1      45.805  27.620  36.821  1.00  0.00     0.200 A 
ATOM     91  F   UNL A   1      44.223  26.251  37.917  1.00  0.00    -0.200 F 
ATOM     92  F   UNL A   1      46.800  27.052  37.516  1.00  0.00    -0.200 F 
ENDBRANCH  59  82
ENDBRANCH  33  34
ENDBRANCH  25  28
ENDBRANCH  23  24
ENDBRANCH  22  23
ENDBRANCH   1  22
TORSDOF 14
ENDMDL
MODEL 3
REMARK VINA RESULT:     -12.4      0.873      2.605
REMARK SMILES CC(C)C[C@H](C(=O)NCCCCNC(=O)c1ccc(-c2c3nc(c(-c4c(F)c(F)c(F)c(F)c4F)c4ccc([nH]4)c(-c4c(F)c(F)c(F)c(F)c4F)c4nc(c(-c5c(F)c(F)c(F)c(F)c5F)c5ccc2[nH]5)C=C4)C=C3)cc1)[C@@H]1CCO[C@]2(CCOC2)C1
REMARK SMILES IDX 10 1 9 2 8 3 6 4 7 5 5 7 4 8 2 9 1 10 3 11 79 12 80 13 88 14
REMARK SMILES IDX 81 15 83 16 82 17 84 18 87 19 85 20 86 21 11 22 12 23 13 24
REMARK SMILES IDX 14 25 15 27 16 28 17 29 78 30 18 31 77 32 19 33 20 34 21 35
REMARK SMILES IDX 71 36 22 37 76 38 70 39 72 40 23 41 75 42 69 43 68 44 24 46
REMARK SMILES IDX 56 47 36 48 55 49 37 50 40 51 54 52 73 53 38 54 39 55 53 57
REMARK SMILES IDX 74 58 41 59 25 60 26 61 34 62 27 63 28 64 32 65 35 66 29 67
REMARK SMILES IDX 30 68 33 69 31 70 57 71 58 72 66 73 59 74 60 75 64 76 67 77
REMARK SMILES IDX 61 78 62 79 65 80 63 81 42 82 43 83 51 84 44 85 45 86 49 87
REMARK SMILES IDX 52 88 46 89 47 90 50 91 48 92
REMARK H PARENT 8 6 13 26 72 45 40 56
REMARK Flexibility Score: inf
ROOT
ATOM      1  C   UNL A   1      31.790  30.483  26.555  1.00  0.00     0.023 C 
ENDROOT
BRANCH   1   2
ATOM      2  C   UNL A   1      33.185  29.849  26.637  1.00  0.00     0.116 C 
BRANCH   2   3
ATOM      3  N   UNL A   1      33.771  29.496  25.355  1.00  0.00    -0.356 N 
ATOM      4  C   UNL A   1      33.693  28.431  24.509  1.00  0.00     0.223 C 
ATOM      5  O   UNL A   1      34.209  28.640  23.402  1.00  0.00    -0.275 OA
ATOM      6  H   UNL A   1      34.372  30.197  25.014  1.00  0.00     0.163 HD
BRANCH   4   7
ATOM      7  C   UNL A   1      33.013  27.069  24.813  1.00  0.00     0.082 C 
BRANCH   7   8
ATOM      8  C   UNL A   1      33.932  26.313  25.858  1.00  0.00     0.016 C 
BRANCH   8   9
ATOM      9  C   UNL A   1      34.617  24.979  25.423  1.00  0.00    -0.017 C 
ATOM     10  C   UNL A   1      34.131  23.730  26.176  1.00  0.00     0.007 C 
ATOM     11  C   UNL A   1      34.343  24.726  23.933  1.00  0.00     0.007 C 
ENDBRANCH   8   9
ENDBRANCH   7   8
BRANCH   7  12
ATOM     12  C   UNL A   1      31.517  26.904  25.264  1.00  0.00     0.007 C 
ATOM     13  C   UNL A   1      30.959  25.496  25.155  1.00  0.00     0.033 C 
ATOM     14  C   UNL A   1      30.410  27.878  24.822  1.00  0.00     0.042 C 
ATOM     15  C   UNL A   1      30.348  25.195  23.817  1.00  0.00     0.161 C 
ATOM     16  C   UNL A   1      29.874  27.630  23.414  1.00  0.00     0.094 C 
ATOM     17  O   UNL A   1      29.697  26.244  23.112  1.00  0.00    -0.372 OA
ATOM     18  C   UNL A   1      30.707  28.448  22.426  1.00  0.00     0.066 C 
ATOM     19  C   UNL A   1      28.496  28.263  23.146  1.00  0.00     0.195 C 
ATOM     20  C   UNL A   1      29.872  29.615  21.952  1.00  0.00     0.163 C 
ATOM     21  O   UNL A   1      28.705  29.624  22.766  1.00  0.00    -0.378 OA
ENDBRANCH   7  12
ENDBRANCH   4   7
ENDBRANCH   2   3
ENDBRANCH   1   2
BRANCH   1  22
ATOM     22  C   UNL A   1      31.610  31.977  26.775  1.00  0.00     0.023 C 
BRANCH  22  23
ATOM     23  C   UNL A   1      32.808  32.692  27.336  1.00  0.00     0.116 C 
BRANCH  23  24
ATOM     24  N   UNL A   1      32.529  34.088  27.633  1.00  0.00    -0.352 N 
ATOM     25  C   UNL A   1      33.038  34.906  28.615  1.00  0.00     0.251 C 
ATOM     26  H   UNL A   1      31.872  34.517  27.038  1.00  0.00     0.163 HD
ATOM     27  O   UNL A   1      32.513  35.988  28.843  1.00  0.00    -0.269 OA
BRANCH  25  28
ATOM     28  C   UNL A   1      34.204  34.462  29.411  1.00  0.00     0.039 A 
ATOM     29  C   UNL A   1      33.996  33.885  30.665  1.00  0.00     0.014 A 
ATOM     30  C   UNL A   1      35.499  34.596  28.911  1.00  0.00     0.014 A 
ATOM     31  C   UNL A   1      35.082  33.365  31.373  1.00  0.00     0.010 A 
ATOM     32  C   UNL A   1      36.555  33.962  29.548  1.00  0.00     0.010 A 
ATOM     33  C   UNL A   1      36.361  33.351  30.793  1.00  0.00    -0.014 A 
BRANCH  33  34
ATOM     34  C   UNL A   1      37.518  32.712  31.468  1.00  0.00     0.031 A 
ATOM     35  C   UNL A   1      38.213  31.546  30.816  1.00  0.00     0.074 A 
ATOM     36  C   UNL A   1      37.880  33.125  32.699  1.00  0.00     0.049 A 
ATOM     37  N   UNL A   1      39.171  30.787  31.284  1.00  0.00    -0.248 NA
ATOM     38  C   UNL A   1      37.744  31.154  29.475  1.00  0.00     0.031 C 
ATOM     39  C   UNL A   1      37.235  34.199  33.457  1.00  0.00     0.029 A 
ATOM     40  N   UNL A   1      38.871  32.678  33.538  1.00  0.00    -0.354 N 
ATOM     41  C   UNL A   1      39.400  29.826  30.308  1.00  0.00     0.074 A 
ATOM     42  C   UNL A   1      38.444  30.054  29.250  1.00  0.00     0.031 C 
ATOM     43  C   UNL A   1      37.863  34.347  34.634  1.00  0.00     0.029 A 
ATOM     44  C   UNL A   1      38.920  33.348  34.737  1.00  0.00     0.049 A 
ATOM     45  H   UNL A   1      39.488  31.950  33.302  1.00  0.00     0.167 HD
ATOM     46  C   UNL A   1      40.344  28.856  30.289  1.00  0.00     0.037 A 
ATOM     47  C   UNL A   1      39.719  33.161  35.806  1.00  0.00     0.037 A 
ATOM     48  C   UNL A   1      41.319  28.665  31.328  1.00  0.00     0.049 A 
ATOM     49  C   UNL A   1      40.760  32.075  35.751  1.00  0.00     0.074 A 
ATOM     50  C   UNL A   1      42.376  27.774  31.363  1.00  0.00     0.029 A 
ATOM     51  N   UNL A   1      41.354  29.379  32.517  1.00  0.00    -0.354 N 
ATOM     52  N   UNL A   1      41.030  31.234  34.781  1.00  0.00    -0.248 NA
ATOM     53  C   UNL A   1      41.610  31.911  36.939  1.00  0.00     0.031 C 
ATOM     54  C   UNL A   1      43.014  27.906  32.598  1.00  0.00     0.029 A 
ATOM     55  C   UNL A   1      42.392  28.920  33.309  1.00  0.00     0.049 A 
ATOM     56  H   UNL A   1      40.733  30.103  32.760  1.00  0.00     0.167 HD
ATOM     57  C   UNL A   1      42.089  30.459  35.232  1.00  0.00     0.074 A 
ATOM     58  C   UNL A   1      42.433  30.949  36.550  1.00  0.00     0.031 C 
ATOM     59  C   UNL A   1      42.718  29.427  34.617  1.00  0.00     0.037 A 
BRANCH  46  60
ATOM     60  C   UNL A   1      40.384  27.933  29.105  1.00  0.00     0.064 A 
ATOM     61  C   UNL A   1      39.624  26.755  29.064  1.00  0.00     0.173 A 
ATOM     62  C   UNL A   1      41.135  28.269  27.969  1.00  0.00     0.173 A 
ATOM     63  F   UNL A   1      38.898  26.379  30.128  1.00  0.00    -0.203 F 
ATOM     64  C   UNL A   1      39.626  25.940  27.934  1.00  0.00     0.198 A 
ATOM     65  C   UNL A   1      41.111  27.469  26.831  1.00  0.00     0.198 A 
ATOM     66  F   UNL A   1      41.879  29.386  27.956  1.00  0.00    -0.203 F 
ATOM     67  F   UNL A   1      38.920  24.801  27.930  1.00  0.00    -0.200 F 
ATOM     68  C   UNL A   1      40.359  26.303  26.815  1.00  0.00     0.200 A 
ATOM     69  F   UNL A   1      41.810  27.828  25.745  1.00  0.00    -0.200 F 
ATOM     70  F   UNL A   1      40.342  25.529  25.722  1.00  0.00    -0.200 F 
ENDBRANCH  46  60
BRANCH  47  71
ATOM     71  C   UNL A   1      39.570  34.012  37.017  1.00  0.00     0.064 A 
ATOM     72  C   UNL A   1      38.821  33.576  38.120  1.00  0.00     0.173 A 
ATOM     73  C   UNL A   1      40.138  35.294  37.085  1.00  0.00     0.173 A 
ATOM     74  F   UNL A   1      38.241  32.367  38.098  1.00  0.00    -0.203 F 
ATOM     75  C   UNL A   1      38.617  34.400  39.226  1.00  0.00     0.198 A 
ATOM     76  C   UNL A   1      39.962  36.103  38.206  1.00  0.00     0.198 A 
ATOM     77  F   UNL A   1      40.868  35.759  36.061  1.00  0.00    -0.203 F 
ATOM     78  F   UNL A   1      37.842  33.982  40.235  1.00  0.00    -0.200 F 
ATOM     79  C   UNL A   1      39.190  35.662  39.268  1.00  0.00     0.200 A 
ATOM     80  F   UNL A   1      40.533  37.314  38.249  1.00  0.00    -0.200 F 
ATOM     81  F   UNL A   1      38.988  36.456  40.329  1.00  0.00    -0.200 F 
ENDBRANCH  47  71
BRANCH  59  82
ATOM     82  C   UNL A   1      43.850  28.775  35.355  1.00  0.00     0.064 A 
ATOM     83  C   UNL A   1      45.177  29.196  35.180  1.00  0.00     0.173 A 
ATOM     84  C   UNL A   1      43.601  27.749  36.278  1.00  0.00     0.173 A 
ATOM     85  F   UNL A   1      45.467  30.163  34.297  1.00  0.00    -0.203 F 
ATOM     86  C   UNL A   1      46.216  28.593  35.883  1.00  0.00     0.198 A 
ATOM     87  C   UNL A   1      44.638  27.174  37.006  1.00  0.00     0.198 A 
ATOM     88  F   UNL A   1      42.348  27.317  36.490  1.00  0.00    -0.203 F 
ATOM     89  F   UNL A   1      47.481  28.975  35.661  1.00  0.00    -0.200 F 
ATOM     90  C   UNL A   1      45.945  27.590  36.801  1.00  0.00     0.200 A 
ATOM     91  F   UNL A   1      44.372  26.217  37.906  1.00  0.00    -0.200 F 
ATOM     92  F   UNL A   1      46.946  27.019  37.485  1.00  0.00    -0.200 F 
ENDBRANCH  59  82
ENDBRANCH  33  34
ENDBRANCH  25  28
ENDBRANCH  23  24
ENDBRANCH  22  23
ENDBRANCH   1  22
TORSDOF 14
ENDMDL
