MODEL 1
REMARK VINA RESULT:     -12.2      0.000      0.000
REMARK SMILES CCOc1cc(C(=O)NCCCCNC(=O)c2ccc(-c3c4nc(c(-c5c(F)c(F)c(F)c(F)c5F)c5ccc([nH]5)c(-c5c(F)c(F)c(F)c(F)c5F)c5nc(c(-c6c(F)c(F)c(F)c(F)c6F)c6ccc3[nH]6)C=C5)C=C4)cc2)ccc1OCc1ccc(Cl)c(Cl)c1
REMARK SMILES IDX 11 1 10 2 9 3 7 4 8 5 6 7 4 8 5 9 82 10 81 11 80 12 3 13
REMARK SMILES IDX 2 14 1 15 83 16 84 17 85 18 86 19 92 20 87 21 90 22 88 23
REMARK SMILES IDX 91 24 89 25 12 26 13 27 14 28 15 29 16 31 17 32 18 33 79 34
REMARK SMILES IDX 19 35 78 36 20 37 21 38 22 39 72 40 23 41 77 42 71 43 73 44
REMARK SMILES IDX 24 45 76 46 70 47 69 48 25 50 57 51 37 52 56 53 38 54 41 55
REMARK SMILES IDX 55 56 74 57 39 58 40 59 54 61 75 62 42 63 26 64 27 65 35 66
REMARK SMILES IDX 28 67 29 68 33 69 36 70 30 71 31 72 34 73 32 74 58 75 59 76
REMARK SMILES IDX 67 77 60 78 61 79 65 80 68 81 62 82 63 83 66 84 64 85 43 86
REMARK SMILES IDX 44 87 52 88 45 89 46 90 50 91 53 92 47 93 48 94 51 95 49 96
REMARK H PARENT 9 6 14 30 73 49 41 60
REMARK Flexibility Score: inf
ROOT
ATOM      1  C   UNL A   1      33.426  29.303  24.709  1.00  0.00     0.023 C 
ENDROOT
BRANCH   1   2
ATOM      2  C   UNL A   1      33.326  28.914  23.241  1.00  0.00     0.116 C 
BRANCH   2   3
ATOM      3  N   UNL A   1      32.051  29.250  22.619  1.00  0.00    -0.352 N 
ATOM      4  C   UNL A   1      30.872  28.532  22.608  1.00  0.00     0.251 C 
ATOM      5  O   UNL A   1      29.905  28.928  21.964  1.00  0.00    -0.269 OA
ATOM      6  H   UNL A   1      32.028  30.110  22.140  1.00  0.00     0.163 HD
BRANCH   4   7
ATOM      7  C   UNL A   1      30.779  27.260  23.365  1.00  0.00     0.043 A 
ATOM      8  C   UNL A   1      31.302  24.909  23.578  1.00  0.00     0.161 A 
ATOM      9  C   UNL A   1      31.242  26.063  22.791  1.00  0.00     0.064 A 
ATOM     10  C   UNL A   1      30.931  24.981  24.929  1.00  0.00     0.161 A 
ATOM     11  C   UNL A   1      30.424  26.159  25.474  1.00  0.00     0.051 A 
ATOM     12  C   UNL A   1      30.280  27.278  24.672  1.00  0.00     0.018 A 
BRANCH   8  13
ATOM     13  O   UNL A   1      31.806  23.734  23.092  1.00  0.00    -0.490 OA
BRANCH  13  14
ATOM     14  C   UNL A   1      32.903  23.910  22.183  1.00  0.00     0.226 C 
ATOM     15  C   UNL A   1      34.133  24.311  22.988  1.00  0.00     0.049 C 
ENDBRANCH  13  14
ENDBRANCH   8  13
BRANCH  10  16
ATOM     16  O   UNL A   1      31.065  23.959  25.803  1.00  0.00    -0.485 OA
BRANCH  16  17
ATOM     17  C   UNL A   1      32.283  23.852  26.543  1.00  0.00     0.265 C 
BRANCH  17  18
ATOM     18  C   UNL A   1      33.477  22.942  26.232  1.00  0.00    -0.009 A 
ATOM     19  C   UNL A   1      33.437  21.630  25.749  1.00  0.00     0.009 A 
ATOM     20  C   UNL A   1      34.750  23.539  26.337  1.00  0.00     0.029 A 
ATOM     21  C   UNL A   1      34.598  20.945  25.369  1.00  0.00     0.022 A 
ATOM     22  C   UNL A   1      35.918  22.861  25.962  1.00  0.00     0.060 A 
ATOM     23  C   UNL A   1      35.840  21.561  25.466  1.00  0.00     0.059 A 
ATOM     24  Cl  UNL A   1      37.417  23.705  26.117  1.00  0.00    -0.083 Cl
ATOM     25  Cl  UNL A   1      37.222  20.674  24.938  1.00  0.00    -0.083 Cl
ENDBRANCH  17  18
ENDBRANCH  16  17
ENDBRANCH  10  16
ENDBRANCH   4   7
ENDBRANCH   2   3
ENDBRANCH   1   2
BRANCH   1  26
ATOM     26  C   UNL A   1      33.739  28.166  25.673  1.00  0.00     0.023 C 
BRANCH  26  27
ATOM     27  C   UNL A   1      33.469  28.454  27.146  1.00  0.00     0.116 C 
BRANCH  27  28
ATOM     28  N   UNL A   1      33.497  29.872  27.484  1.00  0.00    -0.352 N 
ATOM     29  C   UNL A   1      34.514  30.630  28.017  1.00  0.00     0.251 C 
ATOM     30  H   UNL A   1      32.663  30.360  27.303  1.00  0.00     0.163 HD
ATOM     31  O   UNL A   1      34.315  31.805  28.317  1.00  0.00    -0.269 OA
BRANCH  29  32
ATOM     32  C   UNL A   1      35.839  30.023  28.273  1.00  0.00     0.039 A 
ATOM     33  C   UNL A   1      36.823  30.108  27.285  1.00  0.00     0.014 A 
ATOM     34  C   UNL A   1      36.122  29.401  29.491  1.00  0.00     0.014 A 
ATOM     35  C   UNL A   1      38.119  29.659  27.556  1.00  0.00     0.010 A 
ATOM     36  C   UNL A   1      37.432  29.037  29.791  1.00  0.00     0.010 A 
ATOM     37  C   UNL A   1      38.446  29.168  28.830  1.00  0.00    -0.014 A 
BRANCH  37  38
ATOM     38  C   UNL A   1      39.840  28.799  29.185  1.00  0.00     0.031 A 
ATOM     39  C   UNL A   1      40.699  29.753  29.969  1.00  0.00     0.074 A 
ATOM     40  C   UNL A   1      40.362  27.642  28.731  1.00  0.00     0.049 A 
ATOM     41  N   UNL A   1      41.962  29.651  30.300  1.00  0.00    -0.248 NA
ATOM     42  C   UNL A   1      40.062  31.001  30.412  1.00  0.00     0.031 C 
ATOM     43  C   UNL A   1      39.653  26.655  27.917  1.00  0.00     0.029 A 
ATOM     44  N   UNL A   1      41.618  27.105  28.882  1.00  0.00    -0.354 N 
ATOM     45  C   UNL A   1      42.271  30.825  30.972  1.00  0.00     0.074 A 
ATOM     46  C   UNL A   1      41.082  31.650  30.950  1.00  0.00     0.031 C 
ATOM     47  C   UNL A   1      40.473  25.623  27.661  1.00  0.00     0.029 A 
ATOM     48  C   UNL A   1      41.778  25.892  28.258  1.00  0.00     0.049 A 
ATOM     49  H   UNL A   1      42.336  27.549  29.390  1.00  0.00     0.167 HD
ATOM     50  C   UNL A   1      43.432  31.175  31.577  1.00  0.00     0.037 A 
ATOM     51  C   UNL A   1      42.856  25.090  28.170  1.00  0.00     0.037 A 
ATOM     52  C   UNL A   1      44.605  30.342  31.620  1.00  0.00     0.049 A 
ATOM     53  C   UNL A   1      44.137  25.504  28.843  1.00  0.00     0.074 A 
ATOM     54  C   UNL A   1      45.808  30.578  32.261  1.00  0.00     0.029 A 
ATOM     55  N   UNL A   1      44.723  29.112  30.989  1.00  0.00    -0.354 N 
ATOM     56  N   UNL A   1      44.395  26.585  29.539  1.00  0.00    -0.248 NA
ATOM     57  C   UNL A   1      45.275  24.582  28.722  1.00  0.00     0.031 C 
ATOM     58  C   UNL A   1      46.670  29.513  31.981  1.00  0.00     0.029 A 
ATOM     59  C   UNL A   1      45.988  28.588  31.207  1.00  0.00     0.049 A 
ATOM     60  H   UNL A   1      44.013  28.675  30.464  1.00  0.00     0.167 HD
ATOM     61  C   UNL A   1      45.712  26.461  29.962  1.00  0.00     0.074 A 
ATOM     62  C   UNL A   1      46.195  25.192  29.456  1.00  0.00     0.031 C 
ATOM     63  C   UNL A   1      46.453  27.321  30.702  1.00  0.00     0.037 A 
BRANCH  50  64
ATOM     64  C   UNL A   1      43.486  32.520  32.244  1.00  0.00     0.064 A 
ATOM     65  C   UNL A   1      43.880  33.673  31.546  1.00  0.00     0.173 A 
ATOM     66  C   UNL A   1      43.118  32.663  33.591  1.00  0.00     0.173 A 
ATOM     67  F   UNL A   1      44.252  33.588  30.260  1.00  0.00    -0.203 F 
ATOM     68  C   UNL A   1      43.940  34.910  32.181  1.00  0.00     0.198 A 
ATOM     69  C   UNL A   1      43.148  33.909  34.212  1.00  0.00     0.198 A 
ATOM     70  F   UNL A   1      42.728  31.596  34.303  1.00  0.00    -0.203 F 
ATOM     71  F   UNL A   1      44.376  35.985  31.509  1.00  0.00    -0.200 F 
ATOM     72  C   UNL A   1      43.568  35.028  33.512  1.00  0.00     0.200 A 
ATOM     73  F   UNL A   1      42.776  34.024  35.495  1.00  0.00    -0.200 F 
ATOM     74  F   UNL A   1      43.624  36.221  34.120  1.00  0.00    -0.200 F 
ENDBRANCH  50  64
BRANCH  51  75
ATOM     75  C   UNL A   1      42.763  23.799  27.439  1.00  0.00     0.064 A 
ATOM     76  C   UNL A   1      43.141  23.710  26.092  1.00  0.00     0.173 A 
ATOM     77  C   UNL A   1      42.296  22.634  28.064  1.00  0.00     0.173 A 
ATOM     78  F   UNL A   1      43.574  24.802  25.444  1.00  0.00    -0.203 F 
ATOM     79  C   UNL A   1      43.040  22.509  25.393  1.00  0.00     0.198 A 
ATOM     80  C   UNL A   1      42.222  21.427  27.372  1.00  0.00     0.198 A 
ATOM     81  F   UNL A   1      41.925  22.666  29.352  1.00  0.00    -0.203 F 
ATOM     82  F   UNL A   1      43.368  22.462  24.095  1.00  0.00    -0.200 F 
ATOM     83  C   UNL A   1      42.586  21.367  26.036  1.00  0.00     0.200 A 
ATOM     84  F   UNL A   1      41.796  20.323  28.000  1.00  0.00    -0.200 F 
ATOM     85  F   UNL A   1      42.494  20.210  25.366  1.00  0.00    -0.200 F 
ENDBRANCH  51  75
BRANCH  63  86
ATOM     86  C   UNL A   1      47.856  26.907  31.041  1.00  0.00     0.064 A 
ATOM     87  C   UNL A   1      48.137  26.082  32.140  1.00  0.00     0.173 A 
ATOM     88  C   UNL A   1      48.929  27.310  30.231  1.00  0.00     0.173 A 
ATOM     89  F   UNL A   1      47.149  25.683  32.955  1.00  0.00    -0.203 F 
ATOM     90  C   UNL A   1      49.443  25.695  32.429  1.00  0.00     0.198 A 
ATOM     91  C   UNL A   1      50.229  26.896  30.504  1.00  0.00     0.198 A 
ATOM     92  F   UNL A   1      48.714  28.095  29.164  1.00  0.00    -0.203 F 
ATOM     93  F   UNL A   1      49.693  24.946  33.511  1.00  0.00    -0.200 F 
ATOM     94  C   UNL A   1      50.486  26.095  31.607  1.00  0.00     0.200 A 
ATOM     95  F   UNL A   1      51.234  27.272  29.701  1.00  0.00    -0.200 F 
ATOM     96  F   UNL A   1      51.741  25.715  31.882  1.00  0.00    -0.200 F 
ENDBRANCH  63  86
ENDBRANCH  37  38
ENDBRANCH  29  32
ENDBRANCH  27  28
ENDBRANCH  26  27
ENDBRANCH   1  26
TORSDOF 16
ENDMDL
MODEL 2
REMARK VINA RESULT:     -12.2      3.498      5.498
REMARK SMILES CCOc1cc(C(=O)NCCCCNC(=O)c2ccc(-c3c4nc(c(-c5c(F)c(F)c(F)c(F)c5F)c5ccc([nH]5)c(-c5c(F)c(F)c(F)c(F)c5F)c5nc(c(-c6c(F)c(F)c(F)c(F)c6F)c6ccc3[nH]6)C=C5)C=C4)cc2)ccc1OCc1ccc(Cl)c(Cl)c1
REMARK SMILES IDX 11 1 10 2 9 3 7 4 8 5 6 7 4 8 5 9 82 10 81 11 80 12 3 13
REMARK SMILES IDX 2 14 1 15 83 16 84 17 85 18 86 19 92 20 87 21 90 22 88 23
REMARK SMILES IDX 91 24 89 25 12 26 13 27 14 28 15 29 16 31 17 32 18 33 79 34
REMARK SMILES IDX 19 35 78 36 20 37 21 38 22 39 72 40 23 41 77 42 71 43 73 44
REMARK SMILES IDX 24 45 76 46 70 47 69 48 25 50 57 51 37 52 56 53 38 54 41 55
REMARK SMILES IDX 55 56 74 57 39 58 40 59 54 61 75 62 42 63 26 64 27 65 35 66
REMARK SMILES IDX 28 67 29 68 33 69 36 70 30 71 31 72 34 73 32 74 58 75 59 76
REMARK SMILES IDX 67 77 60 78 61 79 65 80 68 81 62 82 63 83 66 84 64 85 43 86
REMARK SMILES IDX 44 87 52 88 45 89 46 90 50 91 53 92 47 93 48 94 51 95 49 96
REMARK H PARENT 9 6 14 30 73 49 41 60
REMARK Flexibility Score: inf
ROOT
ATOM      1  C   UNL A   1      31.532  30.827  26.121  1.00  0.00     0.023 C 
ENDROOT
BRANCH   1   2
ATOM      2  C   UNL A   1      31.881  29.874  27.255  1.00  0.00     0.116 C 
BRANCH   2   3
ATOM      3  N   UNL A   1      33.312  29.729  27.495  1.00  0.00    -0.352 N 
ATOM      4  C   UNL A   1      34.205  28.846  26.923  1.00  0.00     0.251 C 
ATOM      5  O   UNL A   1      35.372  28.806  27.300  1.00  0.00    -0.269 OA
ATOM      6  H   UNL A   1      33.694  30.348  28.159  1.00  0.00     0.163 HD
BRANCH   4   7
ATOM      7  C   UNL A   1      33.746  27.924  25.856  1.00  0.00     0.043 A 
ATOM      8  C   UNL A   1      32.396  26.045  25.153  1.00  0.00     0.161 A 
ATOM      9  C   UNL A   1      32.959  26.805  26.183  1.00  0.00     0.064 A 
ATOM     10  C   UNL A   1      32.603  26.435  23.822  1.00  0.00     0.161 A 
ATOM     11  C   UNL A   1      33.427  27.513  23.507  1.00  0.00     0.051 A 
ATOM     12  C   UNL A   1      34.057  28.212  24.523  1.00  0.00     0.018 A 
BRANCH   8  13
ATOM     13  O   UNL A   1      31.568  24.988  25.412  1.00  0.00    -0.490 OA
BRANCH  13  14
ATOM     14  C   UNL A   1      32.010  24.163  26.501  1.00  0.00     0.226 C 
ATOM     15  C   UNL A   1      31.099  22.946  26.581  1.00  0.00     0.049 C 
ENDBRANCH  13  14
ENDBRANCH   8  13
BRANCH  10  16
ATOM     16  O   UNL A   1      32.008  25.843  22.762  1.00  0.00    -0.485 OA
BRANCH  16  17
ATOM     17  C   UNL A   1      32.678  24.750  22.130  1.00  0.00     0.265 C 
BRANCH  17  18
ATOM     18  C   UNL A   1      33.499  23.650  22.811  1.00  0.00    -0.009 A 
ATOM     19  C   UNL A   1      34.846  23.708  23.186  1.00  0.00     0.009 A 
ATOM     20  C   UNL A   1      32.782  22.500  23.204  1.00  0.00     0.029 A 
ATOM     21  C   UNL A   1      35.452  22.689  23.930  1.00  0.00     0.022 A 
ATOM     22  C   UNL A   1      33.381  21.473  23.947  1.00  0.00     0.060 A 
ATOM     23  C   UNL A   1      34.720  21.574  24.320  1.00  0.00     0.059 A 
ATOM     24  Cl  UNL A   1      32.395  20.125  24.387  1.00  0.00    -0.083 Cl
ATOM     25  Cl  UNL A   1      35.519  20.379  25.274  1.00  0.00    -0.083 Cl
ENDBRANCH  17  18
ENDBRANCH  16  17
ENDBRANCH  10  16
ENDBRANCH   4   7
ENDBRANCH   2   3
ENDBRANCH   1   2
BRANCH   1  26
ATOM     26  C   UNL A   1      31.353  32.287  26.517  1.00  0.00     0.023 C 
BRANCH  26  27
ATOM     27  C   UNL A   1      32.520  32.916  27.270  1.00  0.00     0.116 C 
BRANCH  27  28
ATOM     28  N   UNL A   1      32.293  34.304  27.654  1.00  0.00    -0.352 N 
ATOM     29  C   UNL A   1      32.952  35.081  28.578  1.00  0.00     0.251 C 
ATOM     30  H   UNL A   1      31.559  34.754  27.178  1.00  0.00     0.163 HD
ATOM     31  O   UNL A   1      32.553  36.216  28.826  1.00  0.00    -0.269 OA
BRANCH  29  32
ATOM     32  C   UNL A   1      34.116  34.537  29.312  1.00  0.00     0.039 A 
ATOM     33  C   UNL A   1      33.906  33.911  30.543  1.00  0.00     0.014 A 
ATOM     34  C   UNL A   1      35.403  34.614  28.776  1.00  0.00     0.014 A 
ATOM     35  C   UNL A   1      34.971  33.275  31.188  1.00  0.00     0.010 A 
ATOM     36  C   UNL A   1      36.442  33.906  29.374  1.00  0.00     0.010 A 
ATOM     37  C   UNL A   1      36.237  33.223  30.582  1.00  0.00    -0.014 A 
BRANCH  37  38
ATOM     38  C   UNL A   1      37.354  32.450  31.184  1.00  0.00     0.031 A 
ATOM     39  C   UNL A   1      37.861  32.798  32.556  1.00  0.00     0.074 A 
ATOM     40  C   UNL A   1      37.966  31.489  30.465  1.00  0.00     0.049 A 
ATOM     41  N   UNL A   1      38.878  32.301  33.216  1.00  0.00    -0.248 NA
ATOM     42  C   UNL A   1      37.151  33.870  33.269  1.00  0.00     0.031 C 
ATOM     43  C   UNL A   1      37.606  31.090  29.104  1.00  0.00     0.029 A 
ATOM     44  N   UNL A   1      39.031  30.678  30.775  1.00  0.00    -0.354 N 
ATOM     45  C   UNL A   1      38.937  33.010  34.407  1.00  0.00     0.074 A 
ATOM     46  C   UNL A   1      37.893  34.010  34.356  1.00  0.00     0.031 C 
ATOM     47  C   UNL A   1      38.416  30.097  28.706  1.00  0.00     0.029 A 
ATOM     48  C   UNL A   1      39.379  29.814  29.766  1.00  0.00     0.049 A 
ATOM     49  H   UNL A   1      39.501  30.714  31.640  1.00  0.00     0.167 HD
ATOM     50  C   UNL A   1      39.769  32.827  35.461  1.00  0.00     0.037 A 
ATOM     51  C   UNL A   1      40.368  28.902  29.700  1.00  0.00     0.037 A 
ATOM     52  C   UNL A   1      40.790  31.814  35.520  1.00  0.00     0.049 A 
ATOM     53  C   UNL A   1      41.284  28.722  30.880  1.00  0.00     0.074 A 
ATOM     54  C   UNL A   1      41.640  31.506  36.567  1.00  0.00     0.029 A 
ATOM     55  N   UNL A   1      41.101  30.946  34.483  1.00  0.00    -0.354 N 
ATOM     56  N   UNL A   1      41.284  29.350  32.031  1.00  0.00    -0.248 NA
ATOM     57  C   UNL A   1      42.335  27.703  30.752  1.00  0.00     0.031 C 
ATOM     58  C   UNL A   1      42.498  30.484  36.148  1.00  0.00     0.029 A 
ATOM     59  C   UNL A   1      42.149  30.118  34.858  1.00  0.00     0.049 A 
ATOM     60  H   UNL A   1      40.647  30.922  33.610  1.00  0.00     0.167 HD
ATOM     61  C   UNL A   1      42.311  28.784  32.774  1.00  0.00     0.074 A 
ATOM     62  C   UNL A   1      42.905  27.753  31.947  1.00  0.00     0.031 C 
ATOM     63  C   UNL A   1      42.725  29.092  34.027  1.00  0.00     0.037 A 
BRANCH  50  64
ATOM     64  C   UNL A   1      39.604  33.745  36.639  1.00  0.00     0.064 A 
ATOM     65  C   UNL A   1      38.821  33.387  37.748  1.00  0.00     0.173 A 
ATOM     66  C   UNL A   1      40.255  34.987  36.670  1.00  0.00     0.173 A 
ATOM     67  F   UNL A   1      38.169  32.214  37.763  1.00  0.00    -0.203 F 
ATOM     68  C   UNL A   1      38.666  34.254  38.826  1.00  0.00     0.198 A 
ATOM     69  C   UNL A   1      40.123  35.837  37.766  1.00  0.00     0.198 A 
ATOM     70  F   UNL A   1      41.021  35.377  35.641  1.00  0.00    -0.203 F 
ATOM     71  F   UNL A   1      37.865  33.914  39.846  1.00  0.00    -0.200 F 
ATOM     72  C   UNL A   1      39.322  35.475  38.837  1.00  0.00     0.200 A 
ATOM     73  F   UNL A   1      40.769  37.012  37.781  1.00  0.00    -0.200 F 
ATOM     74  F   UNL A   1      39.173  36.307  39.877  1.00  0.00    -0.200 F 
ENDBRANCH  50  64
BRANCH  51  75
ATOM     75  C   UNL A   1      40.524  28.066  28.480  1.00  0.00     0.064 A 
ATOM     76  C   UNL A   1      39.920  26.804  28.394  1.00  0.00     0.173 A 
ATOM     77  C   UNL A   1      41.276  28.505  27.381  1.00  0.00     0.173 A 
ATOM     78  F   UNL A   1      39.209  26.330  29.429  1.00  0.00    -0.203 F 
ATOM     79  C   UNL A   1      40.076  26.006  27.263  1.00  0.00     0.198 A 
ATOM     80  C   UNL A   1      41.409  27.718  26.239  1.00  0.00     0.198 A 
ATOM     81  F   UNL A   1      41.872  29.706  27.412  1.00  0.00    -0.203 F 
ATOM     82  F   UNL A   1      39.524  24.786  27.225  1.00  0.00    -0.200 F 
ATOM     83  C   UNL A   1      40.816  26.466  26.184  1.00  0.00     0.200 A 
ATOM     84  F   UNL A   1      42.112  28.172  25.193  1.00  0.00    -0.200 F 
ATOM     85  F   UNL A   1      40.961  25.701  25.093  1.00  0.00    -0.200 F 
ENDBRANCH  51  75
BRANCH  63  86
ATOM     86  C   UNL A   1      43.854  28.283  34.599  1.00  0.00     0.064 A 
ATOM     87  C   UNL A   1      45.187  28.714  34.513  1.00  0.00     0.173 A 
ATOM     88  C   UNL A   1      43.594  27.083  35.276  1.00  0.00     0.173 A 
ATOM     89  F   UNL A   1      45.490  29.847  33.861  1.00  0.00    -0.203 F 
ATOM     90  C   UNL A   1      46.219  27.959  35.062  1.00  0.00     0.198 A 
ATOM     91  C   UNL A   1      44.625  26.346  35.852  1.00  0.00     0.198 A 
ATOM     92  F   UNL A   1      42.337  26.629  35.392  1.00  0.00    -0.203 F 
ATOM     93  F   UNL A   1      47.488  28.365  34.927  1.00  0.00    -0.200 F 
ATOM     94  C   UNL A   1      45.938  26.780  35.738  1.00  0.00     0.200 A 
ATOM     95  F   UNL A   1      44.350  25.215  36.516  1.00  0.00    -0.200 F 
ATOM     96  F   UNL A   1      46.931  26.060  36.275  1.00  0.00    -0.200 F 
ENDBRANCH  63  86
ENDBRANCH  37  38
ENDBRANCH  29  32
ENDBRANCH  27  28
ENDBRANCH  26  27
ENDBRANCH   1  26
TORSDOF 16
ENDMDL
MODEL 3
REMARK VINA RESULT:     -12.2      3.953      6.144
REMARK SMILES CCOc1cc(C(=O)NCCCCNC(=O)c2ccc(-c3c4nc(c(-c5c(F)c(F)c(F)c(F)c5F)c5ccc([nH]5)c(-c5c(F)c(F)c(F)c(F)c5F)c5nc(c(-c6c(F)c(F)c(F)c(F)c6F)c6ccc3[nH]6)C=C5)C=C4)cc2)ccc1OCc1ccc(Cl)c(Cl)c1
REMARK SMILES IDX 11 1 10 2 9 3 7 4 8 5 6 7 4 8 5 9 82 10 81 11 80 12 3 13
REMARK SMILES IDX 2 14 1 15 83 16 84 17 85 18 86 19 92 20 87 21 90 22 88 23
REMARK SMILES IDX 91 24 89 25 12 26 13 27 14 28 15 29 16 31 17 32 18 33 79 34
REMARK SMILES IDX 19 35 78 36 20 37 21 38 22 39 72 40 23 41 77 42 71 43 73 44
REMARK SMILES IDX 24 45 76 46 70 47 69 48 25 50 57 51 37 52 56 53 38 54 41 55
REMARK SMILES IDX 55 56 74 57 39 58 40 59 54 61 75 62 42 63 26 64 27 65 35 66
REMARK SMILES IDX 28 67 29 68 33 69 36 70 30 71 31 72 34 73 32 74 58 75 59 76
REMARK SMILES IDX 67 77 60 78 61 79 65 80 68 81 62 82 63 83 66 84 64 85 43 86
REMARK SMILES IDX 44 87 52 88 45 89 46 90 50 91 53 92 47 93 48 94 51 95 49 96
REMARK H PARENT 9 6 14 30 73 49 41 60
REMARK Flexibility Score: inf
ROOT
ATOM      1  C   UNL A   1      31.549  30.826  26.134  1.00  0.00     0.023 C 
ENDROOT
BRANCH   1   2
ATOM      2  C   UNL A   1      31.851  29.851  27.264  1.00  0.00     0.116 C 
BRANCH   2   3
ATOM      3  N   UNL A   1      33.269  29.710  27.569  1.00  0.00    -0.352 N 
ATOM      4  C   UNL A   1      34.196  28.845  27.022  1.00  0.00     0.251 C 
ATOM      5  O   UNL A   1      35.343  28.804  27.453  1.00  0.00    -0.269 OA
ATOM      6  H   UNL A   1      33.616  30.317  28.263  1.00  0.00     0.163 HD
BRANCH   4   7
ATOM      7  C   UNL A   1      33.794  27.942  25.916  1.00  0.00     0.043 A 
ATOM      8  C   UNL A   1      32.457  26.100  25.100  1.00  0.00     0.161 A 
ATOM      9  C   UNL A   1      32.961  26.838  26.174  1.00  0.00     0.064 A 
ATOM     10  C   UNL A   1      32.767  26.496  23.790  1.00  0.00     0.161 A 
ATOM     11  C   UNL A   1      33.634  27.558  23.546  1.00  0.00     0.051 A 
ATOM     12  C   UNL A   1      34.205  28.235  24.611  1.00  0.00     0.018 A 
BRANCH   8  13
ATOM     13  O   UNL A   1      31.590  25.059  25.288  1.00  0.00    -0.490 OA
BRANCH  13  14
ATOM     14  C   UNL A   1      32.242  23.799  25.509  1.00  0.00     0.226 C 
ATOM     15  C   UNL A   1      32.000  23.381  26.953  1.00  0.00     0.049 C 
ENDBRANCH  13  14
ENDBRANCH   8  13
BRANCH  10  16
ATOM     16  O   UNL A   1      32.237  25.927  22.685  1.00  0.00    -0.485 OA
BRANCH  16  17
ATOM     17  C   UNL A   1      31.212  26.632  21.982  1.00  0.00     0.265 C 
BRANCH  17  18
ATOM     18  C   UNL A   1      30.410  27.839  22.482  1.00  0.00    -0.009 A 
ATOM     19  C   UNL A   1      30.795  29.184  22.446  1.00  0.00     0.009 A 
ATOM     20  C   UNL A   1      29.097  27.568  22.918  1.00  0.00     0.029 A 
ATOM     21  C   UNL A   1      29.919  30.215  22.805  1.00  0.00     0.022 A 
ATOM     22  C   UNL A   1      28.212  28.593  23.282  1.00  0.00     0.060 A 
ATOM     23  C   UNL A   1      28.623  29.924  23.215  1.00  0.00     0.059 A 
ATOM     24  Cl  UNL A   1      26.622  28.138  23.779  1.00  0.00    -0.083 Cl
ATOM     25  Cl  UNL A   1      27.584  31.246  23.599  1.00  0.00    -0.083 Cl
ENDBRANCH  17  18
ENDBRANCH  16  17
ENDBRANCH  10  16
ENDBRANCH   4   7
ENDBRANCH   2   3
ENDBRANCH   1   2
BRANCH   1  26
ATOM     26  C   UNL A   1      31.357  32.278  26.548  1.00  0.00     0.023 C 
BRANCH  26  27
ATOM     27  C   UNL A   1      32.523  32.913  27.297  1.00  0.00     0.116 C 
BRANCH  27  28
ATOM     28  N   UNL A   1      32.291  34.300  27.681  1.00  0.00    -0.352 N 
ATOM     29  C   UNL A   1      32.943  35.078  28.610  1.00  0.00     0.251 C 
ATOM     30  H   UNL A   1      31.558  34.748  27.202  1.00  0.00     0.163 HD
ATOM     31  O   UNL A   1      32.540  36.212  28.857  1.00  0.00    -0.269 OA
BRANCH  29  32
ATOM     32  C   UNL A   1      34.106  34.536  29.349  1.00  0.00     0.039 A 
ATOM     33  C   UNL A   1      33.890  33.896  30.572  1.00  0.00     0.014 A 
ATOM     34  C   UNL A   1      35.396  34.628  28.825  1.00  0.00     0.014 A 
ATOM     35  C   UNL A   1      34.954  33.263  31.221  1.00  0.00     0.010 A 
ATOM     36  C   UNL A   1      36.436  33.922  29.425  1.00  0.00     0.010 A 
ATOM     37  C   UNL A   1      36.225  33.226  30.625  1.00  0.00    -0.014 A 
BRANCH  37  38
ATOM     38  C   UNL A   1      37.342  32.456  31.230  1.00  0.00     0.031 A 
ATOM     39  C   UNL A   1      37.857  32.817  32.596  1.00  0.00     0.074 A 
ATOM     40  C   UNL A   1      37.948  31.485  30.517  1.00  0.00     0.049 A 
ATOM     41  N   UNL A   1      38.876  32.324  33.255  1.00  0.00    -0.248 NA
ATOM     42  C   UNL A   1      37.154  33.898  33.301  1.00  0.00     0.031 C 
ATOM     43  C   UNL A   1      37.581  31.074  29.162  1.00  0.00     0.029 A 
ATOM     44  N   UNL A   1      39.012  30.675  30.831  1.00  0.00    -0.354 N 
ATOM     45  C   UNL A   1      38.943  33.045  34.439  1.00  0.00     0.074 A 
ATOM     46  C   UNL A   1      37.902  34.048  34.383  1.00  0.00     0.031 C 
ATOM     47  C   UNL A   1      38.386  30.075  28.771  1.00  0.00     0.029 A 
ATOM     48  C   UNL A   1      39.354  29.800  29.829  1.00  0.00     0.049 A 
ATOM     49  H   UNL A   1      39.486  30.718  31.694  1.00  0.00     0.167 HD
ATOM     50  C   UNL A   1      39.779  32.870  35.491  1.00  0.00     0.037 A 
ATOM     51  C   UNL A   1      40.339  28.884  29.768  1.00  0.00     0.037 A 
ATOM     52  C   UNL A   1      40.798  31.855  35.556  1.00  0.00     0.049 A 
ATOM     53  C   UNL A   1      41.260  28.714  30.945  1.00  0.00     0.074 A 
ATOM     54  C   UNL A   1      41.652  31.555  36.602  1.00  0.00     0.029 A 
ATOM     55  N   UNL A   1      41.101  30.975  34.526  1.00  0.00    -0.354 N 
ATOM     56  N   UNL A   1      41.267  29.353  32.090  1.00  0.00    -0.248 NA
ATOM     57  C   UNL A   1      42.308  27.690  30.823  1.00  0.00     0.031 C 
ATOM     58  C   UNL A   1      42.505  30.526  36.189  1.00  0.00     0.029 A 
ATOM     59  C   UNL A   1      42.148  30.148  34.905  1.00  0.00     0.049 A 
ATOM     60  H   UNL A   1      40.643  30.943  33.656  1.00  0.00     0.167 HD
ATOM     61  C   UNL A   1      42.297  28.792  32.834  1.00  0.00     0.074 A 
ATOM     62  C   UNL A   1      42.884  27.751  32.015  1.00  0.00     0.031 C 
ATOM     63  C   UNL A   1      42.718  29.112  34.082  1.00  0.00     0.037 A 
BRANCH  50  64
ATOM     64  C   UNL A   1      39.624  33.801  36.660  1.00  0.00     0.064 A 
ATOM     65  C   UNL A   1      38.842  33.458  37.774  1.00  0.00     0.173 A 
ATOM     66  C   UNL A   1      40.281  35.040  36.677  1.00  0.00     0.173 A 
ATOM     67  F   UNL A   1      38.183  32.290  37.804  1.00  0.00    -0.203 F 
ATOM     68  C   UNL A   1      38.694  34.337  38.844  1.00  0.00     0.198 A 
ATOM     69  C   UNL A   1      40.157  35.902  37.764  1.00  0.00     0.198 A 
ATOM     70  F   UNL A   1      41.046  35.415  35.641  1.00  0.00    -0.203 F 
ATOM     71  F   UNL A   1      37.895  34.012  39.870  1.00  0.00    -0.200 F 
ATOM     72  C   UNL A   1      39.357  35.555  38.841  1.00  0.00     0.200 A 
ATOM     73  F   UNL A   1      40.809  37.073  37.765  1.00  0.00    -0.200 F 
ATOM     74  F   UNL A   1      39.216  36.398  39.873  1.00  0.00    -0.200 F 
ENDBRANCH  50  64
BRANCH  51  75
ATOM     75  C   UNL A   1      40.487  28.035  28.556  1.00  0.00     0.064 A 
ATOM     76  C   UNL A   1      41.251  28.472  27.465  1.00  0.00     0.173 A 
ATOM     77  C   UNL A   1      39.873  26.778  28.461  1.00  0.00     0.173 A 
ATOM     78  F   UNL A   1      41.840  29.676  27.499  1.00  0.00    -0.203 F 
ATOM     79  C   UNL A   1      41.381  27.691  26.318  1.00  0.00     0.198 A 
ATOM     80  C   UNL A   1      40.026  25.986  27.325  1.00  0.00     0.198 A 
ATOM     81  F   UNL A   1      39.134  26.313  29.479  1.00  0.00    -0.203 F 
ATOM     82  F   UNL A   1      42.081  28.151  25.273  1.00  0.00    -0.200 F 
ATOM     83  C   UNL A   1      40.773  26.446  26.251  1.00  0.00     0.200 A 
ATOM     84  F   UNL A   1      39.449  24.778  27.270  1.00  0.00    -0.200 F 
ATOM     85  F   UNL A   1      40.903  25.693  25.151  1.00  0.00    -0.200 F 
ENDBRANCH  51  75
BRANCH  63  86
ATOM     86  C   UNL A   1      43.847  28.306  34.656  1.00  0.00     0.064 A 
ATOM     87  C   UNL A   1      45.181  28.730  34.557  1.00  0.00     0.173 A 
ATOM     88  C   UNL A   1      43.587  27.114  35.349  1.00  0.00     0.173 A 
ATOM     89  F   UNL A   1      45.484  29.854  33.890  1.00  0.00    -0.203 F 
ATOM     90  C   UNL A   1      46.214  27.978  35.110  1.00  0.00     0.198 A 
ATOM     91  C   UNL A   1      44.619  26.381  35.928  1.00  0.00     0.198 A 
ATOM     92  F   UNL A   1      42.328  26.667  35.478  1.00  0.00    -0.203 F 
ATOM     93  F   UNL A   1      47.484  28.377  34.962  1.00  0.00    -0.200 F 
ATOM     94  C   UNL A   1      45.932  26.809  35.801  1.00  0.00     0.200 A 
ATOM     95  F   UNL A   1      44.343  25.259  36.607  1.00  0.00    -0.200 F 
ATOM     96  F   UNL A   1      46.926  26.090  36.340  1.00  0.00    -0.200 F 
ENDBRANCH  63  86
ENDBRANCH  37  38
ENDBRANCH  29  32
ENDBRANCH  27  28
ENDBRANCH  26  27
ENDBRANCH   1  26
TORSDOF 16
ENDMDL
