MODEL 1
REMARK VINA RESULT:     -12.3      0.000      0.000
REMARK SMILES O=C(C[NH+]1CCC(C(=O)NCCCCNC(=O)c2ccc(-c3c4nc(c(-c5c(F)c(F)c(F)c(F)c5F)c5ccc([nH]5)c(-c5c(F)c(F)c(F)c(F)c5F)c5nc(c(-c6c(F)c(F)c(F)c(F)c6F)c6ccc3[nH]6)C=C5)C=C4)cc2)CC1)Nc1ccccc1Oc1ccccc1
REMARK SMILES IDX 11 1 10 2 8 3 9 4 7 6 4 7 5 8 82 9 6 11 81 12 3 13 2 14 1 15
REMARK SMILES IDX 83 16 84 18 85 19 89 20 86 21 88 22 87 23 90 24 91 25 92 26
REMARK SMILES IDX 96 27 93 28 95 29 94 30 12 31 13 32 14 33 15 34 16 35 17 37
REMARK SMILES IDX 18 38 19 39 80 40 20 41 79 42 21 43 22 44 23 45 73 46 24 47
REMARK SMILES IDX 78 48 72 49 74 50 25 51 77 52 71 53 70 54 26 56 58 57 38 58
REMARK SMILES IDX 57 59 39 60 42 61 56 62 75 63 40 64 41 65 55 67 76 68 43 69
REMARK SMILES IDX 27 70 28 71 36 72 29 73 30 74 34 75 37 76 31 77 32 78 35 79
REMARK SMILES IDX 33 80 59 81 60 82 68 83 61 84 62 85 66 86 69 87 63 88 64 89
REMARK SMILES IDX 67 90 65 91 44 92 45 93 53 94 46 95 47 96 51 97 54 98 48 99
REMARK SMILES IDX 49 100 52 101 50 102
REMARK H PARENT 10 5 4 10 83 17 15 36 74 55 42 66
REMARK Flexibility Score: inf
ROOT
ATOM      1  C   UNL A   1      37.956  23.102  26.011  1.00  0.00     0.116 C 
ENDROOT
BRANCH   1   2
ATOM      2  N   UNL A   1      37.759  22.995  24.574  1.00  0.00    -0.356 N 
ATOM      3  C   UNL A   1      36.607  23.006  23.841  1.00  0.00     0.223 C 
ATOM      4  O   UNL A   1      36.696  22.887  22.618  1.00  0.00    -0.275 OA
ATOM      5  H   UNL A   1      38.585  22.902  24.047  1.00  0.00     0.163 HD
BRANCH   3   6
ATOM      6  C   UNL A   1      35.252  23.165  24.516  1.00  0.00     0.089 C 
ATOM      7  N   UNL A   1      32.729  24.173  23.534  1.00  0.00    -0.327 N 
ATOM      8  C   UNL A   1      33.394  24.929  24.608  1.00  0.00     0.263 C 
ATOM      9  C   UNL A   1      32.795  22.741  23.874  1.00  0.00     0.263 C 
ATOM     10  H   UNL A   1      33.180  24.352  22.637  1.00  0.00     0.348 HD
ATOM     11  C   UNL A   1      34.885  24.651  24.621  1.00  0.00     0.075 C 
ATOM     12  C   UNL A   1      34.228  22.232  23.849  1.00  0.00     0.075 C 
BRANCH   7  13
ATOM     13  C   UNL A   1      31.310  24.580  23.483  1.00  0.00     0.363 C 
BRANCH  13  14
ATOM     14  C   UNL A   1      31.127  26.021  23.004  1.00  0.00     0.279 C 
ATOM     15  O   UNL A   1      31.517  26.421  21.910  1.00  0.00    -0.268 OA
ATOM     16  N   UNL A   1      30.452  26.790  23.935  1.00  0.00    -0.318 N 
ATOM     17  H   UNL A   1      30.568  26.555  24.884  1.00  0.00     0.170 HD
BRANCH  16  18
ATOM     18  C   UNL A   1      29.614  27.881  23.639  1.00  0.00     0.084 A 
ATOM     19  C   UNL A   1      28.267  27.557  23.396  1.00  0.00     0.030 A 
ATOM     20  C   UNL A   1      30.018  29.226  23.536  1.00  0.00     0.150 A 
ATOM     21  C   UNL A   1      27.314  28.550  23.155  1.00  0.00     0.002 A 
ATOM     22  C   UNL A   1      29.047  30.212  23.280  1.00  0.00     0.049 A 
ATOM     23  C   UNL A   1      27.704  29.883  23.103  1.00  0.00     0.004 A 
BRANCH  20  24
ATOM     24  O   UNL A   1      31.270  29.775  23.700  1.00  0.00    -0.455 OA
BRANCH  24  25
ATOM     25  C   UNL A   1      32.100  29.444  24.740  1.00  0.00     0.127 A 
ATOM     26  C   UNL A   1      31.678  29.912  25.991  1.00  0.00     0.047 A 
ATOM     27  C   UNL A   1      33.298  28.739  24.632  1.00  0.00     0.047 A 
ATOM     28  C   UNL A   1      32.396  29.604  27.144  1.00  0.00     0.004 A 
ATOM     29  C   UNL A   1      34.023  28.434  25.792  1.00  0.00     0.004 A 
ATOM     30  C   UNL A   1      33.564  28.850  27.047  1.00  0.00     0.000 A 
ENDBRANCH  24  25
ENDBRANCH  20  24
ENDBRANCH  16  18
ENDBRANCH  13  14
ENDBRANCH   7  13
ENDBRANCH   3   6
ENDBRANCH   1   2
BRANCH   1  31
ATOM     31  C   UNL A   1      39.203  22.355  26.477  1.00  0.00     0.023 C 
BRANCH  31  32
ATOM     32  C   UNL A   1      39.488  21.072  25.705  1.00  0.00     0.023 C 
BRANCH  32  33
ATOM     33  C   UNL A   1      39.966  19.912  26.565  1.00  0.00     0.116 C 
BRANCH  33  34
ATOM     34  N   UNL A   1      41.084  19.194  25.973  1.00  0.00    -0.352 N 
ATOM     35  C   UNL A   1      42.349  19.661  25.694  1.00  0.00     0.251 C 
ATOM     36  H   UNL A   1      40.915  18.252  25.744  1.00  0.00     0.163 HD
ATOM     37  O   UNL A   1      43.134  18.988  25.049  1.00  0.00    -0.269 OA
BRANCH  35  38
ATOM     38  C   UNL A   1      42.727  21.011  26.164  1.00  0.00     0.039 A 
ATOM     39  C   UNL A   1      43.003  22.004  25.223  1.00  0.00     0.014 A 
ATOM     40  C   UNL A   1      42.773  21.298  27.531  1.00  0.00     0.014 A 
ATOM     41  C   UNL A   1      43.275  23.303  25.655  1.00  0.00     0.010 A 
ATOM     42  C   UNL A   1      42.952  22.610  27.954  1.00  0.00     0.010 A 
ATOM     43  C   UNL A   1      43.223  23.622  27.022  1.00  0.00    -0.014 A 
BRANCH  43  44
ATOM     44  C   UNL A   1      43.496  24.999  27.505  1.00  0.00     0.031 A 
ATOM     45  C   UNL A   1      44.917  25.457  27.685  1.00  0.00     0.074 A 
ATOM     46  C   UNL A   1      42.475  25.812  27.834  1.00  0.00     0.049 A 
ATOM     47  N   UNL A   1      45.371  26.590  28.157  1.00  0.00    -0.248 NA
ATOM     48  C   UNL A   1      45.972  24.497  27.316  1.00  0.00     0.031 C 
ATOM     49  C   UNL A   1      41.054  25.468  27.749  1.00  0.00     0.029 A 
ATOM     50  N   UNL A   1      42.476  27.098  28.315  1.00  0.00    -0.354 N 
ATOM     51  C   UNL A   1      46.755  26.470  28.155  1.00  0.00     0.074 A 
ATOM     52  C   UNL A   1      47.066  25.133  27.702  1.00  0.00     0.031 C 
ATOM     53  C   UNL A   1      40.322  26.525  28.138  1.00  0.00     0.029 A 
ATOM     54  C   UNL A   1      41.219  27.607  28.533  1.00  0.00     0.049 A 
ATOM     55  H   UNL A   1      43.301  27.608  28.486  1.00  0.00     0.167 HD
ATOM     56  C   UNL A   1      47.685  27.401  28.475  1.00  0.00     0.037 A 
ATOM     57  C   UNL A   1      40.838  28.810  29.003  1.00  0.00     0.037 A 
ATOM     58  C   UNL A   1      47.372  28.739  28.901  1.00  0.00     0.049 A 
ATOM     59  C   UNL A   1      41.891  29.828  29.350  1.00  0.00     0.074 A 
ATOM     60  C   UNL A   1      48.238  29.775  29.204  1.00  0.00     0.029 A 
ATOM     61  N   UNL A   1      46.086  29.227  29.083  1.00  0.00    -0.354 N 
ATOM     62  N   UNL A   1      43.197  29.727  29.286  1.00  0.00    -0.248 NA
ATOM     63  C   UNL A   1      41.414  31.135  29.824  1.00  0.00     0.031 C 
ATOM     64  C   UNL A   1      47.477  30.874  29.615  1.00  0.00     0.029 A 
ATOM     65  C   UNL A   1      46.136  30.545  29.507  1.00  0.00     0.049 A 
ATOM     66  H   UNL A   1      45.260  28.713  28.933  1.00  0.00     0.167 HD
ATOM     67  C   UNL A   1      43.696  30.965  29.666  1.00  0.00     0.074 A 
ATOM     68  C   UNL A   1      42.551  31.805  29.953  1.00  0.00     0.031 C 
ATOM     69  C   UNL A   1      44.986  31.373  29.766  1.00  0.00     0.037 A 
BRANCH  56  70
ATOM     70  C   UNL A   1      49.129  27.002  28.370  1.00  0.00     0.064 A 
ATOM     71  C   UNL A   1      49.852  27.153  27.175  1.00  0.00     0.173 A 
ATOM     72  C   UNL A   1      49.807  26.479  29.481  1.00  0.00     0.173 A 
ATOM     73  F   UNL A   1      49.248  27.634  26.077  1.00  0.00    -0.203 F 
ATOM     74  C   UNL A   1      51.186  26.764  27.088  1.00  0.00     0.198 A 
ATOM     75  C   UNL A   1      51.152  26.125  29.400  1.00  0.00     0.198 A 
ATOM     76  F   UNL A   1      49.168  26.316  30.650  1.00  0.00    -0.203 F 
ATOM     77  F   UNL A   1      51.836  26.862  25.920  1.00  0.00    -0.200 F 
ATOM     78  C   UNL A   1      51.837  26.257  28.202  1.00  0.00     0.200 A 
ATOM     79  F   UNL A   1      51.784  25.648  30.482  1.00  0.00    -0.200 F 
ATOM     80  F   UNL A   1      53.123  25.889  28.118  1.00  0.00    -0.200 F 
ENDBRANCH  56  70
BRANCH  57  81
ATOM     81  C   UNL A   1      39.393  29.133  29.137  1.00  0.00     0.064 A 
ATOM     82  C   UNL A   1      38.631  29.499  28.017  1.00  0.00     0.173 A 
ATOM     83  C   UNL A   1      38.747  29.100  30.380  1.00  0.00     0.173 A 
ATOM     84  F   UNL A   1      39.207  29.564  26.808  1.00  0.00    -0.203 F 
ATOM     85  C   UNL A   1      37.287  29.846  28.141  1.00  0.00     0.198 A 
ATOM     86  C   UNL A   1      37.395  29.417  30.499  1.00  0.00     0.198 A 
ATOM     87  F   UNL A   1      39.427  28.751  31.482  1.00  0.00    -0.203 F 
ATOM     88  F   UNL A   1      36.598  30.243  27.063  1.00  0.00    -0.200 F 
ATOM     89  C   UNL A   1      36.669  29.799  29.381  1.00  0.00     0.200 A 
ATOM     90  F   UNL A   1      36.796  29.356  31.696  1.00  0.00    -0.200 F 
ATOM     91  F   UNL A   1      35.376  30.132  29.501  1.00  0.00    -0.200 F 
ENDBRANCH  57  81
BRANCH  69  92
ATOM     92  C   UNL A   1      45.229  32.809  30.137  1.00  0.00     0.064 A 
ATOM     93  C   UNL A   1      45.290  33.826  29.173  1.00  0.00     0.173 A 
ATOM     94  C   UNL A   1      45.372  33.172  31.485  1.00  0.00     0.173 A 
ATOM     95  F   UNL A   1      45.172  33.530  27.870  1.00  0.00    -0.203 F 
ATOM     96  C   UNL A   1      45.521  35.149  29.544  1.00  0.00     0.198 A 
ATOM     97  C   UNL A   1      45.566  34.499  31.854  1.00  0.00     0.198 A 
ATOM     98  F   UNL A   1      45.312  32.240  32.448  1.00  0.00    -0.203 F 
ATOM     99  F   UNL A   1      45.634  36.095  28.602  1.00  0.00    -0.200 F 
ATOM    100  C   UNL A   1      45.651  35.485  30.883  1.00  0.00     0.200 A 
ATOM    101  F   UNL A   1      45.676  34.825  33.150  1.00  0.00    -0.200 F 
ATOM    102  F   UNL A   1      45.868  36.759  31.237  1.00  0.00    -0.200 F 
ENDBRANCH  69  92
ENDBRANCH  43  44
ENDBRANCH  35  38
ENDBRANCH  33  34
ENDBRANCH  32  33
ENDBRANCH  31  32
ENDBRANCH   1  31
TORSDOF 16
ENDMDL
MODEL 2
REMARK VINA RESULT:     -12.2      1.777      3.086
REMARK SMILES O=C(C[NH+]1CCC(C(=O)NCCCCNC(=O)c2ccc(-c3c4nc(c(-c5c(F)c(F)c(F)c(F)c5F)c5ccc([nH]5)c(-c5c(F)c(F)c(F)c(F)c5F)c5nc(c(-c6c(F)c(F)c(F)c(F)c6F)c6ccc3[nH]6)C=C5)C=C4)cc2)CC1)Nc1ccccc1Oc1ccccc1
REMARK SMILES IDX 11 1 10 2 8 3 9 4 7 6 4 7 5 8 82 9 6 11 81 12 3 13 2 14 1 15
REMARK SMILES IDX 83 16 84 18 85 19 89 20 86 21 88 22 87 23 90 24 91 25 92 26
REMARK SMILES IDX 96 27 93 28 95 29 94 30 12 31 13 32 14 33 15 34 16 35 17 37
REMARK SMILES IDX 18 38 19 39 80 40 20 41 79 42 21 43 22 44 23 45 73 46 24 47
REMARK SMILES IDX 78 48 72 49 74 50 25 51 77 52 71 53 70 54 26 56 58 57 38 58
REMARK SMILES IDX 57 59 39 60 42 61 56 62 75 63 40 64 41 65 55 67 76 68 43 69
REMARK SMILES IDX 27 70 28 71 36 72 29 73 30 74 34 75 37 76 31 77 32 78 35 79
REMARK SMILES IDX 33 80 59 81 60 82 68 83 61 84 62 85 66 86 69 87 63 88 64 89
REMARK SMILES IDX 67 90 65 91 44 92 45 93 53 94 46 95 47 96 51 97 54 98 48 99
REMARK SMILES IDX 49 100 52 101 50 102
REMARK H PARENT 10 5 4 10 83 17 15 36 74 55 42 66
REMARK Flexibility Score: inf
ROOT
ATOM      1  C   UNL A   1      39.532  21.381  26.110  1.00  0.00     0.116 C 
ENDROOT
BRANCH   1   2
ATOM      2  N   UNL A   1      39.262  22.782  26.394  1.00  0.00    -0.356 N 
ATOM      3  C   UNL A   1      38.141  23.525  26.165  1.00  0.00     0.223 C 
ATOM      4  O   UNL A   1      38.156  24.714  26.487  1.00  0.00    -0.275 OA
ATOM      5  H   UNL A   1      40.004  23.270  26.819  1.00  0.00     0.163 HD
BRANCH   3   6
ATOM      6  C   UNL A   1      36.904  22.901  25.534  1.00  0.00     0.089 C 
ATOM      7  N   UNL A   1      34.805  24.034  23.904  1.00  0.00    -0.327 N 
ATOM      8  C   UNL A   1      34.434  23.517  25.231  1.00  0.00     0.263 C 
ATOM      9  C   UNL A   1      35.699  23.052  23.263  1.00  0.00     0.263 C 
ATOM     10  H   UNL A   1      35.266  24.940  23.987  1.00  0.00     0.348 HD
ATOM     11  C   UNL A   1      35.635  23.496  26.157  1.00  0.00     0.075 C 
ATOM     12  C   UNL A   1      37.024  22.947  24.001  1.00  0.00     0.075 C 
BRANCH   7  13
ATOM     13  C   UNL A   1      33.580  24.157  23.088  1.00  0.00     0.363 C 
BRANCH  13  14
ATOM     14  C   UNL A   1      32.652  25.268  23.582  1.00  0.00     0.279 C 
ATOM     15  O   UNL A   1      31.508  25.061  23.979  1.00  0.00    -0.268 OA
ATOM     16  N   UNL A   1      33.269  26.506  23.549  1.00  0.00    -0.318 N 
ATOM     17  H   UNL A   1      33.951  26.652  22.854  1.00  0.00     0.170 HD
BRANCH  16  18
ATOM     18  C   UNL A   1      33.001  27.575  24.425  1.00  0.00     0.084 A 
ATOM     19  C   UNL A   1      33.618  27.488  25.686  1.00  0.00     0.030 A 
ATOM     20  C   UNL A   1      32.160  28.672  24.153  1.00  0.00     0.150 A 
ATOM     21  C   UNL A   1      33.490  28.513  26.627  1.00  0.00     0.002 A 
ATOM     22  C   UNL A   1      32.034  29.689  25.118  1.00  0.00     0.049 A 
ATOM     23  C   UNL A   1      32.700  29.619  26.341  1.00  0.00     0.004 A 
BRANCH  20  24
ATOM     24  O   UNL A   1      31.438  28.955  23.016  1.00  0.00    -0.455 OA
BRANCH  24  25
ATOM     25  C   UNL A   1      30.068  29.005  22.995  1.00  0.00     0.127 A 
ATOM     26  C   UNL A   1      29.438  27.829  23.419  1.00  0.00     0.047 A 
ATOM     27  C   UNL A   1      29.300  30.085  22.562  1.00  0.00     0.047 A 
ATOM     28  C   UNL A   1      28.049  27.756  23.500  1.00  0.00     0.004 A 
ATOM     29  C   UNL A   1      27.902  30.010  22.639  1.00  0.00     0.004 A 
ATOM     30  C   UNL A   1      27.279  28.854  23.124  1.00  0.00     0.000 A 
ENDBRANCH  24  25
ENDBRANCH  20  24
ENDBRANCH  16  18
ENDBRANCH  13  14
ENDBRANCH   7  13
ENDBRANCH   3   6
ENDBRANCH   1   2
BRANCH   1  31
ATOM     31  C   UNL A   1      40.978  21.000  26.416  1.00  0.00     0.023 C 
BRANCH  31  32
ATOM     32  C   UNL A   1      41.326  19.552  26.091  1.00  0.00     0.023 C 
BRANCH  32  33
ATOM     33  C   UNL A   1      42.734  19.137  26.491  1.00  0.00     0.116 C 
BRANCH  33  34
ATOM     34  N   UNL A   1      43.536  18.699  25.360  1.00  0.00    -0.352 N 
ATOM     35  C   UNL A   1      44.354  19.452  24.549  1.00  0.00     0.251 C 
ATOM     36  H   UNL A   1      43.487  17.739  25.147  1.00  0.00     0.163 HD
ATOM     37  O   UNL A   1      44.841  18.975  23.538  1.00  0.00    -0.269 OA
BRANCH  35  38
ATOM     38  C   UNL A   1      44.607  20.863  24.910  1.00  0.00     0.039 A 
ATOM     39  C   UNL A   1      44.144  21.873  24.066  1.00  0.00     0.014 A 
ATOM     40  C   UNL A   1      45.271  21.182  26.098  1.00  0.00     0.014 A 
ATOM     41  C   UNL A   1      44.300  23.209  24.442  1.00  0.00     0.010 A 
ATOM     42  C   UNL A   1      45.343  22.507  26.513  1.00  0.00     0.010 A 
ATOM     43  C   UNL A   1      44.875  23.535  25.681  1.00  0.00    -0.014 A 
BRANCH  43  44
ATOM     44  C   UNL A   1      45.041  24.946  26.108  1.00  0.00     0.031 A 
ATOM     45  C   UNL A   1      46.392  25.600  26.011  1.00  0.00     0.074 A 
ATOM     46  C   UNL A   1      43.999  25.618  26.634  1.00  0.00     0.049 A 
ATOM     47  N   UNL A   1      46.766  26.795  26.390  1.00  0.00    -0.248 NA
ATOM     48  C   UNL A   1      47.479  24.787  25.439  1.00  0.00     0.031 C 
ATOM     49  C   UNL A   1      42.652  25.079  26.826  1.00  0.00     0.029 A 
ATOM     50  N   UNL A   1      43.913  26.902  27.111  1.00  0.00    -0.354 N 
ATOM     51  C   UNL A   1      48.126  26.868  26.119  1.00  0.00     0.074 A 
ATOM     52  C   UNL A   1      48.527  25.577  25.608  1.00  0.00     0.031 C 
ATOM     53  C   UNL A   1      41.868  26.033  27.354  1.00  0.00     0.029 A 
ATOM     54  C   UNL A   1      42.664  27.237  27.573  1.00  0.00     0.049 A 
ATOM     55  H   UNL A   1      44.676  27.524  27.121  1.00  0.00     0.167 HD
ATOM     56  C   UNL A   1      48.960  27.925  26.256  1.00  0.00     0.037 A 
ATOM     57  C   UNL A   1      42.216  28.386  28.114  1.00  0.00     0.037 A 
ATOM     58  C   UNL A   1      48.552  29.217  26.741  1.00  0.00     0.049 A 
ATOM     59  C   UNL A   1      43.164  29.548  28.254  1.00  0.00     0.074 A 
ATOM     60  C   UNL A   1      49.306  30.368  26.875  1.00  0.00     0.029 A 
ATOM     61  N   UNL A   1      47.270  29.526  27.172  1.00  0.00    -0.354 N 
ATOM     62  N   UNL A   1      44.433  29.626  27.936  1.00  0.00    -0.248 NA
ATOM     63  C   UNL A   1      42.610  30.787  28.818  1.00  0.00     0.031 C 
ATOM     64  C   UNL A   1      48.493  31.361  27.432  1.00  0.00     0.029 A 
ATOM     65  C   UNL A   1      47.216  30.847  27.585  1.00  0.00     0.049 A 
ATOM     66  H   UNL A   1      46.510  28.899  27.183  1.00  0.00     0.167 HD
ATOM     67  C   UNL A   1      44.819  30.930  28.218  1.00  0.00     0.074 A 
ATOM     68  C   UNL A   1      43.645  31.610  28.726  1.00  0.00     0.031 C 
ATOM     69  C   UNL A   1      46.033  31.514  28.068  1.00  0.00     0.037 A 
BRANCH  56  70
ATOM     70  C   UNL A   1      50.398  27.727  25.869  1.00  0.00     0.064 A 
ATOM     71  C   UNL A   1      51.386  27.431  26.824  1.00  0.00     0.173 A 
ATOM     72  C   UNL A   1      50.794  27.813  24.526  1.00  0.00     0.173 A 
ATOM     73  F   UNL A   1      51.065  27.352  28.124  1.00  0.00    -0.203 F 
ATOM     74  C   UNL A   1      52.717  27.266  26.453  1.00  0.00     0.198 A 
ATOM     75  C   UNL A   1      52.121  27.610  24.154  1.00  0.00     0.198 A 
ATOM     76  F   UNL A   1      49.893  28.088  23.571  1.00  0.00    -0.203 F 
ATOM     77  F   UNL A   1      53.649  27.044  27.389  1.00  0.00    -0.200 F 
ATOM     78  C   UNL A   1      53.082  27.347  25.117  1.00  0.00     0.200 A 
ATOM     79  F   UNL A   1      52.470  27.676  22.862  1.00  0.00    -0.200 F 
ATOM     80  F   UNL A   1      54.363  27.181  24.761  1.00  0.00    -0.200 F 
ENDBRANCH  56  70
BRANCH  57  81
ATOM     81  C   UNL A   1      40.794  28.510  28.528  1.00  0.00     0.064 A 
ATOM     82  C   UNL A   1      39.822  28.979  27.632  1.00  0.00     0.173 A 
ATOM     83  C   UNL A   1      40.377  28.179  29.825  1.00  0.00     0.173 A 
ATOM     84  F   UNL A   1      40.174  29.327  26.385  1.00  0.00    -0.203 F 
ATOM     85  C   UNL A   1      38.494  29.139  28.026  1.00  0.00     0.198 A 
ATOM     86  C   UNL A   1      39.044  28.310  30.209  1.00  0.00     0.198 A 
ATOM     87  F   UNL A   1      41.264  27.719  30.719  1.00  0.00    -0.203 F 
ATOM     88  F   UNL A   1      37.599  29.640  27.165  1.00  0.00    -0.200 F 
ATOM     89  C   UNL A   1      38.106  28.800  29.313  1.00  0.00     0.200 A 
ATOM     90  F   UNL A   1      38.668  27.966  31.448  1.00  0.00    -0.200 F 
ATOM     91  F   UNL A   1      36.829  28.953  29.692  1.00  0.00    -0.200 F 
ENDBRANCH  57  81
BRANCH  69  92
ATOM     92  C   UNL A   1      46.140  32.978  28.391  1.00  0.00     0.064 A 
ATOM     93  C   UNL A   1      45.908  33.971  27.428  1.00  0.00     0.173 A 
ATOM     94  C   UNL A   1      46.451  33.388  29.696  1.00  0.00     0.173 A 
ATOM     95  F   UNL A   1      45.619  33.632  26.162  1.00  0.00    -0.203 F 
ATOM     96  C   UNL A   1      46.017  35.321  27.753  1.00  0.00     0.198 A 
ATOM     97  C   UNL A   1      46.525  34.738  30.026  1.00  0.00     0.198 A 
ATOM     98  F   UNL A   1      46.674  32.479  30.657  1.00  0.00    -0.203 F 
ATOM     99  F   UNL A   1      45.848  36.252  26.805  1.00  0.00    -0.200 F 
ATOM    100  C   UNL A   1      46.318  35.703  29.052  1.00  0.00     0.200 A 
ATOM    101  F   UNL A   1      46.800  35.105  31.285  1.00  0.00    -0.200 F 
ATOM    102  F   UNL A   1      46.418  37.003  29.363  1.00  0.00    -0.200 F 
ENDBRANCH  69  92
ENDBRANCH  43  44
ENDBRANCH  35  38
ENDBRANCH  33  34
ENDBRANCH  32  33
ENDBRANCH  31  32
ENDBRANCH   1  31
TORSDOF 16
ENDMDL
MODEL 3
REMARK VINA RESULT:     -12.2      0.553      7.059
REMARK SMILES O=C(C[NH+]1CCC(C(=O)NCCCCNC(=O)c2ccc(-c3c4nc(c(-c5c(F)c(F)c(F)c(F)c5F)c5ccc([nH]5)c(-c5c(F)c(F)c(F)c(F)c5F)c5nc(c(-c6c(F)c(F)c(F)c(F)c6F)c6ccc3[nH]6)C=C5)C=C4)cc2)CC1)Nc1ccccc1Oc1ccccc1
REMARK SMILES IDX 11 1 10 2 8 3 9 4 7 6 4 7 5 8 82 9 6 11 81 12 3 13 2 14 1 15
REMARK SMILES IDX 83 16 84 18 85 19 89 20 86 21 88 22 87 23 90 24 91 25 92 26
REMARK SMILES IDX 96 27 93 28 95 29 94 30 12 31 13 32 14 33 15 34 16 35 17 37
REMARK SMILES IDX 18 38 19 39 80 40 20 41 79 42 21 43 22 44 23 45 73 46 24 47
REMARK SMILES IDX 78 48 72 49 74 50 25 51 77 52 71 53 70 54 26 56 58 57 38 58
REMARK SMILES IDX 57 59 39 60 42 61 56 62 75 63 40 64 41 65 55 67 76 68 43 69
REMARK SMILES IDX 27 70 28 71 36 72 29 73 30 74 34 75 37 76 31 77 32 78 35 79
REMARK SMILES IDX 33 80 59 81 60 82 68 83 61 84 62 85 66 86 69 87 63 88 64 89
REMARK SMILES IDX 67 90 65 91 44 92 45 93 53 94 46 95 47 96 51 97 54 98 48 99
REMARK SMILES IDX 49 100 52 101 50 102
REMARK H PARENT 10 5 4 10 83 17 15 36 74 55 42 66
REMARK Flexibility Score: inf
ROOT
ATOM      1  C   UNL A   1      37.885  23.076  26.053  1.00  0.00     0.116 C 
ENDROOT
BRANCH   1   2
ATOM      2  N   UNL A   1      37.716  23.011  24.609  1.00  0.00    -0.356 N 
ATOM      3  C   UNL A   1      36.581  23.056  23.854  1.00  0.00     0.223 C 
ATOM      4  O   UNL A   1      36.693  22.970  22.630  1.00  0.00    -0.275 OA
ATOM      5  H   UNL A   1      38.552  22.921  24.097  1.00  0.00     0.163 HD
BRANCH   3   6
ATOM      6  C   UNL A   1      35.213  23.215  24.504  1.00  0.00     0.089 C 
ATOM      7  N   UNL A   1      32.708  24.224  23.478  1.00  0.00    -0.327 N 
ATOM      8  C   UNL A   1      33.354  24.979  24.565  1.00  0.00     0.263 C 
ATOM      9  C   UNL A   1      32.769  22.791  23.818  1.00  0.00     0.263 C 
ATOM     10  H   UNL A   1      33.175  24.403  22.589  1.00  0.00     0.348 HD
ATOM     11  C   UNL A   1      34.844  24.701  24.604  1.00  0.00     0.075 C 
ATOM     12  C   UNL A   1      34.201  22.282  23.818  1.00  0.00     0.075 C 
BRANCH   7  13
ATOM     13  C   UNL A   1      31.291  24.630  23.402  1.00  0.00     0.363 C 
BRANCH  13  14
ATOM     14  C   UNL A   1      31.117  26.082  22.955  1.00  0.00     0.279 C 
ATOM     15  O   UNL A   1      31.521  26.507  21.876  1.00  0.00    -0.268 OA
ATOM     16  N   UNL A   1      30.433  26.831  23.896  1.00  0.00    -0.318 N 
ATOM     17  H   UNL A   1      30.537  26.574  24.841  1.00  0.00     0.170 HD
BRANCH  16  18
ATOM     18  C   UNL A   1      29.601  27.931  23.616  1.00  0.00     0.084 A 
ATOM     19  C   UNL A   1      28.249  27.621  23.386  1.00  0.00     0.030 A 
ATOM     20  C   UNL A   1      30.016  29.274  23.517  1.00  0.00     0.150 A 
ATOM     21  C   UNL A   1      27.303  28.624  23.162  1.00  0.00     0.002 A 
ATOM     22  C   UNL A   1      29.051  30.270  23.278  1.00  0.00     0.049 A 
ATOM     23  C   UNL A   1      27.703  29.953  23.113  1.00  0.00     0.004 A 
BRANCH  20  24
ATOM     24  O   UNL A   1      31.275  29.810  23.671  1.00  0.00    -0.455 OA
BRANCH  24  25
ATOM     25  C   UNL A   1      32.095  29.501  24.725  1.00  0.00     0.127 A 
ATOM     26  C   UNL A   1      31.678  30.021  25.956  1.00  0.00     0.047 A 
ATOM     27  C   UNL A   1      33.280  28.771  24.646  1.00  0.00     0.047 A 
ATOM     28  C   UNL A   1      32.386  29.740  27.122  1.00  0.00     0.004 A 
ATOM     29  C   UNL A   1      33.996  28.493  25.819  1.00  0.00     0.004 A 
ATOM     30  C   UNL A   1      33.540  28.962  27.057  1.00  0.00     0.000 A 
ENDBRANCH  24  25
ENDBRANCH  20  24
ENDBRANCH  16  18
ENDBRANCH  13  14
ENDBRANCH   7  13
ENDBRANCH   3   6
ENDBRANCH   1   2
BRANCH   1  31
ATOM     31  C   UNL A   1      39.194  22.438  26.508  1.00  0.00     0.023 C 
BRANCH  31  32
ATOM     32  C   UNL A   1      39.527  21.126  25.806  1.00  0.00     0.023 C 
BRANCH  32  33
ATOM     33  C   UNL A   1      40.004  20.019  26.735  1.00  0.00     0.116 C 
BRANCH  33  34
ATOM     34  N   UNL A   1      41.057  19.206  26.148  1.00  0.00    -0.352 N 
ATOM     35  C   UNL A   1      42.346  19.572  25.835  1.00  0.00     0.251 C 
ATOM     36  H   UNL A   1      40.816  18.271  25.950  1.00  0.00     0.163 HD
ATOM     37  O   UNL A   1      43.070  18.825  25.199  1.00  0.00    -0.269 OA
BRANCH  35  38
ATOM     38  C   UNL A   1      42.828  20.904  26.258  1.00  0.00     0.039 A 
ATOM     39  C   UNL A   1      43.131  21.856  25.283  1.00  0.00     0.014 A 
ATOM     40  C   UNL A   1      42.945  21.218  27.615  1.00  0.00     0.014 A 
ATOM     41  C   UNL A   1      43.502  23.144  25.673  1.00  0.00     0.010 A 
ATOM     42  C   UNL A   1      43.223  22.524  27.998  1.00  0.00     0.010 A 
ATOM     43  C   UNL A   1      43.523  23.496  27.032  1.00  0.00    -0.014 A 
BRANCH  43  44
ATOM     44  C   UNL A   1      43.902  24.862  27.471  1.00  0.00     0.031 A 
ATOM     45  C   UNL A   1      42.831  25.845  27.855  1.00  0.00     0.074 A 
ATOM     46  C   UNL A   1      45.196  25.236  27.468  1.00  0.00     0.049 A 
ATOM     47  N   UNL A   1      42.942  27.103  28.200  1.00  0.00    -0.248 NA
ATOM     48  C   UNL A   1      41.441  25.357  27.813  1.00  0.00     0.031 C 
ATOM     49  C   UNL A   1      46.323  24.390  27.071  1.00  0.00     0.029 A 
ATOM     50  N   UNL A   1      45.781  26.431  27.806  1.00  0.00    -0.354 N 
ATOM     51  C   UNL A   1      41.644  27.555  28.398  1.00  0.00     0.074 A 
ATOM     52  C   UNL A   1      40.758  26.461  28.070  1.00  0.00     0.031 C 
ATOM     53  C   UNL A   1      47.464  25.084  27.214  1.00  0.00     0.029 A 
ATOM     54  C   UNL A   1      47.148  26.432  27.676  1.00  0.00     0.049 A 
ATOM     55  H   UNL A   1      45.268  27.214  28.113  1.00  0.00     0.167 HD
ATOM     56  C   UNL A   1      41.228  28.764  28.843  1.00  0.00     0.037 A 
ATOM     57  C   UNL A   1      48.042  27.413  27.902  1.00  0.00     0.037 A 
ATOM     58  C   UNL A   1      42.113  29.842  29.194  1.00  0.00     0.049 A 
ATOM     59  C   UNL A   1      47.554  28.749  28.398  1.00  0.00     0.074 A 
ATOM     60  C   UNL A   1      41.799  31.091  29.698  1.00  0.00     0.029 A 
ATOM     61  N   UNL A   1      43.495  29.795  29.076  1.00  0.00    -0.354 N 
ATOM     62  N   UNL A   1      46.329  29.146  28.642  1.00  0.00    -0.248 NA
ATOM     63  C   UNL A   1      48.579  29.769  28.661  1.00  0.00     0.031 C 
ATOM     64  C   UNL A   1      42.986  31.817  29.841  1.00  0.00     0.029 A 
ATOM     65  C   UNL A   1      44.046  30.999  29.486  1.00  0.00     0.049 A 
ATOM     66  H   UNL A   1      44.009  29.021  28.750  1.00  0.00     0.167 HD
ATOM     67  C   UNL A   1      46.437  30.442  29.128  1.00  0.00     0.074 A 
ATOM     68  C   UNL A   1      47.849  30.761  29.152  1.00  0.00     0.031 C 
ATOM     69  C   UNL A   1      45.456  31.292  29.524  1.00  0.00     0.037 A 
BRANCH  56  70
ATOM     70  C   UNL A   1      39.747  28.980  28.979  1.00  0.00     0.064 A 
ATOM     71  C   UNL A   1      38.955  29.376  27.889  1.00  0.00     0.173 A 
ATOM     72  C   UNL A   1      39.106  28.769  30.210  1.00  0.00     0.173 A 
ATOM     73  F   UNL A   1      39.519  29.605  26.693  1.00  0.00    -0.203 F 
ATOM     74  C   UNL A   1      37.587  29.588  28.034  1.00  0.00     0.198 A 
ATOM     75  C   UNL A   1      37.731  28.946  30.342  1.00  0.00     0.198 A 
ATOM     76  F   UNL A   1      39.812  28.386  31.284  1.00  0.00    -0.203 F 
ATOM     77  F   UNL A   1      36.864  30.024  26.993  1.00  0.00    -0.200 F 
ATOM     78  C   UNL A   1      36.974  29.365  29.258  1.00  0.00     0.200 A 
ATOM     79  F   UNL A   1      37.138  28.718  31.521  1.00  0.00    -0.200 F 
ATOM     80  F   UNL A   1      35.656  29.562  29.394  1.00  0.00    -0.200 F 
ENDBRANCH  56  70
BRANCH  57  81
ATOM     81  C   UNL A   1      49.493  27.160  27.700  1.00  0.00     0.064 A 
ATOM     82  C   UNL A   1      50.084  27.333  26.439  1.00  0.00     0.173 A 
ATOM     83  C   UNL A   1      50.315  26.728  28.750  1.00  0.00     0.173 A 
ATOM     84  F   UNL A   1      49.336  27.727  25.398  1.00  0.00    -0.203 F 
ATOM     85  C   UNL A   1      51.434  27.056  26.231  1.00  0.00     0.198 A 
ATOM     86  C   UNL A   1      51.672  26.482  28.548  1.00  0.00     0.198 A 
ATOM     87  F   UNL A   1      49.803  26.553  29.976  1.00  0.00    -0.203 F 
ATOM     88  F   UNL A   1      51.958  27.179  25.005  1.00  0.00    -0.200 F 
ATOM     89  C   UNL A   1      52.228  26.635  27.287  1.00  0.00     0.200 A 
ATOM     90  F   UNL A   1      52.441  26.090  29.574  1.00  0.00    -0.200 F 
ATOM     91  F   UNL A   1      53.526  26.370  27.087  1.00  0.00    -0.200 F 
ENDBRANCH  57  81
BRANCH  69  92
ATOM     92  C   UNL A   1      45.878  32.622  30.080  1.00  0.00     0.064 A 
ATOM     93  C   UNL A   1      46.159  32.803  31.442  1.00  0.00     0.173 A 
ATOM     94  C   UNL A   1      46.031  33.724  29.225  1.00  0.00     0.173 A 
ATOM     95  F   UNL A   1      46.015  31.785  32.304  1.00  0.00    -0.203 F 
ATOM     96  C   UNL A   1      46.544  34.049  31.933  1.00  0.00     0.198 A 
ATOM     97  C   UNL A   1      46.451  34.958  29.713  1.00  0.00     0.198 A 
ATOM     98  F   UNL A   1      45.785  33.603  27.912  1.00  0.00    -0.203 F 
ATOM     99  F   UNL A   1      46.751  34.214  33.246  1.00  0.00    -0.200 F 
ATOM    100  C   UNL A   1      46.697  35.122  31.068  1.00  0.00     0.200 A 
ATOM    101  F   UNL A   1      46.614  35.990  28.873  1.00  0.00    -0.200 F 
ATOM    102  F   UNL A   1      47.073  36.318  31.542  1.00  0.00    -0.200 F 
ENDBRANCH  69  92
ENDBRANCH  43  44
ENDBRANCH  35  38
ENDBRANCH  33  34
ENDBRANCH  32  33
ENDBRANCH  31  32
ENDBRANCH   1  31
TORSDOF 16
ENDMDL
