MODEL 1
REMARK VINA RESULT:     -13.9      0.000      0.000
REMARK SMILES Cc1ccc2oc(-c3ccc4c(c3)OCO4)c/c(=N\[C@H](C)C(=O)NCCCCNC(=O)c3ccc(-c4c5nc(c(-c6c(F)c(F)c(F)c(F)c6F)c6ccc([nH]6)c(-c6c(F)c(F)c(F)c(F)c6F)c6nc(c(-c7c(F)c(F)c(F)c(F)c7F)c7ccc4[nH]7)C=C6)C=C5)cc3)c2c1
REMARK SMILES IDX 26 1 25 2 24 3 22 4 23 5 20 7 21 8 19 9 1 10 2 11 3 12 96 13
REMARK SMILES IDX 4 14 95 15 5 16 18 17 6 18 17 19 7 20 8 21 9 22 13 23 10 24
REMARK SMILES IDX 12 25 11 26 14 27 16 28 15 29 27 30 28 31 29 32 30 33 31 35
REMARK SMILES IDX 32 36 33 37 94 38 34 39 93 40 35 41 36 42 37 43 87 44 38 45
REMARK SMILES IDX 92 46 86 47 88 48 39 49 91 50 85 51 84 52 40 54 72 55 52 56
REMARK SMILES IDX 71 57 53 58 56 59 70 60 89 61 54 62 55 63 69 65 90 66 57 67
REMARK SMILES IDX 41 68 42 69 50 70 43 71 44 72 48 73 51 74 45 75 46 76 49 77
REMARK SMILES IDX 47 78 73 79 74 80 82 81 75 82 76 83 80 84 83 85 77 86 78 87
REMARK SMILES IDX 81 88 79 89 58 90 59 91 67 92 60 93 61 94 65 95 68 96 62 97
REMARK SMILES IDX 63 98 66 99 64 100
REMARK H PARENT 24 6 29 34 88 53 56 64
REMARK Flexibility Score: inf
ROOT
ATOM      1  C   UNL A   1      34.707  22.689  24.681  1.00  0.00     0.023 C 
ENDROOT
BRANCH   1   2
ATOM      2  C   UNL A   1      34.745  23.538  25.951  1.00  0.00     0.116 C 
BRANCH   2   3
ATOM      3  N   UNL A   1      33.513  23.472  26.703  1.00  0.00    -0.354 N 
ATOM      4  C   UNL A   1      32.307  24.072  26.512  1.00  0.00     0.244 C 
ATOM      5  O   UNL A   1      31.401  23.705  27.275  1.00  0.00    -0.273 OA
ATOM      6  H   UNL A   1      33.553  22.887  27.495  1.00  0.00     0.163 HD
BRANCH   4   7
ATOM      7  C   UNL A   1      32.050  25.235  25.536  1.00  0.00     0.191 C 
ATOM      8  C   UNL A   1      30.656  25.143  24.948  1.00  0.00     0.044 C 
BRANCH   7   9
ATOM      9  N   UNL A   1      32.514  26.541  26.007  1.00  0.00    -0.271 NA
ATOM     10  C   UNL A   1      35.959  29.351  28.652  1.00  0.00     0.044 C 
ATOM     11  C   UNL A   1      34.732  29.632  27.833  1.00  0.00    -0.050 A 
ATOM     12  C   UNL A   1      34.278  30.945  27.656  1.00  0.00     0.007 A 
ATOM     13  C   UNL A   1      34.065  28.585  27.180  1.00  0.00     0.017 A 
ATOM     14  C   UNL A   1      33.170  31.208  26.848  1.00  0.00     0.048 A 
ATOM     15  C   UNL A   1      32.956  28.848  26.362  1.00  0.00     0.043 A 
ATOM     16  C   UNL A   1      32.519  30.162  26.195  1.00  0.00     0.136 A 
ATOM     17  C   UNL A   1      32.242  27.740  25.661  1.00  0.00     0.073 A 
ATOM     18  O   UNL A   1      31.459  30.499  25.391  1.00  0.00    -0.456 OA
ATOM     19  C   UNL A   1      31.262  28.209  24.658  1.00  0.00     0.076 A 
ATOM     20  C   UNL A   1      30.932  29.506  24.599  1.00  0.00     0.136 A 
BRANCH  20  21
ATOM     21  C   UNL A   1      29.930  29.949  23.625  1.00  0.00     0.021 A 
ATOM     22  C   UNL A   1      29.095  29.015  22.972  1.00  0.00     0.016 A 
ATOM     23  C   UNL A   1      29.856  31.307  23.290  1.00  0.00     0.062 A 
ATOM     24  C   UNL A   1      28.207  29.421  21.972  1.00  0.00     0.051 A 
ATOM     25  C   UNL A   1      28.961  31.680  22.310  1.00  0.00     0.166 A 
ATOM     26  C   UNL A   1      28.164  30.763  21.665  1.00  0.00     0.165 A 
ATOM     27  O   UNL A   1      28.764  32.947  21.862  1.00  0.00    -0.454 OA
ATOM     28  O   UNL A   1      27.370  31.340  20.726  1.00  0.00    -0.454 OA
ATOM     29  C   UNL A   1      27.713  32.731  20.898  1.00  0.00     0.468 C 
ENDBRANCH  20  21
ENDBRANCH   7   9
ENDBRANCH   4   7
ENDBRANCH   2   3
ENDBRANCH   1   2
BRANCH   1  30
ATOM     30  C   UNL A   1      36.047  22.065  24.293  1.00  0.00     0.023 C 
BRANCH  30  31
ATOM     31  C   UNL A   1      37.185  22.356  25.267  1.00  0.00     0.116 C 
BRANCH  31  32
ATOM     32  N   UNL A   1      38.131  21.261  25.435  1.00  0.00    -0.352 N 
ATOM     33  C   UNL A   1      39.345  21.287  26.093  1.00  0.00     0.251 C 
ATOM     34  H   UNL A   1      37.875  20.400  25.032  1.00  0.00     0.163 HD
ATOM     35  O   UNL A   1      40.095  20.319  26.076  1.00  0.00    -0.269 OA
BRANCH  33  36
ATOM     36  C   UNL A   1      39.740  22.535  26.779  1.00  0.00     0.039 A 
ATOM     37  C   UNL A   1      39.193  23.749  26.366  1.00  0.00     0.014 A 
ATOM     38  C   UNL A   1      40.746  22.500  27.746  1.00  0.00     0.014 A 
ATOM     39  C   UNL A   1      39.800  24.934  26.754  1.00  0.00     0.010 A 
ATOM     40  C   UNL A   1      41.292  23.701  28.211  1.00  0.00     0.010 A 
ATOM     41  C   UNL A   1      40.872  24.923  27.664  1.00  0.00    -0.014 A 
BRANCH  41  42
ATOM     42  C   UNL A   1      41.556  26.204  27.982  1.00  0.00     0.031 A 
ATOM     43  C   UNL A   1      42.919  26.510  27.420  1.00  0.00     0.074 A 
ATOM     44  C   UNL A   1      40.903  27.134  28.704  1.00  0.00     0.049 A 
ATOM     45  N   UNL A   1      43.644  27.592  27.559  1.00  0.00    -0.248 NA
ATOM     46  C   UNL A   1      43.556  25.467  26.600  1.00  0.00     0.031 C 
ATOM     47  C   UNL A   1      39.571  26.961  29.285  1.00  0.00     0.029 A 
ATOM     48  N   UNL A   1      41.250  28.417  29.039  1.00  0.00    -0.354 N 
ATOM     49  C   UNL A   1      44.829  27.350  26.875  1.00  0.00     0.074 A 
ATOM     50  C   UNL A   1      44.736  26.011  26.334  1.00  0.00     0.031 C 
ATOM     51  C   UNL A   1      39.183  28.116  29.844  1.00  0.00     0.029 A 
ATOM     52  C   UNL A   1      40.267  29.087  29.723  1.00  0.00     0.049 A 
ATOM     53  H   UNL A   1      42.119  28.820  28.812  1.00  0.00     0.167 HD
ATOM     54  C   UNL A   1      45.891  28.172  26.705  1.00  0.00     0.037 A 
ATOM     55  C   UNL A   1      40.239  30.342  30.209  1.00  0.00     0.037 A 
ATOM     56  C   UNL A   1      45.963  29.521  27.205  1.00  0.00     0.049 A 
ATOM     57  C   UNL A   1      41.435  31.228  30.023  1.00  0.00     0.074 A 
ATOM     58  C   UNL A   1      46.980  30.445  27.048  1.00  0.00     0.029 A 
ATOM     59  N   UNL A   1      44.972  30.139  27.954  1.00  0.00    -0.354 N 
ATOM     60  N   UNL A   1      42.550  30.981  29.381  1.00  0.00    -0.248 NA
ATOM     61  C   UNL A   1      41.376  32.559  30.643  1.00  0.00     0.031 C 
ATOM     62  C   UNL A   1      46.624  31.610  27.735  1.00  0.00     0.029 A 
ATOM     63  C   UNL A   1      45.366  31.426  28.287  1.00  0.00     0.049 A 
ATOM     64  H   UNL A   1      44.116  29.726  28.212  1.00  0.00     0.167 HD
ATOM     65  C   UNL A   1      43.329  32.120  29.522  1.00  0.00     0.074 A 
ATOM     66  C   UNL A   1      42.548  33.070  30.288  1.00  0.00     0.031 C 
ATOM     67  C   UNL A   1      44.584  32.352  29.065  1.00  0.00     0.037 A 
BRANCH  54  68
ATOM     68  C   UNL A   1      47.078  27.639  25.958  1.00  0.00     0.064 A 
ATOM     69  C   UNL A   1      47.163  27.709  24.560  1.00  0.00     0.173 A 
ATOM     70  C   UNL A   1      48.172  27.108  26.658  1.00  0.00     0.173 A 
ATOM     71  F   UNL A   1      46.139  28.198  23.845  1.00  0.00    -0.203 F 
ATOM     72  C   UNL A   1      48.294  27.250  23.888  1.00  0.00     0.198 A 
ATOM     73  C   UNL A   1      49.311  26.671  25.984  1.00  0.00     0.198 A 
ATOM     74  F   UNL A   1      48.143  27.024  27.996  1.00  0.00    -0.203 F 
ATOM     75  F   UNL A   1      48.341  27.295  22.550  1.00  0.00    -0.200 F 
ATOM     76  C   UNL A   1      49.369  26.739  24.601  1.00  0.00     0.200 A 
ATOM     77  F   UNL A   1      50.353  26.189  26.675  1.00  0.00    -0.200 F 
ATOM     78  F   UNL A   1      50.461  26.308  23.953  1.00  0.00    -0.200 F 
ENDBRANCH  54  68
BRANCH  55  79
ATOM     79  C   UNL A   1      39.025  30.816  30.918  1.00  0.00     0.064 A 
ATOM     80  C   UNL A   1      38.856  30.585  32.289  1.00  0.00     0.173 A 
ATOM     81  C   UNL A   1      38.043  31.565  30.253  1.00  0.00     0.173 A 
ATOM     82  F   UNL A   1      39.760  29.859  32.962  1.00  0.00    -0.203 F 
ATOM     83  C   UNL A   1      37.753  31.094  32.971  1.00  0.00     0.198 A 
ATOM     84  C   UNL A   1      36.954  32.094  30.940  1.00  0.00     0.198 A 
ATOM     85  F   UNL A   1      38.165  31.816  28.941  1.00  0.00    -0.203 F 
ATOM     86  F   UNL A   1      37.605  30.848  34.280  1.00  0.00    -0.200 F 
ATOM     87  C   UNL A   1      36.810  31.857  32.298  1.00  0.00     0.200 A 
ATOM     88  F   UNL A   1      36.057  32.847  30.291  1.00  0.00    -0.200 F 
ATOM     89  F   UNL A   1      35.761  32.368  32.961  1.00  0.00    -0.200 F 
ENDBRANCH  55  79
BRANCH  67  90
ATOM     90  C   UNL A   1      45.199  33.679  29.389  1.00  0.00     0.064 A 
ATOM     91  C   UNL A   1      45.018  34.787  28.549  1.00  0.00     0.173 A 
ATOM     92  C   UNL A   1      45.922  33.862  30.577  1.00  0.00     0.173 A 
ATOM     93  F   UNL A   1      44.346  34.657  27.395  1.00  0.00    -0.203 F 
ATOM     94  C   UNL A   1      45.549  36.030  28.882  1.00  0.00     0.198 A 
ATOM     95  C   UNL A   1      46.433  35.111  30.918  1.00  0.00     0.198 A 
ATOM     96  F   UNL A   1      46.116  32.832  31.415  1.00  0.00    -0.203 F 
ATOM     97  F   UNL A   1      45.390  37.069  28.051  1.00  0.00    -0.200 F 
ATOM     98  C   UNL A   1      46.248  36.192  30.068  1.00  0.00     0.200 A 
ATOM     99  F   UNL A   1      47.098  35.270  32.070  1.00  0.00    -0.200 F 
ATOM    100  F   UNL A   1      46.750  37.393  30.394  1.00  0.00    -0.200 F 
ENDBRANCH  67  90
ENDBRANCH  41  42
ENDBRANCH  33  36
ENDBRANCH  31  32
ENDBRANCH  30  31
ENDBRANCH   1  30
TORSDOF 13
ENDMDL
MODEL 2
REMARK VINA RESULT:     -13.9      4.209     10.507
REMARK SMILES Cc1ccc2oc(-c3ccc4c(c3)OCO4)c/c(=N\[C@H](C)C(=O)NCCCCNC(=O)c3ccc(-c4c5nc(c(-c6c(F)c(F)c(F)c(F)c6F)c6ccc([nH]6)c(-c6c(F)c(F)c(F)c(F)c6F)c6nc(c(-c7c(F)c(F)c(F)c(F)c7F)c7ccc4[nH]7)C=C6)C=C5)cc3)c2c1
REMARK SMILES IDX 26 1 25 2 24 3 22 4 23 5 20 7 21 8 19 9 1 10 2 11 3 12 96 13
REMARK SMILES IDX 4 14 95 15 5 16 18 17 6 18 17 19 7 20 8 21 9 22 13 23 10 24
REMARK SMILES IDX 12 25 11 26 14 27 16 28 15 29 27 30 28 31 29 32 30 33 31 35
REMARK SMILES IDX 32 36 33 37 94 38 34 39 93 40 35 41 36 42 37 43 87 44 38 45
REMARK SMILES IDX 92 46 86 47 88 48 39 49 91 50 85 51 84 52 40 54 72 55 52 56
REMARK SMILES IDX 71 57 53 58 56 59 70 60 89 61 54 62 55 63 69 65 90 66 57 67
REMARK SMILES IDX 41 68 42 69 50 70 43 71 44 72 48 73 51 74 45 75 46 76 49 77
REMARK SMILES IDX 47 78 73 79 74 80 82 81 75 82 76 83 80 84 83 85 77 86 78 87
REMARK SMILES IDX 81 88 79 89 58 90 59 91 67 92 60 93 61 94 65 95 68 96 62 97
REMARK SMILES IDX 63 98 66 99 64 100
REMARK H PARENT 24 6 29 34 88 53 56 64
REMARK Flexibility Score: inf
ROOT
ATOM      1  C   UNL A   1      31.838  27.520  26.809  1.00  0.00     0.023 C 
ENDROOT
BRANCH   1   2
ATOM      2  C   UNL A   1      32.495  26.344  26.088  1.00  0.00     0.116 C 
BRANCH   2   3
ATOM      3  N   UNL A   1      32.957  26.689  24.764  1.00  0.00    -0.354 N 
ATOM      4  C   UNL A   1      33.243  25.918  23.680  1.00  0.00     0.244 C 
ATOM      5  O   UNL A   1      33.498  26.538  22.636  1.00  0.00    -0.273 OA
ATOM      6  H   UNL A   1      33.087  27.655  24.619  1.00  0.00     0.163 HD
BRANCH   4   7
ATOM      7  C   UNL A   1      33.397  24.387  23.708  1.00  0.00     0.191 C 
ATOM      8  C   UNL A   1      32.903  23.774  22.413  1.00  0.00     0.044 C 
BRANCH   7   9
ATOM      9  N   UNL A   1      34.670  23.912  24.252  1.00  0.00    -0.271 NA
ATOM     10  C   UNL A   1      39.274  24.961  26.366  1.00  0.00     0.044 C 
ATOM     11  C   UNL A   1      38.510  23.723  25.993  1.00  0.00    -0.050 A 
ATOM     12  C   UNL A   1      39.062  22.455  26.206  1.00  0.00     0.007 A 
ATOM     13  C   UNL A   1      37.207  23.825  25.486  1.00  0.00     0.017 A 
ATOM     14  C   UNL A   1      38.328  21.304  25.910  1.00  0.00     0.048 A 
ATOM     15  C   UNL A   1      36.464  22.671  25.195  1.00  0.00     0.043 A 
ATOM     16  C   UNL A   1      37.028  21.415  25.416  1.00  0.00     0.136 A 
ATOM     17  C   UNL A   1      35.074  22.770  24.658  1.00  0.00     0.073 A 
ATOM     18  O   UNL A   1      36.355  20.242  25.180  1.00  0.00    -0.456 OA
ATOM     19  C   UNL A   1      34.354  21.479  24.639  1.00  0.00     0.076 A 
ATOM     20  C   UNL A   1      35.017  20.338  24.875  1.00  0.00     0.136 A 
BRANCH  20  21
ATOM     21  C   UNL A   1      34.296  19.064  24.814  1.00  0.00     0.021 A 
ATOM     22  C   UNL A   1      32.900  19.032  24.602  1.00  0.00     0.016 A 
ATOM     23  C   UNL A   1      34.996  17.872  25.042  1.00  0.00     0.062 A 
ATOM     24  C   UNL A   1      32.195  17.826  24.641  1.00  0.00     0.051 A 
ATOM     25  C   UNL A   1      34.276  16.697  25.061  1.00  0.00     0.166 A 
ATOM     26  C   UNL A   1      32.914  16.675  24.872  1.00  0.00     0.165 A 
ATOM     27  O   UNL A   1      34.792  15.457  25.272  1.00  0.00    -0.454 OA
ATOM     28  O   UNL A   1      32.403  15.418  24.946  1.00  0.00    -0.454 OA
ATOM     29  C   UNL A   1      33.606  14.646  25.140  1.00  0.00     0.468 C 
ENDBRANCH  20  21
ENDBRANCH   7   9
ENDBRANCH   4   7
ENDBRANCH   2   3
ENDBRANCH   1   2
BRANCH   1  30
ATOM     30  C   UNL A   1      31.804  28.820  26.007  1.00  0.00     0.023 C 
BRANCH  30  31
ATOM     31  C   UNL A   1      33.015  29.725  26.219  1.00  0.00     0.116 C 
BRANCH  31  32
ATOM     32  N   UNL A   1      32.692  31.067  26.686  1.00  0.00    -0.352 N 
ATOM     33  C   UNL A   1      33.472  31.903  27.459  1.00  0.00     0.251 C 
ATOM     34  H   UNL A   1      31.811  31.419  26.420  1.00  0.00     0.163 HD
ATOM     35  O   UNL A   1      33.040  32.973  27.869  1.00  0.00    -0.269 OA
BRANCH  33  36
ATOM     36  C   UNL A   1      34.831  31.451  27.821  1.00  0.00     0.039 A 
ATOM     37  C   UNL A   1      35.041  30.119  28.178  1.00  0.00     0.014 A 
ATOM     38  C   UNL A   1      35.864  32.385  27.925  1.00  0.00     0.014 A 
ATOM     39  C   UNL A   1      36.207  29.769  28.841  1.00  0.00     0.010 A 
ATOM     40  C   UNL A   1      37.078  32.004  28.505  1.00  0.00     0.010 A 
ATOM     41  C   UNL A   1      37.230  30.713  29.033  1.00  0.00    -0.014 A 
BRANCH  41  42
ATOM     42  C   UNL A   1      38.424  30.325  29.830  1.00  0.00     0.031 A 
ATOM     43  C   UNL A   1      38.552  30.733  31.274  1.00  0.00     0.074 A 
ATOM     44  C   UNL A   1      39.350  29.521  29.274  1.00  0.00     0.049 A 
ATOM     45  N   UNL A   1      39.503  30.449  32.130  1.00  0.00    -0.248 NA
ATOM     46  C   UNL A   1      37.480  31.572  31.832  1.00  0.00     0.031 C 
ATOM     47  C   UNL A   1      39.324  29.044  27.891  1.00  0.00     0.029 A 
ATOM     48  N   UNL A   1      40.467  28.934  29.810  1.00  0.00    -0.354 N 
ATOM     49  C   UNL A   1      39.162  31.096  33.310  1.00  0.00     0.074 A 
ATOM     50  C   UNL A   1      37.925  31.804  33.059  1.00  0.00     0.031 C 
ATOM     51  C   UNL A   1      40.335  28.183  27.706  1.00  0.00     0.029 A 
ATOM     52  C   UNL A   1      41.120  28.103  28.934  1.00  0.00     0.049 A 
ATOM     53  H   UNL A   1      40.772  29.092  30.733  1.00  0.00     0.167 HD
ATOM     54  C   UNL A   1      39.814  31.091  34.496  1.00  0.00     0.037 A 
ATOM     55  C   UNL A   1      42.232  27.362  29.095  1.00  0.00     0.037 A 
ATOM     56  C   UNL A   1      41.020  30.349  34.758  1.00  0.00     0.049 A 
ATOM     57  C   UNL A   1      42.946  27.388  30.414  1.00  0.00     0.074 A 
ATOM     58  C   UNL A   1      41.732  30.249  35.941  1.00  0.00     0.029 A 
ATOM     59  N   UNL A   1      41.688  29.573  33.822  1.00  0.00    -0.354 N 
ATOM     60  N   UNL A   1      42.616  28.011  31.517  1.00  0.00    -0.248 NA
ATOM     61  C   UNL A   1      44.197  26.622  30.504  1.00  0.00     0.031 C 
ATOM     62  C   UNL A   1      42.853  29.446  35.711  1.00  0.00     0.029 A 
ATOM     63  C   UNL A   1      42.818  29.011  34.395  1.00  0.00     0.049 A 
ATOM     64  H   UNL A   1      41.403  29.442  32.889  1.00  0.00     0.167 HD
ATOM     65  C   UNL A   1      43.616  27.720  32.433  1.00  0.00     0.074 A 
ATOM     66  C   UNL A   1      44.553  26.840  31.764  1.00  0.00     0.031 C 
ATOM     67  C   UNL A   1      43.749  28.151  33.710  1.00  0.00     0.037 A 
BRANCH  54  68
ATOM     68  C   UNL A   1      39.252  31.926  35.610  1.00  0.00     0.064 A 
ATOM     69  C   UNL A   1      38.382  31.388  36.569  1.00  0.00     0.173 A 
ATOM     70  C   UNL A   1      39.639  33.267  35.752  1.00  0.00     0.173 A 
ATOM     71  F   UNL A   1      37.972  30.115  36.470  1.00  0.00    -0.203 F 
ATOM     72  C   UNL A   1      37.906  32.169  37.621  1.00  0.00     0.198 A 
ATOM     73  C   UNL A   1      39.180  34.037  36.818  1.00  0.00     0.198 A 
ATOM     74  F   UNL A   1      40.474  33.828  34.864  1.00  0.00    -0.203 F 
ATOM     75  F   UNL A   1      37.049  31.644  38.507  1.00  0.00    -0.200 F 
ATOM     76  C   UNL A   1      38.312  33.489  37.749  1.00  0.00     0.200 A 
ATOM     77  F   UNL A   1      39.583  35.309  36.947  1.00  0.00    -0.200 F 
ATOM     78  F   UNL A   1      37.862  34.234  38.768  1.00  0.00    -0.200 F 
ENDBRANCH  54  68
BRANCH  55  79
ATOM     79  C   UNL A   1      42.723  26.540  27.962  1.00  0.00     0.064 A 
ATOM     80  C   UNL A   1      42.328  25.204  27.818  1.00  0.00     0.173 A 
ATOM     81  C   UNL A   1      43.541  27.094  26.966  1.00  0.00     0.173 A 
ATOM     82  F   UNL A   1      41.561  24.628  28.755  1.00  0.00    -0.203 F 
ATOM     83  C   UNL A   1      42.729  24.453  26.715  1.00  0.00     0.198 A 
ATOM     84  C   UNL A   1      43.919  26.350  25.851  1.00  0.00     0.198 A 
ATOM     85  F   UNL A   1      43.939  28.371  27.058  1.00  0.00    -0.203 F 
ATOM     86  F   UNL A   1      42.351  23.172  26.607  1.00  0.00    -0.200 F 
ATOM     87  C   UNL A   1      43.514  25.030  25.727  1.00  0.00     0.200 A 
ATOM     88  F   UNL A   1      44.661  26.917  24.891  1.00  0.00    -0.200 F 
ATOM     89  F   UNL A   1      43.877  24.315  24.653  1.00  0.00    -0.200 F 
ENDBRANCH  55  79
BRANCH  67  90
ATOM     90  C   UNL A   1      44.957  27.692  34.469  1.00  0.00     0.064 A 
ATOM     91  C   UNL A   1      46.130  28.461  34.500  1.00  0.00     0.173 A 
ATOM     92  C   UNL A   1      44.923  26.508  35.220  1.00  0.00     0.173 A 
ATOM     93  F   UNL A   1      46.213  29.593  33.786  1.00  0.00    -0.203 F 
ATOM     94  C   UNL A   1      47.230  28.054  35.248  1.00  0.00     0.198 A 
ATOM     95  C   UNL A   1      46.018  26.115  35.984  1.00  0.00     0.198 A 
ATOM     96  F   UNL A   1      43.822  25.742  35.225  1.00  0.00    -0.203 F 
ATOM     97  F   UNL A   1      48.351  28.788  35.241  1.00  0.00    -0.200 F 
ATOM     98  C   UNL A   1      47.171  26.887  35.996  1.00  0.00     0.200 A 
ATOM     99  F   UNL A   1      45.955  24.994  36.715  1.00  0.00    -0.200 F 
ATOM    100  F   UNL A   1      48.228  26.502  36.725  1.00  0.00    -0.200 F 
ENDBRANCH  67  90
ENDBRANCH  41  42
ENDBRANCH  33  36
ENDBRANCH  31  32
ENDBRANCH  30  31
ENDBRANCH   1  30
TORSDOF 13
ENDMDL
MODEL 3
REMARK VINA RESULT:     -13.9      0.451      7.210
REMARK SMILES Cc1ccc2oc(-c3ccc4c(c3)OCO4)c/c(=N\[C@H](C)C(=O)NCCCCNC(=O)c3ccc(-c4c5nc(c(-c6c(F)c(F)c(F)c(F)c6F)c6ccc([nH]6)c(-c6c(F)c(F)c(F)c(F)c6F)c6nc(c(-c7c(F)c(F)c(F)c(F)c7F)c7ccc4[nH]7)C=C6)C=C5)cc3)c2c1
REMARK SMILES IDX 26 1 25 2 24 3 22 4 23 5 20 7 21 8 19 9 1 10 2 11 3 12 96 13
REMARK SMILES IDX 4 14 95 15 5 16 18 17 6 18 17 19 7 20 8 21 9 22 13 23 10 24
REMARK SMILES IDX 12 25 11 26 14 27 16 28 15 29 27 30 28 31 29 32 30 33 31 35
REMARK SMILES IDX 32 36 33 37 94 38 34 39 93 40 35 41 36 42 37 43 87 44 38 45
REMARK SMILES IDX 92 46 86 47 88 48 39 49 91 50 85 51 84 52 40 54 72 55 52 56
REMARK SMILES IDX 71 57 53 58 56 59 70 60 89 61 54 62 55 63 69 65 90 66 57 67
REMARK SMILES IDX 41 68 42 69 50 70 43 71 44 72 48 73 51 74 45 75 46 76 49 77
REMARK SMILES IDX 47 78 73 79 74 80 82 81 75 82 76 83 80 84 83 85 77 86 78 87
REMARK SMILES IDX 81 88 79 89 58 90 59 91 67 92 60 93 61 94 65 95 68 96 62 97
REMARK SMILES IDX 63 98 66 99 64 100
REMARK H PARENT 24 6 29 34 88 53 56 64
REMARK Flexibility Score: inf
ROOT
ATOM      1  C   UNL A   1      34.812  22.838  24.329  1.00  0.00     0.023 C 
ENDROOT
BRANCH   1   2
ATOM      2  C   UNL A   1      34.693  23.915  25.407  1.00  0.00     0.116 C 
BRANCH   2   3
ATOM      3  N   UNL A   1      33.688  23.604  26.398  1.00  0.00    -0.354 N 
ATOM      4  C   UNL A   1      32.407  24.038  26.549  1.00  0.00     0.244 C 
ATOM      5  O   UNL A   1      31.756  23.477  27.443  1.00  0.00    -0.273 OA
ATOM      6  H   UNL A   1      33.982  22.964  27.086  1.00  0.00     0.163 HD
BRANCH   4   7
ATOM      7  C   UNL A   1      31.791  25.233  25.799  1.00  0.00     0.191 C 
ATOM      8  C   UNL A   1      30.288  25.074  25.682  1.00  0.00     0.044 C 
BRANCH   7   9
ATOM      9  N   UNL A   1      32.316  26.540  26.197  1.00  0.00    -0.271 NA
ATOM     10  C   UNL A   1      35.904  29.329  28.669  1.00  0.00     0.044 C 
ATOM     11  C   UNL A   1      34.685  29.621  27.843  1.00  0.00    -0.050 A 
ATOM     12  C   UNL A   1      34.289  30.941  27.599  1.00  0.00     0.007 A 
ATOM     13  C   UNL A   1      33.966  28.572  27.251  1.00  0.00     0.017 A 
ATOM     14  C   UNL A   1      33.187  31.211  26.784  1.00  0.00     0.048 A 
ATOM     15  C   UNL A   1      32.864  28.840  26.426  1.00  0.00     0.043 A 
ATOM     16  C   UNL A   1      32.484  30.162  26.191  1.00  0.00     0.136 A 
ATOM     17  C   UNL A   1      32.095  27.730  25.789  1.00  0.00     0.073 A 
ATOM     18  O   UNL A   1      31.434  30.504  25.377  1.00  0.00    -0.456 OA
ATOM     19  C   UNL A   1      31.130  28.189  24.768  1.00  0.00     0.076 A 
ATOM     20  C   UNL A   1      30.857  29.495  24.642  1.00  0.00     0.136 A 
BRANCH  20  21
ATOM     21  C   UNL A   1      29.868  29.930  23.651  1.00  0.00     0.021 A 
ATOM     22  C   UNL A   1      29.070  28.987  22.965  1.00  0.00     0.016 A 
ATOM     23  C   UNL A   1      29.771  31.291  23.334  1.00  0.00     0.062 A 
ATOM     24  C   UNL A   1      28.197  29.389  21.951  1.00  0.00     0.051 A 
ATOM     25  C   UNL A   1      28.892  31.659  22.340  1.00  0.00     0.166 A 
ATOM     26  C   UNL A   1      28.131  30.734  21.663  1.00  0.00     0.165 A 
ATOM     27  O   UNL A   1      28.676  32.928  21.905  1.00  0.00    -0.454 OA
ATOM     28  O   UNL A   1      27.345  31.307  20.713  1.00  0.00    -0.454 OA
ATOM     29  C   UNL A   1      27.653  32.703  20.913  1.00  0.00     0.468 C 
ENDBRANCH  20  21
ENDBRANCH   7   9
ENDBRANCH   4   7
ENDBRANCH   2   3
ENDBRANCH   1   2
BRANCH   1  30
ATOM     30  C   UNL A   1      35.730  21.672  24.694  1.00  0.00     0.023 C 
BRANCH  30  31
ATOM     31  C   UNL A   1      36.945  22.063  25.529  1.00  0.00     0.116 C 
BRANCH  31  32
ATOM     32  N   UNL A   1      37.965  21.026  25.634  1.00  0.00    -0.352 N 
ATOM     33  C   UNL A   1      39.246  21.150  26.133  1.00  0.00     0.251 C 
ATOM     34  H   UNL A   1      37.709  20.132  25.310  1.00  0.00     0.163 HD
ATOM     35  O   UNL A   1      40.041  20.220  26.071  1.00  0.00    -0.269 OA
BRANCH  33  36
ATOM     36  C   UNL A   1      39.651  22.452  26.701  1.00  0.00     0.039 A 
ATOM     37  C   UNL A   1      39.073  23.624  26.214  1.00  0.00     0.014 A 
ATOM     38  C   UNL A   1      40.695  22.506  27.626  1.00  0.00     0.014 A 
ATOM     39  C   UNL A   1      39.679  24.842  26.482  1.00  0.00     0.010 A 
ATOM     40  C   UNL A   1      41.243  23.745  27.971  1.00  0.00     0.010 A 
ATOM     41  C   UNL A   1      40.786  24.915  27.345  1.00  0.00    -0.014 A 
BRANCH  41  42
ATOM     42  C   UNL A   1      41.466  26.224  27.531  1.00  0.00     0.031 A 
ATOM     43  C   UNL A   1      40.847  27.298  28.387  1.00  0.00     0.074 A 
ATOM     44  C   UNL A   1      42.690  26.408  27.002  1.00  0.00     0.049 A 
ATOM     45  N   UNL A   1      41.318  28.482  28.692  1.00  0.00    -0.248 NA
ATOM     46  C   UNL A   1      39.529  27.012  28.973  1.00  0.00     0.031 C 
ATOM     47  C   UNL A   1      43.399  25.434  26.171  1.00  0.00     0.029 A 
ATOM     48  N   UNL A   1      43.568  27.455  27.113  1.00  0.00    -0.354 N 
ATOM     49  C   UNL A   1      40.346  29.090  29.475  1.00  0.00     0.074 A 
ATOM     50  C   UNL A   1      39.248  28.154  29.586  1.00  0.00     0.031 C 
ATOM     51  C   UNL A   1      44.629  25.898  25.906  1.00  0.00     0.029 A 
ATOM     52  C   UNL A   1      44.768  27.230  26.488  1.00  0.00     0.049 A 
ATOM     53  H   UNL A   1      43.358  28.288  27.595  1.00  0.00     0.167 HD
ATOM     54  C   UNL A   1      40.372  30.313  30.057  1.00  0.00     0.037 A 
ATOM     55  C   UNL A   1      45.861  28.009  26.384  1.00  0.00     0.037 A 
ATOM     56  C   UNL A   1      41.483  31.225  29.984  1.00  0.00     0.049 A 
ATOM     57  C   UNL A   1      45.857  29.366  27.022  1.00  0.00     0.074 A 
ATOM     58  C   UNL A   1      41.619  32.469  30.575  1.00  0.00     0.029 A 
ATOM     59  N   UNL A   1      42.656  30.986  29.281  1.00  0.00    -0.354 N 
ATOM     60  N   UNL A   1      44.927  29.930  27.752  1.00  0.00    -0.248 NA
ATOM     61  C   UNL A   1      47.047  30.201  26.808  1.00  0.00     0.031 C 
ATOM     62  C   UNL A   1      42.856  33.001  30.197  1.00  0.00     0.029 A 
ATOM     63  C   UNL A   1      43.509  32.071  29.404  1.00  0.00     0.049 A 
ATOM     64  H   UNL A   1      42.853  30.168  28.770  1.00  0.00     0.167 HD
ATOM     65  C   UNL A   1      45.413  31.187  28.082  1.00  0.00     0.074 A 
ATOM     66  C   UNL A   1      46.734  31.293  27.495  1.00  0.00     0.031 C 
ATOM     67  C   UNL A   1      44.813  32.168  28.799  1.00  0.00     0.037 A 
BRANCH  54  68
ATOM     68  C   UNL A   1      39.155  30.753  30.817  1.00  0.00     0.064 A 
ATOM     69  C   UNL A   1      39.009  30.501  32.188  1.00  0.00     0.173 A 
ATOM     70  C   UNL A   1      38.150  31.493  30.174  1.00  0.00     0.173 A 
ATOM     71  F   UNL A   1      39.936  29.787  32.845  1.00  0.00    -0.203 F 
ATOM     72  C   UNL A   1      37.892  30.957  32.886  1.00  0.00     0.198 A 
ATOM     73  C   UNL A   1      37.047  31.969  30.880  1.00  0.00     0.198 A 
ATOM     74  F   UNL A   1      38.245  31.767  28.865  1.00  0.00    -0.203 F 
ATOM     75  F   UNL A   1      37.757  30.676  34.188  1.00  0.00    -0.200 F 
ATOM     76  C   UNL A   1      36.917  31.697  32.233  1.00  0.00     0.200 A 
ATOM     77  F   UNL A   1      36.112  32.694  30.250  1.00  0.00    -0.200 F 
ATOM     78  F   UNL A   1      35.850  32.146  32.908  1.00  0.00    -0.200 F 
ENDBRANCH  54  68
BRANCH  55  79
ATOM     79  C   UNL A   1      47.040  27.504  25.638  1.00  0.00     0.064 A 
ATOM     80  C   UNL A   1      47.139  27.669  24.251  1.00  0.00     0.173 A 
ATOM     81  C   UNL A   1      48.120  26.908  26.307  1.00  0.00     0.173 A 
ATOM     82  F   UNL A   1      46.123  28.217  23.568  1.00  0.00    -0.203 F 
ATOM     83  C   UNL A   1      48.278  27.263  23.560  1.00  0.00     0.198 A 
ATOM     84  C   UNL A   1      49.268  26.526  25.619  1.00  0.00     0.198 A 
ATOM     85  F   UNL A   1      48.073  26.736  27.636  1.00  0.00    -0.203 F 
ATOM     86  F   UNL A   1      48.344  27.417  22.231  1.00  0.00    -0.200 F 
ATOM     87  C   UNL A   1      49.346  26.703  24.247  1.00  0.00     0.200 A 
ATOM     88  F   UNL A   1      50.304  26.004  26.289  1.00  0.00    -0.200 F 
ATOM     89  F   UNL A   1      50.453  26.336  23.584  1.00  0.00    -0.200 F 
ENDBRANCH  55  79
BRANCH  67  90
ATOM     90  C   UNL A   1      45.570  33.448  28.981  1.00  0.00     0.064 A 
ATOM     91  C   UNL A   1      46.474  33.612  30.040  1.00  0.00     0.173 A 
ATOM     92  C   UNL A   1      45.438  34.495  28.057  1.00  0.00     0.173 A 
ATOM     93  F   UNL A   1      46.623  32.643  30.956  1.00  0.00    -0.203 F 
ATOM     94  C   UNL A   1      47.212  34.784  30.174  1.00  0.00     0.198 A 
ATOM     95  C   UNL A   1      46.194  35.657  28.181  1.00  0.00     0.198 A 
ATOM     96  F   UNL A   1      44.589  34.382  27.024  1.00  0.00    -0.203 F 
ATOM     97  F   UNL A   1      48.049  34.932  31.210  1.00  0.00    -0.200 F 
ATOM     98  C   UNL A   1      47.078  35.801  29.240  1.00  0.00     0.200 A 
ATOM     99  F   UNL A   1      46.072  36.634  27.272  1.00  0.00    -0.200 F 
ATOM    100  F   UNL A   1      47.798  36.925  29.364  1.00  0.00    -0.200 F 
ENDBRANCH  67  90
ENDBRANCH  41  42
ENDBRANCH  33  36
ENDBRANCH  31  32
ENDBRANCH  30  31
ENDBRANCH   1  30
TORSDOF 13
ENDMDL
