MODEL 1
REMARK VINA RESULT:     -11.2      0.000      0.000
REMARK SMILES Cc1c(Cl)cccc1S(=O)(=O)N[C@H]1C=C[C@@H](C(=O)NCCCCNC(=O)c2ccc(-c3c4nc(c(-c5c(F)c(F)c(F)c(F)c5F)c5ccc([nH]5)c(-c5c(F)c(F)c(F)c(F)c5F)c5nc(c(-c6c(F)c(F)c(F)c(F)c6F)c6ccc3[nH]6)C=C5)C=C4)cc2)C1
REMARK SMILES IDX 21 1 20 2 19 3 17 4 18 5 16 7 13 8 14 9 90 10 15 11 12 12
REMARK SMILES IDX 9 14 10 15 11 16 8 17 1 18 2 19 3 20 4 21 5 22 7 23 6 24
REMARK SMILES IDX 22 25 23 26 24 27 25 28 26 30 27 31 28 32 89 33 29 34 88 35
REMARK SMILES IDX 30 36 31 37 32 38 82 39 33 40 87 41 81 42 83 43 34 44 86 45
REMARK SMILES IDX 80 46 79 47 35 49 67 50 47 51 66 52 48 53 51 54 65 55 84 56
REMARK SMILES IDX 49 57 50 58 64 60 85 61 52 62 36 63 37 64 45 65 38 66 39 67
REMARK SMILES IDX 43 68 46 69 40 70 41 71 44 72 42 73 68 74 69 75 77 76 70 77
REMARK SMILES IDX 71 78 75 79 78 80 72 81 73 82 76 83 74 84 53 85 54 86 62 87
REMARK SMILES IDX 55 88 56 89 60 90 63 91 57 92 58 93 61 94 59 95
REMARK H PARENT 19 6 12 13 24 29 83 48 51 59
REMARK Flexibility Score: inf
ROOT
ATOM      1  C   UNL A   1      34.568  34.938  28.326  1.00  0.00     0.023 C 
ENDROOT
BRANCH   1   2
ATOM      2  C   UNL A   1      33.225  35.041  29.060  1.00  0.00     0.116 C 
BRANCH   2   3
ATOM      3  N   UNL A   1      33.022  36.299  29.762  1.00  0.00    -0.356 N 
ATOM      4  C   UNL A   1      33.068  36.665  31.071  1.00  0.00     0.226 C 
ATOM      5  O   UNL A   1      32.840  37.863  31.295  1.00  0.00    -0.274 OA
ATOM      6  H   UNL A   1      32.802  37.046  29.159  1.00  0.00     0.163 HD
BRANCH   4   7
ATOM      7  C   UNL A   1      33.312  35.726  32.270  1.00  0.00     0.103 C 
ATOM      8  C   UNL A   1      35.349  34.343  32.426  1.00  0.00     0.093 C 
ATOM      9  C   UNL A   1      35.320  35.453  33.440  1.00  0.00    -0.011 C 
ATOM     10  C   UNL A   1      33.904  34.342  31.928  1.00  0.00     0.042 C 
ATOM     11  C   UNL A   1      34.212  36.201  33.357  1.00  0.00    -0.016 C 
BRANCH   8  12
ATOM     12  N   UNL A   1      36.293  34.717  31.363  1.00  0.00    -0.204 NA
ATOM     13  H   UNL A   1      35.827  34.539  30.475  1.00  0.00     0.142 HD
BRANCH  12  14
ATOM     14  S   UNL A   1      37.794  33.960  31.292  1.00  0.00     0.241 S 
ATOM     15  O   UNL A   1      38.753  34.931  30.814  1.00  0.00    -0.207 OA
ATOM     16  O   UNL A   1      37.525  32.747  30.544  1.00  0.00    -0.207 OA
BRANCH  14  17
ATOM     17  C   UNL A   1      38.381  33.400  32.894  1.00  0.00     0.086 A 
ATOM     18  C   UNL A   1      37.196  31.123  33.103  1.00  0.00     0.047 C 
ATOM     19  C   UNL A   1      38.074  32.216  33.592  1.00  0.00    -0.012 A 
ATOM     20  C   UNL A   1      38.656  32.016  34.869  1.00  0.00     0.045 A 
ATOM     21  Cl  UNL A   1      38.315  30.602  35.821  1.00  0.00    -0.084 Cl
ATOM     22  C   UNL A   1      39.536  32.939  35.427  1.00  0.00     0.021 A 
ATOM     23  C   UNL A   1      39.290  34.314  33.474  1.00  0.00     0.022 A 
ATOM     24  C   UNL A   1      39.863  34.086  34.724  1.00  0.00     0.003 A 
ENDBRANCH  14  17
ENDBRANCH  12  14
ENDBRANCH   8  12
ENDBRANCH   4   7
ENDBRANCH   2   3
ENDBRANCH   1   2
BRANCH   1  25
ATOM     25  C   UNL A   1      35.035  33.517  28.011  1.00  0.00     0.023 C 
BRANCH  25  26
ATOM     26  C   UNL A   1      34.628  32.492  29.059  1.00  0.00     0.116 C 
BRANCH  26  27
ATOM     27  N   UNL A   1      34.031  31.308  28.455  1.00  0.00    -0.352 N 
ATOM     28  C   UNL A   1      34.623  30.168  27.981  1.00  0.00     0.251 C 
ATOM     29  H   UNL A   1      33.050  31.331  28.375  1.00  0.00     0.163 HD
ATOM     30  O   UNL A   1      33.982  29.390  27.280  1.00  0.00    -0.269 OA
BRANCH  28  31
ATOM     31  C   UNL A   1      36.027  29.875  28.319  1.00  0.00     0.039 A 
ATOM     32  C   UNL A   1      36.329  29.363  29.583  1.00  0.00     0.014 A 
ATOM     33  C   UNL A   1      37.046  30.135  27.399  1.00  0.00     0.014 A 
ATOM     34  C   UNL A   1      37.653  29.073  29.905  1.00  0.00     0.010 A 
ATOM     35  C   UNL A   1      38.347  29.749  27.683  1.00  0.00     0.010 A 
ATOM     36  C   UNL A   1      38.667  29.237  28.946  1.00  0.00    -0.014 A 
BRANCH  36  37
ATOM     37  C   UNL A   1      40.074  28.897  29.256  1.00  0.00     0.031 A 
ATOM     38  C   UNL A   1      40.911  29.839  30.076  1.00  0.00     0.074 A 
ATOM     39  C   UNL A   1      40.603  27.768  28.750  1.00  0.00     0.049 A 
ATOM     40  N   UNL A   1      42.167  29.735  30.430  1.00  0.00    -0.248 NA
ATOM     41  C   UNL A   1      40.263  31.080  30.532  1.00  0.00     0.031 C 
ATOM     42  C   UNL A   1      39.897  26.820  27.885  1.00  0.00     0.029 A 
ATOM     43  N   UNL A   1      41.853  27.226  28.887  1.00  0.00    -0.354 N 
ATOM     44  C   UNL A   1      42.457  30.896  31.134  1.00  0.00     0.074 A 
ATOM     45  C   UNL A   1      41.273  31.723  31.097  1.00  0.00     0.031 C 
ATOM     46  C   UNL A   1      40.713  25.793  27.601  1.00  0.00     0.029 A 
ATOM     47  C   UNL A   1      42.007  26.029  28.234  1.00  0.00     0.049 A 
ATOM     48  H   UNL A   1      42.573  27.655  29.405  1.00  0.00     0.167 HD
ATOM     49  C   UNL A   1      43.600  31.226  31.781  1.00  0.00     0.037 A 
ATOM     50  C   UNL A   1      43.075  25.214  28.159  1.00  0.00     0.037 A 
ATOM     51  C   UNL A   1      44.763  30.381  31.829  1.00  0.00     0.049 A 
ATOM     52  C   UNL A   1      44.329  25.600  28.896  1.00  0.00     0.074 A 
ATOM     53  C   UNL A   1      45.954  30.586  32.501  1.00  0.00     0.029 A 
ATOM     54  N   UNL A   1      44.878  29.164  31.170  1.00  0.00    -0.354 N 
ATOM     55  N   UNL A   1      44.567  26.662  29.627  1.00  0.00    -0.248 NA
ATOM     56  C   UNL A   1      45.457  24.665  28.808  1.00  0.00     0.031 C 
ATOM     57  C   UNL A   1      46.809  29.518  32.208  1.00  0.00     0.029 A 
ATOM     58  C   UNL A   1      46.130  28.618  31.402  1.00  0.00     0.049 A 
ATOM     59  H   UNL A   1      44.174  28.751  30.620  1.00  0.00     0.167 HD
ATOM     60  C   UNL A   1      45.861  26.513  30.105  1.00  0.00     0.074 A 
ATOM     61  C   UNL A   1      46.345  25.244  29.603  1.00  0.00     0.031 C 
ATOM     62  C   UNL A   1      46.588  27.352  30.887  1.00  0.00     0.037 A 
BRANCH  49  63
ATOM     63  C   UNL A   1      43.640  32.551  32.490  1.00  0.00     0.064 A 
ATOM     64  C   UNL A   1      43.337  32.665  33.857  1.00  0.00     0.173 A 
ATOM     65  C   UNL A   1      44.008  33.718  31.804  1.00  0.00     0.173 A 
ATOM     66  F   UNL A   1      42.964  31.585  34.559  1.00  0.00    -0.203 F 
ATOM     67  C   UNL A   1      43.368  33.901  34.499  1.00  0.00     0.198 A 
ATOM     68  C   UNL A   1      44.073  34.945  32.457  1.00  0.00     0.198 A 
ATOM     69  F   UNL A   1      44.311  33.667  30.498  1.00  0.00    -0.203 F 
ATOM     70  F   UNL A   1      43.018  33.992  35.790  1.00  0.00    -0.200 F 
ATOM     71  C   UNL A   1      43.744  35.038  33.801  1.00  0.00     0.200 A 
ATOM     72  F   UNL A   1      44.448  36.042  31.785  1.00  0.00    -0.200 F 
ATOM     73  F   UNL A   1      43.780  36.225  34.423  1.00  0.00    -0.200 F 
ENDBRANCH  49  63
BRANCH  50  74
ATOM     74  C   UNL A   1      42.990  23.944  27.393  1.00  0.00     0.064 A 
ATOM     75  C   UNL A   1      42.530  22.766  28.002  1.00  0.00     0.173 A 
ATOM     76  C   UNL A   1      43.364  23.875  26.044  1.00  0.00     0.173 A 
ATOM     77  F   UNL A   1      42.175  22.776  29.295  1.00  0.00    -0.203 F 
ATOM     78  C   UNL A   1      42.472  21.566  27.297  1.00  0.00     0.198 A 
ATOM     79  C   UNL A   1      43.275  22.682  25.331  1.00  0.00     0.198 A 
ATOM     80  F   UNL A   1      43.801  24.974  25.412  1.00  0.00    -0.203 F 
ATOM     81  F   UNL A   1      42.077  20.446  27.917  1.00  0.00    -0.200 F 
ATOM     82  C   UNL A   1      42.840  21.525  25.960  1.00  0.00     0.200 A 
ATOM     83  F   UNL A   1      43.614  22.651  24.035  1.00  0.00    -0.200 F 
ATOM     84  F   UNL A   1      42.780  20.372  25.281  1.00  0.00    -0.200 F 
ENDBRANCH  50  74
BRANCH  62  85
ATOM     85  C   UNL A   1      47.971  26.901  31.263  1.00  0.00     0.064 A 
ATOM     86  C   UNL A   1      48.201  26.083  32.378  1.00  0.00     0.173 A 
ATOM     87  C   UNL A   1      49.076  27.282  30.488  1.00  0.00     0.173 A 
ATOM     88  F   UNL A   1      47.178  25.703  33.160  1.00  0.00    -0.203 F 
ATOM     89  C   UNL A   1      49.492  25.696  32.727  1.00  0.00     0.198 A 
ATOM     90  C   UNL A   1      50.361  26.863  30.817  1.00  0.00     0.198 A 
ATOM     91  F   UNL A   1      48.910  28.056  29.405  1.00  0.00    -0.203 F 
ATOM     92  F   UNL A   1      49.694  24.969  33.834  1.00  0.00    -0.200 F 
ATOM     93  C   UNL A   1      50.569  26.081  31.943  1.00  0.00     0.200 A 
ATOM     94  F   UNL A   1      51.399  27.221  30.050  1.00  0.00    -0.200 F 
ATOM     95  F   UNL A   1      51.812  25.706  32.281  1.00  0.00    -0.200 F 
ENDBRANCH  62  85
ENDBRANCH  36  37
ENDBRANCH  28  31
ENDBRANCH  26  27
ENDBRANCH  25  26
ENDBRANCH   1  25
TORSDOF 14
ENDMDL
MODEL 2
REMARK VINA RESULT:     -11.2      4.704     10.797
REMARK SMILES Cc1c(Cl)cccc1S(=O)(=O)N[C@H]1C=C[C@@H](C(=O)NCCCCNC(=O)c2ccc(-c3c4nc(c(-c5c(F)c(F)c(F)c(F)c5F)c5ccc([nH]5)c(-c5c(F)c(F)c(F)c(F)c5F)c5nc(c(-c6c(F)c(F)c(F)c(F)c6F)c6ccc3[nH]6)C=C5)C=C4)cc2)C1
REMARK SMILES IDX 21 1 20 2 19 3 17 4 18 5 16 7 13 8 14 9 90 10 15 11 12 12
REMARK SMILES IDX 9 14 10 15 11 16 8 17 1 18 2 19 3 20 4 21 5 22 7 23 6 24
REMARK SMILES IDX 22 25 23 26 24 27 25 28 26 30 27 31 28 32 89 33 29 34 88 35
REMARK SMILES IDX 30 36 31 37 32 38 82 39 33 40 87 41 81 42 83 43 34 44 86 45
REMARK SMILES IDX 80 46 79 47 35 49 67 50 47 51 66 52 48 53 51 54 65 55 84 56
REMARK SMILES IDX 49 57 50 58 64 60 85 61 52 62 36 63 37 64 45 65 38 66 39 67
REMARK SMILES IDX 43 68 46 69 40 70 41 71 44 72 42 73 68 74 69 75 77 76 70 77
REMARK SMILES IDX 71 78 75 79 78 80 72 81 73 82 76 83 74 84 53 85 54 86 62 87
REMARK SMILES IDX 55 88 56 89 60 90 63 91 57 92 58 93 61 94 59 95
REMARK H PARENT 19 6 12 13 24 29 83 48 51 59
REMARK Flexibility Score: inf
ROOT
ATOM      1  C   UNL A   1      31.485  31.116  26.493  1.00  0.00     0.023 C 
ENDROOT
BRANCH   1   2
ATOM      2  C   UNL A   1      32.846  30.454  26.748  1.00  0.00     0.116 C 
BRANCH   2   3
ATOM      3  N   UNL A   1      33.376  29.719  25.611  1.00  0.00    -0.356 N 
ATOM      4  C   UNL A   1      32.975  28.606  24.939  1.00  0.00     0.226 C 
ATOM      5  O   UNL A   1      33.698  28.271  23.990  1.00  0.00    -0.274 OA
ATOM      6  H   UNL A   1      34.205  30.110  25.251  1.00  0.00     0.163 HD
BRANCH   4   7
ATOM      7  C   UNL A   1      31.764  27.717  25.292  1.00  0.00     0.103 C 
ATOM      8  C   UNL A   1      31.617  25.380  24.519  1.00  0.00     0.093 C 
ATOM      9  C   UNL A   1      31.831  25.489  26.003  1.00  0.00    -0.011 C 
ATOM     10  C   UNL A   1      31.241  26.816  24.154  1.00  0.00     0.042 C 
ATOM     11  C   UNL A   1      31.907  26.759  26.423  1.00  0.00    -0.016 C 
BRANCH   8  12
ATOM     12  N   UNL A   1      32.887  24.973  23.900  1.00  0.00    -0.204 NA
ATOM     13  H   UNL A   1      33.167  25.727  23.273  1.00  0.00     0.142 HD
BRANCH  12  14
ATOM     14  S   UNL A   1      32.951  23.545  23.013  1.00  0.00     0.241 S 
ATOM     15  O   UNL A   1      33.579  23.844  21.746  1.00  0.00    -0.207 OA
ATOM     16  O   UNL A   1      31.589  23.051  23.072  1.00  0.00    -0.207 OA
BRANCH  14  17
ATOM     17  C   UNL A   1      33.946  22.270  23.795  1.00  0.00     0.086 A 
ATOM     18  C   UNL A   1      36.252  23.413  23.891  1.00  0.00     0.047 C 
ATOM     19  C   UNL A   1      35.318  22.279  24.112  1.00  0.00    -0.012 A 
ATOM     20  C   UNL A   1      35.878  21.124  24.711  1.00  0.00     0.045 A 
ATOM     21  Cl  UNL A   1      37.567  21.027  25.112  1.00  0.00    -0.084 Cl
ATOM     22  C   UNL A   1      35.106  20.007  25.018  1.00  0.00     0.021 A 
ATOM     23  C   UNL A   1      33.178  21.131  24.129  1.00  0.00     0.022 A 
ATOM     24  C   UNL A   1      33.750  20.014  24.736  1.00  0.00     0.003 A 
ENDBRANCH  14  17
ENDBRANCH  12  14
ENDBRANCH   8  12
ENDBRANCH   4   7
ENDBRANCH   2   3
ENDBRANCH   1   2
BRANCH   1  25
ATOM     25  C   UNL A   1      31.439  32.627  26.714  1.00  0.00     0.023 C 
BRANCH  25  26
ATOM     26  C   UNL A   1      32.731  33.204  27.272  1.00  0.00     0.116 C 
BRANCH  26  27
ATOM     27  N   UNL A   1      32.542  34.553  27.791  1.00  0.00    -0.352 N 
ATOM     28  C   UNL A   1      33.063  35.146  28.910  1.00  0.00     0.251 C 
ATOM     29  H   UNL A   1      31.948  35.126  27.255  1.00  0.00     0.163 HD
ATOM     30  O   UNL A   1      32.593  36.205  29.318  1.00  0.00    -0.269 OA
BRANCH  28  31
ATOM     31  C   UNL A   1      34.192  34.517  29.617  1.00  0.00     0.039 A 
ATOM     32  C   UNL A   1      33.955  33.857  30.825  1.00  0.00     0.014 A 
ATOM     33  C   UNL A   1      35.488  34.605  29.102  1.00  0.00     0.014 A 
ATOM     34  C   UNL A   1      35.016  33.250  31.493  1.00  0.00     0.010 A 
ATOM     35  C   UNL A   1      36.523  33.913  29.713  1.00  0.00     0.010 A 
ATOM     36  C   UNL A   1      36.302  33.250  30.926  1.00  0.00    -0.014 A 
BRANCH  36  37
ATOM     37  C   UNL A   1      37.434  32.576  31.601  1.00  0.00     0.031 A 
ATOM     38  C   UNL A   1      38.137  31.431  30.928  1.00  0.00     0.074 A 
ATOM     39  C   UNL A   1      37.785  32.968  32.840  1.00  0.00     0.049 A 
ATOM     40  N   UNL A   1      39.129  30.697  31.365  1.00  0.00    -0.248 NA
ATOM     41  C   UNL A   1      37.640  31.034  29.600  1.00  0.00     0.031 C 
ATOM     42  C   UNL A   1      37.124  34.023  33.611  1.00  0.00     0.029 A 
ATOM     43  N   UNL A   1      38.782  32.526  33.669  1.00  0.00    -0.354 N 
ATOM     44  C   UNL A   1      39.361  29.751  30.376  1.00  0.00     0.074 A 
ATOM     45  C   UNL A   1      38.364  29.954  29.349  1.00  0.00     0.031 C 
ATOM     46  C   UNL A   1      37.759  34.173  34.784  1.00  0.00     0.029 A 
ATOM     47  C   UNL A   1      38.845  33.203  34.861  1.00  0.00     0.049 A 
ATOM     48  H   UNL A   1      39.396  31.793  33.432  1.00  0.00     0.167 HD
ATOM     49  C   UNL A   1      40.339  28.817  30.316  1.00  0.00     0.037 A 
ATOM     50  C   UNL A   1      39.691  33.055  35.897  1.00  0.00     0.037 A 
ATOM     51  C   UNL A   1      41.340  28.642  31.335  1.00  0.00     0.049 A 
ATOM     52  C   UNL A   1      40.776  32.017  35.799  1.00  0.00     0.074 A 
ATOM     53  C   UNL A   1      42.412  27.768  31.353  1.00  0.00     0.029 A 
ATOM     54  N   UNL A   1      41.385  29.358  32.523  1.00  0.00    -0.354 N 
ATOM     55  N   UNL A   1      41.038  31.181  34.825  1.00  0.00    -0.248 NA
ATOM     56  C   UNL A   1      41.691  31.913  36.943  1.00  0.00     0.031 C 
ATOM     57  C   UNL A   1      43.077  27.921  32.575  1.00  0.00     0.029 A 
ATOM     58  C   UNL A   1      42.454  28.930  33.293  1.00  0.00     0.049 A 
ATOM     59  H   UNL A   1      40.751  30.066  32.781  1.00  0.00     0.167 HD
ATOM     60  C   UNL A   1      42.160  30.468  35.224  1.00  0.00     0.074 A 
ATOM     61  C   UNL A   1      42.543  30.992  36.519  1.00  0.00     0.031 C 
ATOM     62  C   UNL A   1      42.813  29.468  34.581  1.00  0.00     0.037 A 
BRANCH  49  63
ATOM     63  C   UNL A   1      40.375  27.923  29.107  1.00  0.00     0.064 A 
ATOM     64  C   UNL A   1      41.143  28.242  27.976  1.00  0.00     0.173 A 
ATOM     65  C   UNL A   1      39.652  26.721  29.087  1.00  0.00     0.173 A 
ATOM     66  F   UNL A   1      41.843  29.387  27.935  1.00  0.00    -0.203 F 
ATOM     67  C   UNL A   1      41.159  27.410  26.860  1.00  0.00     0.198 A 
ATOM     68  C   UNL A   1      39.698  25.874  27.983  1.00  0.00     0.198 A 
ATOM     69  F   UNL A   1      38.903  26.364  30.141  1.00  0.00    -0.203 F 
ATOM     70  F   UNL A   1      41.855  27.767  25.770  1.00  0.00    -0.200 F 
ATOM     71  C   UNL A   1      40.444  26.223  26.867  1.00  0.00     0.200 A 
ATOM     72  F   UNL A   1      39.016  24.721  27.995  1.00  0.00    -0.200 F 
ATOM     73  F   UNL A   1      40.465  25.420  25.794  1.00  0.00    -0.200 F 
ENDBRANCH  49  63
BRANCH  50  74
ATOM     74  C   UNL A   1      39.568  33.933  37.090  1.00  0.00     0.064 A 
ATOM     75  C   UNL A   1      38.839  33.521  38.216  1.00  0.00     0.173 A 
ATOM     76  C   UNL A   1      40.172  35.198  37.133  1.00  0.00     0.173 A 
ATOM     77  F   UNL A   1      38.229  32.326  38.217  1.00  0.00    -0.203 F 
ATOM     78  C   UNL A   1      38.699  34.350  39.326  1.00  0.00     0.198 A 
ATOM     79  C   UNL A   1      40.058  36.013  38.257  1.00  0.00     0.198 A 
ATOM     80  F   UNL A   1      40.889  35.635  36.088  1.00  0.00    -0.203 F 
ATOM     81  F   UNL A   1      37.955  33.951  40.367  1.00  0.00    -0.200 F 
ATOM     82  C   UNL A   1      39.313  35.594  39.348  1.00  0.00     0.200 A 
ATOM     83  F   UNL A   1      40.668  37.206  38.281  1.00  0.00    -0.200 F 
ATOM     84  F   UNL A   1      39.180  36.389  40.418  1.00  0.00    -0.200 F 
ENDBRANCH  50  74
BRANCH  62  85
ATOM     85  C   UNL A   1      44.024  28.900  35.264  1.00  0.00     0.064 A 
ATOM     86  C   UNL A   1      45.309  29.415  35.035  1.00  0.00     0.173 A 
ATOM     87  C   UNL A   1      43.894  27.837  36.171  1.00  0.00     0.173 A 
ATOM     88  F   UNL A   1      45.487  30.421  34.165  1.00  0.00    -0.203 F 
ATOM     89  C   UNL A   1      46.424  28.859  35.656  1.00  0.00     0.198 A 
ATOM     90  C   UNL A   1      45.006  27.310  36.820  1.00  0.00     0.198 A 
ATOM     91  F   UNL A   1      42.688  27.315  36.435  1.00  0.00    -0.203 F 
ATOM     92  F   UNL A   1      47.648  29.324  35.371  1.00  0.00    -0.200 F 
ATOM     93  C   UNL A   1      46.270  27.813  36.553  1.00  0.00     0.200 A 
ATOM     94  F   UNL A   1      44.856  26.309  37.698  1.00  0.00    -0.200 F 
ATOM     95  F   UNL A   1      47.346  27.280  37.152  1.00  0.00    -0.200 F 
ENDBRANCH  62  85
ENDBRANCH  36  37
ENDBRANCH  28  31
ENDBRANCH  26  27
ENDBRANCH  25  26
ENDBRANCH   1  25
TORSDOF 14
ENDMDL
MODEL 3
REMARK VINA RESULT:     -11.2      4.710     10.810
REMARK SMILES Cc1c(Cl)cccc1S(=O)(=O)N[C@H]1C=C[C@@H](C(=O)NCCCCNC(=O)c2ccc(-c3c4nc(c(-c5c(F)c(F)c(F)c(F)c5F)c5ccc([nH]5)c(-c5c(F)c(F)c(F)c(F)c5F)c5nc(c(-c6c(F)c(F)c(F)c(F)c6F)c6ccc3[nH]6)C=C5)C=C4)cc2)C1
REMARK SMILES IDX 21 1 20 2 19 3 17 4 18 5 16 7 13 8 14 9 90 10 15 11 12 12
REMARK SMILES IDX 9 14 10 15 11 16 8 17 1 18 2 19 3 20 4 21 5 22 7 23 6 24
REMARK SMILES IDX 22 25 23 26 24 27 25 28 26 30 27 31 28 32 89 33 29 34 88 35
REMARK SMILES IDX 30 36 31 37 32 38 82 39 33 40 87 41 81 42 83 43 34 44 86 45
REMARK SMILES IDX 80 46 79 47 35 49 67 50 47 51 66 52 48 53 51 54 65 55 84 56
REMARK SMILES IDX 49 57 50 58 64 60 85 61 52 62 36 63 37 64 45 65 38 66 39 67
REMARK SMILES IDX 43 68 46 69 40 70 41 71 44 72 42 73 68 74 69 75 77 76 70 77
REMARK SMILES IDX 71 78 75 79 78 80 72 81 73 82 76 83 74 84 53 85 54 86 62 87
REMARK SMILES IDX 55 88 56 89 60 90 63 91 57 92 58 93 61 94 59 95
REMARK H PARENT 19 6 12 13 24 29 83 48 51 59
REMARK Flexibility Score: inf
ROOT
ATOM      1  C   UNL A   1      31.415  31.213  26.169  1.00  0.00     0.023 C 
ENDROOT
BRANCH   1   2
ATOM      2  C   UNL A   1      32.678  30.454  26.594  1.00  0.00     0.116 C 
BRANCH   2   3
ATOM      3  N   UNL A   1      33.293  29.673  25.532  1.00  0.00    -0.356 N 
ATOM      4  C   UNL A   1      32.933  28.543  24.865  1.00  0.00     0.226 C 
ATOM      5  O   UNL A   1      33.730  28.166  23.993  1.00  0.00    -0.274 OA
ATOM      6  H   UNL A   1      34.155  30.040  25.232  1.00  0.00     0.163 HD
BRANCH   4   7
ATOM      7  C   UNL A   1      31.683  27.683  25.140  1.00  0.00     0.103 C 
ATOM      8  C   UNL A   1      31.549  25.334  24.400  1.00  0.00     0.093 C 
ATOM      9  C   UNL A   1      31.653  25.468  25.894  1.00  0.00    -0.011 C 
ATOM     10  C   UNL A   1      31.229  26.770  23.982  1.00  0.00     0.042 C 
ATOM     11  C   UNL A   1      31.722  26.744  26.296  1.00  0.00    -0.016 C 
BRANCH   8  12
ATOM     12  N   UNL A   1      32.854  24.893  23.887  1.00  0.00    -0.204 NA
ATOM     13  H   UNL A   1      33.199  25.634  23.277  1.00  0.00     0.142 HD
BRANCH  12  14
ATOM     14  S   UNL A   1      32.955  23.455  23.020  1.00  0.00     0.241 S 
ATOM     15  O   UNL A   1      33.554  23.756  21.739  1.00  0.00    -0.207 OA
ATOM     16  O   UNL A   1      31.612  22.914  23.106  1.00  0.00    -0.207 OA
BRANCH  14  17
ATOM     17  C   UNL A   1      34.004  22.227  23.806  1.00  0.00     0.086 A 
ATOM     18  C   UNL A   1      36.268  23.454  23.861  1.00  0.00     0.047 C 
ATOM     19  C   UNL A   1      35.379  22.290  24.107  1.00  0.00    -0.012 A 
ATOM     20  C   UNL A   1      35.987  21.163  24.715  1.00  0.00     0.045 A 
ATOM     21  Cl  UNL A   1      37.683  21.133  25.097  1.00  0.00    -0.084 Cl
ATOM     22  C   UNL A   1      35.259  20.024  25.044  1.00  0.00     0.021 A 
ATOM     23  C   UNL A   1      33.282  21.065  24.164  1.00  0.00     0.022 A 
ATOM     24  C   UNL A   1      33.901  19.978  24.779  1.00  0.00     0.003 A 
ENDBRANCH  14  17
ENDBRANCH  12  14
ENDBRANCH   8  12
ENDBRANCH   4   7
ENDBRANCH   2   3
ENDBRANCH   1   2
BRANCH   1  25
ATOM     25  C   UNL A   1      31.377  32.691  26.556  1.00  0.00     0.023 C 
BRANCH  25  26
ATOM     26  C   UNL A   1      32.601  33.153  27.332  1.00  0.00     0.116 C 
BRANCH  26  27
ATOM     27  N   UNL A   1      32.468  34.532  27.783  1.00  0.00    -0.352 N 
ATOM     28  C   UNL A   1      33.037  35.166  28.855  1.00  0.00     0.251 C 
ATOM     29  H   UNL A   1      31.877  35.095  27.233  1.00  0.00     0.163 HD
ATOM     30  O   UNL A   1      32.611  36.259  29.218  1.00  0.00    -0.269 OA
BRANCH  28  31
ATOM     31  C   UNL A   1      34.166  34.538  29.565  1.00  0.00     0.039 A 
ATOM     32  C   UNL A   1      33.931  33.900  30.784  1.00  0.00     0.014 A 
ATOM     33  C   UNL A   1      35.460  34.609  29.041  1.00  0.00     0.014 A 
ATOM     34  C   UNL A   1      34.992  33.294  31.455  1.00  0.00     0.010 A 
ATOM     35  C   UNL A   1      36.492  33.918  29.656  1.00  0.00     0.010 A 
ATOM     36  C   UNL A   1      36.274  33.275  30.880  1.00  0.00    -0.014 A 
BRANCH  36  37
ATOM     37  C   UNL A   1      37.405  32.603  31.559  1.00  0.00     0.031 A 
ATOM     38  C   UNL A   1      38.115  31.462  30.885  1.00  0.00     0.074 A 
ATOM     39  C   UNL A   1      37.749  32.993  32.800  1.00  0.00     0.049 A 
ATOM     40  N   UNL A   1      39.106  30.729  31.325  1.00  0.00    -0.248 NA
ATOM     41  C   UNL A   1      37.625  31.067  29.555  1.00  0.00     0.031 C 
ATOM     42  C   UNL A   1      37.081  34.043  33.572  1.00  0.00     0.029 A 
ATOM     43  N   UNL A   1      38.744  32.551  33.633  1.00  0.00    -0.354 N 
ATOM     44  C   UNL A   1      39.345  29.787  30.335  1.00  0.00     0.074 A 
ATOM     45  C   UNL A   1      38.353  29.990  29.304  1.00  0.00     0.031 C 
ATOM     46  C   UNL A   1      37.710  34.192  34.748  1.00  0.00     0.029 A 
ATOM     47  C   UNL A   1      38.799  33.225  34.827  1.00  0.00     0.049 A 
ATOM     48  H   UNL A   1      39.360  31.820  33.396  1.00  0.00     0.167 HD
ATOM     49  C   UNL A   1      40.327  28.856  30.277  1.00  0.00     0.037 A 
ATOM     50  C   UNL A   1      39.640  33.076  35.867  1.00  0.00     0.037 A 
ATOM     51  C   UNL A   1      41.323  28.681  31.300  1.00  0.00     0.049 A 
ATOM     52  C   UNL A   1      40.729  32.042  35.771  1.00  0.00     0.074 A 
ATOM     53  C   UNL A   1      42.398  27.811  31.321  1.00  0.00     0.029 A 
ATOM     54  N   UNL A   1      41.361  29.394  32.490  1.00  0.00    -0.354 N 
ATOM     55  N   UNL A   1      40.998  31.209  34.795  1.00  0.00    -0.248 NA
ATOM     56  C   UNL A   1      41.639  31.938  36.918  1.00  0.00     0.031 C 
ATOM     57  C   UNL A   1      43.057  27.962  32.546  1.00  0.00     0.029 A 
ATOM     58  C   UNL A   1      42.428  28.967  33.264  1.00  0.00     0.049 A 
ATOM     59  H   UNL A   1      40.724  30.099  32.747  1.00  0.00     0.167 HD
ATOM     60  C   UNL A   1      42.120  30.499  35.198  1.00  0.00     0.074 A 
ATOM     61  C   UNL A   1      42.496  31.020  36.496  1.00  0.00     0.031 C 
ATOM     62  C   UNL A   1      42.779  29.502  34.555  1.00  0.00     0.037 A 
BRANCH  49  63
ATOM     63  C   UNL A   1      40.371  27.965  29.066  1.00  0.00     0.064 A 
ATOM     64  C   UNL A   1      41.145  28.289  27.940  1.00  0.00     0.173 A 
ATOM     65  C   UNL A   1      39.650  26.762  29.038  1.00  0.00     0.173 A 
ATOM     66  F   UNL A   1      41.843  29.435  27.906  1.00  0.00    -0.203 F 
ATOM     67  C   UNL A   1      41.168  27.460  26.821  1.00  0.00     0.198 A 
ATOM     68  C   UNL A   1      39.704  25.918  27.932  1.00  0.00     0.198 A 
ATOM     69  F   UNL A   1      38.896  26.401  30.087  1.00  0.00    -0.203 F 
ATOM     70  F   UNL A   1      41.869  27.821  25.737  1.00  0.00    -0.200 F 
ATOM     71  C   UNL A   1      40.455  26.272  26.821  1.00  0.00     0.200 A 
ATOM     72  F   UNL A   1      39.024  24.764  27.938  1.00  0.00    -0.200 F 
ATOM     73  F   UNL A   1      40.484  25.472  25.746  1.00  0.00    -0.200 F 
ENDBRANCH  49  63
BRANCH  50  74
ATOM     74  C   UNL A   1      39.509  33.951  37.061  1.00  0.00     0.064 A 
ATOM     75  C   UNL A   1      40.109  35.219  37.094  1.00  0.00     0.173 A 
ATOM     76  C   UNL A   1      38.786  33.544  38.191  1.00  0.00     0.173 A 
ATOM     77  F   UNL A   1      40.824  35.648  36.043  1.00  0.00    -0.203 F 
ATOM     78  C   UNL A   1      40.011  36.033  38.219  1.00  0.00     0.198 A 
ATOM     79  C   UNL A   1      38.662  34.372  39.304  1.00  0.00     0.198 A 
ATOM     80  F   UNL A   1      38.185  32.346  38.207  1.00  0.00    -0.203 F 
ATOM     81  F   UNL A   1      40.636  37.218  38.242  1.00  0.00    -0.200 F 
ATOM     82  C   UNL A   1      39.284  35.612  39.322  1.00  0.00     0.200 A 
ATOM     83  F   UNL A   1      37.943  33.969  40.360  1.00  0.00    -0.200 F 
ATOM     84  F   UNL A   1      39.187  36.397  40.404  1.00  0.00    -0.200 F 
ENDBRANCH  50  74
BRANCH  62  85
ATOM     85  C   UNL A   1      43.989  28.936  35.242  1.00  0.00     0.064 A 
ATOM     86  C   UNL A   1      43.891  27.863  36.141  1.00  0.00     0.173 A 
ATOM     87  C   UNL A   1      45.263  29.465  34.986  1.00  0.00     0.173 A 
ATOM     88  F   UNL A   1      42.693  27.332  36.431  1.00  0.00    -0.203 F 
ATOM     89  C   UNL A   1      45.019  27.368  36.789  1.00  0.00     0.198 A 
ATOM     90  C   UNL A   1      46.393  28.942  35.607  1.00  0.00     0.198 A 
ATOM     91  F   UNL A   1      45.413  30.484  34.128  1.00  0.00    -0.203 F 
ATOM     92  F   UNL A   1      44.893  26.387  37.693  1.00  0.00    -0.200 F 
ATOM     93  C   UNL A   1      46.269  27.903  36.516  1.00  0.00     0.200 A 
ATOM     94  F   UNL A   1      47.602  29.449  35.330  1.00  0.00    -0.200 F 
ATOM     95  F   UNL A   1      47.355  27.424  37.141  1.00  0.00    -0.200 F 
ENDBRANCH  62  85
ENDBRANCH  36  37
ENDBRANCH  28  31
ENDBRANCH  26  27
ENDBRANCH  25  26
ENDBRANCH   1  25
TORSDOF 14
ENDMDL
