MODEL 1
REMARK VINA RESULT:     -13.3      0.000      0.000
REMARK SMILES O=C(NCCCCNC(=O)c1ccc(-c2c3nc(c(-c4c(F)c(F)c(F)c(F)c4F)c4ccc([nH]4)c(-c4c(F)c(F)c(F)c(F)c4F)c4nc(c(-c5c(F)c(F)c(F)c(F)c5F)c5ccc2[nH]5)C=C4)C=C3)cc1)C1=C([O-])N(c2ccc3c(c2)OCCO3)CC1
REMARK SMILES IDX 6 1 5 2 4 3 3 4 1 5 2 6 74 8 75 9 89 10 76 11 77 12 88 13
REMARK SMILES IDX 78 14 79 15 83 16 80 17 82 18 81 19 84 20 87 21 85 22 86 23
REMARK SMILES IDX 7 24 8 25 9 26 10 28 11 29 12 30 73 31 13 32 72 33 14 34
REMARK SMILES IDX 15 35 16 36 66 37 17 38 71 39 65 40 67 41 18 42 70 43 64 44
REMARK SMILES IDX 63 45 19 47 51 48 31 49 50 50 32 51 35 52 49 53 68 54 33 55
REMARK SMILES IDX 34 56 48 58 69 59 36 60 20 61 21 62 29 63 22 64 23 65 27 66
REMARK SMILES IDX 30 67 24 68 25 69 28 70 26 71 52 72 53 73 61 74 54 75 55 76
REMARK SMILES IDX 59 77 62 78 56 79 57 80 60 81 58 82 37 83 38 84 46 85 39 86
REMARK SMILES IDX 40 87 44 88 47 89 41 90 42 91 45 92 43 93
REMARK H PARENT 3 7 8 27 67 46 35 57
REMARK Flexibility Score: inf
ROOT
ATOM      1  C   UNL A   1      31.521  32.052  26.501  1.00  0.00     0.023 C 
ENDROOT
BRANCH   1   2
ATOM      2  C   UNL A   1      31.609  30.534  26.390  1.00  0.00     0.023 C 
BRANCH   2   3
ATOM      3  C   UNL A   1      32.986  29.975  26.054  1.00  0.00     0.116 C 
BRANCH   3   4
ATOM      4  N   UNL A   1      33.176  29.703  24.639  1.00  0.00    -0.352 N 
ATOM      5  O   UNL A   1      33.017  28.556  22.702  1.00  0.00    -0.270 OA
ATOM      6  C   UNL A   1      32.826  28.594  23.922  1.00  0.00     0.248 C 
ATOM      7  H   UNL A   1      33.617  30.417  24.125  1.00  0.00     0.163 HD
BRANCH   6   8
ATOM      8  C   UNL A   1      32.182  27.504  24.641  1.00  0.00     0.027 C 
ATOM      9  C   UNL A   1      32.775  26.618  25.454  1.00  0.00    -0.028 C 
ATOM     10  C   UNL A   1      30.709  27.232  24.575  1.00  0.00     0.064 C 
ATOM     11  O   UNL A   1      34.099  26.518  25.721  1.00  0.00    -0.860 OA
ATOM     12  N   UNL A   1      31.846  25.858  26.133  1.00  0.00    -0.354 N 
ATOM     13  C   UNL A   1      30.491  26.374  25.832  1.00  0.00     0.126 C 
BRANCH  12  14
ATOM     14  C   UNL A   1      31.870  24.466  26.339  1.00  0.00     0.044 A 
ATOM     15  C   UNL A   1      30.662  23.754  26.333  1.00  0.00     0.030 A 
ATOM     16  C   UNL A   1      33.081  23.771  26.230  1.00  0.00     0.076 A 
ATOM     17  C   UNL A   1      30.657  22.384  26.072  1.00  0.00     0.052 A 
ATOM     18  C   UNL A   1      33.071  22.430  25.872  1.00  0.00     0.163 A 
ATOM     19  C   UNL A   1      31.855  21.752  25.755  1.00  0.00     0.161 A 
ATOM     20  O   UNL A   1      34.280  21.896  25.504  1.00  0.00    -0.486 OA
ATOM     21  O   UNL A   1      31.778  20.492  25.215  1.00  0.00    -0.486 OA
ATOM     22  C   UNL A   1      34.173  20.595  24.915  1.00  0.00     0.271 C 
ATOM     23  C   UNL A   1      32.826  20.364  24.244  1.00  0.00     0.271 C 
ENDBRANCH  12  14
ENDBRANCH   6   8
ENDBRANCH   3   4
ENDBRANCH   2   3
ENDBRANCH   1   2
BRANCH   1  24
ATOM     24  C   UNL A   1      32.639  32.728  27.286  1.00  0.00     0.116 C 
BRANCH  24  25
ATOM     25  N   UNL A   1      32.356  34.114  27.625  1.00  0.00    -0.352 N 
ATOM     26  C   UNL A   1      32.971  34.932  28.540  1.00  0.00     0.251 C 
ATOM     27  H   UNL A   1      31.616  34.526  27.125  1.00  0.00     0.163 HD
ATOM     28  O   UNL A   1      32.526  36.062  28.751  1.00  0.00    -0.269 OA
BRANCH  26  29
ATOM     29  C   UNL A   1      34.139  34.453  29.307  1.00  0.00     0.039 A 
ATOM     30  C   UNL A   1      33.927  33.860  30.555  1.00  0.00     0.014 A 
ATOM     31  C   UNL A   1      35.438  34.568  28.801  1.00  0.00     0.014 A 
ATOM     32  C   UNL A   1      35.002  33.311  31.257  1.00  0.00     0.010 A 
ATOM     33  C   UNL A   1      36.497  33.955  29.465  1.00  0.00     0.010 A 
ATOM     34  C   UNL A   1      36.290  33.316  30.697  1.00  0.00    -0.014 A 
BRANCH  34  35
ATOM     35  C   UNL A   1      37.429  32.652  31.380  1.00  0.00     0.031 A 
ATOM     36  C   UNL A   1      38.139  31.503  30.723  1.00  0.00     0.074 A 
ATOM     37  C   UNL A   1      37.776  33.035  32.623  1.00  0.00     0.049 A 
ATOM     38  N   UNL A   1      39.103  30.749  31.187  1.00  0.00    -0.248 NA
ATOM     39  C   UNL A   1      37.685  31.133  29.373  1.00  0.00     0.031 C 
ATOM     40  C   UNL A   1      37.136  34.105  33.390  1.00  0.00     0.029 A 
ATOM     41  N   UNL A   1      38.751  32.561  33.466  1.00  0.00    -0.354 N 
ATOM     42  C   UNL A   1      39.355  29.806  30.200  1.00  0.00     0.074 A 
ATOM     43  C   UNL A   1      38.413  30.054  29.128  1.00  0.00     0.031 C 
ATOM     44  C   UNL A   1      37.752  34.223  34.578  1.00  0.00     0.029 A 
ATOM     45  C   UNL A   1      38.805  33.217  34.671  1.00  0.00     0.049 A 
ATOM     46  H   UNL A   1      39.354  31.819  33.228  1.00  0.00     0.167 HD
ATOM     47  C   UNL A   1      40.299  28.835  30.178  1.00  0.00     0.037 A 
ATOM     48  C   UNL A   1      39.613  33.028  35.731  1.00  0.00     0.037 A 
ATOM     49  C   UNL A   1      41.259  28.612  31.226  1.00  0.00     0.049 A 
ATOM     50  C   UNL A   1      40.656  31.947  35.679  1.00  0.00     0.074 A 
ATOM     51  C   UNL A   1      42.303  27.705  31.264  1.00  0.00     0.029 A 
ATOM     52  N   UNL A   1      41.291  29.308  32.426  1.00  0.00    -0.354 N 
ATOM     53  N   UNL A   1      40.931  31.106  34.712  1.00  0.00    -0.248 NA
ATOM     54  C   UNL A   1      41.504  31.789  36.870  1.00  0.00     0.031 C 
ATOM     55  C   UNL A   1      42.945  27.827  32.500  1.00  0.00     0.029 A 
ATOM     56  C   UNL A   1      42.326  28.836  33.218  1.00  0.00     0.049 A 
ATOM     57  H   UNL A   1      40.672  30.030  32.677  1.00  0.00     0.167 HD
ATOM     58  C   UNL A   1      41.999  30.342  35.161  1.00  0.00     0.074 A 
ATOM     59  C   UNL A   1      42.328  30.824  36.488  1.00  0.00     0.031 C 
ATOM     60  C   UNL A   1      42.648  29.333  34.531  1.00  0.00     0.037 A 
BRANCH  47  61
ATOM     61  C   UNL A   1      40.338  27.940  28.975  1.00  0.00     0.064 A 
ATOM     62  C   UNL A   1      41.088  28.273  27.837  1.00  0.00     0.173 A 
ATOM     63  C   UNL A   1      39.634  26.727  28.967  1.00  0.00     0.173 A 
ATOM     64  F   UNL A   1      41.768  29.428  27.790  1.00  0.00    -0.203 F 
ATOM     65  C   UNL A   1      41.104  27.440  26.721  1.00  0.00     0.198 A 
ATOM     66  C   UNL A   1      39.676  25.883  27.860  1.00  0.00     0.198 A 
ATOM     67  F   UNL A   1      38.906  26.360  30.031  1.00  0.00    -0.203 F 
ATOM     68  F   UNL A   1      41.786  27.803  25.625  1.00  0.00    -0.200 F 
ATOM     69  C   UNL A   1      40.403  26.243  26.736  1.00  0.00     0.200 A 
ATOM     70  F   UNL A   1      39.005  24.722  27.879  1.00  0.00    -0.200 F 
ATOM     71  F   UNL A   1      40.420  25.443  25.662  1.00  0.00    -0.200 F 
ENDBRANCH  47  61
BRANCH  48  72
ATOM     72  C   UNL A   1      39.496  33.910  36.918  1.00  0.00     0.064 A 
ATOM     73  C   UNL A   1      38.745  33.509  38.032  1.00  0.00     0.173 A 
ATOM     74  C   UNL A   1      40.125  35.161  36.969  1.00  0.00     0.173 A 
ATOM     75  F   UNL A   1      38.108  32.330  38.020  1.00  0.00    -0.203 F 
ATOM     76  C   UNL A   1      38.616  34.334  39.148  1.00  0.00     0.198 A 
ATOM     77  C   UNL A   1      40.014  35.976  38.094  1.00  0.00     0.198 A 
ATOM     78  F   UNL A   1      40.856  35.588  35.929  1.00  0.00    -0.203 F 
ATOM     79  F   UNL A   1      37.862  33.942  40.184  1.00  0.00    -0.200 F 
ATOM     80  C   UNL A   1      39.255  35.564  39.180  1.00  0.00     0.200 A 
ATOM     81  F   UNL A   1      40.641  37.160  38.127  1.00  0.00    -0.200 F 
ATOM     82  F   UNL A   1      39.134  36.356  40.255  1.00  0.00    -0.200 F 
ENDBRANCH  48  72
BRANCH  60  83
ATOM     83  C   UNL A   1      43.803  28.707  35.253  1.00  0.00     0.064 A 
ATOM     84  C   UNL A   1      43.627  27.611  36.110  1.00  0.00     0.173 A 
ATOM     85  C   UNL A   1      45.106  29.190  35.059  1.00  0.00     0.173 A 
ATOM     86  F   UNL A   1      42.398  27.126  36.341  1.00  0.00    -0.203 F 
ATOM     87  C   UNL A   1      44.713  27.036  36.765  1.00  0.00     0.198 A 
ATOM     88  C   UNL A   1      46.192  28.595  35.696  1.00  0.00     0.198 A 
ATOM     89  F   UNL A   1      45.326  30.233  34.245  1.00  0.00    -0.203 F 
ATOM     90  F   UNL A   1      44.517  26.016  37.613  1.00  0.00    -0.200 F 
ATOM     91  C   UNL A   1      45.993  27.523  36.552  1.00  0.00     0.200 A 
ATOM     92  F   UNL A   1      47.430  29.062  35.481  1.00  0.00    -0.200 F 
ATOM     93  F   UNL A   1      47.037  26.964  37.180  1.00  0.00    -0.200 F 
ENDBRANCH  60  83
ENDBRANCH  34  35
ENDBRANCH  26  29
ENDBRANCH  24  25
ENDBRANCH   1  24
TORSDOF 12
ENDMDL
MODEL 2
REMARK VINA RESULT:     -13.2      0.935      1.689
REMARK SMILES O=C(NCCCCNC(=O)c1ccc(-c2c3nc(c(-c4c(F)c(F)c(F)c(F)c4F)c4ccc([nH]4)c(-c4c(F)c(F)c(F)c(F)c4F)c4nc(c(-c5c(F)c(F)c(F)c(F)c5F)c5ccc2[nH]5)C=C4)C=C3)cc1)C1=C([O-])N(c2ccc3c(c2)OCCO3)CC1
REMARK SMILES IDX 6 1 5 2 4 3 3 4 1 5 2 6 74 8 75 9 89 10 76 11 77 12 88 13
REMARK SMILES IDX 78 14 79 15 83 16 80 17 82 18 81 19 84 20 87 21 85 22 86 23
REMARK SMILES IDX 7 24 8 25 9 26 10 28 11 29 12 30 73 31 13 32 72 33 14 34
REMARK SMILES IDX 15 35 16 36 66 37 17 38 71 39 65 40 67 41 18 42 70 43 64 44
REMARK SMILES IDX 63 45 19 47 51 48 31 49 50 50 32 51 35 52 49 53 68 54 33 55
REMARK SMILES IDX 34 56 48 58 69 59 36 60 20 61 21 62 29 63 22 64 23 65 27 66
REMARK SMILES IDX 30 67 24 68 25 69 28 70 26 71 52 72 53 73 61 74 54 75 55 76
REMARK SMILES IDX 59 77 62 78 56 79 57 80 60 81 58 82 37 83 38 84 46 85 39 86
REMARK SMILES IDX 40 87 44 88 47 89 41 90 42 91 45 92 43 93
REMARK H PARENT 3 7 8 27 67 46 35 57
REMARK Flexibility Score: inf
ROOT
ATOM      1  C   UNL A   1      31.479  32.077  26.699  1.00  0.00     0.023 C 
ENDROOT
BRANCH   1   2
ATOM      2  C   UNL A   1      31.615  30.559  26.635  1.00  0.00     0.023 C 
BRANCH   2   3
ATOM      3  C   UNL A   1      32.328  30.011  25.406  1.00  0.00     0.116 C 
BRANCH   3   4
ATOM      4  N   UNL A   1      31.428  29.637  24.327  1.00  0.00    -0.352 N 
ATOM      5  O   UNL A   1      30.353  28.262  22.898  1.00  0.00    -0.270 OA
ATOM      6  C   UNL A   1      31.203  28.405  23.782  1.00  0.00     0.248 C 
ATOM      7  H   UNL A   1      30.906  30.374  23.935  1.00  0.00     0.163 HD
BRANCH   6   8
ATOM      8  C   UNL A   1      31.961  27.284  24.319  1.00  0.00     0.027 C 
ATOM      9  C   UNL A   1      33.059  26.728  23.785  1.00  0.00    -0.028 C 
ATOM     10  C   UNL A   1      31.608  26.591  25.600  1.00  0.00     0.064 C 
ATOM     11  O   UNL A   1      33.646  27.053  22.609  1.00  0.00    -0.860 OA
ATOM     12  N   UNL A   1      33.642  25.832  24.655  1.00  0.00    -0.354 N 
ATOM     13  C   UNL A   1      32.928  25.886  25.952  1.00  0.00     0.126 C 
BRANCH  12  14
ATOM     14  C   UNL A   1      34.135  24.547  24.354  1.00  0.00     0.044 A 
ATOM     15  C   UNL A   1      35.316  24.109  24.966  1.00  0.00     0.030 A 
ATOM     16  C   UNL A   1      33.301  23.619  23.716  1.00  0.00     0.076 A 
ATOM     17  C   UNL A   1      35.587  22.744  25.070  1.00  0.00     0.052 A 
ATOM     18  C   UNL A   1      33.517  22.261  23.906  1.00  0.00     0.163 A 
ATOM     19  C   UNL A   1      34.640  21.831  24.618  1.00  0.00     0.161 A 
ATOM     20  O   UNL A   1      32.508  21.428  23.498  1.00  0.00    -0.486 OA
ATOM     21  O   UNL A   1      34.794  20.522  25.003  1.00  0.00    -0.486 OA
ATOM     22  C   UNL A   1      32.673  20.075  23.937  1.00  0.00     0.271 C 
ATOM     23  C   UNL A   1      33.489  19.969  25.218  1.00  0.00     0.271 C 
ENDBRANCH  12  14
ENDBRANCH   6   8
ENDBRANCH   3   4
ENDBRANCH   2   3
ENDBRANCH   1   2
BRANCH   1  24
ATOM     24  C   UNL A   1      32.669  32.827  27.287  1.00  0.00     0.116 C 
BRANCH  24  25
ATOM     25  N   UNL A   1      32.364  34.200  27.659  1.00  0.00    -0.352 N 
ATOM     26  C   UNL A   1      32.967  35.006  28.593  1.00  0.00     0.251 C 
ATOM     27  H   UNL A   1      31.617  34.612  27.169  1.00  0.00     0.163 HD
ATOM     28  O   UNL A   1      32.503  36.123  28.831  1.00  0.00    -0.269 OA
BRANCH  26  29
ATOM     29  C   UNL A   1      34.142  34.527  29.349  1.00  0.00     0.039 A 
ATOM     30  C   UNL A   1      33.947  33.983  30.622  1.00  0.00     0.014 A 
ATOM     31  C   UNL A   1      35.430  34.594  28.809  1.00  0.00     0.014 A 
ATOM     32  C   UNL A   1      35.027  33.433  31.317  1.00  0.00     0.010 A 
ATOM     33  C   UNL A   1      36.492  33.980  29.468  1.00  0.00     0.010 A 
ATOM     34  C   UNL A   1      36.300  33.390  30.727  1.00  0.00    -0.014 A 
BRANCH  34  35
ATOM     35  C   UNL A   1      37.440  32.724  31.406  1.00  0.00     0.031 A 
ATOM     36  C   UNL A   1      38.144  31.571  30.748  1.00  0.00     0.074 A 
ATOM     37  C   UNL A   1      37.795  33.108  32.647  1.00  0.00     0.049 A 
ATOM     38  N   UNL A   1      39.108  30.815  31.209  1.00  0.00    -0.248 NA
ATOM     39  C   UNL A   1      37.682  31.199  29.401  1.00  0.00     0.031 C 
ATOM     40  C   UNL A   1      37.161  34.182  33.415  1.00  0.00     0.029 A 
ATOM     41  N   UNL A   1      38.773  32.633  33.485  1.00  0.00    -0.354 N 
ATOM     42  C   UNL A   1      39.352  29.869  30.223  1.00  0.00     0.074 A 
ATOM     43  C   UNL A   1      38.406  30.117  29.156  1.00  0.00     0.031 C 
ATOM     44  C   UNL A   1      37.784  34.301  34.599  1.00  0.00     0.029 A 
ATOM     45  C   UNL A   1      38.834  33.292  34.688  1.00  0.00     0.049 A 
ATOM     46  H   UNL A   1      39.372  31.889  33.247  1.00  0.00     0.167 HD
ATOM     47  C   UNL A   1      40.293  28.895  30.199  1.00  0.00     0.037 A 
ATOM     48  C   UNL A   1      39.646  33.103  35.745  1.00  0.00     0.037 A 
ATOM     49  C   UNL A   1      41.258  28.672  31.243  1.00  0.00     0.049 A 
ATOM     50  C   UNL A   1      40.686  32.018  35.691  1.00  0.00     0.074 A 
ATOM     51  C   UNL A   1      42.299  27.762  31.278  1.00  0.00     0.029 A 
ATOM     52  N   UNL A   1      41.298  29.371  32.441  1.00  0.00    -0.354 N 
ATOM     53  N   UNL A   1      40.954  31.175  34.724  1.00  0.00    -0.248 NA
ATOM     54  C   UNL A   1      41.540  31.861  36.878  1.00  0.00     0.031 C 
ATOM     55  C   UNL A   1      42.948  27.884  32.510  1.00  0.00     0.029 A 
ATOM     56  C   UNL A   1      42.335  28.897  33.229  1.00  0.00     0.049 A 
ATOM     57  H   UNL A   1      40.682  30.095  32.693  1.00  0.00     0.167 HD
ATOM     58  C   UNL A   1      42.022  30.408  35.170  1.00  0.00     0.074 A 
ATOM     59  C   UNL A   1      42.359  30.892  36.494  1.00  0.00     0.031 C 
ATOM     60  C   UNL A   1      42.665  29.396  34.539  1.00  0.00     0.037 A 
BRANCH  47  61
ATOM     61  C   UNL A   1      40.324  27.998  28.998  1.00  0.00     0.064 A 
ATOM     62  C   UNL A   1      41.072  28.324  27.856  1.00  0.00     0.173 A 
ATOM     63  C   UNL A   1      39.613  26.788  28.994  1.00  0.00     0.173 A 
ATOM     64  F   UNL A   1      41.758  29.475  27.805  1.00  0.00    -0.203 F 
ATOM     65  C   UNL A   1      41.080  27.488  26.743  1.00  0.00     0.198 A 
ATOM     66  C   UNL A   1      39.647  25.942  27.889  1.00  0.00     0.198 A 
ATOM     67  F   UNL A   1      38.887  26.427  30.062  1.00  0.00    -0.203 F 
ATOM     68  F   UNL A   1      41.760  27.845  25.644  1.00  0.00    -0.200 F 
ATOM     69  C   UNL A   1      40.373  26.296  26.762  1.00  0.00     0.200 A 
ATOM     70  F   UNL A   1      38.971  24.785  27.913  1.00  0.00    -0.200 F 
ATOM     71  F   UNL A   1      40.382  25.492  25.690  1.00  0.00    -0.200 F 
ENDBRANCH  47  61
BRANCH  48  72
ATOM     72  C   UNL A   1      39.538  33.988  36.931  1.00  0.00     0.064 A 
ATOM     73  C   UNL A   1      38.782  33.597  38.045  1.00  0.00     0.173 A 
ATOM     74  C   UNL A   1      40.181  35.232  36.981  1.00  0.00     0.173 A 
ATOM     75  F   UNL A   1      38.130  32.425  38.033  1.00  0.00    -0.203 F 
ATOM     76  C   UNL A   1      38.660  34.425  39.159  1.00  0.00     0.198 A 
ATOM     77  C   UNL A   1      40.079  36.050  38.105  1.00  0.00     0.198 A 
ATOM     78  F   UNL A   1      40.919  35.649  35.942  1.00  0.00    -0.203 F 
ATOM     79  F   UNL A   1      37.900  34.044  40.195  1.00  0.00    -0.200 F 
ATOM     80  C   UNL A   1      39.313  35.648  39.190  1.00  0.00     0.200 A 
ATOM     81  F   UNL A   1      40.719  37.226  38.137  1.00  0.00    -0.200 F 
ATOM     82  F   UNL A   1      39.199  36.443  40.263  1.00  0.00    -0.200 F 
ENDBRANCH  48  72
BRANCH  60  83
ATOM     83  C   UNL A   1      43.822  28.768  35.257  1.00  0.00     0.064 A 
ATOM     84  C   UNL A   1      45.132  29.242  35.093  1.00  0.00     0.173 A 
ATOM     85  C   UNL A   1      43.613  27.702  36.144  1.00  0.00     0.173 A 
ATOM     86  F   UNL A   1      45.384  30.248  34.243  1.00  0.00    -0.203 F 
ATOM     87  C   UNL A   1      46.194  28.654  35.775  1.00  0.00     0.198 A 
ATOM     88  C   UNL A   1      44.674  27.133  36.843  1.00  0.00     0.198 A 
ATOM     89  F   UNL A   1      42.377  27.217  36.338  1.00  0.00    -0.203 F 
ATOM     90  F   UNL A   1      47.444  29.094  35.571  1.00  0.00    -0.200 F 
ATOM     91  C   UNL A   1      45.964  27.606  36.653  1.00  0.00     0.200 A 
ATOM     92  F   UNL A   1      44.448  26.127  37.699  1.00  0.00    -0.200 F 
ATOM     93  F   UNL A   1      46.987  27.045  37.311  1.00  0.00    -0.200 F 
ENDBRANCH  60  83
ENDBRANCH  34  35
ENDBRANCH  26  29
ENDBRANCH  24  25
ENDBRANCH   1  24
TORSDOF 12
ENDMDL
MODEL 3
REMARK VINA RESULT:     -13.2      0.884      1.661
REMARK SMILES O=C(NCCCCNC(=O)c1ccc(-c2c3nc(c(-c4c(F)c(F)c(F)c(F)c4F)c4ccc([nH]4)c(-c4c(F)c(F)c(F)c(F)c4F)c4nc(c(-c5c(F)c(F)c(F)c(F)c5F)c5ccc2[nH]5)C=C4)C=C3)cc1)C1=C([O-])N(c2ccc3c(c2)OCCO3)CC1
REMARK SMILES IDX 6 1 5 2 4 3 3 4 1 5 2 6 74 8 75 9 89 10 76 11 77 12 88 13
REMARK SMILES IDX 78 14 79 15 83 16 80 17 82 18 81 19 84 20 87 21 85 22 86 23
REMARK SMILES IDX 7 24 8 25 9 26 10 28 11 29 12 30 73 31 13 32 72 33 14 34
REMARK SMILES IDX 15 35 16 36 66 37 17 38 71 39 65 40 67 41 18 42 70 43 64 44
REMARK SMILES IDX 63 45 19 47 51 48 31 49 50 50 32 51 35 52 49 53 68 54 33 55
REMARK SMILES IDX 34 56 48 58 69 59 36 60 20 61 21 62 29 63 22 64 23 65 27 66
REMARK SMILES IDX 30 67 24 68 25 69 28 70 26 71 52 72 53 73 61 74 54 75 55 76
REMARK SMILES IDX 59 77 62 78 56 79 57 80 60 81 58 82 37 83 38 84 46 85 39 86
REMARK SMILES IDX 40 87 44 88 47 89 41 90 42 91 45 92 43 93
REMARK H PARENT 3 7 8 27 67 46 35 57
REMARK Flexibility Score: inf
ROOT
ATOM      1  C   UNL A   1      31.538  31.973  26.871  1.00  0.00     0.023 C 
ENDROOT
BRANCH   1   2
ATOM      2  C   UNL A   1      31.777  30.474  26.722  1.00  0.00     0.023 C 
BRANCH   2   3
ATOM      3  C   UNL A   1      32.327  30.023  25.375  1.00  0.00     0.116 C 
BRANCH   3   4
ATOM      4  N   UNL A   1      31.296  29.672  24.412  1.00  0.00    -0.352 N 
ATOM      5  O   UNL A   1      29.990  28.320  23.164  1.00  0.00    -0.270 OA
ATOM      6  C   UNL A   1      30.936  28.438  23.950  1.00  0.00     0.248 C 
ATOM      7  H   UNL A   1      30.786  30.427  24.041  1.00  0.00     0.163 HD
BRANCH   6   8
ATOM      8  C   UNL A   1      31.670  27.289  24.459  1.00  0.00     0.027 C 
ATOM      9  C   UNL A   1      32.802  26.773  23.957  1.00  0.00    -0.028 C 
ATOM     10  C   UNL A   1      31.247  26.513  25.670  1.00  0.00     0.064 C 
ATOM     11  O   UNL A   1      33.455  27.176  22.841  1.00  0.00    -0.860 OA
ATOM     12  N   UNL A   1      33.340  25.826  24.801  1.00  0.00    -0.354 N 
ATOM     13  C   UNL A   1      32.550  25.794  26.054  1.00  0.00     0.126 C 
BRANCH  12  14
ATOM     14  C   UNL A   1      33.861  24.566  24.449  1.00  0.00     0.044 A 
ATOM     15  C   UNL A   1      35.081  24.152  25.002  1.00  0.00     0.030 A 
ATOM     16  C   UNL A   1      33.032  23.625  23.824  1.00  0.00     0.076 A 
ATOM     17  C   UNL A   1      35.399  22.796  25.062  1.00  0.00     0.052 A 
ATOM     18  C   UNL A   1      33.299  22.271  23.971  1.00  0.00     0.163 A 
ATOM     19  C   UNL A   1      34.464  21.862  24.626  1.00  0.00     0.161 A 
ATOM     20  O   UNL A   1      32.301  21.415  23.585  1.00  0.00    -0.486 OA
ATOM     21  O   UNL A   1      34.676  20.551  24.972  1.00  0.00    -0.486 OA
ATOM     22  C   UNL A   1      32.528  20.058  23.983  1.00  0.00     0.271 C 
ATOM     23  C   UNL A   1      33.399  19.950  25.227  1.00  0.00     0.271 C 
ENDBRANCH  12  14
ENDBRANCH   6   8
ENDBRANCH   3   4
ENDBRANCH   2   3
ENDBRANCH   1   2
BRANCH   1  24
ATOM     24  C   UNL A   1      32.759  32.807  27.241  1.00  0.00     0.116 C 
BRANCH  24  25
ATOM     25  N   UNL A   1      32.435  34.172  27.627  1.00  0.00    -0.352 N 
ATOM     26  C   UNL A   1      33.006  34.966  28.591  1.00  0.00     0.251 C 
ATOM     27  H   UNL A   1      31.698  34.587  27.124  1.00  0.00     0.163 HD
ATOM     28  O   UNL A   1      32.529  36.076  28.834  1.00  0.00    -0.269 OA
BRANCH  26  29
ATOM     29  C   UNL A   1      34.165  34.482  29.370  1.00  0.00     0.039 A 
ATOM     30  C   UNL A   1      33.933  33.837  30.588  1.00  0.00     0.014 A 
ATOM     31  C   UNL A   1      35.473  34.645  28.903  1.00  0.00     0.014 A 
ATOM     32  C   UNL A   1      35.003  33.284  31.296  1.00  0.00     0.010 A 
ATOM     33  C   UNL A   1      36.528  34.029  29.570  1.00  0.00     0.010 A 
ATOM     34  C   UNL A   1      36.304  33.339  30.771  1.00  0.00    -0.014 A 
BRANCH  34  35
ATOM     35  C   UNL A   1      37.439  32.673  31.458  1.00  0.00     0.031 A 
ATOM     36  C   UNL A   1      38.144  31.516  30.808  1.00  0.00     0.074 A 
ATOM     37  C   UNL A   1      37.789  33.061  32.700  1.00  0.00     0.049 A 
ATOM     38  N   UNL A   1      39.105  30.760  31.276  1.00  0.00    -0.248 NA
ATOM     39  C   UNL A   1      37.689  31.141  29.460  1.00  0.00     0.031 C 
ATOM     40  C   UNL A   1      37.153  34.138  33.461  1.00  0.00     0.029 A 
ATOM     41  N   UNL A   1      38.761  32.587  33.545  1.00  0.00    -0.354 N 
ATOM     42  C   UNL A   1      39.352  29.811  30.295  1.00  0.00     0.074 A 
ATOM     43  C   UNL A   1      38.412  30.057  29.222  1.00  0.00     0.031 C 
ATOM     44  C   UNL A   1      37.769  34.260  34.647  1.00  0.00     0.029 A 
ATOM     45  C   UNL A   1      38.817  33.250  34.746  1.00  0.00     0.049 A 
ATOM     46  H   UNL A   1      39.360  31.841  33.312  1.00  0.00     0.167 HD
ATOM     47  C   UNL A   1      40.292  28.835  30.279  1.00  0.00     0.037 A 
ATOM     48  C   UNL A   1      39.624  33.063  35.807  1.00  0.00     0.037 A 
ATOM     49  C   UNL A   1      41.251  28.614  31.329  1.00  0.00     0.049 A 
ATOM     50  C   UNL A   1      40.662  31.977  35.762  1.00  0.00     0.074 A 
ATOM     51  C   UNL A   1      42.290  27.702  31.372  1.00  0.00     0.029 A 
ATOM     52  N   UNL A   1      41.286  29.317  32.525  1.00  0.00    -0.354 N 
ATOM     53  N   UNL A   1      40.934  31.129  34.800  1.00  0.00    -0.248 NA
ATOM     54  C   UNL A   1      41.509  31.822  36.954  1.00  0.00     0.031 C 
ATOM     55  C   UNL A   1      42.933  27.828  32.607  1.00  0.00     0.029 A 
ATOM     56  C   UNL A   1      42.318  28.844  33.320  1.00  0.00     0.049 A 
ATOM     57  H   UNL A   1      40.670  30.043  32.771  1.00  0.00     0.167 HD
ATOM     58  C   UNL A   1      41.998  30.362  35.254  1.00  0.00     0.074 A 
ATOM     59  C   UNL A   1      42.329  30.850  36.577  1.00  0.00     0.031 C 
ATOM     60  C   UNL A   1      42.642  29.347  34.630  1.00  0.00     0.037 A 
BRANCH  47  61
ATOM     61  C   UNL A   1      40.327  27.934  29.081  1.00  0.00     0.064 A 
ATOM     62  C   UNL A   1      39.614  26.726  29.049  1.00  0.00     0.173 A 
ATOM     63  C   UNL A   1      41.066  28.290  27.943  1.00  0.00     0.173 A 
ATOM     64  F   UNL A   1      38.903  26.334  30.118  1.00  0.00    -0.203 F 
ATOM     65  C   UNL A   1      39.667  25.891  27.937  1.00  0.00     0.198 A 
ATOM     66  C   UNL A   1      41.093  27.467  26.821  1.00  0.00     0.198 A 
ATOM     67  F   UNL A   1      41.760  29.437  27.920  1.00  0.00    -0.203 F 
ATOM     68  F   UNL A   1      39.020  24.717  27.949  1.00  0.00    -0.200 F 
ATOM     69  C   UNL A   1      40.402  26.265  26.821  1.00  0.00     0.200 A 
ATOM     70  F   UNL A   1      41.796  27.834  25.739  1.00  0.00    -0.200 F 
ATOM     71  F   UNL A   1      40.451  25.461  25.750  1.00  0.00    -0.200 F 
ENDBRANCH  47  61
BRANCH  48  72
ATOM     72  C   UNL A   1      39.511  33.953  36.990  1.00  0.00     0.064 A 
ATOM     73  C   UNL A   1      38.758  33.562  38.106  1.00  0.00     0.173 A 
ATOM     74  C   UNL A   1      40.147  35.200  37.034  1.00  0.00     0.173 A 
ATOM     75  F   UNL A   1      38.113  32.386  38.099  1.00  0.00    -0.203 F 
ATOM     76  C   UNL A   1      38.632  34.393  39.217  1.00  0.00     0.198 A 
ATOM     77  C   UNL A   1      40.040  36.022  38.155  1.00  0.00     0.198 A 
ATOM     78  F   UNL A   1      40.881  35.617  35.993  1.00  0.00    -0.203 F 
ATOM     79  F   UNL A   1      37.875  34.012  40.254  1.00  0.00    -0.200 F 
ATOM     80  C   UNL A   1      39.277  35.620  39.242  1.00  0.00     0.200 A 
ATOM     81  F   UNL A   1      40.674  37.202  38.181  1.00  0.00    -0.200 F 
ATOM     82  F   UNL A   1      39.160  36.419  40.312  1.00  0.00    -0.200 F 
ENDBRANCH  48  72
BRANCH  60  83
ATOM     83  C   UNL A   1      43.794  28.720  35.355  1.00  0.00     0.064 A 
ATOM     84  C   UNL A   1      43.609  27.649  36.242  1.00  0.00     0.173 A 
ATOM     85  C   UNL A   1      45.103  29.175  35.135  1.00  0.00     0.173 A 
ATOM     86  F   UNL A   1      42.375  27.191  36.498  1.00  0.00    -0.203 F 
ATOM     87  C   UNL A   1      44.691  27.072  36.900  1.00  0.00     0.198 A 
ATOM     88  C   UNL A   1      46.186  28.578  35.776  1.00  0.00     0.198 A 
ATOM     89  F   UNL A   1      45.332  30.193  34.293  1.00  0.00    -0.203 F 
ATOM     90  F   UNL A   1      44.488  26.077  37.776  1.00  0.00    -0.200 F 
ATOM     91  C   UNL A   1      45.978  27.531  36.662  1.00  0.00     0.200 A 
ATOM     92  F   UNL A   1      47.429  29.017  35.537  1.00  0.00    -0.200 F 
ATOM     93  F   UNL A   1      47.018  26.970  37.293  1.00  0.00    -0.200 F 
ENDBRANCH  60  83
ENDBRANCH  34  35
ENDBRANCH  26  29
ENDBRANCH  24  25
ENDBRANCH   1  24
TORSDOF 12
ENDMDL
