MODEL 1
REMARK VINA RESULT:     -15.0      0.000      0.000
REMARK SMILES [NH3+][C@H](CS[C@@H]1CC(=O)N(c2ccc3ccccc3c2)C1=O)C(=O)NCCCCNC(=O)c1ccc(-c2c3nc(c(-c4c(F)c(F)c(F)c(F)c4F)c4ccc([nH]4)c(-c4c(F)c(F)c(F)c(F)c4F)c4nc(c(-c5c(F)c(F)c(F)c(F)c5F)c5ccc2[nH]5)C=C4)C=C3)cc1
REMARK SMILES IDX 25 1 24 2 22 3 23 4 2 6 1 7 3 11 4 12 5 13 6 14 20 15 7 16
REMARK SMILES IDX 9 17 21 18 8 19 10 20 11 21 19 22 12 23 18 24 13 25 17 26
REMARK SMILES IDX 14 27 16 28 15 29 26 30 27 31 28 32 29 33 30 34 31 36 32 37
REMARK SMILES IDX 33 38 94 39 34 40 93 41 35 42 36 43 37 44 87 45 38 46 92 47
REMARK SMILES IDX 86 48 88 49 39 50 91 51 85 52 84 53 40 55 72 56 52 57 71 58
REMARK SMILES IDX 53 59 56 60 70 61 89 62 54 63 55 64 69 66 90 67 57 68 41 69
REMARK SMILES IDX 42 70 50 71 43 72 44 73 48 74 51 75 45 76 46 77 49 78 47 79
REMARK SMILES IDX 73 80 74 81 82 82 75 83 76 84 80 85 83 86 77 87 78 88 81 89
REMARK SMILES IDX 79 90 58 91 59 92 67 93 60 94 61 95 65 96 68 97 62 98 63 99
REMARK SMILES IDX 66 100 64 101
REMARK H PARENT 24 5 1 8 1 9 1 10 29 35 88 54 56 65
REMARK Flexibility Score: inf
ROOT
ATOM      1  C   UNL A   1      31.799  29.731  25.572  1.00  0.00     0.116 C 
ENDROOT
BRANCH   1   2
ATOM      2  N   UNL A   1      30.316  30.386  24.234  1.00  0.00    -0.351 N 
ATOM      3  C   UNL A   1      29.305  30.460  23.285  1.00  0.00     0.279 C 
ATOM      4  O   UNL A   1      28.945  31.635  23.095  1.00  0.00    -0.268 OA
ATOM      5  H   UNL A   1      30.401  31.351  24.410  1.00  0.00     0.163 HD
BRANCH   3   6
ATOM      6  C   UNL A   1      28.688  29.373  22.422  1.00  0.00     0.280 C 
BRANCH   6   7
ATOM      7  N   UNL A   1      27.281  29.652  22.075  1.00  0.00    -0.347 N 
ATOM      8  H   UNL A   1      27.182  30.635  21.820  1.00  0.00     0.345 HD
ATOM      9  H   UNL A   1      26.686  29.448  22.878  1.00  0.00     0.345 HD
ATOM     10  H   UNL A   1      27.003  29.067  21.288  1.00  0.00     0.345 HD
ENDBRANCH   6   7
BRANCH   6  11
ATOM     11  C   UNL A   1      28.960  28.029  23.063  1.00  0.00     0.145 C 
BRANCH  11  12
ATOM     12  S   UNL A   1      30.599  27.490  22.562  1.00  0.00    -0.141 SA
BRANCH  12  13
ATOM     13  C   UNL A   1      30.745  25.976  23.583  1.00  0.00     0.146 C 
ATOM     14  C   UNL A   1      30.205  25.662  25.530  1.00  0.00     0.125 C 
ATOM     15  C   UNL A   1      32.554  25.085  23.369  1.00  0.00     0.247 C 
ATOM     16  C   UNL A   1      31.628  24.451  26.302  1.00  0.00     0.235 C 
ATOM     17  N   UNL A   1      32.829  24.181  24.939  1.00  0.00    -0.250 N 
ATOM     18  O   UNL A   1      33.347  25.225  22.448  1.00  0.00    -0.273 OA
ATOM     19  O   UNL A   1      31.671  23.945  27.412  1.00  0.00    -0.274 OA
BRANCH  17  20
ATOM     20  C   UNL A   1      34.125  23.655  25.230  1.00  0.00     0.052 A 
ATOM     21  C   UNL A   1      35.212  24.471  25.532  1.00  0.00     0.027 A 
ATOM     22  C   UNL A   1      34.330  22.282  25.059  1.00  0.00     0.035 A 
ATOM     23  C   UNL A   1      36.487  23.904  25.686  1.00  0.00     0.011 A 
ATOM     24  C   UNL A   1      35.602  21.715  25.141  1.00  0.00    -0.016 A 
ATOM     25  C   UNL A   1      36.702  22.527  25.474  1.00  0.00    -0.018 A 
ATOM     26  C   UNL A   1      35.784  20.355  24.850  1.00  0.00     0.009 A 
ATOM     27  C   UNL A   1      37.973  21.930  25.549  1.00  0.00     0.009 A 
ATOM     28  C   UNL A   1      37.052  19.787  24.902  1.00  0.00     0.001 A 
ATOM     29  C   UNL A   1      38.143  20.570  25.261  1.00  0.00     0.001 A 
ENDBRANCH  17  20
ENDBRANCH  12  13
ENDBRANCH  11  12
ENDBRANCH   6  11
ENDBRANCH   3   6
ENDBRANCH   1   2
BRANCH   1  30
ATOM     30  C   UNL A   1      32.501  30.506  26.910  1.00  0.00     0.023 C 
BRANCH  30  31
ATOM     31  C   UNL A   1      32.054  31.969  27.054  1.00  0.00     0.023 C 
BRANCH  31  32
ATOM     32  C   UNL A   1      33.113  32.956  27.518  1.00  0.00     0.116 C 
BRANCH  32  33
ATOM     33  N   UNL A   1      32.598  34.282  27.827  1.00  0.00    -0.352 N 
ATOM     34  C   UNL A   1      33.071  35.136  28.798  1.00  0.00     0.251 C 
ATOM     35  H   UNL A   1      31.835  34.598  27.290  1.00  0.00     0.163 HD
ATOM     36  O   UNL A   1      32.531  36.205  29.039  1.00  0.00    -0.269 OA
BRANCH  34  37
ATOM     37  C   UNL A   1      34.242  34.680  29.565  1.00  0.00     0.039 A 
ATOM     38  C   UNL A   1      34.038  33.974  30.750  1.00  0.00     0.014 A 
ATOM     39  C   UNL A   1      35.506  34.771  28.976  1.00  0.00     0.014 A 
ATOM     40  C   UNL A   1      35.112  33.297  31.323  1.00  0.00     0.010 A 
ATOM     41  C   UNL A   1      36.546  34.017  29.498  1.00  0.00     0.010 A 
ATOM     42  C   UNL A   1      36.362  33.281  30.679  1.00  0.00    -0.014 A 
BRANCH  42  43
ATOM     43  C   UNL A   1      37.504  32.523  31.243  1.00  0.00     0.031 A 
ATOM     44  C   UNL A   1      38.013  32.873  32.613  1.00  0.00     0.074 A 
ATOM     45  C   UNL A   1      38.109  31.568  30.511  1.00  0.00     0.049 A 
ATOM     46  N   UNL A   1      39.024  32.372  33.274  1.00  0.00    -0.248 NA
ATOM     47  C   UNL A   1      37.314  33.959  33.321  1.00  0.00     0.031 C 
ATOM     48  C   UNL A   1      37.736  31.177  29.149  1.00  0.00     0.029 A 
ATOM     49  N   UNL A   1      39.167  30.747  30.811  1.00  0.00    -0.354 N 
ATOM     50  C   UNL A   1      39.090  33.092  34.458  1.00  0.00     0.074 A 
ATOM     51  C   UNL A   1      38.066  34.109  34.399  1.00  0.00     0.031 C 
ATOM     52  C   UNL A   1      38.522  30.164  28.752  1.00  0.00     0.029 A 
ATOM     53  C   UNL A   1      39.477  29.858  29.811  1.00  0.00     0.049 A 
ATOM     54  H   UNL A   1      39.658  30.791  31.663  1.00  0.00     0.167 HD
ATOM     55  C   UNL A   1      39.911  32.901  35.516  1.00  0.00     0.037 A 
ATOM     56  C   UNL A   1      40.422  28.900  29.764  1.00  0.00     0.037 A 
ATOM     57  C   UNL A   1      40.900  31.860  35.582  1.00  0.00     0.049 A 
ATOM     58  C   UNL A   1      41.321  28.704  30.957  1.00  0.00     0.074 A 
ATOM     59  C   UNL A   1      41.738  31.534  36.633  1.00  0.00     0.029 A 
ATOM     60  N   UNL A   1      41.181  30.974  34.552  1.00  0.00    -0.354 N 
ATOM     61  N   UNL A   1      41.332  29.346  32.100  1.00  0.00    -0.248 NA
ATOM     62  C   UNL A   1      42.337  27.647  30.853  1.00  0.00     0.031 C 
ATOM     63  C   UNL A   1      42.565  30.486  36.220  1.00  0.00     0.029 A 
ATOM     64  C   UNL A   1      42.199  30.116  34.934  1.00  0.00     0.049 A 
ATOM     65  H   UNL A   1      40.726  30.958  33.680  1.00  0.00     0.167 HD
ATOM     66  C   UNL A   1      42.327  28.752  32.864  1.00  0.00     0.074 A 
ATOM     67  C   UNL A   1      42.891  27.689  32.057  1.00  0.00     0.031 C 
ATOM     68  C   UNL A   1      42.738  29.058  34.119  1.00  0.00     0.037 A 
BRANCH  55  69
ATOM     69  C   UNL A   1      39.768  33.829  36.686  1.00  0.00     0.064 A 
ATOM     70  C   UNL A   1      40.433  35.064  36.735  1.00  0.00     0.173 A 
ATOM     71  C   UNL A   1      38.927  33.494  37.758  1.00  0.00     0.173 A 
ATOM     72  F   UNL A   1      41.263  35.424  35.744  1.00  0.00    -0.203 F 
ATOM     73  C   UNL A   1      40.280  35.917  37.824  1.00  0.00     0.198 A 
ATOM     74  C   UNL A   1      38.750  34.365  38.829  1.00  0.00     0.198 A 
ATOM     75  F   UNL A   1      38.269  32.325  37.763  1.00  0.00    -0.203 F 
ATOM     76  F   UNL A   1      40.965  37.069  37.872  1.00  0.00    -0.200 F 
ATOM     77  C   UNL A   1      39.432  35.573  38.865  1.00  0.00     0.200 A 
ATOM     78  F   UNL A   1      37.921  34.036  39.829  1.00  0.00    -0.200 F 
ATOM     79  F   UNL A   1      39.275  36.402  39.906  1.00  0.00    -0.200 F 
ENDBRANCH  55  69
BRANCH  56  80
ATOM     80  C   UNL A   1      40.535  28.018  28.570  1.00  0.00     0.064 A 
ATOM     81  C   UNL A   1      41.322  28.396  27.473  1.00  0.00     0.173 A 
ATOM     82  C   UNL A   1      39.867  26.789  28.499  1.00  0.00     0.173 A 
ATOM     83  F   UNL A   1      41.966  29.573  27.485  1.00  0.00    -0.203 F 
ATOM     84  C   UNL A   1      41.423  27.586  26.344  1.00  0.00     0.198 A 
ATOM     85  C   UNL A   1      39.989  25.966  27.380  1.00  0.00     0.198 A 
ATOM     86  F   UNL A   1      39.104  26.378  29.523  1.00  0.00    -0.203 F 
ATOM     87  F   UNL A   1      42.148  27.993  25.293  1.00  0.00    -0.200 F 
ATOM     88  C   UNL A   1      40.761  26.368  26.301  1.00  0.00     0.200 A 
ATOM     89  F   UNL A   1      39.361  24.783  27.349  1.00  0.00    -0.200 F 
ATOM     90  F   UNL A   1      40.863  25.586  25.218  1.00  0.00    -0.200 F 
ENDBRANCH  56  80
BRANCH  68  91
ATOM     91  C   UNL A   1      43.821  28.209  34.718  1.00  0.00     0.064 A 
ATOM     92  C   UNL A   1      43.534  27.022  35.407  1.00  0.00     0.173 A 
ATOM     93  C   UNL A   1      45.169  28.562  34.549  1.00  0.00     0.173 A 
ATOM     94  F   UNL A   1      42.261  26.647  35.605  1.00  0.00    -0.203 F 
ATOM     95  C   UNL A   1      44.555  26.232  35.926  1.00  0.00     0.198 A 
ATOM     96  C   UNL A   1      46.189  27.752  35.040  1.00  0.00     0.198 A 
ATOM     97  F   UNL A   1      45.497  29.682  33.888  1.00  0.00    -0.203 F 
ATOM     98  F   UNL A   1      44.257  25.127  36.624  1.00  0.00    -0.200 F 
ATOM     99  C   UNL A   1      45.881  26.593  35.735  1.00  0.00     0.200 A 
ATOM    100  F   UNL A   1      47.469  28.092  34.836  1.00  0.00    -0.200 F 
ATOM    101  F   UNL A   1      46.864  25.824  36.225  1.00  0.00    -0.200 F 
ENDBRANCH  68  91
ENDBRANCH  42  43
ENDBRANCH  34  37
ENDBRANCH  32  33
ENDBRANCH  31  32
ENDBRANCH  30  31
ENDBRANCH   1  30
TORSDOF 16
ENDMDL
MODEL 2
REMARK VINA RESULT:     -14.9      0.669      7.109
REMARK SMILES [NH3+][C@H](CS[C@@H]1CC(=O)N(c2ccc3ccccc3c2)C1=O)C(=O)NCCCCNC(=O)c1ccc(-c2c3nc(c(-c4c(F)c(F)c(F)c(F)c4F)c4ccc([nH]4)c(-c4c(F)c(F)c(F)c(F)c4F)c4nc(c(-c5c(F)c(F)c(F)c(F)c5F)c5ccc2[nH]5)C=C4)C=C3)cc1
REMARK SMILES IDX 25 1 24 2 22 3 23 4 2 6 1 7 3 11 4 12 5 13 6 14 20 15 7 16
REMARK SMILES IDX 9 17 21 18 8 19 10 20 11 21 19 22 12 23 18 24 13 25 17 26
REMARK SMILES IDX 14 27 16 28 15 29 26 30 27 31 28 32 29 33 30 34 31 36 32 37
REMARK SMILES IDX 33 38 94 39 34 40 93 41 35 42 36 43 37 44 87 45 38 46 92 47
REMARK SMILES IDX 86 48 88 49 39 50 91 51 85 52 84 53 40 55 72 56 52 57 71 58
REMARK SMILES IDX 53 59 56 60 70 61 89 62 54 63 55 64 69 66 90 67 57 68 41 69
REMARK SMILES IDX 42 70 50 71 43 72 44 73 48 74 51 75 45 76 46 77 49 78 47 79
REMARK SMILES IDX 73 80 74 81 82 82 75 83 76 84 80 85 83 86 77 87 78 88 81 89
REMARK SMILES IDX 79 90 58 91 59 92 67 93 60 94 61 95 65 96 68 97 62 98 63 99
REMARK SMILES IDX 66 100 64 101
REMARK H PARENT 24 5 1 8 1 9 1 10 29 35 88 54 56 65
REMARK Flexibility Score: inf
ROOT
ATOM      1  C   UNL A   1      32.010  29.785  25.386  1.00  0.00     0.116 C 
ENDROOT
BRANCH   1   2
ATOM      2  N   UNL A   1      30.362  30.489  24.287  1.00  0.00    -0.351 N 
ATOM      3  C   UNL A   1      29.262  30.607  23.448  1.00  0.00     0.279 C 
ATOM      4  O   UNL A   1      28.802  31.761  23.461  1.00  0.00    -0.268 OA
ATOM      5  H   UNL A   1      30.394  31.424  24.593  1.00  0.00     0.163 HD
BRANCH   3   6
ATOM      6  C   UNL A   1      28.646  29.600  22.492  1.00  0.00     0.280 C 
BRANCH   6   7
ATOM      7  N   UNL A   1      27.290  29.986  22.056  1.00  0.00    -0.347 N 
ATOM      8  H   UNL A   1      27.309  30.935  21.684  1.00  0.00     0.345 HD
ATOM      9  H   UNL A   1      26.653  29.945  22.853  1.00  0.00     0.345 HD
ATOM     10  H   UNL A   1      26.970  29.343  21.332  1.00  0.00     0.345 HD
ENDBRANCH   6   7
BRANCH   6  11
ATOM     11  C   UNL A   1      28.785  28.215  23.085  1.00  0.00     0.145 C 
BRANCH  11  12
ATOM     12  S   UNL A   1      30.406  27.577  22.649  1.00  0.00    -0.141 SA
BRANCH  12  13
ATOM     13  C   UNL A   1      30.430  26.071  23.692  1.00  0.00     0.146 C 
ATOM     14  C   UNL A   1      30.311  25.894  25.726  1.00  0.00     0.125 C 
ATOM     15  C   UNL A   1      31.874  24.768  23.116  1.00  0.00     0.247 C 
ATOM     16  C   UNL A   1      31.550  24.374  26.215  1.00  0.00     0.235 C 
ATOM     17  N   UNL A   1      32.294  23.823  24.628  1.00  0.00    -0.250 N 
ATOM     18  O   UNL A   1      32.434  24.714  22.030  1.00  0.00    -0.273 OA
ATOM     19  O   UNL A   1      31.735  23.871  27.311  1.00  0.00    -0.274 OA
BRANCH  17  20
ATOM     20  C   UNL A   1      33.460  22.998  24.641  1.00  0.00     0.052 A 
ATOM     21  C   UNL A   1      33.393  21.609  24.577  1.00  0.00     0.027 A 
ATOM     22  C   UNL A   1      34.695  23.610  24.875  1.00  0.00     0.035 A 
ATOM     23  C   UNL A   1      34.564  20.847  24.720  1.00  0.00     0.011 A 
ATOM     24  C   UNL A   1      35.855  22.865  25.088  1.00  0.00    -0.016 A 
ATOM     25  C   UNL A   1      35.803  21.462  24.996  1.00  0.00    -0.018 A 
ATOM     26  C   UNL A   1      37.051  23.511  25.433  1.00  0.00     0.009 A 
ATOM     27  C   UNL A   1      36.986  20.734  25.215  1.00  0.00     0.009 A 
ATOM     28  C   UNL A   1      38.206  22.774  25.675  1.00  0.00     0.001 A 
ATOM     29  C   UNL A   1      38.176  21.389  25.555  1.00  0.00     0.001 A 
ENDBRANCH  17  20
ENDBRANCH  12  13
ENDBRANCH  11  12
ENDBRANCH   6  11
ENDBRANCH   3   6
ENDBRANCH   1   2
BRANCH   1  30
ATOM     30  C   UNL A   1      32.691  30.345  26.837  1.00  0.00     0.023 C 
BRANCH  30  31
ATOM     31  C   UNL A   1      32.150  31.720  27.259  1.00  0.00     0.023 C 
BRANCH  31  32
ATOM     32  C   UNL A   1      33.189  32.780  27.589  1.00  0.00     0.116 C 
BRANCH  32  33
ATOM     33  N   UNL A   1      32.641  34.119  27.754  1.00  0.00    -0.352 N 
ATOM     34  C   UNL A   1      33.054  35.063  28.668  1.00  0.00     0.251 C 
ATOM     35  H   UNL A   1      31.903  34.374  27.154  1.00  0.00     0.163 HD
ATOM     36  O   UNL A   1      32.488  36.140  28.786  1.00  0.00    -0.269 OA
BRANCH  34  37
ATOM     37  C   UNL A   1      34.189  34.696  29.529  1.00  0.00     0.039 A 
ATOM     38  C   UNL A   1      33.933  34.156  30.788  1.00  0.00     0.014 A 
ATOM     39  C   UNL A   1      35.474  34.691  28.978  1.00  0.00     0.014 A 
ATOM     40  C   UNL A   1      34.975  33.546  31.484  1.00  0.00     0.010 A 
ATOM     41  C   UNL A   1      36.482  33.999  29.631  1.00  0.00     0.010 A 
ATOM     42  C   UNL A   1      36.245  33.427  30.892  1.00  0.00    -0.014 A 
BRANCH  42  43
ATOM     43  C   UNL A   1      37.354  32.735  31.591  1.00  0.00     0.031 A 
ATOM     44  C   UNL A   1      38.035  31.576  30.919  1.00  0.00     0.074 A 
ATOM     45  C   UNL A   1      37.708  33.110  32.835  1.00  0.00     0.049 A 
ATOM     46  N   UNL A   1      38.991  30.805  31.366  1.00  0.00    -0.248 NA
ATOM     47  C   UNL A   1      37.552  31.213  29.575  1.00  0.00     0.031 C 
ATOM     48  C   UNL A   1      37.083  34.186  33.608  1.00  0.00     0.029 A 
ATOM     49  N   UNL A   1      38.684  32.628  33.670  1.00  0.00    -0.354 N 
ATOM     50  C   UNL A   1      39.205  29.861  30.373  1.00  0.00     0.074 A 
ATOM     51  C   UNL A   1      38.239  30.109  29.329  1.00  0.00     0.031 C 
ATOM     52  C   UNL A   1      37.721  34.311  34.783  1.00  0.00     0.029 A 
ATOM     53  C   UNL A   1      38.773  33.303  34.864  1.00  0.00     0.049 A 
ATOM     54  H   UNL A   1      39.267  31.870  33.436  1.00  0.00     0.167 HD
ATOM     55  C   UNL A   1      40.148  28.891  30.320  1.00  0.00     0.037 A 
ATOM     56  C   UNL A   1      39.616  33.128  35.899  1.00  0.00     0.037 A 
ATOM     57  C   UNL A   1      41.133  28.678  31.345  1.00  0.00     0.049 A 
ATOM     58  C   UNL A   1      40.659  32.045  35.814  1.00  0.00     0.074 A 
ATOM     59  C   UNL A   1      42.175  27.770  31.362  1.00  0.00     0.029 A 
ATOM     60  N   UNL A   1      41.195  29.385  32.537  1.00  0.00    -0.354 N 
ATOM     61  N   UNL A   1      40.899  31.201  34.841  1.00  0.00    -0.248 NA
ATOM     62  C   UNL A   1      41.553  31.895  36.971  1.00  0.00     0.031 C 
ATOM     63  C   UNL A   1      42.836  27.890  32.587  1.00  0.00     0.029 A 
ATOM     64  C   UNL A   1      42.245  28.916  33.309  1.00  0.00     0.049 A 
ATOM     65  H   UNL A   1      40.584  30.112  32.797  1.00  0.00     0.167 HD
ATOM     66  C   UNL A   1      41.987  30.442  35.250  1.00  0.00     0.074 A 
ATOM     67  C   UNL A   1      42.369  30.936  36.557  1.00  0.00     0.031 C 
ATOM     68  C   UNL A   1      42.615  29.430  34.603  1.00  0.00     0.037 A 
BRANCH  55  69
ATOM     69  C   UNL A   1      40.164  27.999  29.115  1.00  0.00     0.064 A 
ATOM     70  C   UNL A   1      40.869  28.342  27.950  1.00  0.00     0.173 A 
ATOM     71  C   UNL A   1      39.493  26.767  29.135  1.00  0.00     0.173 A 
ATOM     72  F   UNL A   1      41.512  29.518  27.872  1.00  0.00    -0.203 F 
ATOM     73  C   UNL A   1      40.881  27.497  26.844  1.00  0.00     0.198 A 
ATOM     74  C   UNL A   1      39.536  25.909  28.040  1.00  0.00     0.198 A 
ATOM     75  F   UNL A   1      38.803  26.390  30.222  1.00  0.00    -0.203 F 
ATOM     76  F   UNL A   1      41.520  27.870  25.726  1.00  0.00    -0.200 F 
ATOM     77  C   UNL A   1      40.224  26.278  26.893  1.00  0.00     0.200 A 
ATOM     78  F   UNL A   1      38.910  24.726  28.092  1.00  0.00    -0.200 F 
ATOM     79  F   UNL A   1      40.248  25.459  25.833  1.00  0.00    -0.200 F 
ENDBRANCH  55  69
BRANCH  56  80
ATOM     80  C   UNL A   1      39.545  34.029  37.081  1.00  0.00     0.064 A 
ATOM     81  C   UNL A   1      40.210  35.264  37.081  1.00  0.00     0.173 A 
ATOM     82  C   UNL A   1      38.816  33.683  38.227  1.00  0.00     0.173 A 
ATOM     83  F   UNL A   1      40.936  35.633  36.016  1.00  0.00    -0.203 F 
ATOM     84  C   UNL A   1      40.162  36.110  38.188  1.00  0.00     0.198 A 
ATOM     85  C   UNL A   1      38.747  34.541  39.324  1.00  0.00     0.198 A 
ATOM     86  F   UNL A   1      38.158  32.515  38.277  1.00  0.00    -0.203 F 
ATOM     87  F   UNL A   1      40.843  37.264  38.176  1.00  0.00    -0.200 F 
ATOM     88  C   UNL A   1      39.426  35.750  39.306  1.00  0.00     0.200 A 
ATOM     89  F   UNL A   1      38.022  34.197  40.397  1.00  0.00    -0.200 F 
ATOM     90  F   UNL A   1      39.375  36.565  40.368  1.00  0.00    -0.200 F 
ENDBRANCH  56  80
BRANCH  68  91
ATOM     91  C   UNL A   1      43.805  28.812  35.276  1.00  0.00     0.064 A 
ATOM     92  C   UNL A   1      43.673  27.744  36.176  1.00  0.00     0.173 A 
ATOM     93  C   UNL A   1      45.100  29.258  34.971  1.00  0.00     0.173 A 
ATOM     94  F   UNL A   1      42.456  27.289  36.509  1.00  0.00    -0.203 F 
ATOM     95  C   UNL A   1      44.792  27.164  36.765  1.00  0.00     0.198 A 
ATOM     96  C   UNL A   1      46.219  28.653  35.535  1.00  0.00     0.198 A 
ATOM     97  F   UNL A   1      45.281  30.269  34.107  1.00  0.00    -0.203 F 
ATOM     98  F   UNL A   1      44.641  26.178  37.660  1.00  0.00    -0.200 F 
ATOM     99  C   UNL A   1      46.064  27.612  36.438  1.00  0.00     0.200 A 
ATOM    100  F   UNL A   1      47.446  29.074  35.202  1.00  0.00    -0.200 F 
ATOM    101  F   UNL A   1      47.141  27.044  36.996  1.00  0.00    -0.200 F 
ENDBRANCH  68  91
ENDBRANCH  42  43
ENDBRANCH  34  37
ENDBRANCH  32  33
ENDBRANCH  31  32
ENDBRANCH  30  31
ENDBRANCH   1  30
TORSDOF 16
ENDMDL
MODEL 3
REMARK VINA RESULT:     -14.8      1.117      1.819
REMARK SMILES [NH3+][C@H](CS[C@@H]1CC(=O)N(c2ccc3ccccc3c2)C1=O)C(=O)NCCCCNC(=O)c1ccc(-c2c3nc(c(-c4c(F)c(F)c(F)c(F)c4F)c4ccc([nH]4)c(-c4c(F)c(F)c(F)c(F)c4F)c4nc(c(-c5c(F)c(F)c(F)c(F)c5F)c5ccc2[nH]5)C=C4)C=C3)cc1
REMARK SMILES IDX 25 1 24 2 22 3 23 4 2 6 1 7 3 11 4 12 5 13 6 14 20 15 7 16
REMARK SMILES IDX 9 17 21 18 8 19 10 20 11 21 19 22 12 23 18 24 13 25 17 26
REMARK SMILES IDX 14 27 16 28 15 29 26 30 27 31 28 32 29 33 30 34 31 36 32 37
REMARK SMILES IDX 33 38 94 39 34 40 93 41 35 42 36 43 37 44 87 45 38 46 92 47
REMARK SMILES IDX 86 48 88 49 39 50 91 51 85 52 84 53 40 55 72 56 52 57 71 58
REMARK SMILES IDX 53 59 56 60 70 61 89 62 54 63 55 64 69 66 90 67 57 68 41 69
REMARK SMILES IDX 42 70 50 71 43 72 44 73 48 74 51 75 45 76 46 77 49 78 47 79
REMARK SMILES IDX 73 80 74 81 82 82 75 83 76 84 80 85 83 86 77 87 78 88 81 89
REMARK SMILES IDX 79 90 58 91 59 92 67 93 60 94 61 95 65 96 68 97 62 98 63 99
REMARK SMILES IDX 66 100 64 101
REMARK H PARENT 24 5 1 8 1 9 1 10 29 35 88 54 56 65
REMARK Flexibility Score: inf
ROOT
ATOM      1  C   UNL A   1      33.869  29.274  26.935  1.00  0.00     0.116 C 
ENDROOT
BRANCH   1   2
ATOM      2  N   UNL A   1      33.816  29.086  24.843  1.00  0.00    -0.351 N 
ATOM      3  C   UNL A   1      33.421  28.945  23.519  1.00  0.00     0.279 C 
ATOM      4  O   UNL A   1      34.396  28.959  22.749  1.00  0.00    -0.268 OA
ATOM      5  H   UNL A   1      34.786  29.128  24.685  1.00  0.00     0.163 HD
BRANCH   3   6
ATOM      6  C   UNL A   1      32.045  28.686  22.928  1.00  0.00     0.280 C 
BRANCH   6   7
ATOM      7  N   UNL A   1      31.621  29.744  21.991  1.00  0.00    -0.347 N 
ATOM      8  H   UNL A   1      32.136  29.649  21.115  1.00  0.00     0.345 HD
ATOM      9  H   UNL A   1      31.811  30.658  22.401  1.00  0.00     0.345 HD
ATOM     10  H   UNL A   1      30.622  29.655  21.807  1.00  0.00     0.345 HD
ENDBRANCH   6   7
BRANCH   6  11
ATOM     11  C   UNL A   1      31.083  28.371  24.053  1.00  0.00     0.145 C 
BRANCH  11  12
ATOM     12  S   UNL A   1      29.636  27.574  23.347  1.00  0.00    -0.141 SA
BRANCH  12  13
ATOM     13  C   UNL A   1      29.738  25.954  24.196  1.00  0.00     0.146 C 
ATOM     14  C   UNL A   1      29.668  25.526  26.195  1.00  0.00     0.125 C 
ATOM     15  C   UNL A   1      31.219  24.790  23.442  1.00  0.00     0.247 C 
ATOM     16  C   UNL A   1      30.973  24.008  26.474  1.00  0.00     0.235 C 
ATOM     17  N   UNL A   1      31.705  23.685  24.820  1.00  0.00    -0.250 N 
ATOM     18  O   UNL A   1      31.758  24.891  22.349  1.00  0.00    -0.273 OA
ATOM     19  O   UNL A   1      31.200  23.383  27.497  1.00  0.00    -0.274 OA
BRANCH  17  20
ATOM     20  C   UNL A   1      32.901  22.912  24.713  1.00  0.00     0.052 A 
ATOM     21  C   UNL A   1      32.885  21.529  24.554  1.00  0.00     0.027 A 
ATOM     22  C   UNL A   1      34.123  23.560  24.925  1.00  0.00     0.035 A 
ATOM     23  C   UNL A   1      34.091  20.811  24.581  1.00  0.00     0.011 A 
ATOM     24  C   UNL A   1      35.321  22.852  25.024  1.00  0.00    -0.016 A 
ATOM     25  C   UNL A   1      35.318  21.457  24.835  1.00  0.00    -0.018 A 
ATOM     26  C   UNL A   1      36.507  23.523  25.351  1.00  0.00     0.009 A 
ATOM     27  C   UNL A   1      36.540  20.768  24.940  1.00  0.00     0.009 A 
ATOM     28  C   UNL A   1      37.702  22.822  25.478  1.00  0.00     0.001 A 
ATOM     29  C   UNL A   1      37.720  21.448  25.262  1.00  0.00     0.001 A 
ENDBRANCH  17  20
ENDBRANCH  12  13
ENDBRANCH  11  12
ENDBRANCH   6  11
ENDBRANCH   3   6
ENDBRANCH   1   2
BRANCH   1  30
ATOM     30  C   UNL A   1      34.077  30.644  27.917  1.00  0.00     0.023 C 
BRANCH  30  31
ATOM     31  C   UNL A   1      33.027  31.733  27.650  1.00  0.00     0.023 C 
BRANCH  31  32
ATOM     32  C   UNL A   1      33.552  33.065  27.136  1.00  0.00     0.116 C 
BRANCH  32  33
ATOM     33  N   UNL A   1      32.830  34.224  27.638  1.00  0.00    -0.352 N 
ATOM     34  C   UNL A   1      33.099  34.915  28.799  1.00  0.00     0.251 C 
ATOM     35  H   UNL A   1      32.073  34.545  27.095  1.00  0.00     0.163 HD
ATOM     36  O   UNL A   1      32.394  35.837  29.182  1.00  0.00    -0.269 OA
BRANCH  34  37
ATOM     37  C   UNL A   1      34.261  34.464  29.581  1.00  0.00     0.039 A 
ATOM     38  C   UNL A   1      34.050  33.641  30.687  1.00  0.00     0.014 A 
ATOM     39  C   UNL A   1      35.542  34.685  29.068  1.00  0.00     0.014 A 
ATOM     40  C   UNL A   1      35.139  32.982  31.253  1.00  0.00     0.010 A 
ATOM     41  C   UNL A   1      36.604  33.952  29.574  1.00  0.00     0.010 A 
ATOM     42  C   UNL A   1      36.415  33.101  30.675  1.00  0.00    -0.014 A 
BRANCH  42  43
ATOM     43  C   UNL A   1      37.578  32.366  31.228  1.00  0.00     0.031 A 
ATOM     44  C   UNL A   1      38.083  32.716  32.599  1.00  0.00     0.074 A 
ATOM     45  C   UNL A   1      38.203  31.433  30.484  1.00  0.00     0.049 A 
ATOM     46  N   UNL A   1      39.108  32.234  33.252  1.00  0.00    -0.248 NA
ATOM     47  C   UNL A   1      37.360  33.778  33.320  1.00  0.00     0.031 C 
ATOM     48  C   UNL A   1      37.835  31.046  29.121  1.00  0.00     0.029 A 
ATOM     49  N   UNL A   1      39.282  30.636  30.774  1.00  0.00    -0.354 N 
ATOM     50  C   UNL A   1      39.161  32.945  34.442  1.00  0.00     0.074 A 
ATOM     51  C   UNL A   1      38.112  33.937  34.397  1.00  0.00     0.031 C 
ATOM     52  C   UNL A   1      38.643  30.056  28.711  1.00  0.00     0.029 A 
ATOM     53  C   UNL A   1      39.610  29.763  29.764  1.00  0.00     0.049 A 
ATOM     54  H   UNL A   1      39.775  30.684  31.624  1.00  0.00     0.167 HD
ATOM     55  C   UNL A   1      39.991  32.764  35.495  1.00  0.00     0.037 A 
ATOM     56  C   UNL A   1      40.578  28.829  29.705  1.00  0.00     0.037 A 
ATOM     57  C   UNL A   1      41.005  31.746  35.549  1.00  0.00     0.049 A 
ATOM     58  C   UNL A   1      41.486  28.645  30.892  1.00  0.00     0.074 A 
ATOM     59  C   UNL A   1      41.855  31.432  36.593  1.00  0.00     0.029 A 
ATOM     60  N   UNL A   1      41.304  30.878  34.510  1.00  0.00    -0.354 N 
ATOM     61  N   UNL A   1      41.485  29.276  32.041  1.00  0.00    -0.248 NA
ATOM     62  C   UNL A   1      42.527  27.613  30.776  1.00  0.00     0.031 C 
ATOM     63  C   UNL A   1      42.705  30.409  36.167  1.00  0.00     0.029 A 
ATOM     64  C   UNL A   1      42.344  30.042  34.880  1.00  0.00     0.049 A 
ATOM     65  H   UNL A   1      40.846  30.858  33.638  1.00  0.00     0.167 HD
ATOM     66  C   UNL A   1      42.498  28.700  32.797  1.00  0.00     0.074 A 
ATOM     67  C   UNL A   1      43.084  27.658  31.978  1.00  0.00     0.031 C 
ATOM     68  C   UNL A   1      42.905  29.004  34.053  1.00  0.00     0.037 A 
BRANCH  55  69
ATOM     69  C   UNL A   1      39.830  33.677  36.674  1.00  0.00     0.064 A 
ATOM     70  C   UNL A   1      40.524  34.893  36.768  1.00  0.00     0.173 A 
ATOM     71  C   UNL A   1      38.941  33.349  37.710  1.00  0.00     0.173 A 
ATOM     72  F   UNL A   1      41.400  35.245  35.814  1.00  0.00    -0.203 F 
ATOM     73  C   UNL A   1      40.355  35.733  37.864  1.00  0.00     0.198 A 
ATOM     74  C   UNL A   1      38.748  34.208  38.788  1.00  0.00     0.198 A 
ATOM     75  F   UNL A   1      38.253  32.198  37.671  1.00  0.00    -0.203 F 
ATOM     76  F   UNL A   1      41.067  36.866  37.955  1.00  0.00    -0.200 F 
ATOM     77  C   UNL A   1      39.460  35.396  38.868  1.00  0.00     0.200 A 
ATOM     78  F   UNL A   1      37.874  33.886  39.751  1.00  0.00    -0.200 F 
ATOM     79  F   UNL A   1      39.287  36.212  39.916  1.00  0.00    -0.200 F 
ENDBRANCH  55  69
BRANCH  56  80
ATOM     80  C   UNL A   1      40.707  27.962  28.503  1.00  0.00     0.064 A 
ATOM     81  C   UNL A   1      41.462  28.379  27.397  1.00  0.00     0.173 A 
ATOM     82  C   UNL A   1      40.088  26.707  28.432  1.00  0.00     0.173 A 
ATOM     83  F   UNL A   1      42.058  29.580  27.408  1.00  0.00    -0.203 F 
ATOM     84  C   UNL A   1      41.578  27.582  26.259  1.00  0.00     0.198 A 
ATOM     85  C   UNL A   1      40.227  25.898  27.305  1.00  0.00     0.198 A 
ATOM     86  F   UNL A   1      39.359  26.258  29.464  1.00  0.00    -0.203 F 
ATOM     87  F   UNL A   1      42.270  28.025  25.201  1.00  0.00    -0.200 F 
ATOM     88  C   UNL A   1      40.965  26.339  26.217  1.00  0.00     0.200 A 
ATOM     89  F   UNL A   1      39.646  24.691  27.273  1.00  0.00    -0.200 F 
ATOM     90  F   UNL A   1      41.082  25.569  25.126  1.00  0.00    -0.200 F 
ENDBRANCH  56  80
BRANCH  68  91
ATOM     91  C   UNL A   1      44.011  28.177  34.640  1.00  0.00     0.064 A 
ATOM     92  C   UNL A   1      45.352  28.584  34.577  1.00  0.00     0.173 A 
ATOM     93  C   UNL A   1      43.717  26.988  35.326  1.00  0.00     0.173 A 
ATOM     94  F   UNL A   1      45.686  29.707  33.923  1.00  0.00    -0.203 F 
ATOM     95  C   UNL A   1      46.360  27.819  35.156  1.00  0.00     0.198 A 
ATOM     96  C   UNL A   1      44.724  26.243  35.933  1.00  0.00     0.198 A 
ATOM     97  F   UNL A   1      42.450  26.560  35.425  1.00  0.00    -0.203 F 
ATOM     98  F   UNL A   1      47.639  28.201  35.041  1.00  0.00    -0.200 F 
ATOM     99  C   UNL A   1      46.044  26.655  35.841  1.00  0.00     0.200 A 
ATOM    100  F   UNL A   1      44.414  25.130  36.611  1.00  0.00    -0.200 F 
ATOM    101  F   UNL A   1      47.015  25.925  36.409  1.00  0.00    -0.200 F 
ENDBRANCH  68  91
ENDBRANCH  42  43
ENDBRANCH  34  37
ENDBRANCH  32  33
ENDBRANCH  31  32
ENDBRANCH  30  31
ENDBRANCH   1  30
TORSDOF 16
ENDMDL
