MODEL 1
REMARK VINA RESULT:     -12.8      0.000      0.000
REMARK SMILES O=C(NCCCCNC(=O)c1ccccc1Nc1cccc(C(F)(F)F)c1)c1ccc(-c2c3nc(c(-c4c(F)c(F)c(F)c(F)c4F)c4ccc([nH]4)c(-c4c(F)c(F)c(F)c(F)c4F)c4nc(c(-c5c(F)c(F)c(F)c(F)c5F)c5ccc2[nH]5)C=C4)C=C3)cc1
REMARK SMILES IDX 6 1 5 2 4 3 3 4 1 5 2 6 28 8 29 9 90 10 30 11 89 12 31 13
REMARK SMILES IDX 32 14 33 15 83 16 34 17 88 18 82 19 84 20 35 21 87 22 81 23
REMARK SMILES IDX 80 24 36 26 68 27 48 28 67 29 49 30 52 31 66 32 85 33 50 34
REMARK SMILES IDX 51 35 65 37 86 38 53 39 37 40 38 41 46 42 39 43 40 44 44 45
REMARK SMILES IDX 47 46 41 47 42 48 45 49 43 50 69 51 70 52 78 53 71 54 72 55
REMARK SMILES IDX 76 56 79 57 73 58 74 59 77 60 75 61 54 62 55 63 63 64 56 65
REMARK SMILES IDX 57 66 61 67 64 68 58 69 59 70 62 71 60 72 7 73 8 74 9 75
REMARK SMILES IDX 10 77 11 78 12 79 16 80 13 81 15 82 14 83 17 84 18 86 19 87
REMARK SMILES IDX 27 88 20 89 22 90 21 91 23 92 24 93 25 94 26 95
REMARK H PARENT 3 7 84 25 52 36 8 76 17 85
REMARK Flexibility Score: inf
ROOT
ATOM      1  C   UNL A   1      31.405  30.531  25.875  1.00  0.00     0.023 C 
ENDROOT
BRANCH   1   2
ATOM      2  C   UNL A   1      31.248  31.906  26.524  1.00  0.00     0.023 C 
BRANCH   2   3
ATOM      3  C   UNL A   1      32.534  32.528  27.054  1.00  0.00     0.116 C 
BRANCH   3   4
ATOM      4  N   UNL A   1      32.358  33.906  27.486  1.00  0.00    -0.352 N 
ATOM      5  O   UNL A   1      32.627  35.723  28.796  1.00  0.00    -0.269 OA
ATOM      6  C   UNL A   1      33.028  34.613  28.453  1.00  0.00     0.251 C 
ATOM      7  H   UNL A   1      31.652  34.405  27.015  1.00  0.00     0.163 HD
BRANCH   6   8
ATOM      8  C   UNL A   1      34.223  34.035  29.102  1.00  0.00     0.039 A 
ATOM      9  C   UNL A   1      35.507  34.459  28.749  1.00  0.00     0.014 A 
ATOM     10  C   UNL A   1      34.051  33.067  30.094  1.00  0.00     0.014 A 
ATOM     11  C   UNL A   1      36.620  33.820  29.286  1.00  0.00     0.010 A 
ATOM     12  C   UNL A   1      35.170  32.484  30.693  1.00  0.00     0.010 A 
ATOM     13  C   UNL A   1      36.463  32.836  30.273  1.00  0.00    -0.014 A 
BRANCH  13  14
ATOM     14  C   UNL A   1      37.654  32.219  30.909  1.00  0.00     0.031 A 
ATOM     15  C   UNL A   1      38.414  31.123  30.221  1.00  0.00     0.074 A 
ATOM     16  C   UNL A   1      38.023  32.631  32.136  1.00  0.00     0.049 A 
ATOM     17  N   UNL A   1      39.416  30.407  30.664  1.00  0.00    -0.248 NA
ATOM     18  C   UNL A   1      37.983  30.778  28.859  1.00  0.00     0.031 C 
ATOM     19  C   UNL A   1      37.358  33.684  32.903  1.00  0.00     0.029 A 
ATOM     20  N   UNL A   1      39.034  32.204  32.959  1.00  0.00    -0.354 N 
ATOM     21  C   UNL A   1      39.720  29.511  29.648  1.00  0.00     0.074 A 
ATOM     22  C   UNL A   1      38.778  29.757  28.576  1.00  0.00     0.031 C 
ATOM     23  C   UNL A   1      37.976  33.823  34.085  1.00  0.00     0.029 A 
ATOM     24  C   UNL A   1      39.035  32.824  34.184  1.00  0.00     0.049 A 
ATOM     25  H   UNL A   1      39.692  31.519  32.699  1.00  0.00     0.167 HD
ATOM     26  C   UNL A   1      40.699  28.572  29.617  1.00  0.00     0.037 A 
ATOM     27  C   UNL A   1      39.775  32.589  35.283  1.00  0.00     0.037 A 
ATOM     28  C   UNL A   1      41.628  28.339  30.693  1.00  0.00     0.049 A 
ATOM     29  C   UNL A   1      40.822  31.514  35.246  1.00  0.00     0.074 A 
ATOM     30  C   UNL A   1      42.687  27.450  30.742  1.00  0.00     0.029 A 
ATOM     31  N   UNL A   1      41.598  28.990  31.920  1.00  0.00    -0.354 N 
ATOM     32  N   UNL A   1      41.135  30.704  34.265  1.00  0.00    -0.248 NA
ATOM     33  C   UNL A   1      41.620  31.321  36.464  1.00  0.00     0.031 C 
ATOM     34  C   UNL A   1      43.251  27.510  32.020  1.00  0.00     0.029 A 
ATOM     35  C   UNL A   1      42.595  28.492  32.746  1.00  0.00     0.049 A 
ATOM     36  H   UNL A   1      40.962  29.700  32.168  1.00  0.00     0.167 HD
ATOM     37  C   UNL A   1      42.181  29.922  34.733  1.00  0.00     0.074 A 
ATOM     38  C   UNL A   1      42.452  30.358  36.089  1.00  0.00     0.031 C 
ATOM     39  C   UNL A   1      42.859  28.939  34.093  1.00  0.00     0.037 A 
BRANCH  26  40
ATOM     40  C   UNL A   1      40.782  27.697  28.397  1.00  0.00     0.064 A 
ATOM     41  C   UNL A   1      41.580  28.032  27.292  1.00  0.00     0.173 A 
ATOM     42  C   UNL A   1      40.059  26.494  28.338  1.00  0.00     0.173 A 
ATOM     43  F   UNL A   1      42.290  29.170  27.291  1.00  0.00    -0.203 F 
ATOM     44  C   UNL A   1      41.611  27.223  26.157  1.00  0.00     0.198 A 
ATOM     45  C   UNL A   1      40.121  25.670  27.217  1.00  0.00     0.198 A 
ATOM     46  F   UNL A   1      39.288  26.116  29.369  1.00  0.00    -0.203 F 
ATOM     47  F   UNL A   1      42.326  27.599  25.089  1.00  0.00    -0.200 F 
ATOM     48  C   UNL A   1      40.885  26.042  26.122  1.00  0.00     0.200 A 
ATOM     49  F   UNL A   1      39.432  24.521  27.193  1.00  0.00    -0.200 F 
ATOM     50  F   UNL A   1      40.914  25.268  25.029  1.00  0.00    -0.200 F 
ENDBRANCH  26  40
BRANCH  27  51
ATOM     51  C   UNL A   1      39.517  33.388  36.509  1.00  0.00     0.064 A 
ATOM     52  C   UNL A   1      40.112  34.641  36.696  1.00  0.00     0.173 A 
ATOM     53  C   UNL A   1      38.615  32.938  37.486  1.00  0.00     0.173 A 
ATOM     54  F   UNL A   1      40.990  35.106  35.795  1.00  0.00    -0.203 F 
ATOM     55  C   UNL A   1      39.817  35.415  37.816  1.00  0.00     0.198 A 
ATOM     56  C   UNL A   1      38.298  33.726  38.590  1.00  0.00     0.198 A 
ATOM     57  F   UNL A   1      38.010  31.749  37.346  1.00  0.00    -0.203 F 
ATOM     58  F   UNL A   1      40.418  36.601  37.985  1.00  0.00    -0.200 F 
ATOM     59  C   UNL A   1      38.904  34.962  38.756  1.00  0.00     0.200 A 
ATOM     60  F   UNL A   1      37.397  33.294  39.483  1.00  0.00    -0.200 F 
ATOM     61  F   UNL A   1      38.603  35.717  39.821  1.00  0.00    -0.200 F 
ENDBRANCH  27  51
BRANCH  39  62
ATOM     62  C   UNL A   1      43.994  28.284  34.824  1.00  0.00     0.064 A 
ATOM     63  C   UNL A   1      45.284  28.835  34.836  1.00  0.00     0.173 A 
ATOM     64  C   UNL A   1      43.766  27.129  35.589  1.00  0.00     0.173 A 
ATOM     65  F   UNL A   1      45.559  29.926  34.106  1.00  0.00    -0.203 F 
ATOM     66  C   UNL A   1      46.303  28.250  35.584  1.00  0.00     0.198 A 
ATOM     67  C   UNL A   1      44.779  26.567  36.359  1.00  0.00     0.198 A 
ATOM     68  F   UNL A   1      42.549  26.565  35.613  1.00  0.00    -0.203 F 
ATOM     69  F   UNL A   1      47.537  28.775  35.558  1.00  0.00    -0.200 F 
ATOM     70  C   UNL A   1      46.047  27.125  36.355  1.00  0.00     0.200 A 
ATOM     71  F   UNL A   1      44.524  25.490  37.115  1.00  0.00    -0.200 F 
ATOM     72  F   UNL A   1      47.024  26.579  37.091  1.00  0.00    -0.200 F 
ENDBRANCH  39  62
ENDBRANCH  13  14
ENDBRANCH   6   8
ENDBRANCH   3   4
ENDBRANCH   2   3
ENDBRANCH   1   2
BRANCH   1  73
ATOM     73  C   UNL A   1      32.830  29.989  25.831  1.00  0.00     0.116 C 
BRANCH  73  74
ATOM     74  N   UNL A   1      33.285  29.704  24.480  1.00  0.00    -0.352 N 
ATOM     75  C   UNL A   1      33.305  28.503  23.816  1.00  0.00     0.253 C 
ATOM     76  H   UNL A   1      33.624  30.477  23.973  1.00  0.00     0.163 HD
ATOM     77  O   UNL A   1      33.789  28.441  22.688  1.00  0.00    -0.269 OA
BRANCH  75  78
ATOM     78  C   UNL A   1      32.781  27.277  24.455  1.00  0.00     0.063 A 
ATOM     79  C   UNL A   1      33.591  26.704  25.448  1.00  0.00     0.016 A 
ATOM     80  C   UNL A   1      31.559  26.681  24.082  1.00  0.00     0.051 A 
ATOM     81  C   UNL A   1      33.170  25.562  26.123  1.00  0.00     0.001 A 
ATOM     82  C   UNL A   1      31.150  25.542  24.796  1.00  0.00     0.027 A 
ATOM     83  C   UNL A   1      31.944  24.988  25.804  1.00  0.00     0.002 A 
BRANCH  80  84
ATOM     84  N   UNL A   1      30.754  27.213  23.053  1.00  0.00    -0.355 N 
ATOM     85  H   UNL A   1      31.047  26.980  22.143  1.00  0.00     0.167 HD
BRANCH  84  86
ATOM     86  C   UNL A   1      29.605  28.021  23.105  1.00  0.00     0.039 A 
ATOM     87  C   UNL A   1      28.365  27.429  23.374  1.00  0.00     0.026 A 
ATOM     88  C   UNL A   1      29.659  29.414  22.958  1.00  0.00     0.039 A 
ATOM     89  C   UNL A   1      27.212  28.205  23.501  1.00  0.00     0.003 A 
ATOM     90  C   UNL A   1      28.507  30.209  23.072  1.00  0.00     0.058 A 
ATOM     91  C   UNL A   1      27.282  29.589  23.354  1.00  0.00     0.013 A 
BRANCH  90  92
ATOM     92  C   UNL A   1      28.580  31.707  22.922  1.00  0.00     0.416 C 
ATOM     93  F   UNL A   1      27.365  32.308  23.053  1.00  0.00    -0.166 F 
ATOM     94  F   UNL A   1      29.386  32.283  23.857  1.00  0.00    -0.166 F 
ATOM     95  F   UNL A   1      29.065  32.111  21.714  1.00  0.00    -0.166 F 
ENDBRANCH  90  92
ENDBRANCH  84  86
ENDBRANCH  80  84
ENDBRANCH  75  78
ENDBRANCH  73  74
ENDBRANCH   1  73
TORSDOF 14
ENDMDL
MODEL 2
REMARK VINA RESULT:     -12.8      0.290      1.652
REMARK SMILES O=C(NCCCCNC(=O)c1ccccc1Nc1cccc(C(F)(F)F)c1)c1ccc(-c2c3nc(c(-c4c(F)c(F)c(F)c(F)c4F)c4ccc([nH]4)c(-c4c(F)c(F)c(F)c(F)c4F)c4nc(c(-c5c(F)c(F)c(F)c(F)c5F)c5ccc2[nH]5)C=C4)C=C3)cc1
REMARK SMILES IDX 6 1 5 2 4 3 3 4 1 5 2 6 28 8 29 9 90 10 30 11 89 12 31 13
REMARK SMILES IDX 32 14 33 15 83 16 34 17 88 18 82 19 84 20 35 21 87 22 81 23
REMARK SMILES IDX 80 24 36 26 68 27 48 28 67 29 49 30 52 31 66 32 85 33 50 34
REMARK SMILES IDX 51 35 65 37 86 38 53 39 37 40 38 41 46 42 39 43 40 44 44 45
REMARK SMILES IDX 47 46 41 47 42 48 45 49 43 50 69 51 70 52 78 53 71 54 72 55
REMARK SMILES IDX 76 56 79 57 73 58 74 59 77 60 75 61 54 62 55 63 63 64 56 65
REMARK SMILES IDX 57 66 61 67 64 68 58 69 59 70 62 71 60 72 7 73 8 74 9 75
REMARK SMILES IDX 10 77 11 78 12 79 16 80 13 81 15 82 14 83 17 84 18 86 19 87
REMARK SMILES IDX 27 88 20 89 22 90 21 91 23 92 24 93 25 94 26 95
REMARK H PARENT 3 7 84 25 52 36 8 76 17 85
REMARK Flexibility Score: inf
ROOT
ATOM      1  C   UNL A   1      31.442  30.620  25.781  1.00  0.00     0.023 C 
ENDROOT
BRANCH   1   2
ATOM      2  C   UNL A   1      31.244  31.931  26.542  1.00  0.00     0.023 C 
BRANCH   2   3
ATOM      3  C   UNL A   1      32.513  32.551  27.114  1.00  0.00     0.116 C 
BRANCH   3   4
ATOM      4  N   UNL A   1      32.323  33.928  27.543  1.00  0.00    -0.352 N 
ATOM      5  O   UNL A   1      32.588  35.756  28.840  1.00  0.00    -0.269 OA
ATOM      6  C   UNL A   1      32.999  34.651  28.493  1.00  0.00     0.251 C 
ATOM      7  H   UNL A   1      31.600  34.414  27.084  1.00  0.00     0.163 HD
BRANCH   6   8
ATOM      8  C   UNL A   1      34.216  34.095  29.122  1.00  0.00     0.039 A 
ATOM      9  C   UNL A   1      35.487  34.485  28.693  1.00  0.00     0.014 A 
ATOM     10  C   UNL A   1      34.078  33.183  30.171  1.00  0.00     0.014 A 
ATOM     11  C   UNL A   1      36.617  33.863  29.216  1.00  0.00     0.010 A 
ATOM     12  C   UNL A   1      35.217  32.621  30.753  1.00  0.00     0.010 A 
ATOM     13  C   UNL A   1      36.494  32.936  30.260  1.00  0.00    -0.014 A 
BRANCH  13  14
ATOM     14  C   UNL A   1      37.706  32.341  30.878  1.00  0.00     0.031 A 
ATOM     15  C   UNL A   1      38.457  31.238  30.192  1.00  0.00     0.074 A 
ATOM     16  C   UNL A   1      38.102  32.779  32.087  1.00  0.00     0.049 A 
ATOM     17  N   UNL A   1      39.476  30.537  30.623  1.00  0.00    -0.248 NA
ATOM     18  C   UNL A   1      37.996  30.864  28.848  1.00  0.00     0.031 C 
ATOM     19  C   UNL A   1      37.447  33.841  32.851  1.00  0.00     0.029 A 
ATOM     20  N   UNL A   1      39.136  32.375  32.893  1.00  0.00    -0.354 N 
ATOM     21  C   UNL A   1      39.762  29.625  29.616  1.00  0.00     0.074 A 
ATOM     22  C   UNL A   1      38.792  29.843  28.565  1.00  0.00     0.031 C 
ATOM     23  C   UNL A   1      38.092  34.007  34.014  1.00  0.00     0.029 A 
ATOM     24  C   UNL A   1      39.162  33.019  34.105  1.00  0.00     0.049 A 
ATOM     25  H   UNL A   1      39.793  31.691  32.629  1.00  0.00     0.167 HD
ATOM     26  C   UNL A   1      40.747  28.694  29.579  1.00  0.00     0.037 A 
ATOM     27  C   UNL A   1      39.932  32.810  35.190  1.00  0.00     0.037 A 
ATOM     28  C   UNL A   1      41.705  28.489  30.636  1.00  0.00     0.049 A 
ATOM     29  C   UNL A   1      40.986  31.744  35.147  1.00  0.00     0.074 A 
ATOM     30  C   UNL A   1      42.772  27.609  30.675  1.00  0.00     0.029 A 
ATOM     31  N   UNL A   1      41.700  29.162  31.850  1.00  0.00    -0.354 N 
ATOM     32  N   UNL A   1      41.281  30.917  34.173  1.00  0.00    -0.248 NA
ATOM     33  C   UNL A   1      41.816  31.580  36.348  1.00  0.00     0.031 C 
ATOM     34  C   UNL A   1      43.368  27.698  31.937  1.00  0.00     0.029 A 
ATOM     35  C   UNL A   1      42.722  28.688  32.660  1.00  0.00     0.049 A 
ATOM     36  H   UNL A   1      41.064  29.872  32.101  1.00  0.00     0.167 HD
ATOM     37  C   UNL A   1      42.346  30.152  34.630  1.00  0.00     0.074 A 
ATOM     38  C   UNL A   1      42.646  30.616  35.970  1.00  0.00     0.031 C 
ATOM     39  C   UNL A   1      43.015  29.163  33.991  1.00  0.00     0.037 A 
BRANCH  26  40
ATOM     40  C   UNL A   1      40.808  27.796  28.374  1.00  0.00     0.064 A 
ATOM     41  C   UNL A   1      40.139  26.564  28.328  1.00  0.00     0.173 A 
ATOM     42  C   UNL A   1      41.541  28.182  27.240  1.00  0.00     0.173 A 
ATOM     43  F   UNL A   1      39.426  26.141  29.383  1.00  0.00    -0.203 F 
ATOM     44  C   UNL A   1      40.242  25.731  27.214  1.00  0.00     0.198 A 
ATOM     45  C   UNL A   1      41.612  27.364  26.115  1.00  0.00     0.198 A 
ATOM     46  F   UNL A   1      42.192  29.355  27.222  1.00  0.00    -0.203 F 
ATOM     47  F   UNL A   1      39.649  24.529  27.222  1.00  0.00    -0.200 F 
ATOM     48  C   UNL A   1      40.974  26.134  26.108  1.00  0.00     0.200 A 
ATOM     49  F   UNL A   1      42.306  27.765  25.040  1.00  0.00    -0.200 F 
ATOM     50  F   UNL A   1      41.074  25.332  25.040  1.00  0.00    -0.200 F 
ENDBRANCH  26  40
BRANCH  27  51
ATOM     51  C   UNL A   1      39.697  33.630  36.406  1.00  0.00     0.064 A 
ATOM     52  C   UNL A   1      40.268  34.901  36.544  1.00  0.00     0.173 A 
ATOM     53  C   UNL A   1      38.841  33.181  37.425  1.00  0.00     0.173 A 
ATOM     54  F   UNL A   1      41.102  35.366  35.603  1.00  0.00    -0.203 F 
ATOM     55  C   UNL A   1      39.994  35.693  37.658  1.00  0.00     0.198 A 
ATOM     56  C   UNL A   1      38.545  33.986  38.522  1.00  0.00     0.198 A 
ATOM     57  F   UNL A   1      38.261  31.976  37.333  1.00  0.00    -0.203 F 
ATOM     58  F   UNL A   1      40.571  36.896  37.779  1.00  0.00    -0.200 F 
ATOM     59  C   UNL A   1      39.125  35.240  38.639  1.00  0.00     0.200 A 
ATOM     60  F   UNL A   1      37.686  33.554  39.455  1.00  0.00    -0.200 F 
ATOM     61  F   UNL A   1      38.844  36.012  39.698  1.00  0.00    -0.200 F 
ENDBRANCH  27  51
BRANCH  39  62
ATOM     62  C   UNL A   1      44.174  28.531  34.706  1.00  0.00     0.064 A 
ATOM     63  C   UNL A   1      44.031  27.355  35.456  1.00  0.00     0.173 A 
ATOM     64  C   UNL A   1      45.463  29.072  34.571  1.00  0.00     0.173 A 
ATOM     65  F   UNL A   1      42.819  26.809  35.631  1.00  0.00    -0.203 F 
ATOM     66  C   UNL A   1      45.136  26.746  36.047  1.00  0.00     0.198 A 
ATOM     67  C   UNL A   1      46.568  28.443  35.137  1.00  0.00     0.198 A 
ATOM     68  F   UNL A   1      45.653  30.195  33.862  1.00  0.00    -0.203 F 
ATOM     69  F   UNL A   1      44.973  25.639  36.785  1.00  0.00    -0.200 F 
ATOM     70  C   UNL A   1      46.404  27.283  35.877  1.00  0.00     0.200 A 
ATOM     71  F   UNL A   1      47.793  28.956  34.957  1.00  0.00    -0.200 F 
ATOM     72  F   UNL A   1      47.467  26.682  36.427  1.00  0.00    -0.200 F 
ENDBRANCH  39  62
ENDBRANCH  13  14
ENDBRANCH   6   8
ENDBRANCH   3   4
ENDBRANCH   2   3
ENDBRANCH   1   2
BRANCH   1  73
ATOM     73  C   UNL A   1      32.831  30.000  25.898  1.00  0.00     0.116 C 
BRANCH  73  74
ATOM     74  N   UNL A   1      33.458  29.768  24.608  1.00  0.00    -0.352 N 
ATOM     75  C   UNL A   1      33.591  28.589  23.917  1.00  0.00     0.253 C 
ATOM     76  H   UNL A   1      33.837  30.564  24.169  1.00  0.00     0.163 HD
ATOM     77  O   UNL A   1      34.213  28.574  22.858  1.00  0.00    -0.269 OA
BRANCH  75  78
ATOM     78  C   UNL A   1      33.023  27.332  24.450  1.00  0.00     0.063 A 
ATOM     79  C   UNL A   1      33.784  26.681  25.434  1.00  0.00     0.016 A 
ATOM     80  C   UNL A   1      31.809  26.784  23.990  1.00  0.00     0.051 A 
ATOM     81  C   UNL A   1      33.318  25.503  26.013  1.00  0.00     0.001 A 
ATOM     82  C   UNL A   1      31.354  25.608  24.608  1.00  0.00     0.027 A 
ATOM     83  C   UNL A   1      32.099  24.973  25.607  1.00  0.00     0.002 A 
BRANCH  80  84
ATOM     84  N   UNL A   1      31.055  27.398  22.967  1.00  0.00    -0.355 N 
ATOM     85  H   UNL A   1      31.424  27.283  22.063  1.00  0.00     0.167 HD
BRANCH  84  86
ATOM     86  C   UNL A   1      29.867  28.146  23.021  1.00  0.00     0.039 A 
ATOM     87  C   UNL A   1      28.654  27.487  23.255  1.00  0.00     0.026 A 
ATOM     88  C   UNL A   1      29.853  29.543  22.907  1.00  0.00     0.039 A 
ATOM     89  C   UNL A   1      27.461  28.202  23.382  1.00  0.00     0.003 A 
ATOM     90  C   UNL A   1      28.661  30.277  23.022  1.00  0.00     0.058 A 
ATOM     91  C   UNL A   1      27.465  29.590  23.270  1.00  0.00     0.013 A 
BRANCH  90  92
ATOM     92  C   UNL A   1      28.661  31.781  22.909  1.00  0.00     0.416 C 
ATOM     93  F   UNL A   1      29.266  32.386  23.969  1.00  0.00    -0.166 F 
ATOM     94  F   UNL A   1      29.322  32.217  21.801  1.00  0.00    -0.166 F 
ATOM     95  F   UNL A   1      27.413  32.321  22.835  1.00  0.00    -0.166 F 
ENDBRANCH  90  92
ENDBRANCH  84  86
ENDBRANCH  80  84
ENDBRANCH  75  78
ENDBRANCH  73  74
ENDBRANCH   1  73
TORSDOF 14
ENDMDL
MODEL 3
REMARK VINA RESULT:     -12.6      6.132     11.493
REMARK SMILES O=C(NCCCCNC(=O)c1ccccc1Nc1cccc(C(F)(F)F)c1)c1ccc(-c2c3nc(c(-c4c(F)c(F)c(F)c(F)c4F)c4ccc([nH]4)c(-c4c(F)c(F)c(F)c(F)c4F)c4nc(c(-c5c(F)c(F)c(F)c(F)c5F)c5ccc2[nH]5)C=C4)C=C3)cc1
REMARK SMILES IDX 6 1 5 2 4 3 3 4 1 5 2 6 28 8 29 9 90 10 30 11 89 12 31 13
REMARK SMILES IDX 32 14 33 15 83 16 34 17 88 18 82 19 84 20 35 21 87 22 81 23
REMARK SMILES IDX 80 24 36 26 68 27 48 28 67 29 49 30 52 31 66 32 85 33 50 34
REMARK SMILES IDX 51 35 65 37 86 38 53 39 37 40 38 41 46 42 39 43 40 44 44 45
REMARK SMILES IDX 47 46 41 47 42 48 45 49 43 50 69 51 70 52 78 53 71 54 72 55
REMARK SMILES IDX 76 56 79 57 73 58 74 59 77 60 75 61 54 62 55 63 63 64 56 65
REMARK SMILES IDX 57 66 61 67 64 68 58 69 59 70 62 71 60 72 7 73 8 74 9 75
REMARK SMILES IDX 10 77 11 78 12 79 16 80 13 81 15 82 14 83 17 84 18 86 19 87
REMARK SMILES IDX 27 88 20 89 22 90 21 91 23 92 24 93 25 94 26 95
REMARK H PARENT 3 7 84 25 52 36 8 76 17 85
REMARK Flexibility Score: inf
ROOT
ATOM      1  C   UNL A   1      36.503  20.399  25.004  1.00  0.00     0.023 C 
ENDROOT
BRANCH   1   2
ATOM      2  C   UNL A   1      37.842  19.693  24.787  1.00  0.00     0.023 C 
BRANCH   2   3
ATOM      3  C   UNL A   1      38.972  20.139  25.707  1.00  0.00     0.116 C 
BRANCH   3   4
ATOM      4  N   UNL A   1      40.029  19.147  25.823  1.00  0.00    -0.352 N 
ATOM      5  O   UNL A   1      42.142  18.369  25.966  1.00  0.00    -0.269 OA
ATOM      6  C   UNL A   1      41.368  19.317  26.069  1.00  0.00     0.251 C 
ATOM      7  H   UNL A   1      39.741  18.212  25.707  1.00  0.00     0.163 HD
BRANCH   6   8
ATOM      8  C   UNL A   1      41.891  20.650  26.438  1.00  0.00     0.039 A 
ATOM      9  C   UNL A   1      42.216  20.951  27.763  1.00  0.00     0.014 A 
ATOM     10  C   UNL A   1      42.076  21.605  25.435  1.00  0.00     0.014 A 
ATOM     11  C   UNL A   1      42.593  22.245  28.108  1.00  0.00     0.010 A 
ATOM     12  C   UNL A   1      42.535  22.880  25.771  1.00  0.00     0.010 A 
ATOM     13  C   UNL A   1      42.770  23.218  27.114  1.00  0.00    -0.014 A 
BRANCH  13  14
ATOM     14  C   UNL A   1      43.260  24.573  27.473  1.00  0.00     0.031 A 
ATOM     15  C   UNL A   1      42.325  25.607  28.029  1.00  0.00     0.074 A 
ATOM     16  C   UNL A   1      44.553  24.876  27.256  1.00  0.00     0.049 A 
ATOM     17  N   UNL A   1      42.555  26.865  28.310  1.00  0.00    -0.248 NA
ATOM     18  C   UNL A   1      40.947  25.174  28.294  1.00  0.00     0.031 C 
ATOM     19  C   UNL A   1      45.552  23.954  26.715  1.00  0.00     0.029 A 
ATOM     20  N   UNL A   1      45.244  26.046  27.445  1.00  0.00    -0.354 N 
ATOM     21  C   UNL A   1      41.347  27.380  28.760  1.00  0.00     0.074 A 
ATOM     22  C   UNL A   1      40.381  26.305  28.689  1.00  0.00     0.031 C 
ATOM     23  C   UNL A   1      46.727  24.591  26.616  1.00  0.00     0.029 A 
ATOM     24  C   UNL A   1      46.547  25.981  27.021  1.00  0.00     0.049 A 
ATOM     25  H   UNL A   1      44.844  26.853  27.844  1.00  0.00     0.167 HD
ATOM     26  C   UNL A   1      41.077  28.637  29.193  1.00  0.00     0.037 A 
ATOM     27  C   UNL A   1      47.486  26.942  26.925  1.00  0.00     0.037 A 
ATOM     28  C   UNL A   1      42.051  29.697  29.256  1.00  0.00     0.049 A 
ATOM     29  C   UNL A   1      47.154  28.337  27.365  1.00  0.00     0.074 A 
ATOM     30  C   UNL A   1      41.892  30.988  29.726  1.00  0.00     0.029 A 
ATOM     31  N   UNL A   1      43.364  29.592  28.817  1.00  0.00    -0.354 N 
ATOM     32  N   UNL A   1      46.023  28.805  27.835  1.00  0.00    -0.248 NA
ATOM     33  C   UNL A   1      48.224  29.338  27.266  1.00  0.00     0.031 C 
ATOM     34  C   UNL A   1      43.084  31.684  29.506  1.00  0.00     0.029 A 
ATOM     35  C   UNL A   1      44.014  30.807  28.969  1.00  0.00     0.049 A 
ATOM     36  H   UNL A   1      43.774  28.774  28.451  1.00  0.00     0.167 HD
ATOM     37  C   UNL A   1      46.249  30.146  28.112  1.00  0.00     0.074 A 
ATOM     38  C   UNL A   1      47.629  30.416  27.760  1.00  0.00     0.031 C 
ATOM     39  C   UNL A   1      45.391  31.063  28.620  1.00  0.00     0.037 A 
BRANCH  26  40
ATOM     40  C   UNL A   1      39.658  28.944  29.589  1.00  0.00     0.064 A 
ATOM     41  C   UNL A   1      39.193  28.756  30.899  1.00  0.00     0.173 A 
ATOM     42  C   UNL A   1      38.752  29.446  28.640  1.00  0.00     0.173 A 
ATOM     43  F   UNL A   1      40.013  28.275  31.846  1.00  0.00    -0.203 F 
ATOM     44  C   UNL A   1      37.863  29.011  31.232  1.00  0.00     0.198 A 
ATOM     45  C   UNL A   1      37.434  29.735  28.986  1.00  0.00     0.198 A 
ATOM     46  F   UNL A   1      39.144  29.658  27.375  1.00  0.00    -0.203 F 
ATOM     47  F   UNL A   1      37.426  28.758  32.473  1.00  0.00    -0.200 F 
ATOM     48  C   UNL A   1      36.987  29.504  30.277  1.00  0.00     0.200 A 
ATOM     49  F   UNL A   1      36.595  30.228  28.065  1.00  0.00    -0.200 F 
ATOM     50  F   UNL A   1      35.709  29.745  30.599  1.00  0.00    -0.200 F 
ENDBRANCH  26  40
BRANCH  27  51
ATOM     51  C   UNL A   1      48.817  26.594  26.364  1.00  0.00     0.064 A 
ATOM     52  C   UNL A   1      49.127  26.849  25.024  1.00  0.00     0.173 A 
ATOM     53  C   UNL A   1      49.826  26.058  27.180  1.00  0.00     0.173 A 
ATOM     54  F   UNL A   1      48.190  27.348  24.203  1.00  0.00    -0.203 F 
ATOM     55  C   UNL A   1      50.397  26.580  24.517  1.00  0.00     0.198 A 
ATOM     56  C   UNL A   1      51.103  25.818  26.681  1.00  0.00     0.198 A 
ATOM     57  F   UNL A   1      49.581  25.806  28.474  1.00  0.00    -0.203 F 
ATOM     58  F   UNL A   1      50.662  26.811  23.224  1.00  0.00    -0.200 F 
ATOM     59  C   UNL A   1      51.386  26.075  25.348  1.00  0.00     0.200 A 
ATOM     60  F   UNL A   1      52.062  25.353  27.493  1.00  0.00    -0.200 F 
ATOM     61  F   UNL A   1      52.614  25.839  24.866  1.00  0.00    -0.200 F 
ENDBRANCH  27  51
BRANCH  39  62
ATOM     62  C   UNL A   1      45.919  32.446  28.873  1.00  0.00     0.064 A 
ATOM     63  C   UNL A   1      45.802  33.469  27.922  1.00  0.00     0.173 A 
ATOM     64  C   UNL A   1      46.479  32.767  30.120  1.00  0.00     0.173 A 
ATOM     65  F   UNL A   1      45.291  33.210  26.709  1.00  0.00    -0.203 F 
ATOM     66  C   UNL A   1      46.231  34.763  28.209  1.00  0.00     0.198 A 
ATOM     67  C   UNL A   1      46.878  34.068  30.413  1.00  0.00     0.198 A 
ATOM     68  F   UNL A   1      46.611  31.824  31.064  1.00  0.00    -0.203 F 
ATOM     69  F   UNL A   1      46.138  35.721  27.275  1.00  0.00    -0.200 F 
ATOM     70  C   UNL A   1      46.756  35.064  29.457  1.00  0.00     0.200 A 
ATOM     71  F   UNL A   1      47.370  34.358  31.625  1.00  0.00    -0.200 F 
ATOM     72  F   UNL A   1      47.146  36.315  29.738  1.00  0.00    -0.200 F 
ENDBRANCH  39  62
ENDBRANCH  13  14
ENDBRANCH   6   8
ENDBRANCH   3   4
ENDBRANCH   2   3
ENDBRANCH   1   2
BRANCH   1  73
ATOM     73  C   UNL A   1      36.580  21.728  25.749  1.00  0.00     0.116 C 
BRANCH  73  74
ATOM     74  N   UNL A   1      35.581  21.847  26.798  1.00  0.00    -0.352 N 
ATOM     75  C   UNL A   1      34.393  22.535  26.779  1.00  0.00     0.253 C 
ATOM     76  H   UNL A   1      35.783  21.369  27.635  1.00  0.00     0.163 HD
ATOM     77  O   UNL A   1      33.699  22.575  27.791  1.00  0.00    -0.269 OA
BRANCH  75  78
ATOM     78  C   UNL A   1      33.957  23.256  25.563  1.00  0.00     0.063 A 
ATOM     79  C   UNL A   1      34.540  24.515  25.350  1.00  0.00     0.016 A 
ATOM     80  C   UNL A   1      32.989  22.744  24.675  1.00  0.00     0.051 A 
ATOM     81  C   UNL A   1      34.210  25.257  24.219  1.00  0.00     0.001 A 
ATOM     82  C   UNL A   1      32.692  23.505  23.532  1.00  0.00     0.027 A 
ATOM     83  C   UNL A   1      33.294  24.747  23.306  1.00  0.00     0.002 A 
BRANCH  80  84
ATOM     84  N   UNL A   1      32.355  21.504  24.898  1.00  0.00    -0.355 N 
ATOM     85  H   UNL A   1      31.703  21.505  25.635  1.00  0.00     0.167 HD
BRANCH  84  86
ATOM     86  C   UNL A   1      32.496  20.266  24.248  1.00  0.00     0.039 A 
ATOM     87  C   UNL A   1      32.102  20.148  22.910  1.00  0.00     0.026 A 
ATOM     88  C   UNL A   1      33.075  19.152  24.871  1.00  0.00     0.039 A 
ATOM     89  C   UNL A   1      32.289  18.955  22.209  1.00  0.00     0.003 A 
ATOM     90  C   UNL A   1      33.261  17.941  24.185  1.00  0.00     0.058 A 
ATOM     91  C   UNL A   1      32.868  17.858  22.842  1.00  0.00     0.013 A 
BRANCH  90  92
ATOM     92  C   UNL A   1      33.895  16.753  24.863  1.00  0.00     0.416 C 
ATOM     93  F   UNL A   1      33.445  16.574  26.136  1.00  0.00    -0.166 F 
ATOM     94  F   UNL A   1      33.642  15.586  24.209  1.00  0.00    -0.166 F 
ATOM     95  F   UNL A   1      35.252  16.841  24.958  1.00  0.00    -0.166 F 
ENDBRANCH  90  92
ENDBRANCH  84  86
ENDBRANCH  80  84
ENDBRANCH  75  78
ENDBRANCH  73  74
ENDBRANCH   1  73
TORSDOF 14
ENDMDL
