MODEL 1
REMARK VINA RESULT:     -12.6      0.000      0.000
REMARK SMILES O=C(NCCCCNC(=O)c1cc(S(=O)(=O)N2CCCCC2)c(Cl)cc1Cl)c1ccc(-c2c3nc(c(-c4c(F)c(F)c(F)c(F)c4F)c4ccc([nH]4)c(-c4c(F)c(F)c(F)c(F)c4F)c4nc(c(-c5c(F)c(F)c(F)c(F)c5F)c5ccc2[nH]5)C=C4)C=C3)cc1
REMARK SMILES IDX 5 1 4 2 3 3 1 4 2 5 28 7 29 8 90 9 30 10 89 11 31 12 32 13
REMARK SMILES IDX 33 14 83 15 34 16 88 17 82 18 84 19 35 20 87 21 81 22 80 23
REMARK SMILES IDX 36 25 68 26 48 27 67 28 49 29 52 30 66 31 85 32 50 33 51 34
REMARK SMILES IDX 65 36 86 37 53 38 37 39 38 40 46 41 39 42 40 43 44 44 47 45
REMARK SMILES IDX 41 46 42 47 45 48 43 49 69 50 70 51 78 52 71 53 72 54 76 55
REMARK SMILES IDX 79 56 73 57 74 58 77 59 75 60 54 61 55 62 63 63 56 64 57 65
REMARK SMILES IDX 61 66 64 67 58 68 59 69 62 70 60 71 6 72 7 73 8 74 9 75
REMARK SMILES IDX 10 77 11 78 12 79 26 80 13 81 25 82 27 83 23 84 24 85 14 86
REMARK SMILES IDX 15 87 16 88 17 89 18 90 22 91 19 92 21 93 20 94
REMARK H PARENT 3 6 84 24 52 35 8 76
REMARK Flexibility Score: inf
ROOT
ATOM      1  C   UNL A   1      37.800  20.152  25.019  1.00  0.00     0.023 C 
ENDROOT
BRANCH   1   2
ATOM      2  C   UNL A   1      39.064  20.442  25.816  1.00  0.00     0.116 C 
BRANCH   2   3
ATOM      3  N   UNL A   1      40.036  19.361  25.791  1.00  0.00    -0.352 N 
ATOM      4  O   UNL A   1      42.078  18.399  25.909  1.00  0.00    -0.269 OA
ATOM      5  C   UNL A   1      41.385  19.399  26.062  1.00  0.00     0.251 C 
ATOM      6  H   UNL A   1      39.679  18.476  25.546  1.00  0.00     0.163 HD
BRANCH   5   7
ATOM      7  C   UNL A   1      42.009  20.670  26.491  1.00  0.00     0.039 A 
ATOM      8  C   UNL A   1      42.181  20.965  27.845  1.00  0.00     0.014 A 
ATOM      9  C   UNL A   1      42.392  21.597  25.518  1.00  0.00     0.014 A 
ATOM     10  C   UNL A   1      42.568  22.244  28.227  1.00  0.00     0.010 A 
ATOM     11  C   UNL A   1      42.862  22.855  25.903  1.00  0.00     0.010 A 
ATOM     12  C   UNL A   1      42.904  23.207  27.260  1.00  0.00    -0.014 A 
BRANCH  12  13
ATOM     13  C   UNL A   1      43.300  24.568  27.703  1.00  0.00     0.031 A 
ATOM     14  C   UNL A   1      44.738  25.007  27.672  1.00  0.00     0.074 A 
ATOM     15  C   UNL A   1      42.340  25.433  28.081  1.00  0.00     0.049 A 
ATOM     16  N   UNL A   1      45.250  26.180  27.958  1.00  0.00    -0.248 NA
ATOM     17  C   UNL A   1      45.737  24.001  27.280  1.00  0.00     0.031 C 
ATOM     18  C   UNL A   1      40.913  25.120  28.164  1.00  0.00     0.029 A 
ATOM     19  N   UNL A   1      42.413  26.757  28.432  1.00  0.00    -0.354 N 
ATOM     20  C   UNL A   1      46.624  26.044  27.811  1.00  0.00     0.074 A 
ATOM     21  C   UNL A   1      46.872  24.673  27.423  1.00  0.00     0.031 C 
ATOM     22  C   UNL A   1      40.238  26.235  28.480  1.00  0.00     0.029 A 
ATOM     23  C   UNL A   1      41.186  27.327  28.665  1.00  0.00     0.049 A 
ATOM     24  H   UNL A   1      43.262  27.250  28.510  1.00  0.00     0.167 HD
ATOM     25  C   UNL A   1      47.587  26.981  27.977  1.00  0.00     0.037 A 
ATOM     26  C   UNL A   1      40.861  28.592  28.987  1.00  0.00     0.037 A 
ATOM     27  C   UNL A   1      47.337  28.358  28.320  1.00  0.00     0.049 A 
ATOM     28  C   UNL A   1      41.947  29.616  29.137  1.00  0.00     0.074 A 
ATOM     29  C   UNL A   1      48.247  29.393  28.458  1.00  0.00     0.029 A 
ATOM     30  N   UNL A   1      46.083  28.891  28.573  1.00  0.00    -0.354 N 
ATOM     31  N   UNL A   1      43.239  29.481  28.965  1.00  0.00    -0.248 NA
ATOM     32  C   UNL A   1      41.530  30.968  29.533  1.00  0.00     0.031 C 
ATOM     33  C   UNL A   1      47.545  30.547  28.824  1.00  0.00     0.029 A 
ATOM     34  C   UNL A   1      46.196  30.238  28.883  1.00  0.00     0.049 A 
ATOM     35  H   UNL A   1      45.238  28.389  28.539  1.00  0.00     0.167 HD
ATOM     36  C   UNL A   1      43.788  30.727  29.222  1.00  0.00     0.074 A 
ATOM     37  C   UNL A   1      42.688  31.613  29.541  1.00  0.00     0.031 C 
ATOM     38  C   UNL A   1      45.090  31.103  29.200  1.00  0.00     0.037 A 
BRANCH  25  39
ATOM     39  C   UNL A   1      49.013  26.551  27.804  1.00  0.00     0.064 A 
ATOM     40  C   UNL A   1      49.599  26.434  26.535  1.00  0.00     0.173 A 
ATOM     41  C   UNL A   1      49.817  26.298  28.926  1.00  0.00     0.173 A 
ATOM     42  F   UNL A   1      48.869  26.653  25.431  1.00  0.00    -0.203 F 
ATOM     43  C   UNL A   1      50.934  26.063  26.396  1.00  0.00     0.198 A 
ATOM     44  C   UNL A   1      51.157  25.948  28.783  1.00  0.00     0.198 A 
ATOM     45  F   UNL A   1      49.305  26.402  30.161  1.00  0.00    -0.203 F 
ATOM     46  F   UNL A   1      51.466  25.925  25.173  1.00  0.00    -0.200 F 
ATOM     47  C   UNL A   1      51.713  25.827  27.520  1.00  0.00     0.200 A 
ATOM     48  F   UNL A   1      51.911  25.728  29.870  1.00  0.00    -0.200 F 
ATOM     49  F   UNL A   1      53.000  25.476  27.383  1.00  0.00    -0.200 F 
ENDBRANCH  25  39
BRANCH  26  50
ATOM     50  C   UNL A   1      39.434  28.960  29.156  1.00  0.00     0.064 A 
ATOM     51  C   UNL A   1      38.819  28.881  30.412  1.00  0.00     0.173 A 
ATOM     52  C   UNL A   1      38.668  29.422  28.076  1.00  0.00     0.173 A 
ATOM     53  F   UNL A   1      39.509  28.427  31.469  1.00  0.00    -0.203 F 
ATOM     54  C   UNL A   1      37.485  29.246  30.580  1.00  0.00     0.198 A 
ATOM     55  C   UNL A   1      37.342  29.809  28.251  1.00  0.00     0.198 A 
ATOM     56  F   UNL A   1      39.218  29.518  26.857  1.00  0.00    -0.203 F 
ATOM     57  F   UNL A   1      36.911  29.136  31.786  1.00  0.00    -0.200 F 
ATOM     58  C   UNL A   1      36.751  29.717  29.502  1.00  0.00     0.200 A 
ATOM     59  F   UNL A   1      36.640  30.275  27.210  1.00  0.00    -0.200 F 
ATOM     60  F   UNL A   1      35.470  30.078  29.668  1.00  0.00    -0.200 F 
ENDBRANCH  26  50
BRANCH  38  61
ATOM     61  C   UNL A   1      45.388  32.536  29.518  1.00  0.00     0.064 A 
ATOM     62  C   UNL A   1      45.677  32.947  30.827  1.00  0.00     0.173 A 
ATOM     63  C   UNL A   1      45.400  33.503  28.504  1.00  0.00     0.173 A 
ATOM     64  F   UNL A   1      45.660  32.058  31.833  1.00  0.00    -0.203 F 
ATOM     65  C   UNL A   1      45.948  34.281  31.112  1.00  0.00     0.198 A 
ATOM     66  C   UNL A   1      45.692  34.834  28.789  1.00  0.00     0.198 A 
ATOM     67  F   UNL A   1      45.132  33.158  27.235  1.00  0.00    -0.203 F 
ATOM     68  F   UNL A   1      46.182  34.661  32.376  1.00  0.00    -0.200 F 
ATOM     69  C   UNL A   1      45.960  35.222  30.094  1.00  0.00     0.200 A 
ATOM     70  F   UNL A   1      45.708  35.742  27.803  1.00  0.00    -0.200 F 
ATOM     71  F   UNL A   1      46.219  36.508  30.371  1.00  0.00    -0.200 F 
ENDBRANCH  38  61
ENDBRANCH  12  13
ENDBRANCH   5   7
ENDBRANCH   2   3
ENDBRANCH   1   2
BRANCH   1  72
ATOM     72  C   UNL A   1      37.155  21.354  24.337  1.00  0.00     0.023 C 
BRANCH  72  73
ATOM     73  C   UNL A   1      36.693  22.465  25.273  1.00  0.00     0.116 C 
BRANCH  73  74
ATOM     74  N   UNL A   1      36.019  21.967  26.466  1.00  0.00    -0.352 N 
ATOM     75  C   UNL A   1      34.681  21.943  26.775  1.00  0.00     0.252 C 
ATOM     76  H   UNL A   1      36.613  21.591  27.154  1.00  0.00     0.163 HD
ATOM     77  O   UNL A   1      34.288  21.471  27.833  1.00  0.00    -0.269 OA
BRANCH  75  78
ATOM     78  C   UNL A   1      33.719  22.471  25.796  1.00  0.00     0.059 A 
ATOM     79  C   UNL A   1      33.318  23.806  25.915  1.00  0.00     0.038 A 
ATOM     80  C   UNL A   1      33.158  21.669  24.812  1.00  0.00     0.055 A 
ATOM     81  C   UNL A   1      32.260  24.333  25.144  1.00  0.00     0.102 A 
ATOM     82  C   UNL A   1      32.165  22.206  23.991  1.00  0.00     0.043 A 
ATOM     83  Cl  UNL A   1      33.576  20.011  24.599  1.00  0.00    -0.083 Cl
ATOM     84  C   UNL A   1      31.693  23.525  24.161  1.00  0.00     0.062 A 
ATOM     85  Cl  UNL A   1      30.427  23.937  23.078  1.00  0.00    -0.083 Cl
BRANCH  81  86
ATOM     86  S   UNL A   1      31.783  25.952  25.714  1.00  0.00     0.244 S 
ATOM     87  O   UNL A   1      30.583  25.709  26.494  1.00  0.00    -0.207 OA
ATOM     88  O   UNL A   1      32.971  26.485  26.350  1.00  0.00    -0.207 OA
BRANCH  86  89
ATOM     89  N   UNL A   1      31.356  27.001  24.468  1.00  0.00    -0.198 NA
ATOM     90  C   UNL A   1      29.915  27.149  24.181  1.00  0.00     0.102 C 
ATOM     91  C   UNL A   1      32.330  28.045  24.086  1.00  0.00     0.102 C 
ATOM     92  C   UNL A   1      29.616  27.990  22.950  1.00  0.00     0.017 C 
ATOM     93  C   UNL A   1      31.927  28.833  22.849  1.00  0.00     0.017 C 
ATOM     94  C   UNL A   1      30.468  29.244  22.888  1.00  0.00     0.003 C 
ENDBRANCH  86  89
ENDBRANCH  81  86
ENDBRANCH  75  78
ENDBRANCH  73  74
ENDBRANCH  72  73
ENDBRANCH   1  72
TORSDOF 13
ENDMDL
MODEL 2
REMARK VINA RESULT:     -12.6      4.562      9.855
REMARK SMILES O=C(NCCCCNC(=O)c1cc(S(=O)(=O)N2CCCCC2)c(Cl)cc1Cl)c1ccc(-c2c3nc(c(-c4c(F)c(F)c(F)c(F)c4F)c4ccc([nH]4)c(-c4c(F)c(F)c(F)c(F)c4F)c4nc(c(-c5c(F)c(F)c(F)c(F)c5F)c5ccc2[nH]5)C=C4)C=C3)cc1
REMARK SMILES IDX 5 1 4 2 3 3 1 4 2 5 28 7 29 8 90 9 30 10 89 11 31 12 32 13
REMARK SMILES IDX 33 14 83 15 34 16 88 17 82 18 84 19 35 20 87 21 81 22 80 23
REMARK SMILES IDX 36 25 68 26 48 27 67 28 49 29 52 30 66 31 85 32 50 33 51 34
REMARK SMILES IDX 65 36 86 37 53 38 37 39 38 40 46 41 39 42 40 43 44 44 47 45
REMARK SMILES IDX 41 46 42 47 45 48 43 49 69 50 70 51 78 52 71 53 72 54 76 55
REMARK SMILES IDX 79 56 73 57 74 58 77 59 75 60 54 61 55 62 63 63 56 64 57 65
REMARK SMILES IDX 61 66 64 67 58 68 59 69 62 70 60 71 6 72 7 73 8 74 9 75
REMARK SMILES IDX 10 77 11 78 12 79 26 80 13 81 25 82 27 83 23 84 24 85 14 86
REMARK SMILES IDX 15 87 16 88 17 89 18 90 22 91 19 92 21 93 20 94
REMARK H PARENT 3 6 84 24 52 35 8 76
REMARK Flexibility Score: inf
ROOT
ATOM      1  C   UNL A   1      31.940  28.606  26.006  1.00  0.00     0.023 C 
ENDROOT
BRANCH   1   2
ATOM      2  C   UNL A   1      32.982  29.693  25.785  1.00  0.00     0.116 C 
BRANCH   2   3
ATOM      3  N   UNL A   1      32.603  30.990  26.324  1.00  0.00    -0.352 N 
ATOM      4  O   UNL A   1      32.759  32.816  27.645  1.00  0.00    -0.269 OA
ATOM      5  C   UNL A   1      33.269  31.780  27.232  1.00  0.00     0.251 C 
ATOM      6  H   UNL A   1      31.749  31.352  25.993  1.00  0.00     0.163 HD
BRANCH   5   7
ATOM      7  C   UNL A   1      34.586  31.350  27.750  1.00  0.00     0.039 A 
ATOM      8  C   UNL A   1      34.807  30.027  28.138  1.00  0.00     0.014 A 
ATOM      9  C   UNL A   1      35.602  32.300  27.885  1.00  0.00     0.014 A 
ATOM     10  C   UNL A   1      35.974  29.695  28.817  1.00  0.00     0.010 A 
ATOM     11  C   UNL A   1      36.809  31.945  28.493  1.00  0.00     0.010 A 
ATOM     12  C   UNL A   1      36.985  30.653  29.011  1.00  0.00    -0.014 A 
BRANCH  12  13
ATOM     13  C   UNL A   1      38.212  30.268  29.753  1.00  0.00     0.031 A 
ATOM     14  C   UNL A   1      38.421  30.693  31.181  1.00  0.00     0.074 A 
ATOM     15  C   UNL A   1      39.118  29.480  29.146  1.00  0.00     0.049 A 
ATOM     16  N   UNL A   1      39.401  30.389  31.997  1.00  0.00    -0.248 NA
ATOM     17  C   UNL A   1      37.407  31.581  31.771  1.00  0.00     0.031 C 
ATOM     18  C   UNL A   1      39.033  29.014  27.761  1.00  0.00     0.029 A 
ATOM     19  N   UNL A   1      40.268  28.903  29.622  1.00  0.00    -0.354 N 
ATOM     20  C   UNL A   1      39.138  31.069  33.179  1.00  0.00     0.074 A 
ATOM     21  C   UNL A   1      37.915  31.814  32.974  1.00  0.00     0.031 C 
ATOM     22  C   UNL A   1      40.049  28.173  27.518  1.00  0.00     0.029 A 
ATOM     23  C   UNL A   1      40.881  28.077  28.713  1.00  0.00     0.049 A 
ATOM     24  H   UNL A   1      40.620  29.065  30.527  1.00  0.00     0.167 HD
ATOM     25  C   UNL A   1      39.850  31.065  34.331  1.00  0.00     0.037 A 
ATOM     26  C   UNL A   1      41.987  27.320  28.830  1.00  0.00     0.037 A 
ATOM     27  C   UNL A   1      41.043  30.290  34.552  1.00  0.00     0.049 A 
ATOM     28  C   UNL A   1      42.740  27.314  30.127  1.00  0.00     0.074 A 
ATOM     29  C   UNL A   1      41.803  30.181  35.704  1.00  0.00     0.029 A 
ATOM     30  N   UNL A   1      41.647  29.486  33.598  1.00  0.00    -0.354 N 
ATOM     31  N   UNL A   1      42.463  27.938  31.246  1.00  0.00    -0.248 NA
ATOM     32  C   UNL A   1      43.964  26.503  30.177  1.00  0.00     0.031 C 
ATOM     33  C   UNL A   1      42.884  29.333  35.438  1.00  0.00     0.029 A 
ATOM     34  C   UNL A   1      42.780  28.890  34.130  1.00  0.00     0.049 A 
ATOM     35  H   UNL A   1      41.321  29.357  32.679  1.00  0.00     0.167 HD
ATOM     36  C   UNL A   1      43.469  27.590  32.134  1.00  0.00     0.074 A 
ATOM     37  C   UNL A   1      44.353  26.682  31.431  1.00  0.00     0.031 C 
ATOM     38  C   UNL A   1      43.648  27.991  33.415  1.00  0.00     0.037 A 
BRANCH  25  39
ATOM     39  C   UNL A   1      39.367  31.940  35.450  1.00  0.00     0.064 A 
ATOM     40  C   UNL A   1      39.747  33.286  35.550  1.00  0.00     0.173 A 
ATOM     41  C   UNL A   1      38.473  31.436  36.407  1.00  0.00     0.173 A 
ATOM     42  F   UNL A   1      40.609  33.811  34.667  1.00  0.00    -0.203 F 
ATOM     43  C   UNL A   1      39.263  34.090  36.579  1.00  0.00     0.198 A 
ATOM     44  C   UNL A   1      37.975  32.249  37.422  1.00  0.00     0.198 A 
ATOM     45  F   UNL A   1      38.074  30.156  36.351  1.00  0.00    -0.203 F 
ATOM     46  F   UNL A   1      39.665  35.366  36.676  1.00  0.00    -0.200 F 
ATOM     47  C   UNL A   1      38.373  33.573  37.509  1.00  0.00     0.200 A 
ATOM     48  F   UNL A   1      37.108  31.750  38.315  1.00  0.00    -0.200 F 
ATOM     49  F   UNL A   1      37.904  34.352  38.494  1.00  0.00    -0.200 F 
ENDBRANCH  25  39
BRANCH  26  50
ATOM     50  C   UNL A   1      42.424  26.482  27.687  1.00  0.00     0.064 A 
ATOM     51  C   UNL A   1      41.871  25.212  27.479  1.00  0.00     0.173 A 
ATOM     52  C   UNL A   1      43.378  26.944  26.768  1.00  0.00     0.173 A 
ATOM     53  F   UNL A   1      40.969  24.724  28.343  1.00  0.00    -0.203 F 
ATOM     54  C   UNL A   1      42.262  24.430  26.394  1.00  0.00     0.198 A 
ATOM     55  C   UNL A   1      43.750  26.171  25.672  1.00  0.00     0.198 A 
ATOM     56  F   UNL A   1      43.930  28.155  26.927  1.00  0.00    -0.203 F 
ATOM     57  F   UNL A   1      41.739  23.208  26.230  1.00  0.00    -0.200 F 
ATOM     58  C   UNL A   1      43.195  24.913  25.488  1.00  0.00     0.200 A 
ATOM     59  F   UNL A   1      44.641  26.645  24.793  1.00  0.00    -0.200 F 
ATOM     60  F   UNL A   1      43.562  24.164  24.439  1.00  0.00    -0.200 F 
ENDBRANCH  26  50
BRANCH  38  61
ATOM     61  C   UNL A   1      44.837  27.438  34.140  1.00  0.00     0.064 A 
ATOM     62  C   UNL A   1      44.756  26.239  34.863  1.00  0.00     0.173 A 
ATOM     63  C   UNL A   1      46.070  28.103  34.097  1.00  0.00     0.173 A 
ATOM     64  F   UNL A   1      43.592  25.577  34.945  1.00  0.00    -0.203 F 
ATOM     65  C   UNL A   1      45.866  25.736  35.535  1.00  0.00     0.198 A 
ATOM     66  C   UNL A   1      47.183  27.586  34.755  1.00  0.00     0.198 A 
ATOM     67  F   UNL A   1      46.196  29.252  33.417  1.00  0.00    -0.203 F 
ATOM     68  F   UNL A   1      45.758  24.610  36.254  1.00  0.00    -0.200 F 
ATOM     69  C   UNL A   1      47.078  26.407  35.478  1.00  0.00     0.200 A 
ATOM     70  F   UNL A   1      48.355  28.234  34.694  1.00  0.00    -0.200 F 
ATOM     71  F   UNL A   1      48.145  25.923  36.129  1.00  0.00    -0.200 F 
ENDBRANCH  38  61
ENDBRANCH  12  13
ENDBRANCH   5   7
ENDBRANCH   2   3
ENDBRANCH   1   2
BRANCH   1  72
ATOM     72  C   UNL A   1      32.441  27.336  26.687  1.00  0.00     0.023 C 
BRANCH  72  73
ATOM     73  C   UNL A   1      31.563  26.104  26.497  1.00  0.00     0.116 C 
BRANCH  73  74
ATOM     74  N   UNL A   1      30.804  26.127  25.253  1.00  0.00    -0.352 N 
ATOM     75  C   UNL A   1      31.051  25.492  24.061  1.00  0.00     0.252 C 
ATOM     76  H   UNL A   1      29.990  26.681  25.271  1.00  0.00     0.163 HD
ATOM     77  O   UNL A   1      30.290  25.618  23.110  1.00  0.00    -0.269 OA
BRANCH  75  78
ATOM     78  C   UNL A   1      32.238  24.630  23.950  1.00  0.00     0.059 A 
ATOM     79  C   UNL A   1      32.124  23.294  24.349  1.00  0.00     0.038 A 
ATOM     80  C   UNL A   1      33.464  25.121  23.526  1.00  0.00     0.055 A 
ATOM     81  C   UNL A   1      33.255  22.456  24.458  1.00  0.00     0.102 A 
ATOM     82  C   UNL A   1      34.574  24.275  23.556  1.00  0.00     0.043 A 
ATOM     83  Cl  UNL A   1      33.703  26.755  23.033  1.00  0.00    -0.083 Cl
ATOM     84  C   UNL A   1      34.487  22.952  24.039  1.00  0.00     0.062 A 
ATOM     85  Cl  UNL A   1      35.994  22.130  24.039  1.00  0.00    -0.083 Cl
BRANCH  81  86
ATOM     86  S   UNL A   1      32.850  20.919  25.262  1.00  0.00     0.244 S 
ATOM     87  O   UNL A   1      33.730  20.885  26.416  1.00  0.00    -0.207 OA
ATOM     88  O   UNL A   1      31.413  20.962  25.439  1.00  0.00    -0.207 OA
BRANCH  86  89
ATOM     89  N   UNL A   1      33.209  19.562  24.331  1.00  0.00    -0.198 NA
ATOM     90  C   UNL A   1      34.229  18.634  24.863  1.00  0.00     0.102 C 
ATOM     91  C   UNL A   1      32.199  19.116  23.349  1.00  0.00     0.102 C 
ATOM     92  C   UNL A   1      34.609  17.520  23.901  1.00  0.00     0.017 C 
ATOM     93  C   UNL A   1      32.679  17.990  22.445  1.00  0.00     0.017 C 
ATOM     94  C   UNL A   1      33.398  16.906  23.224  1.00  0.00     0.003 C 
ENDBRANCH  86  89
ENDBRANCH  81  86
ENDBRANCH  75  78
ENDBRANCH  73  74
ENDBRANCH  72  73
ENDBRANCH   1  72
TORSDOF 13
ENDMDL
MODEL 3
REMARK VINA RESULT:     -12.5      4.409      9.823
REMARK SMILES O=C(NCCCCNC(=O)c1cc(S(=O)(=O)N2CCCCC2)c(Cl)cc1Cl)c1ccc(-c2c3nc(c(-c4c(F)c(F)c(F)c(F)c4F)c4ccc([nH]4)c(-c4c(F)c(F)c(F)c(F)c4F)c4nc(c(-c5c(F)c(F)c(F)c(F)c5F)c5ccc2[nH]5)C=C4)C=C3)cc1
REMARK SMILES IDX 5 1 4 2 3 3 1 4 2 5 28 7 29 8 90 9 30 10 89 11 31 12 32 13
REMARK SMILES IDX 33 14 83 15 34 16 88 17 82 18 84 19 35 20 87 21 81 22 80 23
REMARK SMILES IDX 36 25 68 26 48 27 67 28 49 29 52 30 66 31 85 32 50 33 51 34
REMARK SMILES IDX 65 36 86 37 53 38 37 39 38 40 46 41 39 42 40 43 44 44 47 45
REMARK SMILES IDX 41 46 42 47 45 48 43 49 69 50 70 51 78 52 71 53 72 54 76 55
REMARK SMILES IDX 79 56 73 57 74 58 77 59 75 60 54 61 55 62 63 63 56 64 57 65
REMARK SMILES IDX 61 66 64 67 58 68 59 69 62 70 60 71 6 72 7 73 8 74 9 75
REMARK SMILES IDX 10 77 11 78 12 79 26 80 13 81 25 82 27 83 23 84 24 85 14 86
REMARK SMILES IDX 15 87 16 88 17 89 18 90 22 91 19 92 21 93 20 94
REMARK H PARENT 3 6 84 24 52 35 8 76
REMARK Flexibility Score: inf
ROOT
ATOM      1  C   UNL A   1      31.779  28.426  25.464  1.00  0.00     0.023 C 
ENDROOT
BRANCH   1   2
ATOM      2  C   UNL A   1      32.943  29.366  25.749  1.00  0.00     0.116 C 
BRANCH   2   3
ATOM      3  N   UNL A   1      32.536  30.673  26.241  1.00  0.00    -0.352 N 
ATOM      4  O   UNL A   1      32.655  32.550  27.493  1.00  0.00    -0.269 OA
ATOM      5  C   UNL A   1      33.187  31.511  27.117  1.00  0.00     0.251 C 
ATOM      6  H   UNL A   1      31.673  31.004  25.900  1.00  0.00     0.163 HD
BRANCH   5   7
ATOM      7  C   UNL A   1      34.514  31.130  27.646  1.00  0.00     0.039 A 
ATOM      8  C   UNL A   1      34.800  29.805  27.982  1.00  0.00     0.014 A 
ATOM      9  C   UNL A   1      35.475  32.126  27.842  1.00  0.00     0.014 A 
ATOM     10  C   UNL A   1      35.970  29.508  28.672  1.00  0.00     0.010 A 
ATOM     11  C   UNL A   1      36.687  31.810  28.461  1.00  0.00     0.010 A 
ATOM     12  C   UNL A   1      36.923  30.508  28.928  1.00  0.00    -0.014 A 
BRANCH  12  13
ATOM     13  C   UNL A   1      38.154  30.159  29.680  1.00  0.00     0.031 A 
ATOM     14  C   UNL A   1      38.355  30.619  31.098  1.00  0.00     0.074 A 
ATOM     15  C   UNL A   1      39.072  29.369  29.093  1.00  0.00     0.049 A 
ATOM     16  N   UNL A   1      39.338  30.348  31.923  1.00  0.00    -0.248 NA
ATOM     17  C   UNL A   1      37.328  31.506  31.666  1.00  0.00     0.031 C 
ATOM     18  C   UNL A   1      38.996  28.870  27.719  1.00  0.00     0.029 A 
ATOM     19  N   UNL A   1      40.229  28.820  29.583  1.00  0.00    -0.354 N 
ATOM     20  C   UNL A   1      39.064  31.051  33.088  1.00  0.00     0.074 A 
ATOM     21  C   UNL A   1      37.830  31.774  32.864  1.00  0.00     0.031 C 
ATOM     22  C   UNL A   1      40.024  28.039  27.497  1.00  0.00     0.029 A 
ATOM     23  C   UNL A   1      40.855  27.982  28.694  1.00  0.00     0.049 A 
ATOM     24  H   UNL A   1      40.577  29.008  30.485  1.00  0.00     0.167 HD
ATOM     25  C   UNL A   1      39.774  31.084  34.241  1.00  0.00     0.037 A 
ATOM     26  C   UNL A   1      41.971  27.244  28.830  1.00  0.00     0.037 A 
ATOM     27  C   UNL A   1      40.978  30.331  34.481  1.00  0.00     0.049 A 
ATOM     28  C   UNL A   1      42.723  27.278  30.128  1.00  0.00     0.074 A 
ATOM     29  C   UNL A   1      41.737  30.259  35.636  1.00  0.00     0.029 A 
ATOM     30  N   UNL A   1      41.594  29.513  33.546  1.00  0.00    -0.354 N 
ATOM     31  N   UNL A   1      42.435  27.924  31.232  1.00  0.00    -0.248 NA
ATOM     32  C   UNL A   1      43.957  26.486  30.198  1.00  0.00     0.031 C 
ATOM     33  C   UNL A   1      42.830  29.421  35.392  1.00  0.00     0.029 A 
ATOM     34  C   UNL A   1      42.734  28.946  34.094  1.00  0.00     0.049 A 
ATOM     35  H   UNL A   1      41.271  29.359  32.630  1.00  0.00     0.167 HD
ATOM     36  C   UNL A   1      43.445  27.610  32.128  1.00  0.00     0.074 A 
ATOM     37  C   UNL A   1      44.342  26.699  31.448  1.00  0.00     0.031 C 
ATOM     38  C   UNL A   1      43.616  28.043  33.401  1.00  0.00     0.037 A 
BRANCH  25  39
ATOM     39  C   UNL A   1      39.276  31.977  35.339  1.00  0.00     0.064 A 
ATOM     40  C   UNL A   1      38.455  31.493  36.367  1.00  0.00     0.173 A 
ATOM     41  C   UNL A   1      39.667  33.324  35.387  1.00  0.00     0.173 A 
ATOM     42  F   UNL A   1      38.044  30.217  36.359  1.00  0.00    -0.203 F 
ATOM     43  C   UNL A   1      38.029  32.331  37.395  1.00  0.00     0.198 A 
ATOM     44  C   UNL A   1      39.257  34.153  36.428  1.00  0.00     0.198 A 
ATOM     45  F   UNL A   1      40.457  33.833  34.430  1.00  0.00    -0.203 F 
ATOM     46  F   UNL A   1      37.217  31.857  38.351  1.00  0.00    -0.200 F 
ATOM     47  C   UNL A   1      38.435  33.657  37.428  1.00  0.00     0.200 A 
ATOM     48  F   UNL A   1      39.657  35.432  36.462  1.00  0.00    -0.200 F 
ATOM     49  F   UNL A   1      38.029  34.460  38.422  1.00  0.00    -0.200 F 
ENDBRANCH  25  39
BRANCH  26  50
ATOM     50  C   UNL A   1      42.422  26.386  27.707  1.00  0.00     0.064 A 
ATOM     51  C   UNL A   1      41.866  25.115  27.510  1.00  0.00     0.173 A 
ATOM     52  C   UNL A   1      43.392  26.828  26.797  1.00  0.00     0.173 A 
ATOM     53  F   UNL A   1      40.947  24.645  28.367  1.00  0.00    -0.203 F 
ATOM     54  C   UNL A   1      42.269  24.315  26.444  1.00  0.00     0.198 A 
ATOM     55  C   UNL A   1      43.778  26.036  25.719  1.00  0.00     0.198 A 
ATOM     56  F   UNL A   1      43.949  28.039  26.946  1.00  0.00    -0.203 F 
ATOM     57  F   UNL A   1      41.742  23.092  26.291  1.00  0.00    -0.200 F 
ATOM     58  C   UNL A   1      43.219  24.779  25.545  1.00  0.00     0.200 A 
ATOM     59  F   UNL A   1      44.686  26.492  24.847  1.00  0.00    -0.200 F 
ATOM     60  F   UNL A   1      43.598  24.011  24.514  1.00  0.00    -0.200 F 
ENDBRANCH  26  50
BRANCH  38  61
ATOM     61  C   UNL A   1      44.811  27.524  34.139  1.00  0.00     0.064 A 
ATOM     62  C   UNL A   1      46.034  28.210  34.120  1.00  0.00     0.173 A 
ATOM     63  C   UNL A   1      44.729  26.340  34.885  1.00  0.00     0.173 A 
ATOM     64  F   UNL A   1      46.163  29.338  33.405  1.00  0.00    -0.203 F 
ATOM     65  C   UNL A   1      47.139  27.717  34.806  1.00  0.00     0.198 A 
ATOM     66  C   UNL A   1      45.832  25.860  35.587  1.00  0.00     0.198 A 
ATOM     67  F   UNL A   1      43.580  25.650  34.936  1.00  0.00    -0.203 F 
ATOM     68  F   UNL A   1      48.310  28.365  34.741  1.00  0.00    -0.200 F 
ATOM     69  C   UNL A   1      47.037  26.545  35.541  1.00  0.00     0.200 A 
ATOM     70  F   UNL A   1      45.729  24.730  36.302  1.00  0.00    -0.200 F 
ATOM     71  F   UNL A   1      48.104  26.070  36.199  1.00  0.00    -0.200 F 
ENDBRANCH  38  61
ENDBRANCH  12  13
ENDBRANCH   5   7
ENDBRANCH   2   3
ENDBRANCH   1   2
BRANCH   1  72
ATOM     72  C   UNL A   1      30.845  28.852  24.336  1.00  0.00     0.023 C 
BRANCH  72  73
ATOM     73  C   UNL A   1      31.065  28.144  23.004  1.00  0.00     0.116 C 
BRANCH  73  74
ATOM     74  N   UNL A   1      32.365  28.432  22.410  1.00  0.00    -0.352 N 
ATOM     75  C   UNL A   1      33.409  27.586  22.127  1.00  0.00     0.252 C 
ATOM     76  H   UNL A   1      32.516  29.375  22.175  1.00  0.00     0.163 HD
ATOM     77  O   UNL A   1      34.437  28.005  21.611  1.00  0.00    -0.269 OA
BRANCH  75  78
ATOM     78  C   UNL A   1      33.263  26.154  22.429  1.00  0.00     0.059 A 
ATOM     79  C   UNL A   1      33.618  25.708  23.707  1.00  0.00     0.038 A 
ATOM     80  C   UNL A   1      32.849  25.240  21.470  1.00  0.00     0.055 A 
ATOM     81  C   UNL A   1      33.693  24.333  24.016  1.00  0.00     0.102 A 
ATOM     82  C   UNL A   1      32.845  23.882  21.793  1.00  0.00     0.043 A 
ATOM     83  Cl  UNL A   1      32.408  25.694  19.867  1.00  0.00    -0.083 Cl
ATOM     84  C   UNL A   1      33.284  23.416  23.050  1.00  0.00     0.062 A 
ATOM     85  Cl  UNL A   1      33.249  21.705  23.189  1.00  0.00    -0.083 Cl
BRANCH  81  86
ATOM     86  S   UNL A   1      34.448  24.064  25.607  1.00  0.00     0.244 S 
ATOM     87  O   UNL A   1      34.598  25.400  26.153  1.00  0.00    -0.207 OA
ATOM     88  O   UNL A   1      33.592  23.097  26.263  1.00  0.00    -0.207 OA
BRANCH  86  89
ATOM     89  N   UNL A   1      35.992  23.396  25.510  1.00  0.00    -0.198 NA
ATOM     90  C   UNL A   1      37.082  24.127  26.187  1.00  0.00     0.102 C 
ATOM     91  C   UNL A   1      36.097  21.951  25.217  1.00  0.00     0.102 C 
ATOM     92  C   UNL A   1      38.464  23.549  25.929  1.00  0.00     0.017 C 
ATOM     93  C   UNL A   1      37.524  21.477  24.987  1.00  0.00     0.017 C 
ATOM     94  C   UNL A   1      38.482  22.035  26.022  1.00  0.00     0.003 C 
ENDBRANCH  86  89
ENDBRANCH  81  86
ENDBRANCH  75  78
ENDBRANCH  73  74
ENDBRANCH  72  73
ENDBRANCH   1  72
TORSDOF 13
ENDMDL
