MODEL 1
REMARK VINA RESULT:     -12.9      0.000      0.000
REMARK SMILES O=C(CC[N@@H+]1CCC[C@@H](C(=O)NCCCCNC(=O)c2ccc(-c3c4nc(c(-c5c(F)c(F)c(F)c(F)c5F)c5ccc([nH]5)c(-c5c(F)c(F)c(F)c(F)c5F)c5nc(c(-c6c(F)c(F)c(F)c(F)c6F)c6ccc3[nH]6)C=C5)C=C4)cc2)C1)Nc1cccc(F)c1
REMARK SMILES IDX 13 1 12 2 10 3 11 4 9 6 5 7 6 8 83 9 7 11 8 12 4 13 3 14
REMARK SMILES IDX 2 15 1 16 84 17 85 19 86 20 91 21 87 22 89 23 88 24 90 25
REMARK SMILES IDX 14 26 15 27 16 28 17 29 18 30 19 32 20 33 21 34 82 35 22 36
REMARK SMILES IDX 81 37 23 38 24 39 25 40 75 41 26 42 80 43 74 44 76 45 27 46
REMARK SMILES IDX 79 47 73 48 72 49 28 51 60 52 40 53 59 54 41 55 44 56 58 57
REMARK SMILES IDX 77 58 42 59 43 60 57 62 78 63 45 64 29 65 30 66 38 67 31 68
REMARK SMILES IDX 32 69 36 70 39 71 33 72 34 73 37 74 35 75 61 76 62 77 70 78
REMARK SMILES IDX 63 79 64 80 68 81 71 82 65 83 66 84 69 85 67 86 46 87 47 88
REMARK SMILES IDX 55 89 48 90 49 91 53 92 56 93 50 94 51 95 54 96 52 97
REMARK H PARENT 12 5 5 10 84 18 17 31 76 50 44 61
REMARK Flexibility Score: inf
ROOT
ATOM      1  C   UNL A   1      33.269  30.063  27.020  1.00  0.00     0.116 C 
ENDROOT
BRANCH   1   2
ATOM      2  N   UNL A   1      33.882  29.540  25.817  1.00  0.00    -0.356 N 
ATOM      3  C   UNL A   1      33.680  28.423  25.080  1.00  0.00     0.228 C 
ATOM      4  O   UNL A   1      34.375  28.323  24.059  1.00  0.00    -0.275 OA
ATOM      5  H   UNL A   1      34.596  30.117  25.462  1.00  0.00     0.163 HD
BRANCH   3   6
ATOM      6  C   UNL A   1      32.734  27.271  25.434  1.00  0.00     0.133 C 
ATOM      7  N   UNL A   1      31.051  25.881  24.085  1.00  0.00    -0.334 N 
ATOM      8  C   UNL A   1      31.040  24.865  25.129  1.00  0.00     0.262 C 
ATOM      9  C   UNL A   1      31.646  27.198  24.346  1.00  0.00     0.275 C 
ATOM     10  H   UNL A   1      31.795  25.498  23.501  1.00  0.00     0.348 HD
ATOM     11  C   UNL A   1      32.113  25.007  26.206  1.00  0.00     0.062 C 
ATOM     12  C   UNL A   1      33.275  25.890  25.761  1.00  0.00     0.025 C 
BRANCH   7  13
ATOM     13  C   UNL A   1      29.822  25.919  23.273  1.00  0.00     0.272 C 
BRANCH  13  14
ATOM     14  C   UNL A   1      28.614  26.472  24.042  1.00  0.00     0.161 C 
BRANCH  14  15
ATOM     15  C   UNL A   1      28.016  27.776  23.511  1.00  0.00     0.230 C 
ATOM     16  O   UNL A   1      26.821  28.013  23.670  1.00  0.00    -0.275 OA
ATOM     17  N   UNL A   1      28.927  28.633  22.933  1.00  0.00    -0.326 N 
ATOM     18  H   UNL A   1      29.819  28.254  22.761  1.00  0.00     0.169 HD
BRANCH  17  19
ATOM     19  C   UNL A   1      28.757  29.973  22.556  1.00  0.00     0.044 A 
ATOM     20  C   UNL A   1      28.978  30.954  23.536  1.00  0.00     0.026 A 
ATOM     21  C   UNL A   1      28.312  30.357  21.294  1.00  0.00     0.065 A 
ATOM     22  C   UNL A   1      28.761  32.305  23.256  1.00  0.00     0.005 A 
ATOM     23  C   UNL A   1      28.078  31.703  21.032  1.00  0.00     0.125 A 
ATOM     24  C   UNL A   1      28.298  32.679  21.999  1.00  0.00     0.039 A 
ATOM     25  F   UNL A   1      27.602  32.065  19.833  1.00  0.00    -0.207 F 
ENDBRANCH  17  19
ENDBRANCH  14  15
ENDBRANCH  13  14
ENDBRANCH   7  13
ENDBRANCH   3   6
ENDBRANCH   1   2
BRANCH   1  26
ATOM     26  C   UNL A   1      31.823  30.493  26.794  1.00  0.00     0.023 C 
BRANCH  26  27
ATOM     27  C   UNL A   1      31.597  32.006  26.774  1.00  0.00     0.023 C 
BRANCH  27  28
ATOM     28  C   UNL A   1      32.765  32.845  27.280  1.00  0.00     0.116 C 
BRANCH  28  29
ATOM     29  N   UNL A   1      32.409  34.204  27.663  1.00  0.00    -0.352 N 
ATOM     30  C   UNL A   1      32.999  35.007  28.617  1.00  0.00     0.251 C 
ATOM     31  H   UNL A   1      31.649  34.601  27.179  1.00  0.00     0.163 HD
ATOM     32  O   UNL A   1      32.538  36.107  28.877  1.00  0.00    -0.269 OA
BRANCH  30  33
ATOM     33  C   UNL A   1      34.169  34.490  29.363  1.00  0.00     0.039 A 
ATOM     34  C   UNL A   1      33.957  33.851  30.588  1.00  0.00     0.014 A 
ATOM     35  C   UNL A   1      35.454  34.573  28.825  1.00  0.00     0.014 A 
ATOM     36  C   UNL A   1      35.023  33.215  31.227  1.00  0.00     0.010 A 
ATOM     37  C   UNL A   1      36.495  33.869  29.419  1.00  0.00     0.010 A 
ATOM     38  C   UNL A   1      36.289  33.177  30.622  1.00  0.00    -0.014 A 
BRANCH  38  39
ATOM     39  C   UNL A   1      37.413  32.411  31.217  1.00  0.00     0.031 A 
ATOM     40  C   UNL A   1      37.907  32.745  32.595  1.00  0.00     0.074 A 
ATOM     41  C   UNL A   1      38.045  31.476  30.482  1.00  0.00     0.049 A 
ATOM     42  N   UNL A   1      38.926  32.254  33.254  1.00  0.00    -0.248 NA
ATOM     43  C   UNL A   1      37.181  33.803  33.313  1.00  0.00     0.031 C 
ATOM     44  C   UNL A   1      37.699  31.099  29.111  1.00  0.00     0.029 A 
ATOM     45  N   UNL A   1      39.120  30.678  30.784  1.00  0.00    -0.354 N 
ATOM     46  C   UNL A   1      38.977  32.960  34.448  1.00  0.00     0.074 A 
ATOM     47  C   UNL A   1      37.924  33.951  34.399  1.00  0.00     0.031 C 
ATOM     48  C   UNL A   1      38.518  30.116  28.704  1.00  0.00     0.029 A 
ATOM     49  C   UNL A   1      39.471  29.820  29.770  1.00  0.00     0.049 A 
ATOM     50  H   UNL A   1      39.594  30.716  31.646  1.00  0.00     0.167 HD
ATOM     51  C   UNL A   1      39.809  32.781  35.502  1.00  0.00     0.037 A 
ATOM     52  C   UNL A   1      40.449  28.896  29.711  1.00  0.00     0.037 A 
ATOM     53  C   UNL A   1      40.829  31.768  35.563  1.00  0.00     0.049 A 
ATOM     54  C   UNL A   1      41.356  28.710  30.895  1.00  0.00     0.074 A 
ATOM     55  C   UNL A   1      41.669  31.447  36.614  1.00  0.00     0.029 A 
ATOM     56  N   UNL A   1      41.147  30.909  34.520  1.00  0.00    -0.354 N 
ATOM     57  N   UNL A   1      41.348  29.330  32.050  1.00  0.00    -0.248 NA
ATOM     58  C   UNL A   1      42.409  27.693  30.766  1.00  0.00     0.031 C 
ATOM     59  C   UNL A   1      42.523  30.421  36.195  1.00  0.00     0.029 A 
ATOM     60  C   UNL A   1      42.187  30.073  34.896  1.00  0.00     0.049 A 
ATOM     61  H   UNL A   1      40.701  30.895  33.643  1.00  0.00     0.167 HD
ATOM     62  C   UNL A   1      42.371  28.761  32.796  1.00  0.00     0.074 A 
ATOM     63  C   UNL A   1      42.974  27.739  31.965  1.00  0.00     0.031 C 
ATOM     64  C   UNL A   1      42.771  29.057  34.057  1.00  0.00     0.037 A 
BRANCH  51  65
ATOM     65  C   UNL A   1      39.642  33.707  36.672  1.00  0.00     0.064 A 
ATOM     66  C   UNL A   1      38.840  33.368  37.772  1.00  0.00     0.173 A 
ATOM     67  C   UNL A   1      40.283  34.955  36.690  1.00  0.00     0.173 A 
ATOM     68  F   UNL A   1      38.194  32.192  37.800  1.00  0.00    -0.203 F 
ATOM     69  C   UNL A   1      38.647  34.261  38.823  1.00  0.00     0.198 A 
ATOM     70  C   UNL A   1      40.114  35.832  37.757  1.00  0.00     0.198 A 
ATOM     71  F   UNL A   1      41.066  35.329  35.666  1.00  0.00    -0.203 F 
ATOM     72  F   UNL A   1      37.819  33.942  39.828  1.00  0.00    -0.200 F 
ATOM     73  C   UNL A   1      39.286  35.491  38.816  1.00  0.00     0.200 A 
ATOM     74  F   UNL A   1      40.742  37.017  37.755  1.00  0.00    -0.200 F 
ATOM     75  F   UNL A   1      39.094  36.353  39.824  1.00  0.00    -0.200 F 
ENDBRANCH  51  65
BRANCH  52  76
ATOM     76  C   UNL A   1      40.579  28.037  28.508  1.00  0.00     0.064 A 
ATOM     77  C   UNL A   1      39.932  26.793  28.452  1.00  0.00     0.173 A 
ATOM     78  C   UNL A   1      41.327  28.436  27.392  1.00  0.00     0.173 A 
ATOM     79  F   UNL A   1      39.223  26.361  29.505  1.00  0.00    -0.203 F 
ATOM     80  C   UNL A   1      40.037  25.977  27.328  1.00  0.00     0.198 A 
ATOM     81  C   UNL A   1      41.412  27.629  26.259  1.00  0.00     0.198 A 
ATOM     82  F   UNL A   1      41.960  29.617  27.396  1.00  0.00    -0.203 F 
ATOM     83  F   UNL A   1      39.434  24.781  27.315  1.00  0.00    -0.200 F 
ATOM     84  C   UNL A   1      40.770  26.398  26.230  1.00  0.00     0.200 A 
ATOM     85  F   UNL A   1      42.113  28.042  25.195  1.00  0.00    -0.200 F 
ATOM     86  F   UNL A   1      40.865  25.617  25.146  1.00  0.00    -0.200 F 
ENDBRANCH  52  76
BRANCH  64  87
ATOM     87  C   UNL A   1      43.893  28.241  34.629  1.00  0.00     0.064 A 
ATOM     88  C   UNL A   1      45.234  28.621  34.469  1.00  0.00     0.173 A 
ATOM     89  C   UNL A   1      43.620  27.088  35.380  1.00  0.00     0.173 A 
ATOM     90  F   UNL A   1      45.546  29.707  33.746  1.00  0.00    -0.203 F 
ATOM     91  C   UNL A   1      46.262  27.863  35.023  1.00  0.00     0.198 A 
ATOM     92  C   UNL A   1      44.649  26.348  35.955  1.00  0.00     0.198 A 
ATOM     93  F   UNL A   1      42.354  26.686  35.565  1.00  0.00    -0.203 F 
ATOM     94  F   UNL A   1      47.538  28.220  34.823  1.00  0.00    -0.200 F 
ATOM     95  C   UNL A   1      45.968  26.733  35.772  1.00  0.00     0.200 A 
ATOM     96  F   UNL A   1      44.363  25.263  36.688  1.00  0.00    -0.200 F 
ATOM     97  F   UNL A   1      46.959  26.009  36.311  1.00  0.00    -0.200 F 
ENDBRANCH  64  87
ENDBRANCH  38  39
ENDBRANCH  30  33
ENDBRANCH  28  29
ENDBRANCH  27  28
ENDBRANCH  26  27
ENDBRANCH   1  26
TORSDOF 15
ENDMDL
MODEL 2
REMARK VINA RESULT:     -12.7      3.949      8.809
REMARK SMILES O=C(CC[N@@H+]1CCC[C@@H](C(=O)NCCCCNC(=O)c2ccc(-c3c4nc(c(-c5c(F)c(F)c(F)c(F)c5F)c5ccc([nH]5)c(-c5c(F)c(F)c(F)c(F)c5F)c5nc(c(-c6c(F)c(F)c(F)c(F)c6F)c6ccc3[nH]6)C=C5)C=C4)cc2)C1)Nc1cccc(F)c1
REMARK SMILES IDX 13 1 12 2 10 3 11 4 9 6 5 7 6 8 83 9 7 11 8 12 4 13 3 14
REMARK SMILES IDX 2 15 1 16 84 17 85 19 86 20 91 21 87 22 89 23 88 24 90 25
REMARK SMILES IDX 14 26 15 27 16 28 17 29 18 30 19 32 20 33 21 34 82 35 22 36
REMARK SMILES IDX 81 37 23 38 24 39 25 40 75 41 26 42 80 43 74 44 76 45 27 46
REMARK SMILES IDX 79 47 73 48 72 49 28 51 60 52 40 53 59 54 41 55 44 56 58 57
REMARK SMILES IDX 77 58 42 59 43 60 57 62 78 63 45 64 29 65 30 66 38 67 31 68
REMARK SMILES IDX 32 69 36 70 39 71 33 72 34 73 37 74 35 75 61 76 62 77 70 78
REMARK SMILES IDX 63 79 64 80 68 81 71 82 65 83 66 84 69 85 67 86 46 87 47 88
REMARK SMILES IDX 55 89 48 90 49 91 53 92 56 93 50 94 51 95 54 96 52 97
REMARK H PARENT 12 5 5 10 84 18 17 31 76 50 44 61
REMARK Flexibility Score: inf
ROOT
ATOM      1  C   UNL A   1      34.216  21.632  27.098  1.00  0.00     0.116 C 
ENDROOT
BRANCH   1   2
ATOM      2  N   UNL A   1      33.494  20.516  26.526  1.00  0.00    -0.356 N 
ATOM      3  C   UNL A   1      32.702  20.381  25.436  1.00  0.00     0.228 C 
ATOM      4  O   UNL A   1      32.281  19.236  25.220  1.00  0.00    -0.275 OA
ATOM      5  H   UNL A   1      33.600  19.680  27.036  1.00  0.00     0.163 HD
BRANCH   3   6
ATOM      6  C   UNL A   1      32.243  21.513  24.512  1.00  0.00     0.133 C 
ATOM      7  N   UNL A   1      31.451  23.920  24.918  1.00  0.00    -0.334 N 
ATOM      8  C   UNL A   1      31.691  24.245  23.518  1.00  0.00     0.262 C 
ATOM      9  C   UNL A   1      31.438  22.519  25.357  1.00  0.00     0.275 C 
ATOM     10  H   UNL A   1      32.360  24.183  25.298  1.00  0.00     0.348 HD
ATOM     11  C   UNL A   1      32.458  23.196  22.715  1.00  0.00     0.062 C 
ATOM     12  C   UNL A   1      33.230  22.228  23.604  1.00  0.00     0.025 C 
BRANCH   7  13
ATOM     13  C   UNL A   1      30.433  24.769  25.563  1.00  0.00     0.272 C 
BRANCH  13  14
ATOM     14  C   UNL A   1      30.511  26.236  25.121  1.00  0.00     0.161 C 
BRANCH  14  15
ATOM     15  C   UNL A   1      31.145  27.208  26.117  1.00  0.00     0.230 C 
ATOM     16  O   UNL A   1      30.990  27.038  27.324  1.00  0.00    -0.275 OA
ATOM     17  N   UNL A   1      31.919  28.195  25.546  1.00  0.00    -0.326 N 
ATOM     18  H   UNL A   1      31.844  28.282  24.569  1.00  0.00     0.169 HD
BRANCH  17  19
ATOM     19  C   UNL A   1      32.800  29.092  26.167  1.00  0.00     0.044 A 
ATOM     20  C   UNL A   1      34.084  28.622  26.483  1.00  0.00     0.026 A 
ATOM     21  C   UNL A   1      32.431  30.380  26.544  1.00  0.00     0.065 A 
ATOM     22  C   UNL A   1      34.994  29.434  27.165  1.00  0.00     0.005 A 
ATOM     23  C   UNL A   1      33.337  31.173  27.243  1.00  0.00     0.125 A 
ATOM     24  C   UNL A   1      34.612  30.714  27.556  1.00  0.00     0.039 A 
ATOM     25  F   UNL A   1      32.963  32.394  27.648  1.00  0.00    -0.207 F 
ENDBRANCH  17  19
ENDBRANCH  14  15
ENDBRANCH  13  14
ENDBRANCH   7  13
ENDBRANCH   3   6
ENDBRANCH   1   2
BRANCH   1  26
ATOM     26  C   UNL A   1      35.544  21.887  26.393  1.00  0.00     0.023 C 
BRANCH  26  27
ATOM     27  C   UNL A   1      35.858  23.361  26.123  1.00  0.00     0.023 C 
BRANCH  27  28
ATOM     28  C   UNL A   1      37.093  23.615  25.265  1.00  0.00     0.116 C 
BRANCH  28  29
ATOM     29  N   UNL A   1      38.208  22.719  25.535  1.00  0.00    -0.352 N 
ATOM     30  C   UNL A   1      39.360  22.978  26.247  1.00  0.00     0.251 C 
ATOM     31  H   UNL A   1      38.129  21.812  25.162  1.00  0.00     0.163 HD
ATOM     32  O   UNL A   1      40.245  22.140  26.327  1.00  0.00    -0.269 OA
BRANCH  30  33
ATOM     33  C   UNL A   1      39.534  24.312  26.866  1.00  0.00     0.039 A 
ATOM     34  C   UNL A   1      39.094  24.507  28.178  1.00  0.00     0.014 A 
ATOM     35  C   UNL A   1      40.186  25.339  26.182  1.00  0.00     0.014 A 
ATOM     36  C   UNL A   1      39.393  25.703  28.834  1.00  0.00     0.010 A 
ATOM     37  C   UNL A   1      40.555  26.493  26.862  1.00  0.00     0.010 A 
ATOM     38  C   UNL A   1      40.169  26.684  28.198  1.00  0.00    -0.014 A 
BRANCH  38  39
ATOM     39  C   UNL A   1      40.604  27.914  28.907  1.00  0.00     0.031 A 
ATOM     40  C   UNL A   1      42.021  28.048  29.384  1.00  0.00     0.074 A 
ATOM     41  C   UNL A   1      39.700  28.869  29.200  1.00  0.00     0.049 A 
ATOM     42  N   UNL A   1      42.572  29.000  30.093  1.00  0.00    -0.248 NA
ATOM     43  C   UNL A   1      42.932  26.943  29.051  1.00  0.00     0.031 C 
ATOM     44  C   UNL A   1      38.281  28.831  28.844  1.00  0.00     0.029 A 
ATOM     45  N   UNL A   1      39.841  30.056  29.874  1.00  0.00    -0.354 N 
ATOM     46  C   UNL A   1      43.882  28.595  30.312  1.00  0.00     0.074 A 
ATOM     47  C   UNL A   1      44.027  27.287  29.711  1.00  0.00     0.031 C 
ATOM     48  C   UNL A   1      37.691  29.960  29.267  1.00  0.00     0.029 A 
ATOM     49  C   UNL A   1      38.679  30.784  29.957  1.00  0.00     0.049 A 
ATOM     50  H   UNL A   1      40.694  30.357  30.261  1.00  0.00     0.167 HD
ATOM     51  C   UNL A   1      44.881  29.265  30.935  1.00  0.00     0.037 A 
ATOM     52  C   UNL A   1      38.441  31.982  30.522  1.00  0.00     0.037 A 
ATOM     53  C   UNL A   1      44.744  30.583  31.497  1.00  0.00     0.049 A 
ATOM     54  C   UNL A   1      39.566  32.710  31.202  1.00  0.00     0.074 A 
ATOM     55  C   UNL A   1      45.713  31.383  32.074  1.00  0.00     0.029 A 
ATOM     56  N   UNL A   1      43.553  31.294  31.551  1.00  0.00    -0.354 N 
ATOM     57  N   UNL A   1      40.821  32.354  31.337  1.00  0.00    -0.248 NA
ATOM     58  C   UNL A   1      39.242  34.009  31.807  1.00  0.00     0.031 C 
ATOM     59  C   UNL A   1      45.101  32.562  32.514  1.00  0.00     0.029 A 
ATOM     60  C   UNL A   1      43.759  32.515  32.173  1.00  0.00     0.049 A 
ATOM     61  H   UNL A   1      42.690  30.977  31.199  1.00  0.00     0.167 HD
ATOM     62  C   UNL A   1      41.442  33.394  32.015  1.00  0.00     0.074 A 
ATOM     63  C   UNL A   1      40.427  34.400  32.256  1.00  0.00     0.031 C 
ATOM     64  C   UNL A   1      42.737  33.507  32.399  1.00  0.00     0.037 A 
BRANCH  51  65
ATOM     65  C   UNL A   1      46.210  28.573  31.036  1.00  0.00     0.064 A 
ATOM     66  C   UNL A   1      47.187  28.704  30.036  1.00  0.00     0.173 A 
ATOM     67  C   UNL A   1      46.509  27.762  32.140  1.00  0.00     0.173 A 
ATOM     68  F   UNL A   1      46.948  29.458  28.953  1.00  0.00    -0.203 F 
ATOM     69  C   UNL A   1      48.392  28.010  30.115  1.00  0.00     0.198 A 
ATOM     70  C   UNL A   1      47.728  27.095  32.231  1.00  0.00     0.198 A 
ATOM     71  F   UNL A   1      45.614  27.606  33.128  1.00  0.00    -0.203 F 
ATOM     72  F   UNL A   1      49.278  28.094  29.113  1.00  0.00    -0.200 F 
ATOM     73  C   UNL A   1      48.662  27.208  31.214  1.00  0.00     0.200 A 
ATOM     74  F   UNL A   1      47.993  26.330  33.300  1.00  0.00    -0.200 F 
ATOM     75  F   UNL A   1      49.819  26.535  31.285  1.00  0.00    -0.200 F 
ENDBRANCH  51  65
BRANCH  52  76
ATOM     76  C   UNL A   1      37.092  32.593  30.414  1.00  0.00     0.064 A 
ATOM     77  C   UNL A   1      36.144  32.399  31.430  1.00  0.00     0.173 A 
ATOM     78  C   UNL A   1      36.727  33.390  29.321  1.00  0.00     0.173 A 
ATOM     79  F   UNL A   1      36.443  31.626  32.484  1.00  0.00    -0.203 F 
ATOM     80  C   UNL A   1      34.877  32.972  31.350  1.00  0.00     0.198 A 
ATOM     81  C   UNL A   1      35.467  33.981  29.254  1.00  0.00     0.198 A 
ATOM     82  F   UNL A   1      37.600  33.608  28.328  1.00  0.00    -0.203 F 
ATOM     83  F   UNL A   1      33.980  32.744  32.319  1.00  0.00    -0.200 F 
ATOM     84  C   UNL A   1      34.541  33.768  30.266  1.00  0.00     0.200 A 
ATOM     85  F   UNL A   1      35.148  34.759  28.210  1.00  0.00    -0.200 F 
ATOM     86  F   UNL A   1      33.325  34.325  30.193  1.00  0.00    -0.200 F 
ENDBRANCH  52  76
BRANCH  64  87
ATOM     87  C   UNL A   1      43.139  34.776  33.090  1.00  0.00     0.064 A 
ATOM     88  C   UNL A   1      43.171  34.874  34.489  1.00  0.00     0.173 A 
ATOM     89  C   UNL A   1      43.537  35.895  32.342  1.00  0.00     0.173 A 
ATOM     90  F   UNL A   1      42.784  33.837  35.246  1.00  0.00    -0.203 F 
ATOM     91  C   UNL A   1      43.565  36.054  35.113  1.00  0.00     0.198 A 
ATOM     92  C   UNL A   1      43.956  37.063  32.970  1.00  0.00     0.198 A 
ATOM     93  F   UNL A   1      43.529  35.850  31.001  1.00  0.00    -0.203 F 
ATOM     94  F   UNL A   1      43.548  36.141  36.450  1.00  0.00    -0.200 F 
ATOM     95  C   UNL A   1      43.965  37.144  34.354  1.00  0.00     0.200 A 
ATOM     96  F   UNL A   1      44.354  38.112  32.236  1.00  0.00    -0.200 F 
ATOM     97  F   UNL A   1      44.352  38.276  34.958  1.00  0.00    -0.200 F 
ENDBRANCH  64  87
ENDBRANCH  38  39
ENDBRANCH  30  33
ENDBRANCH  28  29
ENDBRANCH  27  28
ENDBRANCH  26  27
ENDBRANCH   1  26
TORSDOF 15
ENDMDL
MODEL 3
REMARK VINA RESULT:     -12.4      2.450      4.842
REMARK SMILES O=C(CC[N@@H+]1CCC[C@@H](C(=O)NCCCCNC(=O)c2ccc(-c3c4nc(c(-c5c(F)c(F)c(F)c(F)c5F)c5ccc([nH]5)c(-c5c(F)c(F)c(F)c(F)c5F)c5nc(c(-c6c(F)c(F)c(F)c(F)c6F)c6ccc3[nH]6)C=C5)C=C4)cc2)C1)Nc1cccc(F)c1
REMARK SMILES IDX 13 1 12 2 10 3 11 4 9 6 5 7 6 8 83 9 7 11 8 12 4 13 3 14
REMARK SMILES IDX 2 15 1 16 84 17 85 19 86 20 91 21 87 22 89 23 88 24 90 25
REMARK SMILES IDX 14 26 15 27 16 28 17 29 18 30 19 32 20 33 21 34 82 35 22 36
REMARK SMILES IDX 81 37 23 38 24 39 25 40 75 41 26 42 80 43 74 44 76 45 27 46
REMARK SMILES IDX 79 47 73 48 72 49 28 51 60 52 40 53 59 54 41 55 44 56 58 57
REMARK SMILES IDX 77 58 42 59 43 60 57 62 78 63 45 64 29 65 30 66 38 67 31 68
REMARK SMILES IDX 32 69 36 70 39 71 33 72 34 73 37 74 35 75 61 76 62 77 70 78
REMARK SMILES IDX 63 79 64 80 68 81 71 82 65 83 66 84 69 85 67 86 46 87 47 88
REMARK SMILES IDX 55 89 48 90 49 91 53 92 56 93 50 94 51 95 54 96 52 97
REMARK H PARENT 12 5 5 10 84 18 17 31 76 50 44 61
REMARK Flexibility Score: inf
ROOT
ATOM      1  C   UNL A   1      32.932  29.890  26.326  1.00  0.00     0.116 C 
ENDROOT
BRANCH   1   2
ATOM      2  N   UNL A   1      33.655  29.483  25.139  1.00  0.00    -0.356 N 
ATOM      3  C   UNL A   1      33.494  28.472  24.252  1.00  0.00     0.228 C 
ATOM      4  O   UNL A   1      34.293  28.459  23.307  1.00  0.00    -0.275 OA
ATOM      5  H   UNL A   1      34.425  30.061  24.935  1.00  0.00     0.163 HD
BRANCH   3   6
ATOM      6  C   UNL A   1      32.472  27.337  24.361  1.00  0.00     0.133 C 
ATOM      7  N   UNL A   1      32.279  25.262  25.858  1.00  0.00    -0.334 N 
ATOM      8  C   UNL A   1      30.869  25.133  25.513  1.00  0.00     0.262 C 
ATOM      9  C   UNL A   1      33.148  26.155  25.082  1.00  0.00     0.275 C 
ATOM     10  H   UNL A   1      32.184  25.841  26.693  1.00  0.00     0.348 HD
ATOM     11  C   UNL A   1      30.258  26.314  24.762  1.00  0.00     0.062 C 
ATOM     12  C   UNL A   1      31.079  27.590  24.912  1.00  0.00     0.025 C 
BRANCH   7  13
ATOM     13  C   UNL A   1      32.915  23.995  26.263  1.00  0.00     0.272 C 
BRANCH  13  14
ATOM     14  C   UNL A   1      32.026  22.772  26.006  1.00  0.00     0.161 C 
BRANCH  14  15
ATOM     15  C   UNL A   1      32.637  21.661  25.150  1.00  0.00     0.230 C 
ATOM     16  O   UNL A   1      33.590  21.908  24.413  1.00  0.00    -0.275 OA
ATOM     17  N   UNL A   1      32.080  20.416  25.338  1.00  0.00    -0.326 N 
ATOM     18  H   UNL A   1      31.245  20.398  25.859  1.00  0.00     0.169 HD
BRANCH  17  19
ATOM     19  C   UNL A   1      32.539  19.169  24.889  1.00  0.00     0.044 A 
ATOM     20  C   UNL A   1      32.532  18.940  23.504  1.00  0.00     0.026 A 
ATOM     21  C   UNL A   1      32.920  18.144  25.750  1.00  0.00     0.065 A 
ATOM     22  C   UNL A   1      32.909  17.699  22.984  1.00  0.00     0.005 A 
ATOM     23  C   UNL A   1      33.272  16.905  25.223  1.00  0.00     0.125 A 
ATOM     24  C   UNL A   1      33.270  16.673  23.852  1.00  0.00     0.039 A 
ATOM     25  F   UNL A   1      33.591  15.905  26.056  1.00  0.00    -0.207 F 
ENDBRANCH  17  19
ENDBRANCH  14  15
ENDBRANCH  13  14
ENDBRANCH   7  13
ENDBRANCH   3   6
ENDBRANCH   1   2
BRANCH   1  26
ATOM     26  C   UNL A   1      31.755  30.803  26.003  1.00  0.00     0.023 C 
BRANCH  26  27
ATOM     27  C   UNL A   1      31.523  31.936  27.006  1.00  0.00     0.023 C 
BRANCH  27  28
ATOM     28  C   UNL A   1      32.725  32.840  27.255  1.00  0.00     0.116 C 
BRANCH  28  29
ATOM     29  N   UNL A   1      32.384  34.207  27.622  1.00  0.00    -0.352 N 
ATOM     30  C   UNL A   1      32.977  35.011  28.572  1.00  0.00     0.251 C 
ATOM     31  H   UNL A   1      31.633  34.609  27.128  1.00  0.00     0.163 HD
ATOM     32  O   UNL A   1      32.529  36.120  28.819  1.00  0.00    -0.269 OA
BRANCH  30  33
ATOM     33  C   UNL A   1      34.135  34.486  29.332  1.00  0.00     0.039 A 
ATOM     34  C   UNL A   1      33.903  33.841  30.550  1.00  0.00     0.014 A 
ATOM     35  C   UNL A   1      35.428  34.568  28.814  1.00  0.00     0.014 A 
ATOM     36  C   UNL A   1      34.958  33.198  31.201  1.00  0.00     0.010 A 
ATOM     37  C   UNL A   1      36.458  33.857  29.418  1.00  0.00     0.010 A 
ATOM     38  C   UNL A   1      36.232  33.159  30.614  1.00  0.00    -0.014 A 
BRANCH  38  39
ATOM     39  C   UNL A   1      37.345  32.385  31.221  1.00  0.00     0.031 A 
ATOM     40  C   UNL A   1      37.833  32.723  32.601  1.00  0.00     0.074 A 
ATOM     41  C   UNL A   1      37.974  31.441  30.495  1.00  0.00     0.049 A 
ATOM     42  N   UNL A   1      38.842  32.226  33.269  1.00  0.00    -0.248 NA
ATOM     43  C   UNL A   1      37.112  33.791  33.308  1.00  0.00     0.031 C 
ATOM     44  C   UNL A   1      37.633  31.059  29.124  1.00  0.00     0.029 A 
ATOM     45  N   UNL A   1      39.038  30.634  30.809  1.00  0.00    -0.354 N 
ATOM     46  C   UNL A   1      38.892  32.938  34.460  1.00  0.00     0.074 A 
ATOM     47  C   UNL A   1      37.849  33.938  34.398  1.00  0.00     0.031 C 
ATOM     48  C   UNL A   1      38.446  30.066  28.728  1.00  0.00     0.029 A 
ATOM     49  C   UNL A   1      39.389  29.768  29.802  1.00  0.00     0.049 A 
ATOM     50  H   UNL A   1      39.507  30.673  31.674  1.00  0.00     0.167 HD
ATOM     51  C   UNL A   1      39.715  32.756  35.520  1.00  0.00     0.037 A 
ATOM     52  C   UNL A   1      40.358  28.835  29.755  1.00  0.00     0.037 A 
ATOM     53  C   UNL A   1      40.725  31.734  35.594  1.00  0.00     0.049 A 
ATOM     54  C   UNL A   1      41.255  28.647  30.946  1.00  0.00     0.074 A 
ATOM     55  C   UNL A   1      41.555  31.411  36.653  1.00  0.00     0.029 A 
ATOM     56  N   UNL A   1      41.043  30.866  34.557  1.00  0.00    -0.354 N 
ATOM     57  N   UNL A   1      41.245  29.273  32.097  1.00  0.00    -0.248 NA
ATOM     58  C   UNL A   1      42.299  27.619  30.829  1.00  0.00     0.031 C 
ATOM     59  C   UNL A   1      42.402  30.375  36.244  1.00  0.00     0.029 A 
ATOM     60  C   UNL A   1      42.071  30.023  34.945  1.00  0.00     0.049 A 
ATOM     61  H   UNL A   1      40.602  30.852  33.678  1.00  0.00     0.167 HD
ATOM     62  C   UNL A   1      42.258  28.698  32.853  1.00  0.00     0.074 A 
ATOM     63  C   UNL A   1      42.857  27.666  32.032  1.00  0.00     0.031 C 
ATOM     64  C   UNL A   1      42.652  28.997  34.115  1.00  0.00     0.037 A 
BRANCH  51  65
ATOM     65  C   UNL A   1      39.549  33.690  36.684  1.00  0.00     0.064 A 
ATOM     66  C   UNL A   1      40.200  34.932  36.731  1.00  0.00     0.173 A 
ATOM     67  C   UNL A   1      38.736  33.336  37.771  1.00  0.00     0.173 A 
ATOM     68  F   UNL A   1      40.999  35.314  35.723  1.00  0.00    -0.203 F 
ATOM     69  C   UNL A   1      40.083  35.763  37.843  1.00  0.00     0.198 A 
ATOM     70  C   UNL A   1      38.596  34.184  38.867  1.00  0.00     0.198 A 
ATOM     71  F   UNL A   1      38.085  32.163  37.776  1.00  0.00    -0.203 F 
ATOM     72  F   UNL A   1      40.773  36.911  37.894  1.00  0.00    -0.200 F 
ATOM     73  C   UNL A   1      39.279  35.389  38.909  1.00  0.00     0.200 A 
ATOM     74  F   UNL A   1      37.808  33.826  39.892  1.00  0.00    -0.200 F 
ATOM     75  F   UNL A   1      39.174  36.185  39.981  1.00  0.00    -0.200 F 
ENDBRANCH  51  65
BRANCH  52  76
ATOM     76  C   UNL A   1      40.489  27.967  28.557  1.00  0.00     0.064 A 
ATOM     77  C   UNL A   1      41.263  28.382  27.464  1.00  0.00     0.173 A 
ATOM     78  C   UNL A   1      39.868  26.713  28.481  1.00  0.00     0.173 A 
ATOM     79  F   UNL A   1      41.858  29.584  27.484  1.00  0.00    -0.203 F 
ATOM     80  C   UNL A   1      41.404  27.578  26.335  1.00  0.00     0.198 A 
ATOM     81  C   UNL A   1      40.029  25.900  27.361  1.00  0.00     0.198 A 
ATOM     82  F   UNL A   1      39.121  26.271  29.502  1.00  0.00    -0.203 F 
ATOM     83  F   UNL A   1      42.124  28.013  25.292  1.00  0.00    -0.200 F 
ATOM     84  C   UNL A   1      40.793  26.335  26.287  1.00  0.00     0.200 A 
ATOM     85  F   UNL A   1      39.446  24.694  27.322  1.00  0.00    -0.200 F 
ATOM     86  F   UNL A   1      40.935  25.558  25.205  1.00  0.00    -0.200 F 
ENDBRANCH  52  76
BRANCH  64  87
ATOM     87  C   UNL A   1      43.762  28.174  34.699  1.00  0.00     0.064 A 
ATOM     88  C   UNL A   1      45.101  28.588  34.628  1.00  0.00     0.173 A 
ATOM     89  C   UNL A   1      43.479  26.977  35.374  1.00  0.00     0.173 A 
ATOM     90  F   UNL A   1      45.423  29.717  33.979  1.00  0.00    -0.203 F 
ATOM     91  C   UNL A   1      46.116  27.822  35.192  1.00  0.00     0.198 A 
ATOM     92  C   UNL A   1      44.494  26.228  35.960  1.00  0.00     0.198 A 
ATOM     93  F   UNL A   1      42.214  26.540  35.474  1.00  0.00    -0.203 F 
ATOM     94  F   UNL A   1      47.393  28.214  35.076  1.00  0.00    -0.200 F 
ATOM     95  C   UNL A   1      45.812  26.647  35.865  1.00  0.00     0.200 A 
ATOM     96  F   UNL A   1      44.197  25.099  36.620  1.00  0.00    -0.200 F 
ATOM     97  F   UNL A   1      46.790  25.916  36.414  1.00  0.00    -0.200 F 
ENDBRANCH  64  87
ENDBRANCH  38  39
ENDBRANCH  30  33
ENDBRANCH  28  29
ENDBRANCH  27  28
ENDBRANCH  26  27
ENDBRANCH   1  26
TORSDOF 15
ENDMDL
