MODEL 1
REMARK VINA RESULT:     -10.9      0.000      0.000
REMARK SMILES C[C@@](NC(=O)c1cc(Br)c[nH]1)(C(=O)NCCCCNC(=O)c1ccc(-c2c3nc(c(-c4c(F)c(F)c(F)c(F)c4F)c4ccc([nH]4)c(-c4c(F)c(F)c(F)c(F)c4F)c4nc(c(-c5c(F)c(F)c(F)c(F)c5F)c5ccc2[nH]5)C=C4)C=C3)cc1)C(F)(F)F
REMARK SMILES IDX 16 1 15 2 14 3 12 4 13 5 2 7 1 8 3 9 4 10 5 12 6 13 7 14
REMARK SMILES IDX 11 15 8 16 10 17 9 19 85 20 86 21 87 22 88 23 17 24 18 25
REMARK SMILES IDX 19 26 20 27 21 29 22 30 23 31 84 32 24 33 83 34 25 35 26 36
REMARK SMILES IDX 27 37 77 38 28 39 82 40 76 41 78 42 29 43 81 44 75 45 74 46
REMARK SMILES IDX 30 48 62 49 42 50 61 51 43 52 46 53 60 54 79 55 44 56 45 57
REMARK SMILES IDX 59 59 80 60 47 61 31 62 32 63 40 64 33 65 34 66 38 67 41 68
REMARK SMILES IDX 35 69 36 70 39 71 37 72 63 73 64 74 72 75 65 76 66 77 70 78
REMARK SMILES IDX 73 79 67 80 68 81 71 82 69 83 48 84 49 85 57 86 50 87 51 88
REMARK SMILES IDX 55 89 58 90 52 91 53 92 56 93 54 94
REMARK H PARENT 14 6 3 11 11 18 19 28 78 47 46 58
REMARK Flexibility Score: inf
ROOT
ATOM      1  C   UNL A   1      33.284  34.705  28.963  1.00  0.00     0.023 C 
ENDROOT
BRANCH   1   2
ATOM      2  C   UNL A   1      34.425  34.527  29.960  1.00  0.00     0.116 C 
BRANCH   2   3
ATOM      3  N   UNL A   1      34.045  33.637  31.044  1.00  0.00    -0.354 N 
ATOM      4  C   UNL A   1      34.199  33.751  32.395  1.00  0.00     0.254 C 
ATOM      5  O   UNL A   1      33.762  32.815  33.071  1.00  0.00    -0.272 OA
ATOM      6  H   UNL A   1      33.598  32.809  30.753  1.00  0.00     0.163 HD
BRANCH   4   7
ATOM      7  C   UNL A   1      34.974  34.914  33.035  1.00  0.00     0.212 C 
ATOM      8  C   UNL A   1      35.222  34.540  34.515  1.00  0.00     0.056 C 
BRANCH   7   9
ATOM      9  N   UNL A   1      36.299  35.184  32.396  1.00  0.00    -0.329 N 
ATOM     10  C   UNL A   1      37.323  34.345  32.033  1.00  0.00     0.268 C 
ATOM     11  H   UNL A   1      36.467  36.134  32.199  1.00  0.00     0.165 HD
ATOM     12  O   UNL A   1      38.137  34.789  31.224  1.00  0.00    -0.268 OA
BRANCH  10  13
ATOM     13  C   UNL A   1      37.523  33.093  32.721  1.00  0.00     0.105 A 
ATOM     14  C   UNL A   1      38.426  32.865  33.754  1.00  0.00     0.049 A 
ATOM     15  N   UNL A   1      36.921  31.879  32.462  1.00  0.00    -0.356 N 
ATOM     16  C   UNL A   1      38.230  31.551  34.209  1.00  0.00     0.036 A 
ATOM     17  C   UNL A   1      37.292  30.956  33.409  1.00  0.00     0.098 A 
ATOM     18  H   UNL A   1      36.313  31.700  31.709  1.00  0.00     0.166 HD
ATOM     19  Br  UNL A   1      39.108  30.803  35.682  1.00  0.00    -0.049 Br
ENDBRANCH  10  13
ENDBRANCH   7   9
BRANCH   7  20
ATOM     20  C   UNL A   1      34.072  36.167  33.036  1.00  0.00     0.420 C 
ATOM     21  F   UNL A   1      34.426  37.085  32.112  1.00  0.00    -0.168 F 
ATOM     22  F   UNL A   1      32.791  35.809  32.749  1.00  0.00    -0.168 F 
ATOM     23  F   UNL A   1      34.034  36.777  34.245  1.00  0.00    -0.168 F 
ENDBRANCH   7  20
ENDBRANCH   4   7
ENDBRANCH   2   3
ENDBRANCH   1   2
BRANCH   1  24
ATOM     24  C   UNL A   1      33.233  33.643  27.860  1.00  0.00     0.023 C 
BRANCH  24  25
ATOM     25  C   UNL A   1      34.230  32.499  28.015  1.00  0.00     0.116 C 
BRANCH  25  26
ATOM     26  N   UNL A   1      33.625  31.196  27.783  1.00  0.00    -0.352 N 
ATOM     27  C   UNL A   1      34.217  29.958  27.757  1.00  0.00     0.251 C 
ATOM     28  H   UNL A   1      32.654  31.204  27.622  1.00  0.00     0.163 HD
ATOM     29  O   UNL A   1      33.584  28.975  27.384  1.00  0.00    -0.269 OA
BRANCH  27  30
ATOM     30  C   UNL A   1      35.632  29.816  28.153  1.00  0.00     0.039 A 
ATOM     31  C   UNL A   1      35.932  29.440  29.464  1.00  0.00     0.014 A 
ATOM     32  C   UNL A   1      36.657  30.043  27.230  1.00  0.00     0.014 A 
ATOM     33  C   UNL A   1      37.261  29.222  29.832  1.00  0.00     0.010 A 
ATOM     34  C   UNL A   1      37.974  29.762  27.579  1.00  0.00     0.010 A 
ATOM     35  C   UNL A   1      38.288  29.347  28.882  1.00  0.00    -0.014 A 
BRANCH  35  36
ATOM     36  C   UNL A   1      39.697  29.041  29.234  1.00  0.00     0.031 A 
ATOM     37  C   UNL A   1      40.504  30.020  30.037  1.00  0.00     0.074 A 
ATOM     38  C   UNL A   1      40.268  27.912  28.774  1.00  0.00     0.049 A 
ATOM     39  N   UNL A   1      41.763  29.963  30.392  1.00  0.00    -0.248 NA
ATOM     40  C   UNL A   1      39.811  31.240  30.481  1.00  0.00     0.031 C 
ATOM     41  C   UNL A   1      39.603  26.906  27.945  1.00  0.00     0.029 A 
ATOM     42  N   UNL A   1      41.542  27.424  28.930  1.00  0.00    -0.354 N 
ATOM     43  C   UNL A   1      42.016  31.141  31.081  1.00  0.00     0.074 A 
ATOM     44  C   UNL A   1      40.794  31.916  31.058  1.00  0.00     0.031 C 
ATOM     45  C   UNL A   1      40.467  25.911  27.682  1.00  0.00     0.029 A 
ATOM     46  C   UNL A   1      41.754  26.226  28.296  1.00  0.00     0.049 A 
ATOM     47  H   UNL A   1      42.238  27.891  29.447  1.00  0.00     0.167 HD
ATOM     48  C   UNL A   1      43.158  31.531  31.695  1.00  0.00     0.037 A 
ATOM     49  C   UNL A   1      42.864  25.467  28.216  1.00  0.00     0.037 A 
ATOM     50  C   UNL A   1      44.362  30.745  31.744  1.00  0.00     0.049 A 
ATOM     51  C   UNL A   1      44.118  25.922  28.912  1.00  0.00     0.074 A 
ATOM     52  C   UNL A   1      45.548  31.021  32.403  1.00  0.00     0.029 A 
ATOM     53  N   UNL A   1      44.533  29.526  31.106  1.00  0.00    -0.354 N 
ATOM     54  N   UNL A   1      44.324  27.003  29.623  1.00  0.00    -0.248 NA
ATOM     55  C   UNL A   1      45.294  25.047  28.797  1.00  0.00     0.031 C 
ATOM     56  C   UNL A   1      46.450  29.987  32.131  1.00  0.00     0.029 A 
ATOM     57  C   UNL A   1      45.812  29.046  31.339  1.00  0.00     0.049 A 
ATOM     58  H   UNL A   1      43.848  29.068  30.567  1.00  0.00     0.167 HD
ATOM     59  C   UNL A   1      45.637  26.926  30.064  1.00  0.00     0.074 A 
ATOM     60  C   UNL A   1      46.178  25.685  29.550  1.00  0.00     0.031 C 
ATOM     61  C   UNL A   1      46.332  27.803  30.828  1.00  0.00     0.037 A 
BRANCH  48  62
ATOM     62  C   UNL A   1      43.160  32.871  32.370  1.00  0.00     0.064 A 
ATOM     63  C   UNL A   1      43.542  34.035  31.688  1.00  0.00     0.173 A 
ATOM     64  C   UNL A   1      42.739  32.997  33.702  1.00  0.00     0.173 A 
ATOM     65  F   UNL A   1      43.962  33.966  30.416  1.00  0.00    -0.203 F 
ATOM     66  C   UNL A   1      43.527  35.274  32.323  1.00  0.00     0.198 A 
ATOM     67  C   UNL A   1      42.699  34.242  34.325  1.00  0.00     0.198 A 
ATOM     68  F   UNL A   1      42.359  31.915  34.397  1.00  0.00    -0.203 F 
ATOM     69  F   UNL A   1      43.936  36.367  31.665  1.00  0.00    -0.200 F 
ATOM     70  C   UNL A   1      43.098  35.378  33.638  1.00  0.00     0.200 A 
ATOM     71  F   UNL A   1      42.274  34.342  35.592  1.00  0.00    -0.200 F 
ATOM     72  F   UNL A   1      43.077  36.572  34.245  1.00  0.00    -0.200 F 
ENDBRANCH  48  62
BRANCH  49  73
ATOM     73  C   UNL A   1      42.834  24.181  27.472  1.00  0.00     0.064 A 
ATOM     74  C   UNL A   1      42.503  22.984  28.124  1.00  0.00     0.173 A 
ATOM     75  C   UNL A   1      43.137  24.119  26.105  1.00  0.00     0.173 A 
ATOM     76  F   UNL A   1      42.226  22.993  29.437  1.00  0.00    -0.203 F 
ATOM     77  C   UNL A   1      42.496  21.771  27.442  1.00  0.00     0.198 A 
ATOM     78  C   UNL A   1      43.105  22.907  25.417  1.00  0.00     0.198 A 
ATOM     79  F   UNL A   1      43.455  25.236  25.436  1.00  0.00    -0.203 F 
ATOM     80  F   UNL A   1      42.219  20.637  28.098  1.00  0.00    -0.200 F 
ATOM     81  C   UNL A   1      42.793  21.734  26.087  1.00  0.00     0.200 A 
ATOM     82  F   UNL A   1      43.380  22.876  24.107  1.00  0.00    -0.200 F 
ATOM     83  F   UNL A   1      42.785  20.566  25.429  1.00  0.00    -0.200 F 
ENDBRANCH  49  73
BRANCH  61  84
ATOM     84  C   UNL A   1      47.743  27.439  31.183  1.00  0.00     0.064 A 
ATOM     85  C   UNL A   1      48.037  26.639  32.297  1.00  0.00     0.173 A 
ATOM     86  C   UNL A   1      48.810  27.863  30.377  1.00  0.00     0.173 A 
ATOM     87  F   UNL A   1      47.051  26.223  33.108  1.00  0.00    -0.203 F 
ATOM     88  C   UNL A   1      49.351  26.295  32.603  1.00  0.00     0.198 A 
ATOM     89  C   UNL A   1      50.119  27.494  30.670  1.00  0.00     0.198 A 
ATOM     90  F   UNL A   1      48.580  28.626  29.297  1.00  0.00    -0.203 F 
ATOM     91  F   UNL A   1      49.613  25.565  33.696  1.00  0.00    -0.200 F 
ATOM     92  C   UNL A   1      50.389  26.716  31.785  1.00  0.00     0.200 A 
ATOM     93  F   UNL A   1      51.120  27.892  29.873  1.00  0.00    -0.200 F 
ATOM     94  F   UNL A   1      51.653  26.377  32.077  1.00  0.00    -0.200 F 
ENDBRANCH  61  84
ENDBRANCH  35  36
ENDBRANCH  27  30
ENDBRANCH  25  26
ENDBRANCH  24  25
ENDBRANCH   1  24
TORSDOF 14
ENDMDL
MODEL 2
REMARK VINA RESULT:     -10.9      4.574     10.352
REMARK SMILES C[C@@](NC(=O)c1cc(Br)c[nH]1)(C(=O)NCCCCNC(=O)c1ccc(-c2c3nc(c(-c4c(F)c(F)c(F)c(F)c4F)c4ccc([nH]4)c(-c4c(F)c(F)c(F)c(F)c4F)c4nc(c(-c5c(F)c(F)c(F)c(F)c5F)c5ccc2[nH]5)C=C4)C=C3)cc1)C(F)(F)F
REMARK SMILES IDX 16 1 15 2 14 3 12 4 13 5 2 7 1 8 3 9 4 10 5 12 6 13 7 14
REMARK SMILES IDX 11 15 8 16 10 17 9 19 85 20 86 21 87 22 88 23 17 24 18 25
REMARK SMILES IDX 19 26 20 27 21 29 22 30 23 31 84 32 24 33 83 34 25 35 26 36
REMARK SMILES IDX 27 37 77 38 28 39 82 40 76 41 78 42 29 43 81 44 75 45 74 46
REMARK SMILES IDX 30 48 62 49 42 50 61 51 43 52 46 53 60 54 79 55 44 56 45 57
REMARK SMILES IDX 59 59 80 60 47 61 31 62 32 63 40 64 33 65 34 66 38 67 41 68
REMARK SMILES IDX 35 69 36 70 39 71 37 72 63 73 64 74 72 75 65 76 66 77 70 78
REMARK SMILES IDX 73 79 67 80 68 81 71 82 69 83 48 84 49 85 57 86 50 87 51 88
REMARK SMILES IDX 55 89 58 90 52 91 53 92 56 93 54 94
REMARK H PARENT 14 6 3 11 11 18 19 28 78 47 46 58
REMARK Flexibility Score: inf
ROOT
ATOM      1  C   UNL A   1      31.454  31.074  25.825  1.00  0.00     0.023 C 
ENDROOT
BRANCH   1   2
ATOM      2  C   UNL A   1      32.544  30.034  26.064  1.00  0.00     0.116 C 
BRANCH   2   3
ATOM      3  N   UNL A   1      33.276  29.747  24.842  1.00  0.00    -0.354 N 
ATOM      4  C   UNL A   1      33.330  28.622  24.071  1.00  0.00     0.254 C 
ATOM      5  O   UNL A   1      34.052  28.683  23.072  1.00  0.00    -0.272 OA
ATOM      6  H   UNL A   1      33.828  30.493  24.513  1.00  0.00     0.163 HD
BRANCH   4   7
ATOM      7  C   UNL A   1      32.631  27.315  24.481  1.00  0.00     0.212 C 
ATOM      8  C   UNL A   1      31.526  27.687  25.498  1.00  0.00     0.056 C 
BRANCH   7   9
ATOM      9  N   UNL A   1      31.989  26.587  23.343  1.00  0.00    -0.329 N 
ATOM     10  C   UNL A   1      31.301  27.039  22.246  1.00  0.00     0.268 C 
ATOM     11  H   UNL A   1      32.077  25.608  23.389  1.00  0.00     0.165 HD
ATOM     12  O   UNL A   1      31.186  26.252  21.307  1.00  0.00    -0.268 OA
BRANCH  10  13
ATOM     13  C   UNL A   1      30.594  28.296  22.290  1.00  0.00     0.105 A 
ATOM     14  C   UNL A   1      29.305  28.489  22.777  1.00  0.00     0.049 A 
ATOM     15  N   UNL A   1      31.014  29.521  21.816  1.00  0.00    -0.356 N 
ATOM     16  C   UNL A   1      29.038  29.868  22.736  1.00  0.00     0.036 A 
ATOM     17  C   UNL A   1      30.104  30.494  22.149  1.00  0.00     0.098 A 
ATOM     18  H   UNL A   1      31.847  29.675  21.313  1.00  0.00     0.166 HD
ATOM     19  Br  UNL A   1      27.483  30.661  23.410  1.00  0.00    -0.049 Br
ENDBRANCH  10  13
ENDBRANCH   7   9
BRANCH   7  20
ATOM     20  C   UNL A   1      33.647  26.427  25.231  1.00  0.00     0.420 C 
ATOM     21  F   UNL A   1      34.388  27.104  26.135  1.00  0.00    -0.168 F 
ATOM     22  F   UNL A   1      32.985  25.462  25.926  1.00  0.00    -0.168 F 
ATOM     23  F   UNL A   1      34.490  25.780  24.392  1.00  0.00    -0.168 F 
ENDBRANCH   7  20
ENDBRANCH   4   7
ENDBRANCH   2   3
ENDBRANCH   1   2
BRANCH   1  24
ATOM     24  C   UNL A   1      31.315  32.117  26.939  1.00  0.00     0.023 C 
BRANCH  24  25
ATOM     25  C   UNL A   1      32.600  32.858  27.296  1.00  0.00     0.116 C 
BRANCH  25  26
ATOM     26  N   UNL A   1      32.367  34.260  27.611  1.00  0.00    -0.352 N 
ATOM     27  C   UNL A   1      32.980  35.051  28.550  1.00  0.00     0.251 C 
ATOM     28  H   UNL A   1      31.671  34.703  27.073  1.00  0.00     0.163 HD
ATOM     29  O   UNL A   1      32.547  36.172  28.795  1.00  0.00    -0.269 OA
BRANCH  27  30
ATOM     30  C   UNL A   1      34.149  34.534  29.289  1.00  0.00     0.039 A 
ATOM     31  C   UNL A   1      33.962  34.023  30.576  1.00  0.00     0.014 A 
ATOM     32  C   UNL A   1      35.420  34.543  28.710  1.00  0.00     0.014 A 
ATOM     33  C   UNL A   1      35.040  33.455  31.256  1.00  0.00     0.010 A 
ATOM     34  C   UNL A   1      36.480  33.918  29.362  1.00  0.00     0.010 A 
ATOM     35  C   UNL A   1      36.299  33.367  30.639  1.00  0.00    -0.014 A 
BRANCH  35  36
ATOM     36  C   UNL A   1      37.437  32.695  31.315  1.00  0.00     0.031 A 
ATOM     37  C   UNL A   1      38.138  31.546  30.649  1.00  0.00     0.074 A 
ATOM     38  C   UNL A   1      37.795  33.079  32.555  1.00  0.00     0.049 A 
ATOM     39  N   UNL A   1      39.110  30.794  31.103  1.00  0.00    -0.248 NA
ATOM     40  C   UNL A   1      37.670  31.176  29.305  1.00  0.00     0.031 C 
ATOM     41  C   UNL A   1      37.159  34.149  33.325  1.00  0.00     0.029 A 
ATOM     42  N   UNL A   1      38.775  32.605  33.391  1.00  0.00    -0.354 N 
ATOM     43  C   UNL A   1      39.354  29.855  30.110  1.00  0.00     0.074 A 
ATOM     44  C   UNL A   1      38.402  30.101  29.049  1.00  0.00     0.031 C 
ATOM     45  C   UNL A   1      37.779  34.265  34.511  1.00  0.00     0.029 A 
ATOM     46  C   UNL A   1      38.831  33.256  34.598  1.00  0.00     0.049 A 
ATOM     47  H   UNL A   1      39.380  31.868  33.148  1.00  0.00     0.167 HD
ATOM     48  C   UNL A   1      40.302  28.887  30.079  1.00  0.00     0.037 A 
ATOM     49  C   UNL A   1      39.639  33.059  35.658  1.00  0.00     0.037 A 
ATOM     50  C   UNL A   1      41.269  28.664  31.121  1.00  0.00     0.049 A 
ATOM     51  C   UNL A   1      40.686  31.980  35.594  1.00  0.00     0.074 A 
ATOM     52  C   UNL A   1      42.314  27.758  31.150  1.00  0.00     0.029 A 
ATOM     53  N   UNL A   1      41.307  29.358  32.322  1.00  0.00    -0.354 N 
ATOM     54  N   UNL A   1      40.957  31.147  34.620  1.00  0.00    -0.248 NA
ATOM     55  C   UNL A   1      41.544  31.820  36.777  1.00  0.00     0.031 C 
ATOM     56  C   UNL A   1      42.961  27.875  32.384  1.00  0.00     0.029 A 
ATOM     57  C   UNL A   1      42.345  28.885  33.107  1.00  0.00     0.049 A 
ATOM     58  H   UNL A   1      40.687  30.079  32.579  1.00  0.00     0.167 HD
ATOM     59  C   UNL A   1      42.030  30.384  35.058  1.00  0.00     0.074 A 
ATOM     60  C   UNL A   1      42.370  30.862  36.381  1.00  0.00     0.031 C 
ATOM     61  C   UNL A   1      42.677  29.379  34.419  1.00  0.00     0.037 A 
BRANCH  48  62
ATOM     62  C   UNL A   1      40.342  27.995  28.873  1.00  0.00     0.064 A 
ATOM     63  C   UNL A   1      41.091  28.332  27.737  1.00  0.00     0.173 A 
ATOM     64  C   UNL A   1      39.654  26.773  28.869  1.00  0.00     0.173 A 
ATOM     65  F   UNL A   1      41.758  29.495  27.687  1.00  0.00    -0.203 F 
ATOM     66  C   UNL A   1      41.129  27.489  26.629  1.00  0.00     0.198 A 
ATOM     67  C   UNL A   1      39.717  25.920  27.770  1.00  0.00     0.198 A 
ATOM     68  F   UNL A   1      38.927  26.402  29.934  1.00  0.00    -0.203 F 
ATOM     69  F   UNL A   1      41.817  27.851  25.537  1.00  0.00    -0.200 F 
ATOM     70  C   UNL A   1      40.449  26.281  26.650  1.00  0.00     0.200 A 
ATOM     71  F   UNL A   1      39.069  24.748  27.796  1.00  0.00    -0.200 F 
ATOM     72  F   UNL A   1      40.493  25.467  25.585  1.00  0.00    -0.200 F 
ENDBRANCH  48  62
BRANCH  49  73
ATOM     73  C   UNL A   1      39.511  33.921  36.860  1.00  0.00     0.064 A 
ATOM     74  C   UNL A   1      38.745  33.508  37.960  1.00  0.00     0.173 A 
ATOM     75  C   UNL A   1      40.142  35.172  36.935  1.00  0.00     0.173 A 
ATOM     76  F   UNL A   1      38.107  32.329  37.925  1.00  0.00    -0.203 F 
ATOM     77  C   UNL A   1      38.598  34.321  39.081  1.00  0.00     0.198 A 
ATOM     78  C   UNL A   1      40.014  35.973  38.068  1.00  0.00     0.198 A 
ATOM     79  F   UNL A   1      40.888  35.610  35.911  1.00  0.00    -0.203 F 
ATOM     80  F   UNL A   1      37.826  33.921  40.100  1.00  0.00    -0.200 F 
ATOM     81  C   UNL A   1      39.237  35.551  39.137  1.00  0.00     0.200 A 
ATOM     82  F   UNL A   1      40.642  37.155  38.124  1.00  0.00    -0.200 F 
ATOM     83  F   UNL A   1      39.098  36.333  40.216  1.00  0.00    -0.200 F 
ENDBRANCH  49  73
BRANCH  61  84
ATOM     84  C   UNL A   1      43.839  28.750  35.128  1.00  0.00     0.064 A 
ATOM     85  C   UNL A   1      45.144  29.242  34.979  1.00  0.00     0.173 A 
ATOM     86  C   UNL A   1      43.640  27.666  35.996  1.00  0.00     0.173 A 
ATOM     87  F   UNL A   1      45.388  30.267  34.147  1.00  0.00    -0.203 F 
ATOM     88  C   UNL A   1      46.211  28.659  35.658  1.00  0.00     0.198 A 
ATOM     89  C   UNL A   1      44.703  27.102  36.694  1.00  0.00     0.198 A 
ATOM     90  F   UNL A   1      42.410  27.162  36.176  1.00  0.00    -0.203 F 
ATOM     91  F   UNL A   1      47.455  29.118  35.469  1.00  0.00    -0.200 F 
ATOM     92  C   UNL A   1      45.987  27.595  36.520  1.00  0.00     0.200 A 
ATOM     93  F   UNL A   1      44.485  26.083  37.535  1.00  0.00    -0.200 F 
ATOM     94  F   UNL A   1      47.014  27.039  37.179  1.00  0.00    -0.200 F 
ENDBRANCH  61  84
ENDBRANCH  35  36
ENDBRANCH  27  30
ENDBRANCH  25  26
ENDBRANCH  24  25
ENDBRANCH   1  24
TORSDOF 14
ENDMDL
MODEL 3
REMARK VINA RESULT:     -10.9      4.466      7.590
REMARK SMILES C[C@@](NC(=O)c1cc(Br)c[nH]1)(C(=O)NCCCCNC(=O)c1ccc(-c2c3nc(c(-c4c(F)c(F)c(F)c(F)c4F)c4ccc([nH]4)c(-c4c(F)c(F)c(F)c(F)c4F)c4nc(c(-c5c(F)c(F)c(F)c(F)c5F)c5ccc2[nH]5)C=C4)C=C3)cc1)C(F)(F)F
REMARK SMILES IDX 16 1 15 2 14 3 12 4 13 5 2 7 1 8 3 9 4 10 5 12 6 13 7 14
REMARK SMILES IDX 11 15 8 16 10 17 9 19 85 20 86 21 87 22 88 23 17 24 18 25
REMARK SMILES IDX 19 26 20 27 21 29 22 30 23 31 84 32 24 33 83 34 25 35 26 36
REMARK SMILES IDX 27 37 77 38 28 39 82 40 76 41 78 42 29 43 81 44 75 45 74 46
REMARK SMILES IDX 30 48 62 49 42 50 61 51 43 52 46 53 60 54 79 55 44 56 45 57
REMARK SMILES IDX 59 59 80 60 47 61 31 62 32 63 40 64 33 65 34 66 38 67 41 68
REMARK SMILES IDX 35 69 36 70 39 71 37 72 63 73 64 74 72 75 65 76 66 77 70 78
REMARK SMILES IDX 73 79 67 80 68 81 71 82 69 83 48 84 49 85 57 86 50 87 51 88
REMARK SMILES IDX 55 89 58 90 52 91 53 92 56 93 54 94
REMARK H PARENT 14 6 3 11 11 18 19 28 78 47 46 58
REMARK Flexibility Score: inf
ROOT
ATOM      1  C   UNL A   1      31.380  31.108  25.807  1.00  0.00     0.023 C 
ENDROOT
BRANCH   1   2
ATOM      2  C   UNL A   1      32.452  30.054  26.071  1.00  0.00     0.116 C 
BRANCH   2   3
ATOM      3  N   UNL A   1      33.213  29.764  24.869  1.00  0.00    -0.354 N 
ATOM      4  C   UNL A   1      33.288  28.636  24.103  1.00  0.00     0.254 C 
ATOM      5  O   UNL A   1      34.034  28.695  23.122  1.00  0.00    -0.272 OA
ATOM      6  H   UNL A   1      33.772  30.510  24.550  1.00  0.00     0.163 HD
BRANCH   4   7
ATOM      7  C   UNL A   1      32.581  27.330  24.501  1.00  0.00     0.212 C 
ATOM      8  C   UNL A   1      31.472  27.699  25.514  1.00  0.00     0.056 C 
BRANCH   7   9
ATOM      9  N   UNL A   1      31.944  26.611  23.355  1.00  0.00    -0.329 N 
ATOM     10  C   UNL A   1      31.270  27.073  22.253  1.00  0.00     0.268 C 
ATOM     11  H   UNL A   1      32.023  25.631  23.399  1.00  0.00     0.165 HD
ATOM     12  O   UNL A   1      31.157  26.290  21.310  1.00  0.00    -0.268 OA
BRANCH  10  13
ATOM     13  C   UNL A   1      30.574  28.335  22.294  1.00  0.00     0.105 A 
ATOM     14  C   UNL A   1      29.293  28.545  22.795  1.00  0.00     0.049 A 
ATOM     15  N   UNL A   1      30.999  29.553  21.803  1.00  0.00    -0.356 N 
ATOM     16  C   UNL A   1      29.037  29.925  22.744  1.00  0.00     0.036 A 
ATOM     17  C   UNL A   1      30.101  30.536  22.138  1.00  0.00     0.098 A 
ATOM     18  H   UNL A   1      31.826  29.695  21.288  1.00  0.00     0.166 HD
ATOM     19  Br  UNL A   1      27.498  30.737  23.431  1.00  0.00    -0.049 Br
ENDBRANCH  10  13
ENDBRANCH   7   9
BRANCH   7  20
ATOM     20  C   UNL A   1      33.589  26.433  25.253  1.00  0.00     0.420 C 
ATOM     21  F   UNL A   1      33.006  25.424  25.934  1.00  0.00    -0.168 F 
ATOM     22  F   UNL A   1      34.437  25.852  24.361  1.00  0.00    -0.168 F 
ATOM     23  F   UNL A   1      34.364  27.133  26.114  1.00  0.00    -0.168 F 
ENDBRANCH   7  20
ENDBRANCH   4   7
ENDBRANCH   2   3
ENDBRANCH   1   2
BRANCH   1  24
ATOM     24  C   UNL A   1      31.280  32.196  26.880  1.00  0.00     0.023 C 
BRANCH  24  25
ATOM     25  C   UNL A   1      32.591  32.906  27.206  1.00  0.00     0.116 C 
BRANCH  25  26
ATOM     26  N   UNL A   1      32.390  34.284  27.630  1.00  0.00    -0.352 N 
ATOM     27  C   UNL A   1      33.021  34.985  28.627  1.00  0.00     0.251 C 
ATOM     28  H   UNL A   1      31.705  34.783  27.130  1.00  0.00     0.163 HD
ATOM     29  O   UNL A   1      32.614  36.093  28.960  1.00  0.00    -0.269 OA
BRANCH  27  30
ATOM     30  C   UNL A   1      34.178  34.385  29.322  1.00  0.00     0.039 A 
ATOM     31  C   UNL A   1      33.954  33.622  30.470  1.00  0.00     0.014 A 
ATOM     32  C   UNL A   1      35.475  34.567  28.834  1.00  0.00     0.014 A 
ATOM     33  C   UNL A   1      35.027  32.980  31.091  1.00  0.00     0.010 A 
ATOM     34  C   UNL A   1      36.533  33.874  29.416  1.00  0.00     0.010 A 
ATOM     35  C   UNL A   1      36.318  33.073  30.548  1.00  0.00    -0.014 A 
BRANCH  35  36
ATOM     36  C   UNL A   1      37.456  32.333  31.148  1.00  0.00     0.031 A 
ATOM     37  C   UNL A   1      37.955  32.697  32.517  1.00  0.00     0.074 A 
ATOM     38  C   UNL A   1      38.081  31.378  30.433  1.00  0.00     0.049 A 
ATOM     39  N   UNL A   1      38.971  32.211  33.184  1.00  0.00    -0.248 NA
ATOM     40  C   UNL A   1      37.231  33.767  33.221  1.00  0.00     0.031 C 
ATOM     41  C   UNL A   1      37.721  30.968  29.075  1.00  0.00     0.029 A 
ATOM     42  N   UNL A   1      39.157  30.586  30.745  1.00  0.00    -0.354 N 
ATOM     43  C   UNL A   1      39.019  32.926  34.373  1.00  0.00     0.074 A 
ATOM     44  C   UNL A   1      37.958  33.909  34.319  1.00  0.00     0.031 C 
ATOM     45  C   UNL A   1      38.547  29.987  28.678  1.00  0.00     0.029 A 
ATOM     46  C   UNL A   1      39.515  29.722  29.739  1.00  0.00     0.049 A 
ATOM     47  H   UNL A   1      39.629  30.633  31.607  1.00  0.00     0.167 HD
ATOM     48  C   UNL A   1      39.859  32.763  35.423  1.00  0.00     0.037 A 
ATOM     49  C   UNL A   1      40.514  28.820  29.679  1.00  0.00     0.037 A 
ATOM     50  C   UNL A   1      40.892  31.764  35.488  1.00  0.00     0.049 A 
ATOM     51  C   UNL A   1      41.429  28.657  30.863  1.00  0.00     0.074 A 
ATOM     52  C   UNL A   1      41.746  31.472  36.537  1.00  0.00     0.029 A 
ATOM     53  N   UNL A   1      41.211  30.893  34.457  1.00  0.00    -0.354 N 
ATOM     54  N   UNL A   1      41.418  29.288  32.011  1.00  0.00    -0.248 NA
ATOM     55  C   UNL A   1      42.493  27.650  30.742  1.00  0.00     0.031 C 
ATOM     56  C   UNL A   1      42.609  30.450  36.128  1.00  0.00     0.029 A 
ATOM     57  C   UNL A   1      42.264  30.076  34.838  1.00  0.00     0.049 A 
ATOM     58  H   UNL A   1      40.758  30.860  33.584  1.00  0.00     0.167 HD
ATOM     59  C   UNL A   1      42.449  28.738  32.759  1.00  0.00     0.074 A 
ATOM     60  C   UNL A   1      43.059  27.713  31.938  1.00  0.00     0.031 C 
ATOM     61  C   UNL A   1      42.853  29.053  34.013  1.00  0.00     0.037 A 
BRANCH  48  62
ATOM     62  C   UNL A   1      39.692  33.686  36.594  1.00  0.00     0.064 A 
ATOM     63  C   UNL A   1      40.335  34.931  36.644  1.00  0.00     0.173 A 
ATOM     64  C   UNL A   1      38.851  33.337  37.661  1.00  0.00     0.173 A 
ATOM     65  F   UNL A   1      41.158  35.307  35.654  1.00  0.00    -0.203 F 
ATOM     66  C   UNL A   1      40.161  35.784  37.731  1.00  0.00     0.198 A 
ATOM     67  C   UNL A   1      38.658  34.204  38.734  1.00  0.00     0.198 A 
ATOM     68  F   UNL A   1      38.208  32.159  37.660  1.00  0.00    -0.203 F 
ATOM     69  F   UNL A   1      40.819  36.951  37.777  1.00  0.00    -0.200 F 
ATOM     70  C   UNL A   1      39.318  35.423  38.771  1.00  0.00     0.200 A 
ATOM     71  F   UNL A   1      37.834  33.859  39.733  1.00  0.00    -0.200 F 
ATOM     72  F   UNL A   1      39.146  36.248  39.813  1.00  0.00    -0.200 F 
ENDBRANCH  48  62
BRANCH  49  73
ATOM     73  C   UNL A   1      40.684  27.980  28.467  1.00  0.00     0.064 A 
ATOM     74  C   UNL A   1      41.456  28.429  27.386  1.00  0.00     0.173 A 
ATOM     75  C   UNL A   1      40.078  26.720  28.358  1.00  0.00     0.173 A 
ATOM     76  F   UNL A   1      42.038  29.637  27.436  1.00  0.00    -0.203 F 
ATOM     77  C   UNL A   1      41.601  27.659  26.235  1.00  0.00     0.198 A 
ATOM     78  C   UNL A   1      40.244  25.939  27.216  1.00  0.00     0.198 A 
ATOM     79  F   UNL A   1      39.333  26.244  29.366  1.00  0.00    -0.203 F 
ATOM     80  F   UNL A   1      42.309  28.131  25.200  1.00  0.00    -0.200 F 
ATOM     81  C   UNL A   1      40.998  26.413  26.153  1.00  0.00     0.200 A 
ATOM     82  F   UNL A   1      39.671  24.731  27.144  1.00  0.00    -0.200 F 
ATOM     83  F   UNL A   1      41.138  25.670  25.046  1.00  0.00    -0.200 F 
ENDBRANCH  49  73
BRANCH  61  84
ATOM     84  C   UNL A   1      43.987  28.259  34.590  1.00  0.00     0.064 A 
ATOM     85  C   UNL A   1      45.317  28.694  34.485  1.00  0.00     0.173 A 
ATOM     86  C   UNL A   1      43.737  27.069  35.289  1.00  0.00     0.173 A 
ATOM     87  F   UNL A   1      45.608  29.817  33.810  1.00  0.00    -0.203 F 
ATOM     88  C   UNL A   1      46.357  27.954  35.042  1.00  0.00     0.198 A 
ATOM     89  C   UNL A   1      44.775  26.347  35.868  1.00  0.00     0.198 A 
ATOM     90  F   UNL A   1      42.482  26.614  35.422  1.00  0.00    -0.203 F 
ATOM     91  F   UNL A   1      47.623  28.365  34.893  1.00  0.00    -0.200 F 
ATOM     92  C   UNL A   1      46.084  26.787  35.739  1.00  0.00     0.200 A 
ATOM     93  F   UNL A   1      44.511  25.225  36.551  1.00  0.00    -0.200 F 
ATOM     94  F   UNL A   1      47.086  26.080  36.281  1.00  0.00    -0.200 F 
ENDBRANCH  61  84
ENDBRANCH  35  36
ENDBRANCH  27  30
ENDBRANCH  25  26
ENDBRANCH  24  25
ENDBRANCH   1  24
TORSDOF 14
ENDMDL
