MODEL 1
REMARK VINA RESULT:     -12.7      0.000      0.000
REMARK SMILES O=C(NCCCCNC(=O)c1cc(-c2ccc(C(F)(F)F)cc2)cc([N+](=O)[O-])c1)c1ccc(-c2c3nc(c(-c4c(F)c(F)c(F)c(F)c4F)c4ccc([nH]4)c(-c4c(F)c(F)c(F)c(F)c4F)c4nc(c(-c5c(F)c(F)c(F)c(F)c5F)c5ccc2[nH]5)C=C4)C=C3)cc1
REMARK SMILES IDX 5 1 4 2 3 3 1 4 2 5 30 7 31 8 92 9 32 10 91 11 33 12 34 13
REMARK SMILES IDX 35 14 85 15 36 16 90 17 84 18 86 19 37 20 89 21 83 22 82 23
REMARK SMILES IDX 38 25 70 26 50 27 69 28 51 29 54 30 68 31 87 32 52 33 53 34
REMARK SMILES IDX 67 36 88 37 55 38 39 39 40 40 48 41 41 42 42 43 46 44 49 45
REMARK SMILES IDX 43 46 44 47 47 48 45 49 71 50 72 51 80 52 73 53 74 54 78 55
REMARK SMILES IDX 81 56 75 57 76 58 79 59 77 60 56 61 57 62 65 63 58 64 59 65
REMARK SMILES IDX 63 66 66 67 60 68 61 69 64 70 62 71 6 72 7 73 8 74 9 75
REMARK SMILES IDX 10 77 11 78 12 79 29 80 13 81 25 82 24 83 14 84 15 85 23 86
REMARK SMILES IDX 16 87 22 88 17 89 18 90 19 91 20 92 21 93 26 94 27 95 28 96
REMARK H PARENT 3 6 86 24 54 35 8 76
REMARK Flexibility Score: inf
ROOT
ATOM      1  C   UNL A   1      34.029  28.574  24.339  1.00  0.00     0.023 C 
ENDROOT
BRANCH   1   2
ATOM      2  C   UNL A   1      33.235  28.632  25.635  1.00  0.00     0.116 C 
BRANCH   2   3
ATOM      3  N   UNL A   1      32.761  29.971  25.954  1.00  0.00    -0.352 N 
ATOM      4  O   UNL A   1      32.663  31.914  27.105  1.00  0.00    -0.269 OA
ATOM      5  C   UNL A   1      33.273  30.880  26.849  1.00  0.00     0.251 C 
ATOM      6  H   UNL A   1      31.961  30.265  25.462  1.00  0.00     0.163 HD
BRANCH   5   7
ATOM      7  C   UNL A   1      34.554  30.587  27.524  1.00  0.00     0.039 A 
ATOM      8  C   UNL A   1      34.777  29.330  28.087  1.00  0.00     0.014 A 
ATOM      9  C   UNL A   1      35.522  31.587  27.627  1.00  0.00     0.014 A 
ATOM     10  C   UNL A   1      35.881  29.131  28.904  1.00  0.00     0.010 A 
ATOM     11  C   UNL A   1      36.692  31.345  28.353  1.00  0.00     0.010 A 
ATOM     12  C   UNL A   1      36.864  30.126  29.028  1.00  0.00    -0.014 A 
BRANCH  12  13
ATOM     13  C   UNL A   1      38.091  29.829  29.810  1.00  0.00     0.031 A 
ATOM     14  C   UNL A   1      38.296  30.382  31.192  1.00  0.00     0.074 A 
ATOM     15  C   UNL A   1      39.011  29.010  29.263  1.00  0.00     0.049 A 
ATOM     16  N   UNL A   1      39.305  30.204  32.009  1.00  0.00    -0.248 NA
ATOM     17  C   UNL A   1      37.239  31.252  31.729  1.00  0.00     0.031 C 
ATOM     18  C   UNL A   1      38.922  28.421  27.924  1.00  0.00     0.029 A 
ATOM     19  N   UNL A   1      40.187  28.515  29.762  1.00  0.00    -0.354 N 
ATOM     20  C   UNL A   1      39.009  30.941  33.148  1.00  0.00     0.074 A 
ATOM     21  C   UNL A   1      37.745  31.601  32.904  1.00  0.00     0.031 C 
ATOM     22  C   UNL A   1      39.968  27.608  27.728  1.00  0.00     0.029 A 
ATOM     23  C   UNL A   1      40.842  27.680  28.891  1.00  0.00     0.049 A 
ATOM     24  H   UNL A   1      40.529  28.738  30.659  1.00  0.00     0.167 HD
ATOM     25  C   UNL A   1      39.724  31.043  34.296  1.00  0.00     0.037 A 
ATOM     26  C   UNL A   1      42.031  27.060  29.003  1.00  0.00     0.037 A 
ATOM     27  C   UNL A   1      40.985  30.381  34.528  1.00  0.00     0.049 A 
ATOM     28  C   UNL A   1      42.824  27.240  30.265  1.00  0.00     0.074 A 
ATOM     29  C   UNL A   1      41.783  30.415  35.659  1.00  0.00     0.029 A 
ATOM     30  N   UNL A   1      41.636  29.571  33.607  1.00  0.00    -0.354 N 
ATOM     31  N   UNL A   1      42.520  27.916  31.345  1.00  0.00    -0.248 NA
ATOM     32  C   UNL A   1      44.130  26.570  30.321  1.00  0.00     0.031 C 
ATOM     33  C   UNL A   1      42.940  29.670  35.404  1.00  0.00     0.029 A 
ATOM     34  C   UNL A   1      42.834  29.118  34.137  1.00  0.00     0.049 A 
ATOM     35  H   UNL A   1      41.296  29.351  32.710  1.00  0.00     0.167 HD
ATOM     36  C   UNL A   1      43.581  27.732  32.220  1.00  0.00     0.074 A 
ATOM     37  C   UNL A   1      44.526  26.861  31.552  1.00  0.00     0.031 C 
ATOM     38  C   UNL A   1      43.760  28.244  33.462  1.00  0.00     0.037 A 
BRANCH  25  39
ATOM     39  C   UNL A   1      39.169  31.909  35.392  1.00  0.00     0.064 A 
ATOM     40  C   UNL A   1      38.380  31.379  36.424  1.00  0.00     0.173 A 
ATOM     41  C   UNL A   1      39.476  33.279  35.443  1.00  0.00     0.173 A 
ATOM     42  F   UNL A   1      38.050  30.079  36.420  1.00  0.00    -0.203 F 
ATOM     43  C   UNL A   1      37.899  32.190  37.450  1.00  0.00     0.198 A 
ATOM     44  C   UNL A   1      39.020  34.080  36.488  1.00  0.00     0.198 A 
ATOM     45  F   UNL A   1      40.233  33.839  34.488  1.00  0.00    -0.203 F 
ATOM     46  F   UNL A   1      37.111  31.668  38.400  1.00  0.00    -0.200 F 
ATOM     47  C   UNL A   1      38.226  33.537  37.486  1.00  0.00     0.200 A 
ATOM     48  F   UNL A   1      39.350  35.378  36.528  1.00  0.00    -0.200 F 
ATOM     49  F   UNL A   1      37.772  34.313  38.480  1.00  0.00    -0.200 F 
ENDBRANCH  25  39
BRANCH  26  50
ATOM     50  C   UNL A   1      42.547  26.235  27.879  1.00  0.00     0.064 A 
ATOM     51  C   UNL A   1      42.336  24.850  27.840  1.00  0.00     0.173 A 
ATOM     52  C   UNL A   1      43.274  26.814  26.827  1.00  0.00     0.173 A 
ATOM     53  F   UNL A   1      41.660  24.248  28.829  1.00  0.00    -0.203 F 
ATOM     54  C   UNL A   1      42.859  24.073  26.809  1.00  0.00     0.198 A 
ATOM     55  C   UNL A   1      43.762  26.042  25.777  1.00  0.00     0.198 A 
ATOM     56  F   UNL A   1      43.497  28.137  26.811  1.00  0.00    -0.203 F 
ATOM     57  F   UNL A   1      42.693  22.744  26.827  1.00  0.00    -0.200 F 
ATOM     58  C   UNL A   1      43.566  24.669  25.776  1.00  0.00     0.200 A 
ATOM     59  F   UNL A   1      44.426  26.626  24.771  1.00  0.00    -0.200 F 
ATOM     60  F   UNL A   1      44.067  23.921  24.784  1.00  0.00    -0.200 F 
ENDBRANCH  26  50
BRANCH  38  61
ATOM     61  C   UNL A   1      45.008  27.835  34.194  1.00  0.00     0.064 A 
ATOM     62  C   UNL A   1      46.200  28.567  34.090  1.00  0.00     0.173 A 
ATOM     63  C   UNL A   1      45.003  26.701  35.019  1.00  0.00     0.173 A 
ATOM     64  F   UNL A   1      46.262  29.650  33.299  1.00  0.00    -0.203 F 
ATOM     65  C   UNL A   1      47.351  28.158  34.758  1.00  0.00     0.198 A 
ATOM     66  C   UNL A   1      46.146  26.315  35.715  1.00  0.00     0.198 A 
ATOM     67  F   UNL A   1      43.888  25.969  35.158  1.00  0.00    -0.203 F 
ATOM     68  F   UNL A   1      48.495  28.836  34.594  1.00  0.00    -0.200 F 
ATOM     69  C   UNL A   1      47.321  27.038  35.575  1.00  0.00     0.200 A 
ATOM     70  F   UNL A   1      46.111  25.242  36.515  1.00  0.00    -0.200 F 
ATOM     71  F   UNL A   1      48.429  26.647  36.219  1.00  0.00    -0.200 F 
ENDBRANCH  38  61
ENDBRANCH  12  13
ENDBRANCH   5   7
ENDBRANCH   2   3
ENDBRANCH   1   2
BRANCH   1  72
ATOM     72  C   UNL A   1      33.243  28.957  23.092  1.00  0.00     0.023 C 
BRANCH  72  73
ATOM     73  C   UNL A   1      32.060  28.050  22.776  1.00  0.00     0.116 C 
BRANCH  73  74
ATOM     74  N   UNL A   1      32.367  27.067  21.748  1.00  0.00    -0.352 N 
ATOM     75  C   UNL A   1      32.940  25.829  21.879  1.00  0.00     0.251 C 
ATOM     76  H   UNL A   1      32.132  27.329  20.829  1.00  0.00     0.163 HD
ATOM     77  O   UNL A   1      33.278  25.189  20.887  1.00  0.00    -0.269 OA
BRANCH  75  78
ATOM     78  C   UNL A   1      33.166  25.269  23.226  1.00  0.00     0.047 A 
ATOM     79  C   UNL A   1      34.425  24.744  23.538  1.00  0.00     0.023 A 
ATOM     80  C   UNL A   1      32.130  25.235  24.162  1.00  0.00     0.099 A 
ATOM     81  C   UNL A   1      34.680  24.223  24.815  1.00  0.00    -0.011 A 
ATOM     82  C   UNL A   1      32.400  24.791  25.456  1.00  0.00     0.270 A 
ATOM     83  C   UNL A   1      33.667  24.292  25.788  1.00  0.00     0.094 A 
BRANCH  81  84
ATOM     84  C   UNL A   1      35.940  23.530  25.106  1.00  0.00    -0.018 A 
ATOM     85  C   UNL A   1      36.293  22.319  24.496  1.00  0.00     0.009 A 
ATOM     86  C   UNL A   1      36.816  24.078  26.058  1.00  0.00     0.009 A 
ATOM     87  C   UNL A   1      37.491  21.676  24.830  1.00  0.00     0.014 A 
ATOM     88  C   UNL A   1      38.007  23.437  26.397  1.00  0.00     0.014 A 
ATOM     89  C   UNL A   1      38.359  22.227  25.787  1.00  0.00     0.056 A 
BRANCH  89  90
ATOM     90  C   UNL A   1      39.640  21.523  26.156  1.00  0.00     0.416 C 
ATOM     91  F   UNL A   1      40.023  21.777  27.439  1.00  0.00    -0.166 F 
ATOM     92  F   UNL A   1      39.538  20.169  26.056  1.00  0.00    -0.166 F 
ATOM     93  F   UNL A   1      40.699  21.875  25.376  1.00  0.00    -0.166 F 
ENDBRANCH  89  90
ENDBRANCH  81  84
BRANCH  82  94
ATOM     94  N   UNL A   1      31.349  24.859  26.475  1.00  0.00     0.062 N 
ATOM     95  O   UNL A   1      31.233  23.901  27.251  1.00  0.00    -0.258 OA
ATOM     96  O   UNL A   1      30.651  25.883  26.507  1.00  0.00    -0.258 OA
ENDBRANCH  82  94
ENDBRANCH  75  78
ENDBRANCH  73  74
ENDBRANCH  72  73
ENDBRANCH   1  72
TORSDOF 14
ENDMDL
MODEL 2
REMARK VINA RESULT:     -12.5      0.277      7.290
REMARK SMILES O=C(NCCCCNC(=O)c1cc(-c2ccc(C(F)(F)F)cc2)cc([N+](=O)[O-])c1)c1ccc(-c2c3nc(c(-c4c(F)c(F)c(F)c(F)c4F)c4ccc([nH]4)c(-c4c(F)c(F)c(F)c(F)c4F)c4nc(c(-c5c(F)c(F)c(F)c(F)c5F)c5ccc2[nH]5)C=C4)C=C3)cc1
REMARK SMILES IDX 5 1 4 2 3 3 1 4 2 5 30 7 31 8 92 9 32 10 91 11 33 12 34 13
REMARK SMILES IDX 35 14 85 15 36 16 90 17 84 18 86 19 37 20 89 21 83 22 82 23
REMARK SMILES IDX 38 25 70 26 50 27 69 28 51 29 54 30 68 31 87 32 52 33 53 34
REMARK SMILES IDX 67 36 88 37 55 38 39 39 40 40 48 41 41 42 42 43 46 44 49 45
REMARK SMILES IDX 43 46 44 47 47 48 45 49 71 50 72 51 80 52 73 53 74 54 78 55
REMARK SMILES IDX 81 56 75 57 76 58 79 59 77 60 56 61 57 62 65 63 58 64 59 65
REMARK SMILES IDX 63 66 66 67 60 68 61 69 64 70 62 71 6 72 7 73 8 74 9 75
REMARK SMILES IDX 10 77 11 78 12 79 29 80 13 81 25 82 24 83 14 84 15 85 23 86
REMARK SMILES IDX 16 87 22 88 17 89 18 90 19 91 20 92 21 93 26 94 27 95 28 96
REMARK H PARENT 3 6 86 24 54 35 8 76
REMARK Flexibility Score: inf
ROOT
ATOM      1  C   UNL A   1      34.028  28.571  24.436  1.00  0.00     0.023 C 
ENDROOT
BRANCH   1   2
ATOM      2  C   UNL A   1      33.212  28.684  25.715  1.00  0.00     0.116 C 
BRANCH   2   3
ATOM      3  N   UNL A   1      32.796  30.048  26.009  1.00  0.00    -0.352 N 
ATOM      4  O   UNL A   1      32.782  32.014  27.125  1.00  0.00    -0.269 OA
ATOM      5  C   UNL A   1      33.346  30.950  26.890  1.00  0.00     0.251 C 
ATOM      6  H   UNL A   1      32.013  30.370  25.507  1.00  0.00     0.163 HD
BRANCH   5   7
ATOM      7  C   UNL A   1      34.609  30.611  27.576  1.00  0.00     0.039 A 
ATOM      8  C   UNL A   1      34.767  29.361  28.177  1.00  0.00     0.014 A 
ATOM      9  C   UNL A   1      35.628  31.562  27.650  1.00  0.00     0.014 A 
ATOM     10  C   UNL A   1      35.859  29.130  29.002  1.00  0.00     0.010 A 
ATOM     11  C   UNL A   1      36.784  31.282  28.387  1.00  0.00     0.010 A 
ATOM     12  C   UNL A   1      36.892  30.076  29.098  1.00  0.00    -0.014 A 
BRANCH  12  13
ATOM     13  C   UNL A   1      38.101  29.740  29.891  1.00  0.00     0.031 A 
ATOM     14  C   UNL A   1      39.174  28.839  29.345  1.00  0.00     0.074 A 
ATOM     15  C   UNL A   1      38.238  30.295  31.111  1.00  0.00     0.049 A 
ATOM     16  N   UNL A   1      40.295  28.460  29.907  1.00  0.00    -0.248 NA
ATOM     17  C   UNL A   1      38.963  28.286  27.999  1.00  0.00     0.031 C 
ATOM     18  C   UNL A   1      37.256  31.179  31.746  1.00  0.00     0.029 A 
ATOM     19  N   UNL A   1      39.255  30.222  32.026  1.00  0.00    -0.354 N 
ATOM     20  C   UNL A   1      40.918  27.623  28.991  1.00  0.00     0.074 A 
ATOM     21  C   UNL A   1      40.032  27.516  27.851  1.00  0.00     0.031 C 
ATOM     22  C   UNL A   1      37.739  31.603  32.921  1.00  0.00     0.029 A 
ATOM     23  C   UNL A   1      39.024  30.962  33.159  1.00  0.00     0.049 A 
ATOM     24  H   UNL A   1      40.072  29.690  31.884  1.00  0.00     0.167 HD
ATOM     25  C   UNL A   1      42.124  27.012  29.091  1.00  0.00     0.037 A 
ATOM     26  C   UNL A   1      39.754  31.089  34.282  1.00  0.00     0.037 A 
ATOM     27  C   UNL A   1      42.998  27.124  30.233  1.00  0.00     0.049 A 
ATOM     28  C   UNL A   1      41.059  30.354  34.384  1.00  0.00     0.074 A 
ATOM     29  C   UNL A   1      44.244  26.551  30.427  1.00  0.00     0.029 A 
ATOM     30  N   UNL A   1      42.714  27.854  31.379  1.00  0.00    -0.354 N 
ATOM     31  N   UNL A   1      41.649  29.589  33.499  1.00  0.00    -0.248 NA
ATOM     32  C   UNL A   1      41.799  30.499  35.644  1.00  0.00     0.031 C 
ATOM     33  C   UNL A   1      44.689  26.890  31.710  1.00  0.00     0.029 A 
ATOM     34  C   UNL A   1      43.751  27.727  32.291  1.00  0.00     0.049 A 
ATOM     35  H   UNL A   1      41.897  28.384  31.523  1.00  0.00     0.167 HD
ATOM     36  C   UNL A   1      42.841  29.183  34.082  1.00  0.00     0.074 A 
ATOM     37  C   UNL A   1      42.900  29.807  35.388  1.00  0.00     0.031 C 
ATOM     38  C   UNL A   1      43.798  28.362  33.584  1.00  0.00     0.037 A 
BRANCH  25  39
ATOM     39  C   UNL A   1      42.573  26.156  27.939  1.00  0.00     0.064 A 
ATOM     40  C   UNL A   1      43.240  26.701  26.830  1.00  0.00     0.173 A 
ATOM     41  C   UNL A   1      42.386  24.764  27.968  1.00  0.00     0.173 A 
ATOM     42  F   UNL A   1      43.439  28.025  26.747  1.00  0.00    -0.203 F 
ATOM     43  C   UNL A   1      43.678  25.890  25.785  1.00  0.00     0.198 A 
ATOM     44  C   UNL A   1      42.853  23.953  26.936  1.00  0.00     0.198 A 
ATOM     45  F   UNL A   1      41.763  24.188  29.006  1.00  0.00    -0.203 F 
ATOM     46  F   UNL A   1      44.272  26.440  24.717  1.00  0.00    -0.200 F 
ATOM     47  C   UNL A   1      43.492  24.517  25.842  1.00  0.00     0.200 A 
ATOM     48  F   UNL A   1      42.686  22.625  27.001  1.00  0.00    -0.200 F 
ATOM     49  F   UNL A   1      43.924  23.738  24.841  1.00  0.00    -0.200 F 
ENDBRANCH  25  39
BRANCH  26  50
ATOM     50  C   UNL A   1      39.252  31.927  35.403  1.00  0.00     0.064 A 
ATOM     51  C   UNL A   1      38.456  31.378  36.418  1.00  0.00     0.173 A 
ATOM     52  C   UNL A   1      39.547  33.297  35.474  1.00  0.00     0.173 A 
ATOM     53  F   UNL A   1      38.134  30.077  36.387  1.00  0.00    -0.203 F 
ATOM     54  C   UNL A   1      37.950  32.174  37.443  1.00  0.00     0.198 A 
ATOM     55  C   UNL A   1      39.072  34.084  36.520  1.00  0.00     0.198 A 
ATOM     56  F   UNL A   1      40.311  33.871  34.533  1.00  0.00    -0.203 F 
ATOM     57  F   UNL A   1      37.144  31.637  38.368  1.00  0.00    -0.200 F 
ATOM     58  C   UNL A   1      38.263  33.525  37.497  1.00  0.00     0.200 A 
ATOM     59  F   UNL A   1      39.396  35.382  36.580  1.00  0.00    -0.200 F 
ATOM     60  F   UNL A   1      37.777  34.288  38.484  1.00  0.00    -0.200 F 
ENDBRANCH  26  50
BRANCH  38  61
ATOM     61  C   UNL A   1      45.011  28.131  34.441  1.00  0.00     0.064 A 
ATOM     62  C   UNL A   1      45.084  27.062  35.347  1.00  0.00     0.173 A 
ATOM     63  C   UNL A   1      46.118  28.986  34.344  1.00  0.00     0.173 A 
ATOM     64  F   UNL A   1      44.044  26.226  35.491  1.00  0.00    -0.203 F 
ATOM     65  C   UNL A   1      46.207  26.879  36.149  1.00  0.00     0.198 A 
ATOM     66  C   UNL A   1      47.255  28.779  35.121  1.00  0.00     0.198 A 
ATOM     67  F   UNL A   1      46.102  30.020  33.490  1.00  0.00    -0.203 F 
ATOM     68  F   UNL A   1      46.229  25.889  37.051  1.00  0.00    -0.200 F 
ATOM     69  C   UNL A   1      47.294  27.732  36.029  1.00  0.00     0.200 A 
ATOM     70  F   UNL A   1      48.309  29.595  34.994  1.00  0.00    -0.200 F 
ATOM     71  F   UNL A   1      48.376  27.553  36.800  1.00  0.00    -0.200 F 
ENDBRANCH  38  61
ENDBRANCH  12  13
ENDBRANCH   5   7
ENDBRANCH   2   3
ENDBRANCH   1   2
BRANCH   1  72
ATOM     72  C   UNL A   1      33.271  28.923  23.163  1.00  0.00     0.023 C 
BRANCH  72  73
ATOM     73  C   UNL A   1      32.090  28.012  22.848  1.00  0.00     0.116 C 
BRANCH  73  74
ATOM     74  N   UNL A   1      32.388  27.052  21.796  1.00  0.00    -0.352 N 
ATOM     75  C   UNL A   1      32.944  25.804  21.897  1.00  0.00     0.251 C 
ATOM     76  H   UNL A   1      32.159  27.341  20.883  1.00  0.00     0.163 HD
ATOM     77  O   UNL A   1      33.277  25.186  20.890  1.00  0.00    -0.269 OA
BRANCH  75  78
ATOM     78  C   UNL A   1      33.159  25.206  23.230  1.00  0.00     0.047 A 
ATOM     79  C   UNL A   1      34.416  24.679  23.540  1.00  0.00     0.023 A 
ATOM     80  C   UNL A   1      32.113  25.141  24.153  1.00  0.00     0.099 A 
ATOM     81  C   UNL A   1      34.660  24.122  24.804  1.00  0.00    -0.011 A 
ATOM     82  C   UNL A   1      32.372  24.662  25.437  1.00  0.00     0.270 A 
ATOM     83  C   UNL A   1      33.637  24.159  25.768  1.00  0.00     0.094 A 
BRANCH  81  84
ATOM     84  C   UNL A   1      35.921  23.427  25.089  1.00  0.00    -0.018 A 
ATOM     85  C   UNL A   1      36.169  22.114  24.669  1.00  0.00     0.009 A 
ATOM     86  C   UNL A   1      36.909  24.085  25.842  1.00  0.00     0.009 A 
ATOM     87  C   UNL A   1      37.374  21.478  24.994  1.00  0.00     0.014 A 
ATOM     88  C   UNL A   1      38.106  23.453  26.171  1.00  0.00     0.014 A 
ATOM     89  C   UNL A   1      38.354  22.141  25.751  1.00  0.00     0.056 A 
BRANCH  89  90
ATOM     90  C   UNL A   1      39.643  21.446  26.113  1.00  0.00     0.416 C 
ATOM     91  F   UNL A   1      39.991  21.640  27.415  1.00  0.00    -0.166 F 
ATOM     92  F   UNL A   1      39.575  20.098  25.939  1.00  0.00    -0.166 F 
ATOM     93  F   UNL A   1      40.710  21.863  25.376  1.00  0.00    -0.166 F 
ENDBRANCH  89  90
ENDBRANCH  81  84
BRANCH  82  94
ATOM     94  N   UNL A   1      31.309  24.696  26.446  1.00  0.00     0.062 N 
ATOM     95  O   UNL A   1      31.248  23.759  27.252  1.00  0.00    -0.258 OA
ATOM     96  O   UNL A   1      30.547  25.674  26.439  1.00  0.00    -0.258 OA
ENDBRANCH  82  94
ENDBRANCH  75  78
ENDBRANCH  73  74
ENDBRANCH  72  73
ENDBRANCH   1  72
TORSDOF 14
ENDMDL
MODEL 3
REMARK VINA RESULT:     -12.5      4.362      9.698
REMARK SMILES O=C(NCCCCNC(=O)c1cc(-c2ccc(C(F)(F)F)cc2)cc([N+](=O)[O-])c1)c1ccc(-c2c3nc(c(-c4c(F)c(F)c(F)c(F)c4F)c4ccc([nH]4)c(-c4c(F)c(F)c(F)c(F)c4F)c4nc(c(-c5c(F)c(F)c(F)c(F)c5F)c5ccc2[nH]5)C=C4)C=C3)cc1
REMARK SMILES IDX 5 1 4 2 3 3 1 4 2 5 30 7 31 8 92 9 32 10 91 11 33 12 34 13
REMARK SMILES IDX 35 14 85 15 36 16 90 17 84 18 86 19 37 20 89 21 83 22 82 23
REMARK SMILES IDX 38 25 70 26 50 27 69 28 51 29 54 30 68 31 87 32 52 33 53 34
REMARK SMILES IDX 67 36 88 37 55 38 39 39 40 40 48 41 41 42 42 43 46 44 49 45
REMARK SMILES IDX 43 46 44 47 47 48 45 49 71 50 72 51 80 52 73 53 74 54 78 55
REMARK SMILES IDX 81 56 75 57 76 58 79 59 77 60 56 61 57 62 65 63 58 64 59 65
REMARK SMILES IDX 63 66 66 67 60 68 61 69 64 70 62 71 6 72 7 73 8 74 9 75
REMARK SMILES IDX 10 77 11 78 12 79 29 80 13 81 25 82 24 83 14 84 15 85 23 86
REMARK SMILES IDX 16 87 22 88 17 89 18 90 19 91 20 92 21 93 26 94 27 95 28 96
REMARK H PARENT 3 6 86 24 54 35 8 76
REMARK Flexibility Score: inf
ROOT
ATOM      1  C   UNL A   1      35.264  22.298  25.368  1.00  0.00     0.023 C 
ENDROOT
BRANCH   1   2
ATOM      2  C   UNL A   1      36.611  22.666  25.971  1.00  0.00     0.116 C 
BRANCH   2   3
ATOM      3  N   UNL A   1      37.571  21.571  25.936  1.00  0.00    -0.352 N 
ATOM      4  O   UNL A   1      39.616  20.607  25.944  1.00  0.00    -0.269 OA
ATOM      5  C   UNL A   1      38.927  21.600  26.157  1.00  0.00     0.251 C 
ATOM      6  H   UNL A   1      37.195  20.686  25.724  1.00  0.00     0.163 HD
BRANCH   5   7
ATOM      7  C   UNL A   1      39.555  22.853  26.626  1.00  0.00     0.039 A 
ATOM      8  C   UNL A   1      39.287  24.058  25.976  1.00  0.00     0.014 A 
ATOM      9  C   UNL A   1      40.446  22.815  27.701  1.00  0.00     0.014 A 
ATOM     10  C   UNL A   1      40.041  25.182  26.278  1.00  0.00     0.010 A 
ATOM     11  C   UNL A   1      41.120  23.979  28.081  1.00  0.00     0.010 A 
ATOM     12  C   UNL A   1      40.950  25.165  27.349  1.00  0.00    -0.014 A 
BRANCH  12  13
ATOM     13  C   UNL A   1      41.645  26.422  27.720  1.00  0.00     0.031 A 
ATOM     14  C   UNL A   1      43.055  26.701  27.280  1.00  0.00     0.074 A 
ATOM     15  C   UNL A   1      40.965  27.339  28.436  1.00  0.00     0.049 A 
ATOM     16  N   UNL A   1      43.796  27.757  27.509  1.00  0.00    -0.248 NA
ATOM     17  C   UNL A   1      43.726  25.661  26.485  1.00  0.00     0.031 C 
ATOM     18  C   UNL A   1      39.593  27.174  28.926  1.00  0.00     0.029 A 
ATOM     19  N   UNL A   1      41.316  28.594  28.861  1.00  0.00    -0.354 N 
ATOM     20  C   UNL A   1      45.017  27.508  26.896  1.00  0.00     0.074 A 
ATOM     21  C   UNL A   1      44.933  26.184  26.318  1.00  0.00     0.031 C 
ATOM     22  C   UNL A   1      39.204  28.299  29.538  1.00  0.00     0.029 A 
ATOM     23  C   UNL A   1      40.320  29.234  29.557  1.00  0.00     0.049 A 
ATOM     24  H   UNL A   1      42.198  28.996  28.685  1.00  0.00     0.167 HD
ATOM     25  C   UNL A   1      46.101  28.318  26.815  1.00  0.00     0.037 A 
ATOM     26  C   UNL A   1      40.314  30.432  30.168  1.00  0.00     0.037 A 
ATOM     27  C   UNL A   1      46.174  29.636  27.398  1.00  0.00     0.049 A 
ATOM     28  C   UNL A   1      41.551  31.281  30.108  1.00  0.00     0.074 A 
ATOM     29  C   UNL A   1      47.224  30.538  27.365  1.00  0.00     0.029 A 
ATOM     30  N   UNL A   1      45.157  30.237  28.127  1.00  0.00    -0.354 N 
ATOM     31  N   UNL A   1      42.688  31.046  29.500  1.00  0.00    -0.248 NA
ATOM     32  C   UNL A   1      41.503  32.564  30.821  1.00  0.00     0.031 C 
ATOM     33  C   UNL A   1      46.863  31.661  28.117  1.00  0.00     0.029 A 
ATOM     34  C   UNL A   1      45.564  31.488  28.566  1.00  0.00     0.049 A 
ATOM     35  H   UNL A   1      44.277  29.834  28.306  1.00  0.00     0.167 HD
ATOM     36  C   UNL A   1      43.481  32.160  29.734  1.00  0.00     0.074 A 
ATOM     37  C   UNL A   1      42.685  33.081  30.519  1.00  0.00     0.031 C 
ATOM     38  C   UNL A   1      44.757  32.397  29.340  1.00  0.00     0.037 A 
BRANCH  25  39
ATOM     39  C   UNL A   1      47.306  27.804  26.077  1.00  0.00     0.064 A 
ATOM     40  C   UNL A   1      48.376  27.192  26.748  1.00  0.00     0.173 A 
ATOM     41  C   UNL A   1      47.367  27.872  24.676  1.00  0.00     0.173 A 
ATOM     42  F   UNL A   1      48.373  27.108  28.087  1.00  0.00    -0.203 F 
ATOM     43  C   UNL A   1      49.472  26.692  26.047  1.00  0.00     0.198 A 
ATOM     44  C   UNL A   1      48.450  27.342  23.976  1.00  0.00     0.198 A 
ATOM     45  F   UNL A   1      46.369  28.438  23.982  1.00  0.00    -0.203 F 
ATOM     46  F   UNL A   1      50.501  26.153  26.714  1.00  0.00    -0.200 F 
ATOM     47  C   UNL A   1      49.504  26.760  24.663  1.00  0.00     0.200 A 
ATOM     48  F   UNL A   1      48.471  27.395  22.638  1.00  0.00    -0.200 F 
ATOM     49  F   UNL A   1      50.553  26.268  23.990  1.00  0.00    -0.200 F 
ENDBRANCH  25  39
BRANCH  26  50
ATOM     50  C   UNL A   1      39.105  30.882  30.907  1.00  0.00     0.064 A 
ATOM     51  C   UNL A   1      38.158  31.722  30.305  1.00  0.00     0.173 A 
ATOM     52  C   UNL A   1      38.880  30.493  32.237  1.00  0.00     0.173 A 
ATOM     53  F   UNL A   1      38.337  32.133  29.041  1.00  0.00    -0.203 F 
ATOM     54  C   UNL A   1      37.049  32.179  31.013  1.00  0.00     0.198 A 
ATOM     55  C   UNL A   1      37.751  30.919  32.931  1.00  0.00     0.198 A 
ATOM     56  F   UNL A   1      39.751  29.684  32.858  1.00  0.00    -0.203 F 
ATOM     57  F   UNL A   1      36.191  33.028  30.432  1.00  0.00    -0.200 F 
ATOM     58  C   UNL A   1      36.844  31.773  32.323  1.00  0.00     0.200 A 
ATOM     59  F   UNL A   1      37.545  30.506  34.189  1.00  0.00    -0.200 F 
ATOM     60  F   UNL A   1      35.776  32.212  33.003  1.00  0.00    -0.200 F 
ENDBRANCH  26  50
BRANCH  38  61
ATOM     61  C   UNL A   1      45.350  33.725  29.716  1.00  0.00     0.064 A 
ATOM     62  C   UNL A   1      46.074  33.902  30.905  1.00  0.00     0.173 A 
ATOM     63  C   UNL A   1      45.201  34.832  28.867  1.00  0.00     0.173 A 
ATOM     64  F   UNL A   1      46.230  32.879  31.760  1.00  0.00    -0.203 F 
ATOM     65  C   UNL A   1      46.596  35.147  31.247  1.00  0.00     0.198 A 
ATOM     66  C   UNL A   1      45.756  36.066  29.194  1.00  0.00     0.198 A 
ATOM     67  F   UNL A   1      44.523  34.716  27.716  1.00  0.00    -0.203 F 
ATOM     68  F   UNL A   1      47.229  35.307  32.416  1.00  0.00    -0.200 F 
ATOM     69  C   UNL A   1      46.443  36.225  30.387  1.00  0.00     0.200 A 
ATOM     70  F   UNL A   1      45.620  37.103  28.357  1.00  0.00    -0.200 F 
ATOM     71  F   UNL A   1      46.949  37.421  30.716  1.00  0.00    -0.200 F 
ENDBRANCH  38  61
ENDBRANCH  12  13
ENDBRANCH   5   7
ENDBRANCH   2   3
ENDBRANCH   1   2
BRANCH   1  72
ATOM     72  C   UNL A   1      34.293  21.634  26.334  1.00  0.00     0.023 C 
BRANCH  72  73
ATOM     73  C   UNL A   1      33.787  22.534  27.454  1.00  0.00     0.116 C 
BRANCH  73  74
ATOM     74  N   UNL A   1      32.344  22.718  27.417  1.00  0.00    -0.352 N 
ATOM     75  C   UNL A   1      31.617  23.735  26.857  1.00  0.00     0.251 C 
ATOM     76  H   UNL A   1      31.817  22.013  27.857  1.00  0.00     0.163 HD
ATOM     77  O   UNL A   1      30.408  23.821  27.055  1.00  0.00    -0.269 OA
BRANCH  75  78
ATOM     78  C   UNL A   1      32.297  24.746  26.022  1.00  0.00     0.047 A 
ATOM     79  C   UNL A   1      32.633  25.978  26.591  1.00  0.00     0.023 A 
ATOM     80  C   UNL A   1      32.572  24.485  24.678  1.00  0.00     0.099 A 
ATOM     81  C   UNL A   1      33.297  26.953  25.832  1.00  0.00    -0.011 A 
ATOM     82  C   UNL A   1      33.302  25.417  23.942  1.00  0.00     0.270 A 
ATOM     83  C   UNL A   1      33.670  26.643  24.512  1.00  0.00     0.094 A 
BRANCH  81  84
ATOM     84  C   UNL A   1      33.515  28.303  26.365  1.00  0.00    -0.018 A 
ATOM     85  C   UNL A   1      34.727  28.696  26.947  1.00  0.00     0.009 A 
ATOM     86  C   UNL A   1      32.461  29.231  26.325  1.00  0.00     0.009 A 
ATOM     87  C   UNL A   1      34.879  29.985  27.475  1.00  0.00     0.014 A 
ATOM     88  C   UNL A   1      32.607  30.512  26.853  1.00  0.00     0.014 A 
ATOM     89  C   UNL A   1      33.819  30.905  27.435  1.00  0.00     0.056 A 
BRANCH  89  90
ATOM     90  C   UNL A   1      33.980  32.286  28.019  1.00  0.00     0.416 C 
ATOM     91  F   UNL A   1      32.983  33.132  27.639  1.00  0.00    -0.166 F 
ATOM     92  F   UNL A   1      33.970  32.281  29.381  1.00  0.00    -0.166 F 
ATOM     93  F   UNL A   1      35.143  32.897  27.658  1.00  0.00    -0.166 F 
ENDBRANCH  89  90
ENDBRANCH  81  84
BRANCH  82  94
ATOM     94  N   UNL A   1      33.692  25.101  22.565  1.00  0.00     0.062 N 
ATOM     95  O   UNL A   1      33.917  23.915  22.286  1.00  0.00    -0.258 OA
ATOM     96  O   UNL A   1      33.756  26.040  21.760  1.00  0.00    -0.258 OA
ENDBRANCH  82  94
ENDBRANCH  75  78
ENDBRANCH  73  74
ENDBRANCH  72  73
ENDBRANCH   1  72
TORSDOF 14
ENDMDL
