MODEL 1
REMARK VINA RESULT:     -13.4      0.000      0.000
REMARK SMILES Cc1cccc(CS[C@@H]2CC[C@]([NH3+])(C(=O)NCCCCNC(=O)c3ccc(-c4c5nc(c(-c6c(F)c(F)c(F)c(F)c6F)c6ccc([nH]6)c(-c6c(F)c(F)c(F)c(F)c6F)c6nc(c(-c7c(F)c(F)c(F)c(F)c7F)c7ccc4[nH]7)C=C6)C=C5)cc3)C2)c1
REMARK SMILES IDX 18 1 17 2 16 3 14 4 15 5 12 7 9 8 10 9 87 10 11 11 8 12 7 13
REMARK SMILES IDX 6 14 1 15 2 16 3 17 88 18 4 19 5 20 13 21 19 25 20 26 21 27
REMARK SMILES IDX 22 28 23 30 24 31 25 32 86 33 26 34 85 35 27 36 28 37 29 38
REMARK SMILES IDX 79 39 30 40 84 41 78 42 80 43 31 44 83 45 77 46 76 47 32 49
REMARK SMILES IDX 64 50 44 51 63 52 45 53 48 54 62 55 81 56 46 57 47 58 61 60
REMARK SMILES IDX 82 61 49 62 33 63 34 64 42 65 35 66 36 67 40 68 43 69 37 70
REMARK SMILES IDX 38 71 41 72 39 73 65 74 66 75 74 76 67 77 68 78 72 79 75 80
REMARK SMILES IDX 69 81 70 82 73 83 71 84 50 85 51 86 59 87 52 88 53 89 57 90
REMARK SMILES IDX 60 91 54 92 55 93 58 94 56 95
REMARK H PARENT 16 6 13 22 13 23 13 24 21 29 80 48 48 59
REMARK Flexibility Score: inf
ROOT
ATOM      1  C   UNL A   1      36.304  21.565  24.729  1.00  0.00     0.023 C 
ENDROOT
BRANCH   1   2
ATOM      2  C   UNL A   1      35.377  21.419  25.936  1.00  0.00     0.116 C 
BRANCH   2   3
ATOM      3  N   UNL A   1      34.278  20.487  25.742  1.00  0.00    -0.351 N 
ATOM      4  C   UNL A   1      32.937  20.726  25.588  1.00  0.00     0.281 C 
ATOM      5  O   UNL A   1      32.216  19.746  25.373  1.00  0.00    -0.268 OA
ATOM      6  H   UNL A   1      34.536  19.538  25.718  1.00  0.00     0.163 HD
BRANCH   4   7
ATOM      7  C   UNL A   1      32.342  22.158  25.740  1.00  0.00     0.175 C 
ATOM      8  C   UNL A   1      32.480  24.476  24.997  1.00  0.00     0.054 C 
ATOM      9  C   UNL A   1      32.759  24.448  26.502  1.00  0.00     0.022 C 
ATOM     10  C   UNL A   1      32.656  23.038  24.501  1.00  0.00     0.093 C 
ATOM     11  C   UNL A   1      33.006  22.982  26.852  1.00  0.00     0.080 C 
BRANCH   8  12
ATOM     12  S   UNL A   1      33.299  25.842  24.095  1.00  0.00    -0.154 SA
BRANCH  12  13
ATOM     13  C   UNL A   1      32.176  27.261  24.296  1.00  0.00     0.105 C 
BRANCH  13  14
ATOM     14  C   UNL A   1      32.569  28.269  25.342  1.00  0.00    -0.038 A 
ATOM     15  C   UNL A   1      31.402  31.698  26.502  1.00  0.00     0.044 C 
ATOM     16  C   UNL A   1      32.186  30.425  26.412  1.00  0.00    -0.051 A 
ATOM     17  C   UNL A   1      33.297  30.207  27.232  1.00  0.00     0.003 A 
ATOM     18  C   UNL A   1      31.826  29.448  25.478  1.00  0.00     0.008 A 
ATOM     19  C   UNL A   1      34.023  29.020  27.136  1.00  0.00     0.001 A 
ATOM     20  C   UNL A   1      33.655  28.050  26.203  1.00  0.00     0.004 A 
ENDBRANCH  13  14
ENDBRANCH  12  13
ENDBRANCH   8  12
BRANCH   7  21
ATOM     21  N   UNL A   1      30.879  22.041  25.941  1.00  0.00    -0.345 N 
ATOM     22  H   UNL A   1      30.670  21.163  26.415  1.00  0.00     0.345 HD
ATOM     23  H   UNL A   1      30.409  22.059  25.035  1.00  0.00     0.345 HD
ATOM     24  H   UNL A   1      30.550  22.820  26.510  1.00  0.00     0.345 HD
ENDBRANCH   7  21
ENDBRANCH   4   7
ENDBRANCH   2   3
ENDBRANCH   1   2
BRANCH   1  25
ATOM     25  C   UNL A   1      37.801  21.549  25.020  1.00  0.00     0.023 C 
BRANCH  25  26
ATOM     26  C   UNL A   1      38.324  22.731  25.825  1.00  0.00     0.116 C 
BRANCH  26  27
ATOM     27  N   UNL A   1      39.722  22.647  26.225  1.00  0.00    -0.352 N 
ATOM     28  C   UNL A   1      40.582  23.653  26.652  1.00  0.00     0.251 C 
ATOM     29  H   UNL A   1      40.117  21.746  26.186  1.00  0.00     0.163 HD
ATOM     30  O   UNL A   1      41.747  23.405  26.888  1.00  0.00    -0.269 OA
BRANCH  28  31
ATOM     31  C   UNL A   1      40.037  25.006  26.956  1.00  0.00     0.039 A 
ATOM     32  C   UNL A   1      40.494  26.088  26.191  1.00  0.00     0.014 A 
ATOM     33  C   UNL A   1      39.257  25.237  28.083  1.00  0.00     0.014 A 
ATOM     34  C   UNL A   1      40.404  27.379  26.709  1.00  0.00     0.010 A 
ATOM     35  C   UNL A   1      39.269  26.492  28.653  1.00  0.00     0.010 A 
ATOM     36  C   UNL A   1      39.911  27.547  28.000  1.00  0.00    -0.014 A 
BRANCH  36  37
ATOM     37  C   UNL A   1      40.121  28.742  28.805  1.00  0.00     0.031 A 
ATOM     38  C   UNL A   1      39.092  29.799  28.859  1.00  0.00     0.074 A 
ATOM     39  C   UNL A   1      41.191  28.795  29.630  1.00  0.00     0.049 A 
ATOM     40  N   UNL A   1      39.268  30.942  29.428  1.00  0.00    -0.248 NA
ATOM     41  C   UNL A   1      37.789  29.682  28.213  1.00  0.00     0.031 C 
ATOM     42  C   UNL A   1      41.408  29.717  30.740  1.00  0.00     0.029 A 
ATOM     43  N   UNL A   1      42.432  28.149  29.474  1.00  0.00    -0.354 N 
ATOM     44  C   UNL A   1      38.055  31.577  29.493  1.00  0.00     0.074 A 
ATOM     45  C   UNL A   1      37.207  30.819  28.607  1.00  0.00     0.031 C 
ATOM     46  C   UNL A   1      42.727  29.839  30.947  1.00  0.00     0.029 A 
ATOM     47  C   UNL A   1      43.393  29.107  29.891  1.00  0.00     0.049 A 
ATOM     48  H   UNL A   1      42.597  27.235  29.148  1.00  0.00     0.167 HD
ATOM     49  C   UNL A   1      37.912  32.594  30.390  1.00  0.00     0.037 A 
ATOM     50  C   UNL A   1      44.265  29.655  28.996  1.00  0.00     0.037 A 
ATOM     51  C   UNL A   1      39.226  33.066  30.852  1.00  0.00     0.049 A 
ATOM     52  C   UNL A   1      44.119  31.154  28.830  1.00  0.00     0.074 A 
ATOM     53  C   UNL A   1      39.942  33.024  32.035  1.00  0.00     0.029 A 
ATOM     54  N   UNL A   1      40.122  33.516  29.890  1.00  0.00    -0.354 N 
ATOM     55  N   UNL A   1      43.188  31.860  29.411  1.00  0.00    -0.248 NA
ATOM     56  C   UNL A   1      44.958  31.971  27.953  1.00  0.00     0.031 C 
ATOM     57  C   UNL A   1      41.290  33.415  31.754  1.00  0.00     0.029 A 
ATOM     58  C   UNL A   1      41.384  33.712  30.407  1.00  0.00     0.049 A 
ATOM     59  H   UNL A   1      39.882  33.674  28.948  1.00  0.00     0.167 HD
ATOM     60  C   UNL A   1      43.288  33.166  29.032  1.00  0.00     0.074 A 
ATOM     61  C   UNL A   1      44.401  33.186  28.098  1.00  0.00     0.031 C 
ATOM     62  C   UNL A   1      42.448  34.130  29.505  1.00  0.00     0.037 A 
BRANCH  49  63
ATOM     63  C   UNL A   1      36.593  33.093  30.962  1.00  0.00     0.064 A 
ATOM     64  C   UNL A   1      35.727  33.881  30.167  1.00  0.00     0.173 A 
ATOM     65  C   UNL A   1      36.162  32.939  32.299  1.00  0.00     0.173 A 
ATOM     66  F   UNL A   1      35.994  34.127  28.877  1.00  0.00    -0.203 F 
ATOM     67  C   UNL A   1      34.561  34.471  30.673  1.00  0.00     0.198 A 
ATOM     68  C   UNL A   1      34.977  33.495  32.790  1.00  0.00     0.198 A 
ATOM     69  F   UNL A   1      36.878  32.290  33.217  1.00  0.00    -0.203 F 
ATOM     70  F   UNL A   1      33.814  35.252  29.880  1.00  0.00    -0.200 F 
ATOM     71  C   UNL A   1      34.181  34.273  31.983  1.00  0.00     0.200 A 
ATOM     72  F   UNL A   1      34.633  33.286  34.071  1.00  0.00    -0.200 F 
ATOM     73  F   UNL A   1      33.070  34.838  32.470  1.00  0.00    -0.200 F 
ENDBRANCH  49  63
BRANCH  50  74
ATOM     74  C   UNL A   1      44.689  28.677  27.960  1.00  0.00     0.064 A 
ATOM     75  C   UNL A   1      45.514  27.609  28.372  1.00  0.00     0.173 A 
ATOM     76  C   UNL A   1      43.991  28.529  26.759  1.00  0.00     0.173 A 
ATOM     77  F   UNL A   1      46.207  27.701  29.519  1.00  0.00    -0.203 F 
ATOM     78  C   UNL A   1      45.520  26.394  27.691  1.00  0.00     0.198 A 
ATOM     79  C   UNL A   1      44.021  27.316  26.065  1.00  0.00     0.198 A 
ATOM     80  F   UNL A   1      43.177  29.501  26.323  1.00  0.00    -0.203 F 
ATOM     81  F   UNL A   1      46.201  25.352  28.189  1.00  0.00    -0.200 F 
ATOM     82  C   UNL A   1      44.748  26.240  26.553  1.00  0.00     0.200 A 
ATOM     83  F   UNL A   1      43.256  27.157  24.975  1.00  0.00    -0.200 F 
ATOM     84  F   UNL A   1      44.667  25.043  25.956  1.00  0.00    -0.200 F 
ENDBRANCH  50  74
BRANCH  62  85
ATOM     85  C   UNL A   1      42.572  35.575  29.134  1.00  0.00     0.064 A 
ATOM     86  C   UNL A   1      41.994  36.103  27.970  1.00  0.00     0.173 A 
ATOM     87  C   UNL A   1      43.382  36.452  29.886  1.00  0.00     0.173 A 
ATOM     88  F   UNL A   1      41.259  35.327  27.159  1.00  0.00    -0.203 F 
ATOM     89  C   UNL A   1      42.176  37.437  27.606  1.00  0.00     0.198 A 
ATOM     90  C   UNL A   1      43.601  37.769  29.493  1.00  0.00     0.198 A 
ATOM     91  F   UNL A   1      43.958  36.058  31.031  1.00  0.00    -0.203 F 
ATOM     92  F   UNL A   1      41.563  37.917  26.515  1.00  0.00    -0.200 F 
ATOM     93  C   UNL A   1      42.987  38.266  28.361  1.00  0.00     0.200 A 
ATOM     94  F   UNL A   1      44.406  38.555  30.223  1.00  0.00    -0.200 F 
ATOM     95  F   UNL A   1      43.172  39.543  28.000  1.00  0.00    -0.200 F 
ENDBRANCH  62  85
ENDBRANCH  36  37
ENDBRANCH  28  31
ENDBRANCH  26  27
ENDBRANCH  25  26
ENDBRANCH   1  25
TORSDOF 15
ENDMDL
MODEL 2
REMARK VINA RESULT:     -13.2      3.929     10.345
REMARK SMILES Cc1cccc(CS[C@@H]2CC[C@]([NH3+])(C(=O)NCCCCNC(=O)c3ccc(-c4c5nc(c(-c6c(F)c(F)c(F)c(F)c6F)c6ccc([nH]6)c(-c6c(F)c(F)c(F)c(F)c6F)c6nc(c(-c7c(F)c(F)c(F)c(F)c7F)c7ccc4[nH]7)C=C6)C=C5)cc3)C2)c1
REMARK SMILES IDX 18 1 17 2 16 3 14 4 15 5 12 7 9 8 10 9 87 10 11 11 8 12 7 13
REMARK SMILES IDX 6 14 1 15 2 16 3 17 88 18 4 19 5 20 13 21 19 25 20 26 21 27
REMARK SMILES IDX 22 28 23 30 24 31 25 32 86 33 26 34 85 35 27 36 28 37 29 38
REMARK SMILES IDX 79 39 30 40 84 41 78 42 80 43 31 44 83 45 77 46 76 47 32 49
REMARK SMILES IDX 64 50 44 51 63 52 45 53 48 54 62 55 81 56 46 57 47 58 61 60
REMARK SMILES IDX 82 61 49 62 33 63 34 64 42 65 35 66 36 67 40 68 43 69 37 70
REMARK SMILES IDX 38 71 41 72 39 73 65 74 66 75 74 76 67 77 68 78 72 79 75 80
REMARK SMILES IDX 69 81 70 82 73 83 71 84 50 85 51 86 59 87 52 88 53 89 57 90
REMARK SMILES IDX 60 91 54 92 55 93 58 94 56 95
REMARK H PARENT 16 6 13 22 13 23 13 24 21 29 80 48 48 59
REMARK Flexibility Score: inf
ROOT
ATOM      1  C   UNL A   1      31.912  30.515  25.907  1.00  0.00     0.023 C 
ENDROOT
BRANCH   1   2
ATOM      2  C   UNL A   1      32.059  29.331  24.950  1.00  0.00     0.116 C 
BRANCH   2   3
ATOM      3  N   UNL A   1      31.211  29.401  23.772  1.00  0.00    -0.351 N 
ATOM      4  C   UNL A   1      30.999  28.477  22.782  1.00  0.00     0.281 C 
ATOM      5  O   UNL A   1      30.168  28.767  21.915  1.00  0.00    -0.268 OA
ATOM      6  H   UNL A   1      30.711  30.242  23.669  1.00  0.00     0.163 HD
BRANCH   4   7
ATOM      7  C   UNL A   1      31.815  27.150  22.719  1.00  0.00     0.175 C 
ATOM      8  C   UNL A   1      32.636  25.238  23.989  1.00  0.00     0.054 C 
ATOM      9  C   UNL A   1      33.849  25.994  23.441  1.00  0.00     0.022 C 
ATOM     10  C   UNL A   1      31.450  26.203  23.892  1.00  0.00     0.093 C 
ATOM     11  C   UNL A   1      33.318  27.343  22.963  1.00  0.00     0.080 C 
BRANCH   8  12
ATOM     12  S   UNL A   1      32.938  24.345  25.558  1.00  0.00    -0.154 SA
BRANCH  12  13
ATOM     13  C   UNL A   1      33.671  22.758  25.047  1.00  0.00     0.105 C 
BRANCH  13  14
ATOM     14  C   UNL A   1      35.163  22.642  25.201  1.00  0.00    -0.038 A 
ATOM     15  C   UNL A   1      37.806  19.926  24.878  1.00  0.00     0.044 C 
ATOM     16  C   UNL A   1      37.169  21.261  25.115  1.00  0.00    -0.051 A 
ATOM     17  C   UNL A   1      37.932  22.355  25.535  1.00  0.00     0.003 A 
ATOM     18  C   UNL A   1      35.790  21.416  24.943  1.00  0.00     0.008 A 
ATOM     19  C   UNL A   1      37.328  23.592  25.757  1.00  0.00     0.001 A 
ATOM     20  C   UNL A   1      35.952  23.739  25.581  1.00  0.00     0.004 A 
ENDBRANCH  13  14
ENDBRANCH  12  13
ENDBRANCH   8  12
BRANCH   7  21
ATOM     21  N   UNL A   1      31.548  26.496  21.417  1.00  0.00    -0.345 N 
ATOM     22  H   UNL A   1      31.879  25.532  21.447  1.00  0.00     0.345 HD
ATOM     23  H   UNL A   1      32.036  27.000  20.676  1.00  0.00     0.345 HD
ATOM     24  H   UNL A   1      30.546  26.505  21.231  1.00  0.00     0.345 HD
ENDBRANCH   7  21
ENDBRANCH   4   7
ENDBRANCH   2   3
ENDBRANCH   1   2
BRANCH   1  25
ATOM     25  C   UNL A   1      32.465  30.318  27.316  1.00  0.00     0.023 C 
BRANCH  25  26
ATOM     26  C   UNL A   1      33.981  30.231  27.418  1.00  0.00     0.116 C 
BRANCH  26  27
ATOM     27  N   UNL A   1      34.615  31.256  28.236  1.00  0.00    -0.352 N 
ATOM     28  C   UNL A   1      35.772  31.186  29.005  1.00  0.00     0.251 C 
ATOM     29  H   UNL A   1      34.156  32.127  28.246  1.00  0.00     0.163 HD
ATOM     30  O   UNL A   1      36.119  32.135  29.678  1.00  0.00    -0.269 OA
BRANCH  28  31
ATOM     31  C   UNL A   1      36.658  29.994  28.890  1.00  0.00     0.039 A 
ATOM     32  C   UNL A   1      36.843  29.198  30.029  1.00  0.00     0.014 A 
ATOM     33  C   UNL A   1      37.441  29.778  27.762  1.00  0.00     0.014 A 
ATOM     34  C   UNL A   1      37.977  28.394  30.125  1.00  0.00     0.010 A 
ATOM     35  C   UNL A   1      38.622  29.079  27.897  1.00  0.00     0.010 A 
ATOM     36  C   UNL A   1      38.925  28.451  29.107  1.00  0.00    -0.014 A 
BRANCH  36  37
ATOM     37  C   UNL A   1      40.301  27.997  29.245  1.00  0.00     0.031 A 
ATOM     38  C   UNL A   1      40.690  26.643  28.803  1.00  0.00     0.074 A 
ATOM     39  C   UNL A   1      41.248  28.883  29.626  1.00  0.00     0.049 A 
ATOM     40  N   UNL A   1      41.848  26.122  29.025  1.00  0.00    -0.248 NA
ATOM     41  C   UNL A   1      39.778  25.729  28.124  1.00  0.00     0.031 C 
ATOM     42  C   UNL A   1      42.695  28.740  29.506  1.00  0.00     0.029 A 
ATOM     43  N   UNL A   1      41.082  30.028  30.429  1.00  0.00    -0.354 N 
ATOM     44  C   UNL A   1      41.945  24.970  28.290  1.00  0.00     0.074 A 
ATOM     45  C   UNL A   1      40.594  24.702  27.864  1.00  0.00     0.031 C 
ATOM     46  C   UNL A   1      43.282  29.503  30.439  1.00  0.00     0.029 A 
ATOM     47  C   UNL A   1      42.227  30.050  31.267  1.00  0.00     0.049 A 
ATOM     48  H   UNL A   1      40.338  30.671  30.413  1.00  0.00     0.167 HD
ATOM     49  C   UNL A   1      43.190  24.468  28.046  1.00  0.00     0.037 A 
ATOM     50  C   UNL A   1      42.112  29.848  32.612  1.00  0.00     0.037 A 
ATOM     51  C   UNL A   1      44.177  25.066  28.959  1.00  0.00     0.049 A 
ATOM     52  C   UNL A   1      42.836  28.616  33.116  1.00  0.00     0.074 A 
ATOM     53  C   UNL A   1      45.242  25.941  28.842  1.00  0.00     0.029 A 
ATOM     54  N   UNL A   1      43.957  24.926  30.324  1.00  0.00    -0.354 N 
ATOM     55  N   UNL A   1      43.443  27.763  32.337  1.00  0.00    -0.248 NA
ATOM     56  C   UNL A   1      42.884  28.207  34.520  1.00  0.00     0.031 C 
ATOM     57  C   UNL A   1      45.627  26.353  30.157  1.00  0.00     0.029 A 
ATOM     58  C   UNL A   1      44.809  25.713  31.070  1.00  0.00     0.049 A 
ATOM     59  H   UNL A   1      43.273  24.334  30.712  1.00  0.00     0.167 HD
ATOM     60  C   UNL A   1      43.959  26.741  33.078  1.00  0.00     0.074 A 
ATOM     61  C   UNL A   1      43.565  27.049  34.442  1.00  0.00     0.031 C 
ATOM     62  C   UNL A   1      44.662  25.716  32.518  1.00  0.00     0.037 A 
BRANCH  49  63
ATOM     63  C   UNL A   1      43.561  23.533  26.905  1.00  0.00     0.064 A 
ATOM     64  C   UNL A   1      43.112  22.191  26.911  1.00  0.00     0.173 A 
ATOM     65  C   UNL A   1      44.437  23.838  25.840  1.00  0.00     0.173 A 
ATOM     66  F   UNL A   1      42.279  21.739  27.858  1.00  0.00    -0.203 F 
ATOM     67  C   UNL A   1      43.520  21.250  25.956  1.00  0.00     0.198 A 
ATOM     68  C   UNL A   1      44.811  22.908  24.864  1.00  0.00     0.198 A 
ATOM     69  F   UNL A   1      45.020  25.030  25.704  1.00  0.00    -0.203 F 
ATOM     70  F   UNL A   1      43.100  19.981  26.052  1.00  0.00    -0.200 F 
ATOM     71  C   UNL A   1      44.364  21.610  24.928  1.00  0.00     0.200 A 
ATOM     72  F   UNL A   1      45.636  23.286  23.875  1.00  0.00    -0.200 F 
ATOM     73  F   UNL A   1      44.758  20.713  24.016  1.00  0.00    -0.200 F 
ENDBRANCH  49  63
BRANCH  50  74
ATOM     74  C   UNL A   1      40.861  30.437  33.159  1.00  0.00     0.064 A 
ATOM     75  C   UNL A   1      40.760  31.844  33.182  1.00  0.00     0.173 A 
ATOM     76  C   UNL A   1      39.675  29.703  33.237  1.00  0.00     0.173 A 
ATOM     77  F   UNL A   1      41.871  32.597  33.109  1.00  0.00    -0.203 F 
ATOM     78  C   UNL A   1      39.524  32.483  33.133  1.00  0.00     0.198 A 
ATOM     79  C   UNL A   1      38.436  30.349  33.215  1.00  0.00     0.198 A 
ATOM     80  F   UNL A   1      39.704  28.362  33.201  1.00  0.00    -0.203 F 
ATOM     81  F   UNL A   1      39.465  33.817  33.009  1.00  0.00    -0.200 F 
ATOM     82  C   UNL A   1      38.362  31.732  33.118  1.00  0.00     0.200 A 
ATOM     83  F   UNL A   1      37.310  29.623  33.177  1.00  0.00    -0.200 F 
ATOM     84  F   UNL A   1      37.176  32.335  32.965  1.00  0.00    -0.200 F 
ENDBRANCH  50  74
BRANCH  62  85
ATOM     85  C   UNL A   1      45.273  24.610  33.322  1.00  0.00     0.064 A 
ATOM     86  C   UNL A   1      46.618  24.627  33.719  1.00  0.00     0.173 A 
ATOM     87  C   UNL A   1      44.547  23.438  33.616  1.00  0.00     0.173 A 
ATOM     88  F   UNL A   1      47.405  25.675  33.427  1.00  0.00    -0.203 F 
ATOM     89  C   UNL A   1      47.188  23.558  34.410  1.00  0.00     0.198 A 
ATOM     90  C   UNL A   1      45.131  22.352  34.262  1.00  0.00     0.198 A 
ATOM     91  F   UNL A   1      43.246  23.328  33.306  1.00  0.00    -0.203 F 
ATOM     92  F   UNL A   1      48.462  23.635  34.820  1.00  0.00    -0.200 F 
ATOM     93  C   UNL A   1      46.449  22.418  34.672  1.00  0.00     0.200 A 
ATOM     94  F   UNL A   1      44.409  21.247  34.491  1.00  0.00    -0.200 F 
ATOM     95  F   UNL A   1      47.003  21.386  35.322  1.00  0.00    -0.200 F 
ENDBRANCH  62  85
ENDBRANCH  36  37
ENDBRANCH  28  31
ENDBRANCH  26  27
ENDBRANCH  25  26
ENDBRANCH   1  25
TORSDOF 15
ENDMDL
MODEL 3
REMARK VINA RESULT:     -13.0      1.660      2.085
REMARK SMILES Cc1cccc(CS[C@@H]2CC[C@]([NH3+])(C(=O)NCCCCNC(=O)c3ccc(-c4c5nc(c(-c6c(F)c(F)c(F)c(F)c6F)c6ccc([nH]6)c(-c6c(F)c(F)c(F)c(F)c6F)c6nc(c(-c7c(F)c(F)c(F)c(F)c7F)c7ccc4[nH]7)C=C6)C=C5)cc3)C2)c1
REMARK SMILES IDX 18 1 17 2 16 3 14 4 15 5 12 7 9 8 10 9 87 10 11 11 8 12 7 13
REMARK SMILES IDX 6 14 1 15 2 16 3 17 88 18 4 19 5 20 13 21 19 25 20 26 21 27
REMARK SMILES IDX 22 28 23 30 24 31 25 32 86 33 26 34 85 35 27 36 28 37 29 38
REMARK SMILES IDX 79 39 30 40 84 41 78 42 80 43 31 44 83 45 77 46 76 47 32 49
REMARK SMILES IDX 64 50 44 51 63 52 45 53 48 54 62 55 81 56 46 57 47 58 61 60
REMARK SMILES IDX 82 61 49 62 33 63 34 64 42 65 35 66 36 67 40 68 43 69 37 70
REMARK SMILES IDX 38 71 41 72 39 73 65 74 66 75 74 76 67 77 68 78 72 79 75 80
REMARK SMILES IDX 69 81 70 82 73 83 71 84 50 85 51 86 59 87 52 88 53 89 57 90
REMARK SMILES IDX 60 91 54 92 55 93 58 94 56 95
REMARK H PARENT 16 6 13 22 13 23 13 24 21 29 80 48 48 59
REMARK Flexibility Score: inf
ROOT
ATOM      1  C   UNL A   1      36.717  21.457  24.567  1.00  0.00     0.023 C 
ENDROOT
BRANCH   1   2
ATOM      2  C   UNL A   1      35.878  22.735  24.548  1.00  0.00     0.116 C 
BRANCH   2   3
ATOM      3  N   UNL A   1      35.132  22.947  23.319  1.00  0.00    -0.351 N 
ATOM      4  C   UNL A   1      34.093  23.801  23.055  1.00  0.00     0.281 C 
ATOM      5  O   UNL A   1      33.674  23.829  21.893  1.00  0.00    -0.268 OA
ATOM      6  H   UNL A   1      35.417  22.392  22.559  1.00  0.00     0.163 HD
BRANCH   4   7
ATOM      7  C   UNL A   1      33.429  24.649  24.182  1.00  0.00     0.175 C 
ATOM      8  C   UNL A   1      32.528  26.834  24.780  1.00  0.00     0.054 C 
ATOM      9  C   UNL A   1      33.703  26.538  25.715  1.00  0.00     0.022 C 
ATOM     10  C   UNL A   1      32.666  25.868  23.600  1.00  0.00     0.093 C 
ATOM     11  C   UNL A   1      34.441  25.355  25.095  1.00  0.00     0.080 C 
BRANCH   8  12
ATOM     12  S   UNL A   1      32.241  28.612  24.455  1.00  0.00    -0.154 SA
BRANCH  12  13
ATOM     13  C   UNL A   1      31.625  28.670  22.742  1.00  0.00     0.105 C 
BRANCH  13  14
ATOM     14  C   UNL A   1      30.169  29.011  22.578  1.00  0.00    -0.038 A 
ATOM     15  C   UNL A   1      28.104  31.710  20.869  1.00  0.00     0.044 C 
ATOM     16  C   UNL A   1      28.462  30.491  21.662  1.00  0.00    -0.051 A 
ATOM     17  C   UNL A   1      27.473  29.729  22.291  1.00  0.00     0.003 A 
ATOM     18  C   UNL A   1      29.803  30.120  21.804  1.00  0.00     0.008 A 
ATOM     19  C   UNL A   1      27.819  28.598  23.031  1.00  0.00     0.001 A 
ATOM     20  C   UNL A   1      29.159  28.234  23.166  1.00  0.00     0.004 A 
ENDBRANCH  13  14
ENDBRANCH  12  13
ENDBRANCH   8  12
BRANCH   7  21
ATOM     21  N   UNL A   1      32.510  23.776  24.949  1.00  0.00    -0.345 N 
ATOM     22  H   UNL A   1      32.423  24.129  25.902  1.00  0.00     0.345 HD
ATOM     23  H   UNL A   1      32.883  22.826  24.971  1.00  0.00     0.345 HD
ATOM     24  H   UNL A   1      31.594  23.771  24.503  1.00  0.00     0.345 HD
ENDBRANCH   7  21
ENDBRANCH   4   7
ENDBRANCH   2   3
ENDBRANCH   1   2
BRANCH   1  25
ATOM     25  C   UNL A   1      37.875  21.422  25.559  1.00  0.00     0.023 C 
BRANCH  25  26
ATOM     26  C   UNL A   1      38.544  22.763  25.831  1.00  0.00     0.116 C 
BRANCH  26  27
ATOM     27  N   UNL A   1      39.934  22.695  26.261  1.00  0.00    -0.352 N 
ATOM     28  C   UNL A   1      40.763  23.703  26.742  1.00  0.00     0.251 C 
ATOM     29  H   UNL A   1      40.348  21.804  26.202  1.00  0.00     0.163 HD
ATOM     30  O   UNL A   1      41.927  23.471  26.997  1.00  0.00    -0.269 OA
BRANCH  28  31
ATOM     31  C   UNL A   1      40.182  25.033  27.077  1.00  0.00     0.039 A 
ATOM     32  C   UNL A   1      40.564  26.135  26.298  1.00  0.00     0.014 A 
ATOM     33  C   UNL A   1      39.447  25.232  28.239  1.00  0.00     0.014 A 
ATOM     34  C   UNL A   1      40.449  27.419  26.825  1.00  0.00     0.010 A 
ATOM     35  C   UNL A   1      39.438  26.485  28.814  1.00  0.00     0.010 A 
ATOM     36  C   UNL A   1      40.011  27.565  28.138  1.00  0.00    -0.014 A 
BRANCH  36  37
ATOM     37  C   UNL A   1      40.212  28.764  28.939  1.00  0.00     0.031 A 
ATOM     38  C   UNL A   1      39.172  29.810  28.997  1.00  0.00     0.074 A 
ATOM     39  C   UNL A   1      41.288  28.832  29.755  1.00  0.00     0.049 A 
ATOM     40  N   UNL A   1      39.339  30.956  29.563  1.00  0.00    -0.248 NA
ATOM     41  C   UNL A   1      37.866  29.676  28.361  1.00  0.00     0.031 C 
ATOM     42  C   UNL A   1      41.502  29.759  30.862  1.00  0.00     0.029 A 
ATOM     43  N   UNL A   1      42.535  28.199  29.593  1.00  0.00    -0.354 N 
ATOM     44  C   UNL A   1      38.120  31.577  29.634  1.00  0.00     0.074 A 
ATOM     45  C   UNL A   1      37.274  30.808  28.757  1.00  0.00     0.031 C 
ATOM     46  C   UNL A   1      42.821  29.896  31.059  1.00  0.00     0.029 A 
ATOM     47  C   UNL A   1      43.487  29.168  30.000  1.00  0.00     0.049 A 
ATOM     48  H   UNL A   1      42.707  27.286  29.268  1.00  0.00     0.167 HD
ATOM     49  C   UNL A   1      37.971  32.595  30.530  1.00  0.00     0.037 A 
ATOM     50  C   UNL A   1      44.347  29.724  29.097  1.00  0.00     0.037 A 
ATOM     51  C   UNL A   1      39.283  33.084  30.981  1.00  0.00     0.049 A 
ATOM     52  C   UNL A   1      44.183  31.222  28.929  1.00  0.00     0.074 A 
ATOM     53  C   UNL A   1      40.009  33.052  32.159  1.00  0.00     0.029 A 
ATOM     54  N   UNL A   1      40.167  33.540  30.011  1.00  0.00    -0.354 N 
ATOM     55  N   UNL A   1      43.248  31.918  29.515  1.00  0.00    -0.248 NA
ATOM     56  C   UNL A   1      45.006  32.045  28.044  1.00  0.00     0.031 C 
ATOM     57  C   UNL A   1      41.350  33.458  31.868  1.00  0.00     0.029 A 
ATOM     58  C   UNL A   1      41.431  33.753  30.519  1.00  0.00     0.049 A 
ATOM     59  H   UNL A   1      39.919  33.694  29.071  1.00  0.00     0.167 HD
ATOM     60  C   UNL A   1      43.331  33.224  29.132  1.00  0.00     0.074 A 
ATOM     61  C   UNL A   1      44.437  33.255  28.190  1.00  0.00     0.031 C 
ATOM     62  C   UNL A   1      42.483  34.180  29.609  1.00  0.00     0.037 A 
BRANCH  49  63
ATOM     63  C   UNL A   1      36.651  33.081  31.110  1.00  0.00     0.064 A 
ATOM     64  C   UNL A   1      35.780  33.874  30.326  1.00  0.00     0.173 A 
ATOM     65  C   UNL A   1      36.223  32.909  32.445  1.00  0.00     0.173 A 
ATOM     66  F   UNL A   1      36.043  34.137  29.039  1.00  0.00    -0.203 F 
ATOM     67  C   UNL A   1      34.612  34.453  30.841  1.00  0.00     0.198 A 
ATOM     68  C   UNL A   1      35.036  33.453  32.946  1.00  0.00     0.198 A 
ATOM     69  F   UNL A   1      36.944  32.252  33.354  1.00  0.00    -0.203 F 
ATOM     70  F   UNL A   1      33.860  35.239  30.059  1.00  0.00    -0.200 F 
ATOM     71  C   UNL A   1      34.235  34.236  32.149  1.00  0.00     0.200 A 
ATOM     72  F   UNL A   1      34.695  33.227  34.224  1.00  0.00    -0.200 F 
ATOM     73  F   UNL A   1      33.122  34.790  32.645  1.00  0.00    -0.200 F 
ENDBRANCH  49  63
BRANCH  50  74
ATOM     74  C   UNL A   1      44.775  28.749  28.061  1.00  0.00     0.064 A 
ATOM     75  C   UNL A   1      45.620  27.695  28.468  1.00  0.00     0.173 A 
ATOM     76  C   UNL A   1      44.067  28.585  26.868  1.00  0.00     0.173 A 
ATOM     77  F   UNL A   1      46.323  27.802  29.607  1.00  0.00    -0.203 F 
ATOM     78  C   UNL A   1      45.637  26.477  27.793  1.00  0.00     0.198 A 
ATOM     79  C   UNL A   1      44.108  27.370  26.178  1.00  0.00     0.198 A 
ATOM     80  F   UNL A   1      43.233  29.543  26.437  1.00  0.00    -0.203 F 
ATOM     81  F   UNL A   1      46.339  25.447  28.287  1.00  0.00    -0.200 F 
ATOM     82  C   UNL A   1      44.855  26.307  26.664  1.00  0.00     0.200 A 
ATOM     83  F   UNL A   1      43.333  27.195  25.097  1.00  0.00    -0.200 F 
ATOM     84  F   UNL A   1      44.786  25.107  26.071  1.00  0.00    -0.200 F 
ENDBRANCH  50  74
BRANCH  62  85
ATOM     85  C   UNL A   1      42.589  35.626  29.233  1.00  0.00     0.064 A 
ATOM     86  C   UNL A   1      41.990  36.145  28.076  1.00  0.00     0.173 A 
ATOM     87  C   UNL A   1      43.400  36.511  29.972  1.00  0.00     0.173 A 
ATOM     88  F   UNL A   1      41.251  35.360  27.277  1.00  0.00    -0.203 F 
ATOM     89  C   UNL A   1      42.154  37.480  27.707  1.00  0.00     0.198 A 
ATOM     90  C   UNL A   1      43.602  37.830  29.574  1.00  0.00     0.198 A 
ATOM     91  F   UNL A   1      43.996  36.125  31.110  1.00  0.00    -0.203 F 
ATOM     92  F   UNL A   1      41.521  37.952  26.623  1.00  0.00    -0.200 F 
ATOM     93  C   UNL A   1      42.967  38.319  28.449  1.00  0.00     0.200 A 
ATOM     94  F   UNL A   1      44.408  38.625  30.291  1.00  0.00    -0.200 F 
ATOM     95  F   UNL A   1      43.135  39.596  28.083  1.00  0.00    -0.200 F 
ENDBRANCH  62  85
ENDBRANCH  36  37
ENDBRANCH  28  31
ENDBRANCH  26  27
ENDBRANCH  25  26
ENDBRANCH   1  25
TORSDOF 15
ENDMDL
