MODEL 1
REMARK VINA RESULT:     -14.1      0.000      0.000
REMARK SMILES Cc1cccc(C[N@H+]2CC[C@@](C)(C(=O)NCCCCNC(=O)c3ccc(-c4c5nc(c(-c6c(F)c(F)c(F)c(F)c6F)c6ccc([nH]6)c(-c6c(F)c(F)c(F)c(F)c6F)c6nc(c(-c7c(F)c(F)c(F)c(F)c7F)c7ccc4[nH]7)C=C6)C=C5)cc3)C2)n1
REMARK SMILES IDX 17 1 16 2 15 3 13 4 14 5 11 7 8 8 9 9 86 10 10 12 12 13 7 14
REMARK SMILES IDX 6 15 1 16 2 17 3 18 87 19 4 20 5 21 18 22 19 23 20 24 21 25
REMARK SMILES IDX 22 27 23 28 24 29 85 30 25 31 84 32 26 33 27 34 28 35 78 36
REMARK SMILES IDX 29 37 83 38 77 39 79 40 30 41 82 42 76 43 75 44 31 46 63 47
REMARK SMILES IDX 43 48 62 49 44 50 47 51 61 52 80 53 45 54 46 55 60 57 81 58
REMARK SMILES IDX 48 59 32 60 33 61 41 62 34 63 35 64 39 65 42 66 36 67 37 68
REMARK SMILES IDX 40 69 38 70 64 71 65 72 73 73 66 74 67 75 71 76 74 77 68 78
REMARK SMILES IDX 69 79 72 80 70 81 49 82 50 83 58 84 51 85 52 86 56 87 59 88
REMARK SMILES IDX 53 89 54 90 57 91 55 92
REMARK H PARENT 15 6 8 11 20 26 79 45 47 56
REMARK Flexibility Score: inf
ROOT
ATOM      1  C   UNL A   1      32.048  29.852  27.108  1.00  0.00     0.023 C 
ENDROOT
BRANCH   1   2
ATOM      2  C   UNL A   1      31.408  27.948  26.250  1.00  0.00     0.116 C 
BRANCH   2   3
ATOM      3  N   UNL A   1      31.207  26.518  26.828  1.00  0.00    -0.355 N 
ATOM      4  C   UNL A   1      31.790  25.333  26.515  1.00  0.00     0.231 C 
ATOM      5  O   UNL A   1      31.364  24.383  27.187  1.00  0.00    -0.274 OA
ATOM      6  H   UNL A   1      30.540  26.463  27.549  1.00  0.00     0.163 HD
BRANCH   4   7
ATOM      7  C   UNL A   1      32.974  25.150  25.513  1.00  0.00     0.100 C 
ATOM      8  N   UNL A   1      32.872  25.867  23.162  1.00  0.00    -0.329 N 
ATOM      9  C   UNL A   1      33.446  26.977  23.925  1.00  0.00     0.263 C 
ATOM     10  C   UNL A   1      32.663  24.720  24.070  1.00  0.00     0.279 C 
ATOM     11  H   UNL A   1      33.560  25.610  22.454  1.00  0.00     0.348 HD
ATOM     12  C   UNL A   1      33.756  26.459  25.331  1.00  0.00     0.084 C 
ATOM     13  C   UNL A   1      33.890  24.077  26.162  1.00  0.00     0.028 C 
BRANCH   8  14
ATOM     14  C   UNL A   1      31.722  26.185  22.280  1.00  0.00     0.319 C 
BRANCH  14  15
ATOM     15  C   UNL A   1      30.614  27.034  22.920  1.00  0.00     0.095 A 
ATOM     16  C   UNL A   1      28.612  30.741  21.645  1.00  0.00     0.067 C 
ATOM     17  C   UNL A   1      28.771  29.406  22.301  1.00  0.00     0.038 A 
ATOM     18  C   UNL A   1      27.392  28.567  23.096  1.00  0.00     0.023 A 
ATOM     19  N   UNL A   1      30.332  28.613  22.170  1.00  0.00    -0.252 NA
ATOM     20  C   UNL A   1      27.678  26.978  23.900  1.00  0.00     0.004 A 
ATOM     21  C   UNL A   1      29.285  26.179  23.757  1.00  0.00     0.030 A 
ENDBRANCH  14  15
ENDBRANCH   8  14
ENDBRANCH   4   7
ENDBRANCH   2   3
ENDBRANCH   1   2
BRANCH   1  22
ATOM     22  C   UNL A   1      31.655  31.520  26.849  1.00  0.00     0.023 C 
BRANCH  22  23
ATOM     23  C   UNL A   1      32.740  32.590  26.862  1.00  0.00     0.116 C 
BRANCH  23  24
ATOM     24  N   UNL A   1      32.351  33.846  27.473  1.00  0.00    -0.352 N 
ATOM     25  C   UNL A   1      33.013  34.465  28.503  1.00  0.00     0.251 C 
ATOM     26  H   UNL A   1      31.546  34.290  27.120  1.00  0.00     0.163 HD
ATOM     27  O   UNL A   1      32.615  35.499  29.021  1.00  0.00    -0.269 OA
BRANCH  25  28
ATOM     28  C   UNL A   1      34.230  33.793  28.983  1.00  0.00     0.039 A 
ATOM     29  C   UNL A   1      35.468  34.359  28.685  1.00  0.00     0.014 A 
ATOM     30  C   UNL A   1      34.106  32.731  29.884  1.00  0.00     0.014 A 
ATOM     31  C   UNL A   1      36.603  33.844  29.297  1.00  0.00     0.010 A 
ATOM     32  C   UNL A   1      35.227  32.295  30.574  1.00  0.00     0.010 A 
ATOM     33  C   UNL A   1      36.488  32.814  30.247  1.00  0.00    -0.014 A 
BRANCH  33  34
ATOM     34  C   UNL A   1      37.706  32.186  30.807  1.00  0.00     0.031 A 
ATOM     35  C   UNL A   1      38.137  32.567  32.196  1.00  0.00     0.074 A 
ATOM     36  C   UNL A   1      38.383  31.269  30.091  1.00  0.00     0.049 A 
ATOM     37  N   UNL A   1      39.135  32.116  32.911  1.00  0.00    -0.248 NA
ATOM     38  C   UNL A   1      37.359  33.626  32.863  1.00  0.00     0.031 C 
ATOM     39  C   UNL A   1      38.060  30.859  28.724  1.00  0.00     0.029 A 
ATOM     40  N   UNL A   1      39.466  30.500  30.423  1.00  0.00    -0.354 N 
ATOM     41  C   UNL A   1      39.098  32.838  34.097  1.00  0.00     0.074 A 
ATOM     42  C   UNL A   1      38.055  33.826  33.967  1.00  0.00     0.031 C 
ATOM     43  C   UNL A   1      38.887  29.867  28.356  1.00  0.00     0.029 A 
ATOM     44  C   UNL A   1      39.821  29.602  29.446  1.00  0.00     0.049 A 
ATOM     45  H   UNL A   1      39.945  30.583  31.280  1.00  0.00     0.167 HD
ATOM     46  C   UNL A   1      39.837  32.658  35.216  1.00  0.00     0.037 A 
ATOM     47  C   UNL A   1      40.787  28.664  29.449  1.00  0.00     0.037 A 
ATOM     48  C   UNL A   1      40.860  31.658  35.327  1.00  0.00     0.049 A 
ATOM     49  C   UNL A   1      41.628  28.511  30.690  1.00  0.00     0.074 A 
ATOM     50  C   UNL A   1      41.671  31.363  36.406  1.00  0.00     0.029 A 
ATOM     51  N   UNL A   1      41.215  30.786  34.305  1.00  0.00    -0.354 N 
ATOM     52  N   UNL A   1      41.554  29.161  31.828  1.00  0.00    -0.248 NA
ATOM     53  C   UNL A   1      42.678  27.486  30.651  1.00  0.00     0.031 C 
ATOM     54  C   UNL A   1      42.561  30.357  36.015  1.00  0.00     0.029 A 
ATOM     55  C   UNL A   1      42.250  29.967  34.720  1.00  0.00     0.049 A 
ATOM     56  H   UNL A   1      40.791  30.755  33.417  1.00  0.00     0.167 HD
ATOM     57  C   UNL A   1      42.519  28.600  32.654  1.00  0.00     0.074 A 
ATOM     58  C   UNL A   1      43.154  27.547  31.886  1.00  0.00     0.031 C 
ATOM     59  C   UNL A   1      42.851  28.920  33.931  1.00  0.00     0.037 A 
BRANCH  46  60
ATOM     60  C   UNL A   1      39.559  33.573  36.377  1.00  0.00     0.064 A 
ATOM     61  C   UNL A   1      40.164  34.837  36.489  1.00  0.00     0.173 A 
ATOM     62  C   UNL A   1      38.702  33.170  37.411  1.00  0.00     0.173 A 
ATOM     63  F   UNL A   1      41.008  35.269  35.539  1.00  0.00    -0.203 F 
ATOM     64  C   UNL A   1      39.968  35.634  37.615  1.00  0.00     0.198 A 
ATOM     65  C   UNL A   1      38.472  33.989  38.515  1.00  0.00     0.198 A 
ATOM     66  F   UNL A   1      38.094  31.975  37.361  1.00  0.00    -0.203 F 
ATOM     67  F   UNL A   1      40.629  36.793  37.737  1.00  0.00    -0.200 F 
ATOM     68  C   UNL A   1      39.118  35.211  38.625  1.00  0.00     0.200 A 
ATOM     69  F   UNL A   1      37.639  33.584  39.484  1.00  0.00    -0.200 F 
ATOM     70  F   UNL A   1      38.933  35.975  39.710  1.00  0.00    -0.200 F 
ENDBRANCH  46  60
BRANCH  47  71
ATOM     71  C   UNL A   1      40.974  27.775  28.270  1.00  0.00     0.064 A 
ATOM     72  C   UNL A   1      41.822  28.141  27.214  1.00  0.00     0.173 A 
ATOM     73  C   UNL A   1      40.314  26.541  28.172  1.00  0.00     0.173 A 
ATOM     74  F   UNL A   1      42.468  29.316  27.251  1.00  0.00    -0.203 F 
ATOM     75  C   UNL A   1      41.981  27.321  26.098  1.00  0.00     0.198 A 
ATOM     76  C   UNL A   1      40.500  25.707  27.071  1.00  0.00     0.198 A 
ATOM     77  F   UNL A   1      39.498  26.135  29.156  1.00  0.00    -0.203 F 
ATOM     78  F   UNL A   1      42.759  27.721  25.081  1.00  0.00    -0.200 F 
ATOM     79  C   UNL A   1      41.325  26.103  26.029  1.00  0.00     0.200 A 
ATOM     80  F   UNL A   1      39.879  24.521  27.019  1.00  0.00    -0.200 F 
ATOM     81  F   UNL A   1      41.483  25.312  24.959  1.00  0.00    -0.200 F 
ENDBRANCH  47  71
BRANCH  59  82
ATOM     82  C   UNL A   1      43.905  28.080  34.595  1.00  0.00     0.064 A 
ATOM     83  C   UNL A   1      43.600  26.866  35.225  1.00  0.00     0.173 A 
ATOM     84  C   UNL A   1      45.249  28.484  34.557  1.00  0.00     0.173 A 
ATOM     85  F   UNL A   1      42.329  26.440  35.297  1.00  0.00    -0.203 F 
ATOM     86  C   UNL A   1      44.597  26.105  35.829  1.00  0.00     0.198 A 
ATOM     87  C   UNL A   1      46.248  27.699  35.123  1.00  0.00     0.198 A 
ATOM     88  F   UNL A   1      45.595  29.631  33.955  1.00  0.00    -0.203 F 
ATOM     89  F   UNL A   1      44.275  24.982  36.483  1.00  0.00    -0.200 F 
ATOM     90  C   UNL A   1      45.920  26.518  35.770  1.00  0.00     0.200 A 
ATOM     91  F   UNL A   1      47.527  28.088  35.042  1.00  0.00    -0.200 F 
ATOM     92  F   UNL A   1      46.880  25.779  36.343  1.00  0.00    -0.200 F 
ENDBRANCH  59  82
ENDBRANCH  33  34
ENDBRANCH  25  28
ENDBRANCH  23  24
ENDBRANCH  22  23
ENDBRANCH   1  22
TORSDOF 13
ENDMDL
MODEL 2
REMARK VINA RESULT:     -14.1      1.534      3.549
REMARK SMILES Cc1cccc(C[N@H+]2CC[C@@](C)(C(=O)NCCCCNC(=O)c3ccc(-c4c5nc(c(-c6c(F)c(F)c(F)c(F)c6F)c6ccc([nH]6)c(-c6c(F)c(F)c(F)c(F)c6F)c6nc(c(-c7c(F)c(F)c(F)c(F)c7F)c7ccc4[nH]7)C=C6)C=C5)cc3)C2)n1
REMARK SMILES IDX 17 1 16 2 15 3 13 4 14 5 11 7 8 8 9 9 86 10 10 12 12 13 7 14
REMARK SMILES IDX 6 15 1 16 2 17 3 18 87 19 4 20 5 21 18 22 19 23 20 24 21 25
REMARK SMILES IDX 22 27 23 28 24 29 85 30 25 31 84 32 26 33 27 34 28 35 78 36
REMARK SMILES IDX 29 37 83 38 77 39 79 40 30 41 82 42 76 43 75 44 31 46 63 47
REMARK SMILES IDX 43 48 62 49 44 50 47 51 61 52 80 53 45 54 46 55 60 57 81 58
REMARK SMILES IDX 48 59 32 60 33 61 41 62 34 63 35 64 39 65 42 66 36 67 37 68
REMARK SMILES IDX 40 69 38 70 64 71 65 72 73 73 66 74 67 75 71 76 74 77 68 78
REMARK SMILES IDX 69 79 72 80 70 81 49 82 50 83 58 84 51 85 52 86 56 87 59 88
REMARK SMILES IDX 53 89 54 90 57 91 55 92
REMARK H PARENT 15 6 8 11 20 26 79 45 47 56
REMARK Flexibility Score: inf
ROOT
ATOM      1  C   UNL A   1      31.498  30.662  25.724  1.00  0.00     0.023 C 
ENDROOT
BRANCH   1   2
ATOM      2  C   UNL A   1      33.118  29.346  25.077  1.00  0.00     0.116 C 
BRANCH   2   3
ATOM      3  N   UNL A   1      33.759  29.022  23.699  1.00  0.00    -0.355 N 
ATOM      4  C   UNL A   1      33.443  28.100  22.755  1.00  0.00     0.231 C 
ATOM      5  O   UNL A   1      34.197  28.123  21.772  1.00  0.00    -0.274 OA
ATOM      6  H   UNL A   1      34.531  29.588  23.469  1.00  0.00     0.163 HD
BRANCH   4   7
ATOM      7  C   UNL A   1      32.189  27.169  22.791  1.00  0.00     0.100 C 
ATOM      8  N   UNL A   1      32.334  24.714  22.749  1.00  0.00    -0.329 N 
ATOM      9  C   UNL A   1      32.305  25.117  24.156  1.00  0.00     0.263 C 
ATOM     10  C   UNL A   1      32.174  25.914  21.903  1.00  0.00     0.279 C 
ATOM     11  H   UNL A   1      31.537  24.094  22.604  1.00  0.00     0.348 HD
ATOM     12  C   UNL A   1      31.955  26.607  24.201  1.00  0.00     0.084 C 
ATOM     13  C   UNL A   1      30.999  28.078  22.384  1.00  0.00     0.028 C 
BRANCH   8  14
ATOM     14  C   UNL A   1      33.429  23.799  22.338  1.00  0.00     0.319 C 
BRANCH  14  15
ATOM     15  C   UNL A   1      34.086  23.004  23.476  1.00  0.00     0.095 A 
ATOM     16  C   UNL A   1      33.099  19.141  25.343  1.00  0.00     0.067 C 
ATOM     17  C   UNL A   1      33.955  20.266  24.854  1.00  0.00     0.038 A 
ATOM     18  C   UNL A   1      35.751  20.200  24.935  1.00  0.00     0.023 A 
ATOM     19  N   UNL A   1      33.155  21.624  24.080  1.00  0.00    -0.252 NA
ATOM     20  C   UNL A   1      36.708  21.617  24.362  1.00  0.00     0.004 A 
ATOM     21  C   UNL A   1      35.872  23.001  23.571  1.00  0.00     0.030 A 
ENDBRANCH  14  15
ENDBRANCH   8  14
ENDBRANCH   4   7
ENDBRANCH   2   3
ENDBRANCH   1   2
BRANCH   1  22
ATOM     22  C   UNL A   1      31.361  32.027  26.782  1.00  0.00     0.023 C 
BRANCH  22  23
ATOM     23  C   UNL A   1      32.591  32.836  27.179  1.00  0.00     0.116 C 
BRANCH  23  24
ATOM     24  N   UNL A   1      32.307  34.154  27.710  1.00  0.00    -0.352 N 
ATOM     25  C   UNL A   1      33.053  34.803  28.662  1.00  0.00     0.251 C 
ATOM     26  H   UNL A   1      31.515  34.623  27.359  1.00  0.00     0.163 HD
ATOM     27  O   UNL A   1      32.744  35.895  29.117  1.00  0.00    -0.269 OA
BRANCH  25  28
ATOM     28  C   UNL A   1      34.248  34.091  29.139  1.00  0.00     0.039 A 
ATOM     29  C   UNL A   1      35.503  34.547  28.739  1.00  0.00     0.014 A 
ATOM     30  C   UNL A   1      34.104  33.114  30.129  1.00  0.00     0.014 A 
ATOM     31  C   UNL A   1      36.633  34.007  29.339  1.00  0.00     0.010 A 
ATOM     32  C   UNL A   1      35.229  32.660  30.800  1.00  0.00     0.010 A 
ATOM     33  C   UNL A   1      36.502  33.065  30.374  1.00  0.00    -0.014 A 
BRANCH  33  34
ATOM     34  C   UNL A   1      37.705  32.402  30.928  1.00  0.00     0.031 A 
ATOM     35  C   UNL A   1      38.153  32.771  32.315  1.00  0.00     0.074 A 
ATOM     36  C   UNL A   1      38.352  31.468  30.208  1.00  0.00     0.049 A 
ATOM     37  N   UNL A   1      39.142  32.291  33.024  1.00  0.00    -0.248 NA
ATOM     38  C   UNL A   1      37.408  33.851  32.986  1.00  0.00     0.031 C 
ATOM     39  C   UNL A   1      38.010  31.068  28.842  1.00  0.00     0.029 A 
ATOM     40  N   UNL A   1      39.415  30.669  30.534  1.00  0.00    -0.354 N 
ATOM     41  C   UNL A   1      39.131  33.013  34.211  1.00  0.00     0.074 A 
ATOM     42  C   UNL A   1      38.116  34.031  34.087  1.00  0.00     0.031 C 
ATOM     43  C   UNL A   1      38.808  30.053  28.470  1.00  0.00     0.029 A 
ATOM     44  C   UNL A   1      39.740  29.762  29.555  1.00  0.00     0.049 A 
ATOM     45  H   UNL A   1      39.900  30.737  31.388  1.00  0.00     0.167 HD
ATOM     46  C   UNL A   1      39.870  32.813  35.326  1.00  0.00     0.037 A 
ATOM     47  C   UNL A   1      40.679  28.797  29.552  1.00  0.00     0.037 A 
ATOM     48  C   UNL A   1      40.866  31.784  35.431  1.00  0.00     0.049 A 
ATOM     49  C   UNL A   1      41.522  28.620  30.789  1.00  0.00     0.074 A 
ATOM     50  C   UNL A   1      41.674  31.466  36.506  1.00  0.00     0.029 A 
ATOM     51  N   UNL A   1      41.191  30.903  34.407  1.00  0.00    -0.354 N 
ATOM     52  N   UNL A   1      41.472  29.271  31.927  1.00  0.00    -0.248 NA
ATOM     53  C   UNL A   1      42.542  27.566  30.744  1.00  0.00     0.031 C 
ATOM     54  C   UNL A   1      42.533  30.436  36.110  1.00  0.00     0.029 A 
ATOM     55  C   UNL A   1      42.205  30.056  34.816  1.00  0.00     0.049 A 
ATOM     56  H   UNL A   1      40.762  30.884  33.521  1.00  0.00     0.167 HD
ATOM     57  C   UNL A   1      42.425  28.683  32.748  1.00  0.00     0.074 A 
ATOM     58  C   UNL A   1      43.027  27.612  31.976  1.00  0.00     0.031 C 
ATOM     59  C   UNL A   1      42.772  28.992  34.024  1.00  0.00     0.037 A 
BRANCH  46  60
ATOM     60  C   UNL A   1      39.624  33.734  36.489  1.00  0.00     0.064 A 
ATOM     61  C   UNL A   1      40.263  34.982  36.597  1.00  0.00     0.173 A 
ATOM     62  C   UNL A   1      38.763  33.353  37.528  1.00  0.00     0.173 A 
ATOM     63  F   UNL A   1      41.112  35.392  35.641  1.00  0.00    -0.203 F 
ATOM     64  C   UNL A   1      40.095  35.783  37.724  1.00  0.00     0.198 A 
ATOM     65  C   UNL A   1      38.563  34.177  38.634  1.00  0.00     0.198 A 
ATOM     66  F   UNL A   1      38.124  32.175  37.483  1.00  0.00    -0.203 F 
ATOM     67  F   UNL A   1      40.787  36.925  37.842  1.00  0.00    -0.200 F 
ATOM     68  C   UNL A   1      39.241  35.382  38.740  1.00  0.00     0.200 A 
ATOM     69  F   UNL A   1      37.726  33.794  39.608  1.00  0.00    -0.200 F 
ATOM     70  F   UNL A   1      39.083  36.150  39.827  1.00  0.00    -0.200 F 
ENDBRANCH  46  60
BRANCH  47  71
ATOM     71  C   UNL A   1      40.835  27.904  28.372  1.00  0.00     0.064 A 
ATOM     72  C   UNL A   1      40.189  26.661  28.313  1.00  0.00     0.173 A 
ATOM     73  C   UNL A   1      41.633  28.272  27.277  1.00  0.00     0.173 A 
ATOM     74  F   UNL A   1      39.425  26.254  29.338  1.00  0.00    -0.203 F 
ATOM     75  C   UNL A   1      40.353  25.812  27.219  1.00  0.00     0.198 A 
ATOM     76  C   UNL A   1      41.769  27.437  26.169  1.00  0.00     0.198 A 
ATOM     77  F   UNL A   1      42.268  29.453  27.275  1.00  0.00    -0.203 F 
ATOM     78  F   UNL A   1      39.763  24.608  27.213  1.00  0.00    -0.200 F 
ATOM     79  C   UNL A   1      41.138  26.202  26.146  1.00  0.00     0.200 A 
ATOM     80  F   UNL A   1      42.513  27.828  25.126  1.00  0.00    -0.200 F 
ATOM     81  F   UNL A   1      41.291  25.389  25.092  1.00  0.00    -0.200 F 
ENDBRANCH  47  71
BRANCH  59  82
ATOM     82  C   UNL A   1      43.805  28.123  34.682  1.00  0.00     0.064 A 
ATOM     83  C   UNL A   1      45.166  28.462  34.691  1.00  0.00     0.173 A 
ATOM     84  C   UNL A   1      43.414  26.953  35.351  1.00  0.00     0.173 A 
ATOM     85  F   UNL A   1      45.593  29.566  34.058  1.00  0.00    -0.203 F 
ATOM     86  C   UNL A   1      46.102  27.641  35.312  1.00  0.00     0.198 A 
ATOM     87  C   UNL A   1      44.346  26.158  36.009  1.00  0.00     0.198 A 
ATOM     88  F   UNL A   1      42.123  26.591  35.383  1.00  0.00    -0.203 F 
ATOM     89  F   UNL A   1      47.404  27.949  35.253  1.00  0.00    -0.200 F 
ATOM     90  C   UNL A   1      45.691  26.495  35.978  1.00  0.00     0.200 A 
ATOM     91  F   UNL A   1      43.943  25.066  36.672  1.00  0.00    -0.200 F 
ATOM     92  F   UNL A   1      46.592  25.711  36.584  1.00  0.00    -0.200 F 
ENDBRANCH  59  82
ENDBRANCH  33  34
ENDBRANCH  25  28
ENDBRANCH  23  24
ENDBRANCH  22  23
ENDBRANCH   1  22
TORSDOF 13
ENDMDL
MODEL 3
REMARK VINA RESULT:     -13.9      1.028      3.077
REMARK SMILES Cc1cccc(C[N@H+]2CC[C@@](C)(C(=O)NCCCCNC(=O)c3ccc(-c4c5nc(c(-c6c(F)c(F)c(F)c(F)c6F)c6ccc([nH]6)c(-c6c(F)c(F)c(F)c(F)c6F)c6nc(c(-c7c(F)c(F)c(F)c(F)c7F)c7ccc4[nH]7)C=C6)C=C5)cc3)C2)n1
REMARK SMILES IDX 17 1 16 2 15 3 13 4 14 5 11 7 8 8 9 9 86 10 10 12 12 13 7 14
REMARK SMILES IDX 6 15 1 16 2 17 3 18 87 19 4 20 5 21 18 22 19 23 20 24 21 25
REMARK SMILES IDX 22 27 23 28 24 29 85 30 25 31 84 32 26 33 27 34 28 35 78 36
REMARK SMILES IDX 29 37 83 38 77 39 79 40 30 41 82 42 76 43 75 44 31 46 63 47
REMARK SMILES IDX 43 48 62 49 44 50 47 51 61 52 80 53 45 54 46 55 60 57 81 58
REMARK SMILES IDX 48 59 32 60 33 61 41 62 34 63 35 64 39 65 42 66 36 67 37 68
REMARK SMILES IDX 40 69 38 70 64 71 65 72 73 73 66 74 67 75 71 76 74 77 68 78
REMARK SMILES IDX 69 79 72 80 70 81 49 82 50 83 58 84 51 85 52 86 56 87 59 88
REMARK SMILES IDX 53 89 54 90 57 91 55 92
REMARK H PARENT 15 6 8 11 20 26 79 45 47 56
REMARK Flexibility Score: inf
ROOT
ATOM      1  C   UNL A   1      32.214  30.426  26.133  1.00  0.00     0.023 C 
ENDROOT
BRANCH   1   2
ATOM      2  C   UNL A   1      32.222  28.400  26.952  1.00  0.00     0.116 C 
BRANCH   2   3
ATOM      3  N   UNL A   1      31.224  27.210  26.896  1.00  0.00    -0.355 N 
ATOM      4  C   UNL A   1      30.641  26.575  25.848  1.00  0.00     0.231 C 
ATOM      5  O   UNL A   1      29.875  25.662  26.190  1.00  0.00    -0.274 OA
ATOM      6  H   UNL A   1      30.970  26.854  27.777  1.00  0.00     0.163 HD
BRANCH   4   7
ATOM      7  C   UNL A   1      30.967  26.837  24.343  1.00  0.00     0.100 C 
ATOM      8  N   UNL A   1      32.847  25.770  23.168  1.00  0.00    -0.329 N 
ATOM      9  C   UNL A   1      31.673  24.921  22.957  1.00  0.00     0.263 C 
ATOM     10  C   UNL A   1      32.439  26.975  23.918  1.00  0.00     0.279 C 
ATOM     11  H   UNL A   1      33.178  26.048  22.244  1.00  0.00     0.348 HD
ATOM     12  C   UNL A   1      30.449  25.695  23.456  1.00  0.00     0.084 C 
ATOM     13  C   UNL A   1      30.224  28.154  23.991  1.00  0.00     0.028 C 
BRANCH   8  14
ATOM     14  C   UNL A   1      34.072  25.102  23.674  1.00  0.00     0.319 C 
BRANCH  14  15
ATOM     15  C   UNL A   1      33.836  23.845  24.524  1.00  0.00     0.095 A 
ATOM     16  C   UNL A   1      36.129  20.118  25.002  1.00  0.00     0.067 C 
ATOM     17  C   UNL A   1      35.232  21.252  25.383  1.00  0.00     0.038 A 
ATOM     18  C   UNL A   1      34.607  21.449  27.059  1.00  0.00     0.023 A 
ATOM     19  N   UNL A   1      34.893  22.470  24.165  1.00  0.00    -0.252 NA
ATOM     20  C   UNL A   1      33.495  22.821  27.425  1.00  0.00     0.004 A 
ATOM     21  C   UNL A   1      33.158  24.061  26.165  1.00  0.00     0.030 A 
ENDBRANCH  14  15
ENDBRANCH   8  14
ENDBRANCH   4   7
ENDBRANCH   2   3
ENDBRANCH   1   2
BRANCH   1  22
ATOM     22  C   UNL A   1      31.829  32.004  26.737  1.00  0.00     0.023 C 
BRANCH  22  23
ATOM     23  C   UNL A   1      32.917  32.913  27.296  1.00  0.00     0.116 C 
BRANCH  23  24
ATOM     24  N   UNL A   1      32.452  34.205  27.760  1.00  0.00    -0.352 N 
ATOM     25  C   UNL A   1      33.018  34.935  28.775  1.00  0.00     0.251 C 
ATOM     26  H   UNL A   1      31.665  34.591  27.309  1.00  0.00     0.163 HD
ATOM     27  O   UNL A   1      32.556  35.997  29.165  1.00  0.00    -0.269 OA
BRANCH  25  28
ATOM     28  C   UNL A   1      34.211  34.346  29.403  1.00  0.00     0.039 A 
ATOM     29  C   UNL A   1      34.037  33.390  30.402  1.00  0.00     0.014 A 
ATOM     30  C   UNL A   1      35.467  34.609  28.849  1.00  0.00     0.014 A 
ATOM     31  C   UNL A   1      35.147  32.690  30.858  1.00  0.00     0.010 A 
ATOM     32  C   UNL A   1      36.549  33.831  29.228  1.00  0.00     0.010 A 
ATOM     33  C   UNL A   1      36.407  32.904  30.271  1.00  0.00    -0.014 A 
BRANCH  33  34
ATOM     34  C   UNL A   1      37.607  32.247  30.837  1.00  0.00     0.031 A 
ATOM     35  C   UNL A   1      38.039  32.618  32.229  1.00  0.00     0.074 A 
ATOM     36  C   UNL A   1      38.266  31.317  30.124  1.00  0.00     0.049 A 
ATOM     37  N   UNL A   1      39.022  32.143  32.948  1.00  0.00    -0.248 NA
ATOM     38  C   UNL A   1      37.281  33.694  32.892  1.00  0.00     0.031 C 
ATOM     39  C   UNL A   1      37.941  30.915  28.754  1.00  0.00     0.029 A 
ATOM     40  N   UNL A   1      39.330  30.522  30.461  1.00  0.00    -0.354 N 
ATOM     41  C   UNL A   1      38.995  32.865  34.135  1.00  0.00     0.074 A 
ATOM     42  C   UNL A   1      37.976  33.877  34.000  1.00  0.00     0.031 C 
ATOM     43  C   UNL A   1      38.748  29.904  28.390  1.00  0.00     0.029 A 
ATOM     44  C   UNL A   1      39.670  29.617  29.485  1.00  0.00     0.049 A 
ATOM     45  H   UNL A   1      39.806  30.593  31.320  1.00  0.00     0.167 HD
ATOM     46  C   UNL A   1      39.724  32.667  35.257  1.00  0.00     0.037 A 
ATOM     47  C   UNL A   1      40.613  28.657  29.492  1.00  0.00     0.037 A 
ATOM     48  C   UNL A   1      40.723  31.644  35.373  1.00  0.00     0.049 A 
ATOM     49  C   UNL A   1      41.444  28.484  30.738  1.00  0.00     0.074 A 
ATOM     50  C   UNL A   1      41.522  31.329  36.457  1.00  0.00     0.029 A 
ATOM     51  N   UNL A   1      41.064  30.764  34.352  1.00  0.00    -0.354 N 
ATOM     52  N   UNL A   1      41.379  29.135  31.876  1.00  0.00    -0.248 NA
ATOM     53  C   UNL A   1      42.470  27.435  30.704  1.00  0.00     0.031 C 
ATOM     54  C   UNL A   1      42.390  30.304  36.069  1.00  0.00     0.029 A 
ATOM     55  C   UNL A   1      42.077  29.922  34.772  1.00  0.00     0.049 A 
ATOM     56  H   UNL A   1      40.644  30.744  33.462  1.00  0.00     0.167 HD
ATOM     57  C   UNL A   1      42.326  28.551  32.706  1.00  0.00     0.074 A 
ATOM     58  C   UNL A   1      42.941  27.484  31.941  1.00  0.00     0.031 C 
ATOM     59  C   UNL A   1      42.658  28.862  33.986  1.00  0.00     0.037 A 
BRANCH  46  60
ATOM     60  C   UNL A   1      39.460  33.587  36.418  1.00  0.00     0.064 A 
ATOM     61  C   UNL A   1      40.055  34.858  36.510  1.00  0.00     0.173 A 
ATOM     62  C   UNL A   1      38.628  33.183  37.472  1.00  0.00     0.173 A 
ATOM     63  F   UNL A   1      40.876  35.291  35.540  1.00  0.00    -0.203 F 
ATOM     64  C   UNL A   1      39.875  35.660  37.634  1.00  0.00     0.198 A 
ATOM     65  C   UNL A   1      38.413  34.007  38.575  1.00  0.00     0.198 A 
ATOM     66  F   UNL A   1      38.031  31.982  37.442  1.00  0.00    -0.203 F 
ATOM     67  F   UNL A   1      40.526  36.826  37.735  1.00  0.00    -0.200 F 
ATOM     68  C   UNL A   1      39.049  35.236  38.664  1.00  0.00     0.200 A 
ATOM     69  F   UNL A   1      37.603  33.601  39.563  1.00  0.00    -0.200 F 
ATOM     70  F   UNL A   1      38.878  36.005  39.748  1.00  0.00    -0.200 F 
ENDBRANCH  46  60
BRANCH  47  71
ATOM     71  C   UNL A   1      40.787  27.766  28.314  1.00  0.00     0.064 A 
ATOM     72  C   UNL A   1      41.646  28.114  27.261  1.00  0.00     0.173 A 
ATOM     73  C   UNL A   1      40.102  26.545  28.212  1.00  0.00     0.173 A 
ATOM     74  F   UNL A   1      42.316  29.276  27.300  1.00  0.00    -0.203 F 
ATOM     75  C   UNL A   1      41.792  27.292  26.144  1.00  0.00     0.198 A 
ATOM     76  C   UNL A   1      40.274  25.708  27.111  1.00  0.00     0.198 A 
ATOM     77  F   UNL A   1      39.274  26.156  29.193  1.00  0.00    -0.203 F 
ATOM     78  F   UNL A   1      42.582  27.676  25.131  1.00  0.00    -0.200 F 
ATOM     79  C   UNL A   1      41.112  26.088  26.073  1.00  0.00     0.200 A 
ATOM     80  F   UNL A   1      39.629  24.535  27.056  1.00  0.00    -0.200 F 
ATOM     81  F   UNL A   1      41.257  25.294  25.002  1.00  0.00    -0.200 F 
ENDBRANCH  47  71
BRANCH  59  82
ATOM     82  C   UNL A   1      43.689  27.998  34.654  1.00  0.00     0.064 A 
ATOM     83  C   UNL A   1      45.059  28.284  34.582  1.00  0.00     0.173 A 
ATOM     84  C   UNL A   1      43.287  26.890  35.418  1.00  0.00     0.173 A 
ATOM     85  F   UNL A   1      45.496  29.326  33.858  1.00  0.00    -0.203 F 
ATOM     86  C   UNL A   1      45.993  27.468  35.215  1.00  0.00     0.198 A 
ATOM     87  C   UNL A   1      44.219  26.104  36.085  1.00  0.00     0.198 A 
ATOM     88  F   UNL A   1      41.986  26.582  35.530  1.00  0.00    -0.203 F 
ATOM     89  F   UNL A   1      47.301  27.721  35.078  1.00  0.00    -0.200 F 
ATOM     90  C   UNL A   1      45.572  26.385  35.973  1.00  0.00     0.200 A 
ATOM     91  F   UNL A   1      43.808  25.074  36.837  1.00  0.00    -0.200 F 
ATOM     92  F   UNL A   1      46.472  25.608  36.590  1.00  0.00    -0.200 F 
ENDBRANCH  59  82
ENDBRANCH  33  34
ENDBRANCH  25  28
ENDBRANCH  23  24
ENDBRANCH  22  23
ENDBRANCH   1  22
TORSDOF 13
ENDMDL
