MODEL 1
REMARK VINA RESULT:     -11.9      0.000      0.000
REMARK SMILES COc1cc(/C=C/C(=O)NCCCCNC(=O)c2ccc(-c3c4nc(c(-c5c(F)c(F)c(F)c(F)c5F)c5ccc([nH]5)c(-c5c(F)c(F)c(F)c(F)c5F)c5nc(c(-c6c(F)c(F)c(F)c(F)c6F)c6ccc3[nH]6)C=C5)C=C4)cc2)cc(OC)c1O
REMARK SMILES IDX 12 1 11 2 10 3 8 4 9 5 7 7 6 8 5 9 3 10 4 11 85 12 82 13
REMARK SMILES IDX 81 14 2 15 1 16 86 17 83 19 84 20 13 21 14 22 15 23 16 24
REMARK SMILES IDX 17 26 18 27 19 28 80 29 20 30 79 31 21 32 22 33 23 34 73 35
REMARK SMILES IDX 24 36 78 37 72 38 74 39 25 40 77 41 71 42 70 43 26 45 58 46
REMARK SMILES IDX 38 47 57 48 39 49 42 50 56 51 75 52 40 53 41 54 55 56 76 57
REMARK SMILES IDX 43 58 27 59 28 60 36 61 29 62 30 63 34 64 37 65 31 66 32 67
REMARK SMILES IDX 35 68 33 69 59 70 60 71 68 72 61 73 62 74 66 75 69 76 63 77
REMARK SMILES IDX 64 78 67 79 65 80 44 81 45 82 53 83 46 84 47 85 51 86 54 87
REMARK SMILES IDX 48 88 49 89 52 90 50 91
REMARK H PARENT 10 6 86 18 15 25 74 44 42 55
REMARK Flexibility Score: inf
ROOT
ATOM      1  C   UNL A   1      30.921  29.318  24.318  1.00  0.00     0.023 C 
ENDROOT
BRANCH   1   2
ATOM      2  C   UNL A   1      31.004  28.333  23.151  1.00  0.00     0.116 C 
BRANCH   2   3
ATOM      3  N   UNL A   1      32.244  28.497  22.417  1.00  0.00    -0.353 N 
ATOM      4  C   UNL A   1      33.360  27.720  22.391  1.00  0.00     0.243 C 
ATOM      5  O   UNL A   1      34.268  27.985  21.608  1.00  0.00    -0.270 OA
ATOM      6  H   UNL A   1      32.283  29.298  21.844  1.00  0.00     0.163 HD
BRANCH   4   7
ATOM      7  C   UNL A   1      33.455  26.504  23.228  1.00  0.00     0.072 C 
ATOM      8  C   UNL A   1      34.025  26.460  24.442  1.00  0.00     0.014 C 
BRANCH   8   9
ATOM      9  C   UNL A   1      34.116  25.233  25.243  1.00  0.00    -0.018 A 
ATOM     10  C   UNL A   1      33.148  23.587  26.762  1.00  0.00     0.165 A 
ATOM     11  C   UNL A   1      33.042  24.759  25.998  1.00  0.00     0.058 A 
ATOM     12  C   UNL A   1      34.359  22.878  26.765  1.00  0.00     0.200 A 
ATOM     13  C   UNL A   1      35.437  23.317  25.980  1.00  0.00     0.165 A 
ATOM     14  C   UNL A   1      35.303  24.494  25.232  1.00  0.00     0.058 A 
BRANCH  10  15
ATOM     15  O   UNL A   1      32.007  23.320  27.470  1.00  0.00    -0.493 OA
ATOM     16  C   UNL A   1      30.822  22.972  26.770  1.00  0.00     0.278 C 
ENDBRANCH  10  15
BRANCH  12  17
ATOM     17  O   UNL A   1      34.525  21.802  27.592  1.00  0.00    -0.502 OA
ATOM     18  H   UNL A   1      33.851  21.155  27.660  1.00  0.00     0.293 HD
ENDBRANCH  12  17
BRANCH  13  19
ATOM     19  O   UNL A   1      36.690  22.771  25.879  1.00  0.00    -0.493 OA
ATOM     20  C   UNL A   1      37.813  23.605  26.124  1.00  0.00     0.278 C 
ENDBRANCH  13  19
ENDBRANCH   8   9
ENDBRANCH   4   7
ENDBRANCH   2   3
ENDBRANCH   1   2
BRANCH   1  21
ATOM     21  C   UNL A   1      31.597  28.835  25.604  1.00  0.00     0.023 C 
BRANCH  21  22
ATOM     22  C   UNL A   1      32.801  29.657  26.056  1.00  0.00     0.116 C 
BRANCH  22  23
ATOM     23  N   UNL A   1      32.458  31.013  26.463  1.00  0.00    -0.352 N 
ATOM     24  C   UNL A   1      33.185  31.878  27.244  1.00  0.00     0.251 C 
ATOM     25  H   UNL A   1      31.594  31.352  26.136  1.00  0.00     0.163 HD
ATOM     26  O   UNL A   1      32.723  32.966  27.577  1.00  0.00    -0.269 OA
BRANCH  24  27
ATOM     27  C   UNL A   1      34.517  31.463  27.723  1.00  0.00     0.039 A 
ATOM     28  C   UNL A   1      35.506  32.435  27.892  1.00  0.00     0.014 A 
ATOM     29  C   UNL A   1      34.760  30.131  28.067  1.00  0.00     0.014 A 
ATOM     30  C   UNL A   1      36.715  32.087  28.497  1.00  0.00     0.010 A 
ATOM     31  C   UNL A   1      35.943  29.798  28.719  1.00  0.00     0.010 A 
ATOM     32  C   UNL A   1      36.920  30.777  28.959  1.00  0.00    -0.014 A 
BRANCH  32  33
ATOM     33  C   UNL A   1      38.127  30.413  29.740  1.00  0.00     0.031 A 
ATOM     34  C   UNL A   1      39.110  29.424  29.189  1.00  0.00     0.074 A 
ATOM     35  C   UNL A   1      38.278  30.901  30.987  1.00  0.00     0.049 A 
ATOM     36  N   UNL A   1      40.146  28.876  29.771  1.00  0.00    -0.248 NA
ATOM     37  C   UNL A   1      38.884  28.969  27.808  1.00  0.00     0.031 C 
ATOM     38  C   UNL A   1      37.368  31.840  31.644  1.00  0.00     0.029 A 
ATOM     39  N   UNL A   1      39.241  30.657  31.933  1.00  0.00    -0.354 N 
ATOM     40  C   UNL A   1      40.687  28.007  28.836  1.00  0.00     0.074 A 
ATOM     41  C   UNL A   1      39.841  28.065  27.662  1.00  0.00     0.031 C 
ATOM     42  C   UNL A   1      37.819  32.098  32.881  1.00  0.00     0.029 A 
ATOM     43  C   UNL A   1      39.025  31.312  33.120  1.00  0.00     0.049 A 
ATOM     44  H   UNL A   1      40.014  30.066  31.775  1.00  0.00     0.167 HD
ATOM     45  C   UNL A   1      41.799  27.241  28.942  1.00  0.00     0.037 A 
ATOM     46  C   UNL A   1      39.711  31.266  34.279  1.00  0.00     0.037 A 
ATOM     47  C   UNL A   1      42.651  27.206  30.102  1.00  0.00     0.049 A 
ATOM     48  C   UNL A   1      40.924  30.382  34.380  1.00  0.00     0.074 A 
ATOM     49  C   UNL A   1      43.838  26.520  30.278  1.00  0.00     0.029 A 
ATOM     50  N   UNL A   1      42.399  27.885  31.285  1.00  0.00    -0.354 N 
ATOM     51  N   UNL A   1      41.462  29.610  33.467  1.00  0.00    -0.248 NA
ATOM     52  C   UNL A   1      41.621  30.357  35.674  1.00  0.00     0.031 C 
ATOM     53  C   UNL A   1      44.287  26.751  31.583  1.00  0.00     0.029 A 
ATOM     54  C   UNL A   1      43.398  27.610  32.206  1.00  0.00     0.049 A 
ATOM     55  H   UNL A   1      41.628  28.473  31.447  1.00  0.00     0.167 HD
ATOM     56  C   UNL A   1      42.567  29.023  34.068  1.00  0.00     0.074 A 
ATOM     57  C   UNL A   1      42.632  29.539  35.419  1.00  0.00     0.031 C 
ATOM     58  C   UNL A   1      43.446  28.134  33.547  1.00  0.00     0.037 A 
BRANCH  45  59
ATOM     59  C   UNL A   1      42.165  26.384  27.768  1.00  0.00     0.064 A 
ATOM     60  C   UNL A   1      43.130  26.791  26.837  1.00  0.00     0.173 A 
ATOM     61  C   UNL A   1      41.579  25.120  27.599  1.00  0.00     0.173 A 
ATOM     62  F   UNL A   1      43.711  27.996  26.949  1.00  0.00    -0.203 F 
ATOM     63  C   UNL A   1      43.479  25.976  25.763  1.00  0.00     0.198 A 
ATOM     64  C   UNL A   1      41.949  24.297  26.539  1.00  0.00     0.198 A 
ATOM     65  F   UNL A   1      40.654  24.681  28.465  1.00  0.00    -0.203 F 
ATOM     66  F   UNL A   1      44.374  26.404  24.863  1.00  0.00    -0.200 F 
ATOM     67  C   UNL A   1      42.893  24.727  25.619  1.00  0.00     0.200 A 
ATOM     68  F   UNL A   1      41.390  23.086  26.406  1.00  0.00    -0.200 F 
ATOM     69  F   UNL A   1      43.236  23.940  24.590  1.00  0.00    -0.200 F 
ENDBRANCH  45  59
BRANCH  46  70
ATOM     70  C   UNL A   1      39.269  32.082  35.438  1.00  0.00     0.064 A 
ATOM     71  C   UNL A   1      39.683  33.414  35.577  1.00  0.00     0.173 A 
ATOM     72  C   UNL A   1      38.432  31.551  36.430  1.00  0.00     0.173 A 
ATOM     73  F   UNL A   1      40.503  33.957  34.665  1.00  0.00    -0.203 F 
ATOM     74  C   UNL A   1      39.292  34.178  36.673  1.00  0.00     0.198 A 
ATOM     75  C   UNL A   1      38.021  32.325  37.514  1.00  0.00     0.198 A 
ATOM     76  F   UNL A   1      38.005  30.283  36.341  1.00  0.00    -0.203 F 
ATOM     77  F   UNL A   1      39.738  35.436  36.803  1.00  0.00    -0.200 F 
ATOM     78  C   UNL A   1      38.457  33.635  37.638  1.00  0.00     0.200 A 
ATOM     79  F   UNL A   1      37.204  31.800  38.438  1.00  0.00    -0.200 F 
ATOM     80  F   UNL A   1      38.080  34.372  38.692  1.00  0.00    -0.200 F 
ENDBRANCH  46  70
BRANCH  58  81
ATOM     81  C   UNL A   1      44.563  27.673  34.433  1.00  0.00     0.064 A 
ATOM     82  C   UNL A   1      44.450  26.503  35.198  1.00  0.00     0.173 A 
ATOM     83  C   UNL A   1      45.777  28.374  34.474  1.00  0.00     0.173 A 
ATOM     84  F   UNL A   1      43.303  25.809  35.205  1.00  0.00    -0.203 F 
ATOM     85  C   UNL A   1      45.510  26.059  35.985  1.00  0.00     0.198 A 
ATOM     86  C   UNL A   1      46.843  27.914  35.241  1.00  0.00     0.198 A 
ATOM     87  F   UNL A   1      45.934  29.496  33.756  1.00  0.00    -0.203 F 
ATOM     88  F   UNL A   1      45.370  24.958  36.735  1.00  0.00    -0.200 F 
ATOM     89  C   UNL A   1      46.708  26.760  35.998  1.00  0.00     0.200 A 
ATOM     90  F   UNL A   1      48.002  28.586  35.247  1.00  0.00    -0.200 F 
ATOM     91  F   UNL A   1      47.731  26.325  36.746  1.00  0.00    -0.200 F 
ENDBRANCH  58  81
ENDBRANCH  32  33
ENDBRANCH  24  27
ENDBRANCH  22  23
ENDBRANCH  21  22
ENDBRANCH   1  21
TORSDOF 15
ENDMDL
MODEL 2
REMARK VINA RESULT:     -11.9      0.101      1.825
REMARK SMILES COc1cc(/C=C/C(=O)NCCCCNC(=O)c2ccc(-c3c4nc(c(-c5c(F)c(F)c(F)c(F)c5F)c5ccc([nH]5)c(-c5c(F)c(F)c(F)c(F)c5F)c5nc(c(-c6c(F)c(F)c(F)c(F)c6F)c6ccc3[nH]6)C=C5)C=C4)cc2)cc(OC)c1O
REMARK SMILES IDX 12 1 11 2 10 3 8 4 9 5 7 7 6 8 5 9 3 10 4 11 85 12 82 13
REMARK SMILES IDX 81 14 2 15 1 16 86 17 83 19 84 20 13 21 14 22 15 23 16 24
REMARK SMILES IDX 17 26 18 27 19 28 80 29 20 30 79 31 21 32 22 33 23 34 73 35
REMARK SMILES IDX 24 36 78 37 72 38 74 39 25 40 77 41 71 42 70 43 26 45 58 46
REMARK SMILES IDX 38 47 57 48 39 49 42 50 56 51 75 52 40 53 41 54 55 56 76 57
REMARK SMILES IDX 43 58 27 59 28 60 36 61 29 62 30 63 34 64 37 65 31 66 32 67
REMARK SMILES IDX 35 68 33 69 59 70 60 71 68 72 61 73 62 74 66 75 69 76 63 77
REMARK SMILES IDX 64 78 67 79 65 80 44 81 45 82 53 83 46 84 47 85 51 86 54 87
REMARK SMILES IDX 48 88 49 89 52 90 50 91
REMARK H PARENT 10 6 86 18 15 25 74 44 42 55
REMARK Flexibility Score: inf
ROOT
ATOM      1  C   UNL A   1      30.897  29.301  24.299  1.00  0.00     0.023 C 
ENDROOT
BRANCH   1   2
ATOM      2  C   UNL A   1      31.010  28.306  23.144  1.00  0.00     0.116 C 
BRANCH   2   3
ATOM      3  N   UNL A   1      32.246  28.498  22.408  1.00  0.00    -0.353 N 
ATOM      4  C   UNL A   1      33.379  27.747  22.382  1.00  0.00     0.243 C 
ATOM      5  O   UNL A   1      34.280  28.033  21.598  1.00  0.00    -0.270 OA
ATOM      6  H   UNL A   1      32.266  29.299  21.836  1.00  0.00     0.163 HD
BRANCH   4   7
ATOM      7  C   UNL A   1      33.503  26.533  23.219  1.00  0.00     0.072 C 
ATOM      8  C   UNL A   1      34.060  26.507  24.439  1.00  0.00     0.014 C 
BRANCH   8   9
ATOM      9  C   UNL A   1      34.181  25.283  25.241  1.00  0.00    -0.018 A 
ATOM     10  C   UNL A   1      35.463  23.379  26.068  1.00  0.00     0.165 A 
ATOM     11  C   UNL A   1      35.367  24.548  25.300  1.00  0.00     0.058 A 
ATOM     12  C   UNL A   1      34.345  22.940  26.793  1.00  0.00     0.200 A 
ATOM     13  C   UNL A   1      33.156  23.687  26.779  1.00  0.00     0.165 A 
ATOM     14  C   UNL A   1      33.088  24.849  25.998  1.00  0.00     0.058 A 
BRANCH  10  15
ATOM     15  O   UNL A   1      36.687  22.776  25.951  1.00  0.00    -0.493 OA
ATOM     16  C   UNL A   1      37.862  23.564  26.075  1.00  0.00     0.278 C 
ENDBRANCH  10  15
BRANCH  12  17
ATOM     17  O   UNL A   1      34.377  21.743  27.451  1.00  0.00    -0.502 OA
ATOM     18  H   UNL A   1      34.884  21.651  28.234  1.00  0.00     0.293 HD
ENDBRANCH  12  17
BRANCH  13  19
ATOM     19  O   UNL A   1      31.968  23.403  27.400  1.00  0.00    -0.493 OA
ATOM     20  C   UNL A   1      30.764  23.568  26.664  1.00  0.00     0.278 C 
ENDBRANCH  13  19
ENDBRANCH   8   9
ENDBRANCH   4   7
ENDBRANCH   2   3
ENDBRANCH   1   2
BRANCH   1  21
ATOM     21  C   UNL A   1      31.610  28.866  25.583  1.00  0.00     0.023 C 
BRANCH  21  22
ATOM     22  C   UNL A   1      32.822  29.707  25.973  1.00  0.00     0.116 C 
BRANCH  22  23
ATOM     23  N   UNL A   1      32.477  31.044  26.433  1.00  0.00    -0.352 N 
ATOM     24  C   UNL A   1      33.196  31.875  27.257  1.00  0.00     0.251 C 
ATOM     25  H   UNL A   1      31.617  31.399  26.112  1.00  0.00     0.163 HD
ATOM     26  O   UNL A   1      32.732  32.948  27.632  1.00  0.00    -0.269 OA
BRANCH  24  27
ATOM     27  C   UNL A   1      34.523  31.437  27.733  1.00  0.00     0.039 A 
ATOM     28  C   UNL A   1      35.549  32.380  27.830  1.00  0.00     0.014 A 
ATOM     29  C   UNL A   1      34.725  30.117  28.144  1.00  0.00     0.014 A 
ATOM     30  C   UNL A   1      36.757  32.020  28.429  1.00  0.00     0.010 A 
ATOM     31  C   UNL A   1      35.909  29.776  28.791  1.00  0.00     0.010 A 
ATOM     32  C   UNL A   1      36.925  30.730  28.958  1.00  0.00    -0.014 A 
BRANCH  32  33
ATOM     33  C   UNL A   1      38.135  30.365  29.734  1.00  0.00     0.031 A 
ATOM     34  C   UNL A   1      39.110  29.367  29.184  1.00  0.00     0.074 A 
ATOM     35  C   UNL A   1      38.295  30.858  30.977  1.00  0.00     0.049 A 
ATOM     36  N   UNL A   1      40.146  28.818  29.763  1.00  0.00    -0.248 NA
ATOM     37  C   UNL A   1      38.874  28.906  27.807  1.00  0.00     0.031 C 
ATOM     38  C   UNL A   1      37.394  31.806  31.635  1.00  0.00     0.029 A 
ATOM     39  N   UNL A   1      39.263  30.615  31.920  1.00  0.00    -0.354 N 
ATOM     40  C   UNL A   1      40.677  27.940  28.830  1.00  0.00     0.074 A 
ATOM     41  C   UNL A   1      39.825  27.996  27.661  1.00  0.00     0.031 C 
ATOM     42  C   UNL A   1      37.853  32.069  32.868  1.00  0.00     0.029 A 
ATOM     43  C   UNL A   1      39.057  31.278  33.104  1.00  0.00     0.049 A 
ATOM     44  H   UNL A   1      40.031  30.019  31.761  1.00  0.00     0.167 HD
ATOM     45  C   UNL A   1      41.786  27.169  28.935  1.00  0.00     0.037 A 
ATOM     46  C   UNL A   1      39.749  31.235  34.259  1.00  0.00     0.037 A 
ATOM     47  C   UNL A   1      42.644  27.136  30.090  1.00  0.00     0.049 A 
ATOM     48  C   UNL A   1      40.958  30.346  34.359  1.00  0.00     0.074 A 
ATOM     49  C   UNL A   1      43.829  26.445  30.263  1.00  0.00     0.029 A 
ATOM     50  N   UNL A   1      42.403  27.823  31.270  1.00  0.00    -0.354 N 
ATOM     51  N   UNL A   1      41.486  29.565  33.448  1.00  0.00    -0.248 NA
ATOM     52  C   UNL A   1      41.662  30.325  35.649  1.00  0.00     0.031 C 
ATOM     53  C   UNL A   1      44.286  26.681  31.564  1.00  0.00     0.029 A 
ATOM     54  C   UNL A   1      43.405  27.549  32.187  1.00  0.00     0.049 A 
ATOM     55  H   UNL A   1      41.635  28.416  31.433  1.00  0.00     0.167 HD
ATOM     56  C   UNL A   1      42.591  28.976  34.045  1.00  0.00     0.074 A 
ATOM     57  C   UNL A   1      42.667  29.500  35.393  1.00  0.00     0.031 C 
ATOM     58  C   UNL A   1      43.463  28.080  33.525  1.00  0.00     0.037 A 
BRANCH  45  59
ATOM     59  C   UNL A   1      42.141  26.303  27.764  1.00  0.00     0.064 A 
ATOM     60  C   UNL A   1      43.118  26.691  26.836  1.00  0.00     0.173 A 
ATOM     61  C   UNL A   1      41.532  25.051  27.594  1.00  0.00     0.173 A 
ATOM     62  F   UNL A   1      43.721  27.885  26.949  1.00  0.00    -0.203 F 
ATOM     63  C   UNL A   1      43.456  25.867  25.765  1.00  0.00     0.198 A 
ATOM     64  C   UNL A   1      41.891  24.219  26.536  1.00  0.00     0.198 A 
ATOM     65  F   UNL A   1      40.595  24.630  28.457  1.00  0.00    -0.203 F 
ATOM     66  F   UNL A   1      44.363  26.277  24.868  1.00  0.00    -0.200 F 
ATOM     67  C   UNL A   1      42.848  24.629  25.620  1.00  0.00     0.200 A 
ATOM     68  F   UNL A   1      41.310  23.018  26.403  1.00  0.00    -0.200 F 
ATOM     69  F   UNL A   1      43.180  23.834  24.594  1.00  0.00    -0.200 F 
ENDBRANCH  45  59
BRANCH  46  70
ATOM     70  C   UNL A   1      39.317  32.060  35.416  1.00  0.00     0.064 A 
ATOM     71  C   UNL A   1      38.500  31.518  36.418  1.00  0.00     0.173 A 
ATOM     72  C   UNL A   1      39.704  33.402  35.544  1.00  0.00     0.173 A 
ATOM     73  F   UNL A   1      38.086  30.246  36.326  1.00  0.00    -0.203 F 
ATOM     74  C   UNL A   1      38.071  32.292  37.493  1.00  0.00     0.198 A 
ATOM     75  C   UNL A   1      39.295  34.168  36.633  1.00  0.00     0.198 A 
ATOM     76  F   UNL A   1      40.489  33.966  34.613  1.00  0.00    -0.203 F 
ATOM     77  F   UNL A   1      37.255  31.761  38.415  1.00  0.00    -0.200 F 
ATOM     78  C   UNL A   1      38.473  33.615  37.603  1.00  0.00     0.200 A 
ATOM     79  F   UNL A   1      39.695  35.443  36.741  1.00  0.00    -0.200 F 
ATOM     80  F   UNL A   1      38.062  34.358  38.639  1.00  0.00    -0.200 F 
ENDBRANCH  46  70
BRANCH  58  81
ATOM     81  C   UNL A   1      44.583  27.618  34.408  1.00  0.00     0.064 A 
ATOM     82  C   UNL A   1      44.465  26.459  35.188  1.00  0.00     0.173 A 
ATOM     83  C   UNL A   1      45.804  28.307  34.430  1.00  0.00     0.173 A 
ATOM     84  F   UNL A   1      43.310  25.777  35.213  1.00  0.00    -0.203 F 
ATOM     85  C   UNL A   1      45.526  26.014  35.971  1.00  0.00     0.198 A 
ATOM     86  C   UNL A   1      46.872  27.846  35.194  1.00  0.00     0.198 A 
ATOM     87  F   UNL A   1      45.967  29.419  33.696  1.00  0.00    -0.203 F 
ATOM     88  F   UNL A   1      45.381  24.923  36.736  1.00  0.00    -0.200 F 
ATOM     89  C   UNL A   1      46.731  26.702  35.966  1.00  0.00     0.200 A 
ATOM     90  F   UNL A   1      48.038  28.506  35.181  1.00  0.00    -0.200 F 
ATOM     91  F   UNL A   1      47.756  26.265  36.711  1.00  0.00    -0.200 F 
ENDBRANCH  58  81
ENDBRANCH  32  33
ENDBRANCH  24  27
ENDBRANCH  22  23
ENDBRANCH  21  22
ENDBRANCH   1  21
TORSDOF 15
ENDMDL
MODEL 3
REMARK VINA RESULT:     -11.8      1.780      3.439
REMARK SMILES COc1cc(/C=C/C(=O)NCCCCNC(=O)c2ccc(-c3c4nc(c(-c5c(F)c(F)c(F)c(F)c5F)c5ccc([nH]5)c(-c5c(F)c(F)c(F)c(F)c5F)c5nc(c(-c6c(F)c(F)c(F)c(F)c6F)c6ccc3[nH]6)C=C5)C=C4)cc2)cc(OC)c1O
REMARK SMILES IDX 12 1 11 2 10 3 8 4 9 5 7 7 6 8 5 9 3 10 4 11 85 12 82 13
REMARK SMILES IDX 81 14 2 15 1 16 86 17 83 19 84 20 13 21 14 22 15 23 16 24
REMARK SMILES IDX 17 26 18 27 19 28 80 29 20 30 79 31 21 32 22 33 23 34 73 35
REMARK SMILES IDX 24 36 78 37 72 38 74 39 25 40 77 41 71 42 70 43 26 45 58 46
REMARK SMILES IDX 38 47 57 48 39 49 42 50 56 51 75 52 40 53 41 54 55 56 76 57
REMARK SMILES IDX 43 58 27 59 28 60 36 61 29 62 30 63 34 64 37 65 31 66 32 67
REMARK SMILES IDX 35 68 33 69 59 70 60 71 68 72 61 73 62 74 66 75 69 76 63 77
REMARK SMILES IDX 64 78 67 79 65 80 44 81 45 82 53 83 46 84 47 85 51 86 54 87
REMARK SMILES IDX 48 88 49 89 52 90 50 91
REMARK H PARENT 10 6 86 18 15 25 74 44 42 55
REMARK Flexibility Score: inf
ROOT
ATOM      1  C   UNL A   1      32.062  30.051  26.911  1.00  0.00     0.023 C 
ENDROOT
BRANCH   1   2
ATOM      2  C   UNL A   1      33.481  29.566  26.610  1.00  0.00     0.116 C 
BRANCH   2   3
ATOM      3  N   UNL A   1      33.676  29.379  25.185  1.00  0.00    -0.353 N 
ATOM      4  C   UNL A   1      33.684  28.239  24.441  1.00  0.00     0.243 C 
ATOM      5  O   UNL A   1      33.761  28.313  23.217  1.00  0.00    -0.270 OA
ATOM      6  H   UNL A   1      33.825  30.208  24.674  1.00  0.00     0.163 HD
BRANCH   4   7
ATOM      7  C   UNL A   1      33.507  26.917  25.079  1.00  0.00     0.072 C 
ATOM      8  C   UNL A   1      34.386  25.907  24.989  1.00  0.00     0.014 C 
BRANCH   8   9
ATOM      9  C   UNL A   1      34.176  24.600  25.624  1.00  0.00    -0.018 A 
ATOM     10  C   UNL A   1      34.938  22.361  26.226  1.00  0.00     0.165 A 
ATOM     11  C   UNL A   1      35.157  23.606  25.619  1.00  0.00     0.058 A 
ATOM     12  C   UNL A   1      33.707  22.111  26.853  1.00  0.00     0.200 A 
ATOM     13  C   UNL A   1      32.724  23.112  26.904  1.00  0.00     0.165 A 
ATOM     14  C   UNL A   1      32.970  24.345  26.283  1.00  0.00     0.058 A 
BRANCH  10  15
ATOM     15  O   UNL A   1      35.996  21.508  26.066  1.00  0.00    -0.493 OA
ATOM     16  C   UNL A   1      36.688  21.487  24.825  1.00  0.00     0.278 C 
ENDBRANCH  10  15
BRANCH  12  17
ATOM     17  O   UNL A   1      33.426  20.868  27.346  1.00  0.00    -0.502 OA
ATOM     18  H   UNL A   1      32.787  20.329  26.922  1.00  0.00     0.293 HD
ENDBRANCH  12  17
BRANCH  13  19
ATOM     19  O   UNL A   1      31.467  23.039  27.447  1.00  0.00    -0.493 OA
ATOM     20  C   UNL A   1      30.379  22.717  26.592  1.00  0.00     0.278 C 
ENDBRANCH  13  19
ENDBRANCH   8   9
ENDBRANCH   4   7
ENDBRANCH   2   3
ENDBRANCH   1   2
BRANCH   1  21
ATOM     21  C   UNL A   1      31.859  31.560  26.747  1.00  0.00     0.023 C 
BRANCH  21  22
ATOM     22  C   UNL A   1      32.921  32.436  27.406  1.00  0.00     0.116 C 
BRANCH  22  23
ATOM     23  N   UNL A   1      32.493  33.813  27.608  1.00  0.00    -0.352 N 
ATOM     24  C   UNL A   1      33.018  34.752  28.462  1.00  0.00     0.251 C 
ATOM     25  H   UNL A   1      31.729  34.109  27.062  1.00  0.00     0.163 HD
ATOM     26  O   UNL A   1      32.491  35.854  28.587  1.00  0.00    -0.269 OA
BRANCH  24  27
ATOM     27  C   UNL A   1      34.202  34.402  29.270  1.00  0.00     0.039 A 
ATOM     28  C   UNL A   1      34.014  33.775  30.504  1.00  0.00     0.014 A 
ATOM     29  C   UNL A   1      35.488  34.631  28.775  1.00  0.00     0.014 A 
ATOM     30  C   UNL A   1      35.120  33.291  31.204  1.00  0.00     0.010 A 
ATOM     31  C   UNL A   1      36.584  34.100  29.447  1.00  0.00     0.010 A 
ATOM     32  C   UNL A   1      36.407  33.407  30.655  1.00  0.00    -0.014 A 
BRANCH  32  33
ATOM     33  C   UNL A   1      37.582  32.770  31.298  1.00  0.00     0.031 A 
ATOM     34  C   UNL A   1      38.261  31.605  30.640  1.00  0.00     0.074 A 
ATOM     35  C   UNL A   1      37.968  33.180  32.521  1.00  0.00     0.049 A 
ATOM     36  N   UNL A   1      39.209  30.832  31.103  1.00  0.00    -0.248 NA
ATOM     37  C   UNL A   1      37.795  31.248  29.291  1.00  0.00     0.031 C 
ATOM     38  C   UNL A   1      37.360  34.277  33.277  1.00  0.00     0.029 A 
ATOM     39  N   UNL A   1      38.950  32.708  33.355  1.00  0.00    -0.354 N 
ATOM     40  C   UNL A   1      39.443  29.890  30.112  1.00  0.00     0.074 A 
ATOM     41  C   UNL A   1      38.510  30.161  29.038  1.00  0.00     0.031 C 
ATOM     42  C   UNL A   1      37.987  34.398  34.458  1.00  0.00     0.029 A 
ATOM     43  C   UNL A   1      39.011  33.363  34.561  1.00  0.00     0.049 A 
ATOM     44  H   UNL A   1      39.554  31.968  33.112  1.00  0.00     0.167 HD
ATOM     45  C   UNL A   1      40.366  28.899  30.094  1.00  0.00     0.037 A 
ATOM     46  C   UNL A   1      39.790  33.139  35.637  1.00  0.00     0.037 A 
ATOM     47  C   UNL A   1      41.309  28.650  31.152  1.00  0.00     0.049 A 
ATOM     48  C   UNL A   1      40.784  32.011  35.602  1.00  0.00     0.074 A 
ATOM     49  C   UNL A   1      42.330  27.718  31.195  1.00  0.00     0.029 A 
ATOM     50  N   UNL A   1      41.340  29.336  32.357  1.00  0.00    -0.354 N 
ATOM     51  N   UNL A   1      41.039  31.165  34.634  1.00  0.00    -0.248 NA
ATOM     52  C   UNL A   1      41.593  31.802  36.811  1.00  0.00     0.031 C 
ATOM     53  C   UNL A   1      42.955  27.812  32.443  1.00  0.00     0.029 A 
ATOM     54  C   UNL A   1      42.346  28.827  33.163  1.00  0.00     0.049 A 
ATOM     55  H   UNL A   1      40.737  30.073  32.604  1.00  0.00     0.167 HD
ATOM     56  C   UNL A   1      42.047  30.337  35.108  1.00  0.00     0.074 A 
ATOM     57  C   UNL A   1      42.368  30.791  36.444  1.00  0.00     0.031 C 
ATOM     58  C   UNL A   1      42.651  29.292  34.491  1.00  0.00     0.037 A 
BRANCH  45  59
ATOM     59  C   UNL A   1      40.409  28.014  28.884  1.00  0.00     0.064 A 
ATOM     60  C   UNL A   1      39.687  26.814  28.829  1.00  0.00     0.173 A 
ATOM     61  C   UNL A   1      41.143  28.394  27.750  1.00  0.00     0.173 A 
ATOM     62  F   UNL A   1      38.978  26.403  29.892  1.00  0.00    -0.203 F 
ATOM     63  C   UNL A   1      39.716  26.012  27.691  1.00  0.00     0.198 A 
ATOM     64  C   UNL A   1      41.150  27.601  26.605  1.00  0.00     0.198 A 
ATOM     65  F   UNL A   1      41.848  29.535  27.750  1.00  0.00    -0.203 F 
ATOM     66  F   UNL A   1      39.050  24.849  27.677  1.00  0.00    -0.200 F 
ATOM     67  C   UNL A   1      40.441  26.410  26.578  1.00  0.00     0.200 A 
ATOM     68  F   UNL A   1      41.843  27.991  25.526  1.00  0.00    -0.200 F 
ATOM     69  F   UNL A   1      40.462  25.640  25.481  1.00  0.00    -0.200 F 
ENDBRANCH  45  59
BRANCH  46  70
ATOM     70  C   UNL A   1      39.663  34.001  36.840  1.00  0.00     0.064 A 
ATOM     71  C   UNL A   1      38.843  33.620  37.911  1.00  0.00     0.173 A 
ATOM     72  C   UNL A   1      40.348  35.220  36.943  1.00  0.00     0.173 A 
ATOM     73  F   UNL A   1      38.150  32.473  37.847  1.00  0.00    -0.203 F 
ATOM     74  C   UNL A   1      38.700  34.434  39.032  1.00  0.00     0.198 A 
ATOM     75  C   UNL A   1      40.223  36.021  38.076  1.00  0.00     0.198 A 
ATOM     76  F   UNL A   1      41.147  35.627  35.946  1.00  0.00    -0.203 F 
ATOM     77  F   UNL A   1      37.876  34.065  40.023  1.00  0.00    -0.200 F 
ATOM     78  C   UNL A   1      39.394  35.631  39.115  1.00  0.00     0.200 A 
ATOM     79  F   UNL A   1      40.905  37.172  38.158  1.00  0.00    -0.200 F 
ATOM     80  F   UNL A   1      39.257  36.413  40.195  1.00  0.00    -0.200 F 
ENDBRANCH  46  70
BRANCH  58  81
ATOM     81  C   UNL A   1      43.728  28.577  35.248  1.00  0.00     0.064 A 
ATOM     82  C   UNL A   1      45.073  28.957  35.136  1.00  0.00     0.173 A 
ATOM     83  C   UNL A   1      43.407  27.540  36.136  1.00  0.00     0.173 A 
ATOM     84  F   UNL A   1      45.430  29.932  34.286  1.00  0.00    -0.203 F 
ATOM     85  C   UNL A   1      46.061  28.315  35.876  1.00  0.00     0.198 A 
ATOM     86  C   UNL A   1      44.394  26.916  36.893  1.00  0.00     0.198 A 
ATOM     87  F   UNL A   1      42.134  27.143  36.280  1.00  0.00    -0.203 F 
ATOM     88  F   UNL A   1      47.345  28.671  35.729  1.00  0.00    -0.200 F 
ATOM     89  C   UNL A   1      45.720  27.301  36.761  1.00  0.00     0.200 A 
ATOM     90  F   UNL A   1      44.063  25.944  37.754  1.00  0.00    -0.200 F 
ATOM     91  F   UNL A   1      46.671  26.692  37.481  1.00  0.00    -0.200 F 
ENDBRANCH  58  81
ENDBRANCH  32  33
ENDBRANCH  24  27
ENDBRANCH  22  23
ENDBRANCH  21  22
ENDBRANCH   1  21
TORSDOF 15
ENDMDL
