MODEL 1
REMARK VINA RESULT:     -12.6      0.000      0.000
REMARK SMILES O=C1NC(=S)/C(=C/c2ccc(-c3ccc(C(=O)NCCCCNC(=O)c4ccc(-c5c6nc(c(-c7c(F)c(F)c(F)c(F)c7F)c7ccc([nH]7)c(-c7c(F)c(F)c(F)c(F)c7F)c7nc(c(-c8c(F)c(F)c(F)c(F)c8F)c8ccc5[nH]8)C=C7)C=C6)cc4)cc3)o2)S1
REMARK SMILES IDX 20 1 19 2 18 3 16 4 17 5 15 7 12 8 13 9 90 10 14 11 89 12
REMARK SMILES IDX 11 13 8 14 9 15 91 16 10 17 7 18 1 19 2 20 3 21 92 22 4 23
REMARK SMILES IDX 6 25 5 26 21 27 22 28 23 29 24 30 25 32 26 33 27 34 88 35
REMARK SMILES IDX 28 36 87 37 29 38 30 39 31 40 81 41 32 42 86 43 80 44 82 45
REMARK SMILES IDX 33 46 85 47 79 48 78 49 34 51 66 52 46 53 65 54 47 55 50 56
REMARK SMILES IDX 64 57 83 58 48 59 49 60 63 62 84 63 51 64 35 65 36 66 44 67
REMARK SMILES IDX 37 68 38 69 42 70 45 71 39 72 40 73 43 74 41 75 67 76 68 77
REMARK SMILES IDX 76 78 69 79 70 80 74 81 77 82 71 83 72 84 75 85 73 86 52 87
REMARK SMILES IDX 53 88 61 89 54 90 55 91 59 92 62 93 56 94 57 95 60 96 58 97
REMARK H PARENT 18 6 3 24 23 31 82 50 50 61
REMARK Flexibility Score: inf
ROOT
ATOM      1  C   UNL A   1      33.153  29.388  24.636  1.00  0.00     0.023 C 
ENDROOT
BRANCH   1   2
ATOM      2  C   UNL A   1      33.308  29.265  23.118  1.00  0.00     0.116 C 
BRANCH   2   3
ATOM      3  N   UNL A   1      32.031  29.470  22.463  1.00  0.00    -0.352 N 
ATOM      4  C   UNL A   1      30.934  28.658  22.321  1.00  0.00     0.251 C 
ATOM      5  O   UNL A   1      29.964  29.110  21.712  1.00  0.00    -0.269 OA
ATOM      6  H   UNL A   1      31.934  30.354  22.040  1.00  0.00     0.163 HD
BRANCH   4   7
ATOM      7  C   UNL A   1      30.846  27.298  22.926  1.00  0.00     0.039 A 
ATOM      8  C   UNL A   1      30.805  24.843  24.298  1.00  0.00     0.017 A 
ATOM      9  C   UNL A   1      30.172  25.959  24.848  1.00  0.00     0.013 A 
ATOM     10  C   UNL A   1      31.378  24.936  23.029  1.00  0.00     0.013 A 
ATOM     11  C   UNL A   1      30.203  27.184  24.169  1.00  0.00     0.014 A 
ATOM     12  C   UNL A   1      31.361  26.144  22.335  1.00  0.00     0.014 A 
BRANCH   8  13
ATOM     13  C   UNL A   1      30.926  23.599  25.022  1.00  0.00     0.134 A 
ATOM     14  C   UNL A   1      31.726  21.558  25.299  1.00  0.00     0.128 A 
ATOM     15  C   UNL A   1      31.015  21.895  26.445  1.00  0.00     0.051 A 
ATOM     16  O   UNL A   1      31.674  22.629  24.438  1.00  0.00    -0.457 OA
ATOM     17  C   UNL A   1      30.492  23.193  26.261  1.00  0.00     0.051 A 
BRANCH  14  18
ATOM     18  C   UNL A   1      32.426  20.364  24.989  1.00  0.00     0.065 C 
ATOM     19  O   UNL A   1      37.423  20.922  25.346  1.00  0.00    -0.261 OA
ATOM     20  C   UNL A   1      36.275  20.557  25.172  1.00  0.00     0.289 C 
ATOM     21  N   UNL A   1      35.878  19.310  24.800  1.00  0.00    -0.307 N 
ATOM     22  S   UNL A   1      34.873  21.577  25.356  1.00  0.00    -0.025 SA
ATOM     23  C   UNL A   1      34.538  19.059  24.654  1.00  0.00     0.120 C 
ATOM     24  H   UNL A   1      36.541  18.601  24.639  1.00  0.00     0.171 HD
ATOM     25  C   UNL A   1      33.765  20.296  24.972  1.00  0.00     0.056 C 
ATOM     26  S   UNL A   1      34.010  17.553  24.173  1.00  0.00    -0.059 S 
ENDBRANCH  14  18
ENDBRANCH   8  13
ENDBRANCH   4   7
ENDBRANCH   2   3
ENDBRANCH   1   2
BRANCH   1  27
ATOM     27  C   UNL A   1      33.648  28.163  25.406  1.00  0.00     0.023 C 
BRANCH  27  28
ATOM     28  C   UNL A   1      33.711  28.351  26.916  1.00  0.00     0.116 C 
BRANCH  28  29
ATOM     29  N   UNL A   1      33.559  29.740  27.326  1.00  0.00    -0.352 N 
ATOM     30  C   UNL A   1      34.465  30.536  27.982  1.00  0.00     0.251 C 
ATOM     31  H   UNL A   1      32.698  30.161  27.104  1.00  0.00     0.163 HD
ATOM     32  O   UNL A   1      34.148  31.653  28.376  1.00  0.00    -0.269 OA
BRANCH  30  33
ATOM     33  C   UNL A   1      35.818  30.009  28.244  1.00  0.00     0.039 A 
ATOM     34  C   UNL A   1      36.798  30.148  27.261  1.00  0.00     0.014 A 
ATOM     35  C   UNL A   1      36.125  29.432  29.479  1.00  0.00     0.014 A 
ATOM     36  C   UNL A   1      38.109  29.765  27.543  1.00  0.00     0.010 A 
ATOM     37  C   UNL A   1      37.447  29.131  29.787  1.00  0.00     0.010 A 
ATOM     38  C   UNL A   1      38.451  29.291  28.820  1.00  0.00    -0.014 A 
BRANCH  38  39
ATOM     39  C   UNL A   1      39.857  28.962  29.164  1.00  0.00     0.031 A 
ATOM     40  C   UNL A   1      40.698  29.948  29.922  1.00  0.00     0.074 A 
ATOM     41  C   UNL A   1      40.392  27.802  28.737  1.00  0.00     0.049 A 
ATOM     42  N   UNL A   1      41.958  29.868  30.269  1.00  0.00    -0.248 NA
ATOM     43  C   UNL A   1      40.046  31.207  30.318  1.00  0.00     0.031 C 
ATOM     44  C   UNL A   1      39.693  26.791  27.942  1.00  0.00     0.029 A 
ATOM     45  N   UNL A   1      41.653  27.284  28.897  1.00  0.00    -0.354 N 
ATOM     46  C   UNL A   1      42.250  31.066  30.908  1.00  0.00     0.074 A 
ATOM     47  C   UNL A   1      41.056  31.881  30.846  1.00  0.00     0.031 C 
ATOM     48  C   UNL A   1      40.526  25.767  27.703  1.00  0.00     0.029 A 
ATOM     49  C   UNL A   1      41.829  26.066  28.288  1.00  0.00     0.049 A 
ATOM     50  H   UNL A   1      42.363  27.743  29.402  1.00  0.00     0.167 HD
ATOM     51  C   UNL A   1      43.401  31.442  31.513  1.00  0.00     0.037 A 
ATOM     52  C   UNL A   1      42.922  25.286  28.200  1.00  0.00     0.037 A 
ATOM     53  C   UNL A   1      44.581  30.619  31.582  1.00  0.00     0.049 A 
ATOM     54  C   UNL A   1      44.195  25.728  28.872  1.00  0.00     0.074 A 
ATOM     55  C   UNL A   1      45.775  30.877  32.230  1.00  0.00     0.029 A 
ATOM     56  N   UNL A   1      44.717  29.381  30.969  1.00  0.00    -0.354 N 
ATOM     57  N   UNL A   1      44.434  26.824  29.551  1.00  0.00    -0.248 NA
ATOM     58  C   UNL A   1      45.346  24.821  28.775  1.00  0.00     0.031 C 
ATOM     59  C   UNL A   1      46.658  29.828  31.952  1.00  0.00     0.029 A 
ATOM     60  C   UNL A   1      45.990  28.880  31.194  1.00  0.00     0.049 A 
ATOM     61  H   UNL A   1      44.014  28.926  30.451  1.00  0.00     0.167 HD
ATOM     62  C   UNL A   1      45.750  26.728  29.983  1.00  0.00     0.074 A 
ATOM     63  C   UNL A   1      46.252  25.456  29.504  1.00  0.00     0.031 C 
ATOM     64  C   UNL A   1      46.477  27.611  30.710  1.00  0.00     0.037 A 
BRANCH  51  65
ATOM     65  C   UNL A   1      43.444  32.809  32.137  1.00  0.00     0.064 A 
ATOM     66  C   UNL A   1      43.080  33.026  33.475  1.00  0.00     0.173 A 
ATOM     67  C   UNL A   1      43.874  33.917  31.390  1.00  0.00     0.173 A 
ATOM     68  F   UNL A   1      42.652  32.004  34.233  1.00  0.00    -0.203 F 
ATOM     69  C   UNL A   1      43.106  34.303  34.029  1.00  0.00     0.198 A 
ATOM     70  C   UNL A   1      43.935  35.186  31.959  1.00  0.00     0.198 A 
ATOM     71  F   UNL A   1      44.240  33.769  30.108  1.00  0.00    -0.203 F 
ATOM     72  F   UNL A   1      42.692  34.494  35.290  1.00  0.00    -0.200 F 
ATOM     73  C   UNL A   1      43.540  35.381  33.273  1.00  0.00     0.200 A 
ATOM     74  F   UNL A   1      44.370  36.224  31.231  1.00  0.00    -0.200 F 
ATOM     75  F   UNL A   1      43.569  36.609  33.809  1.00  0.00    -0.200 F 
ENDBRANCH  51  65
BRANCH  52  76
ATOM     76  C   UNL A   1      42.856  24.001  27.453  1.00  0.00     0.064 A 
ATOM     77  C   UNL A   1      43.197  23.934  26.095  1.00  0.00     0.173 A 
ATOM     78  C   UNL A   1      42.455  22.814  28.083  1.00  0.00     0.173 A 
ATOM     79  F   UNL A   1      43.569  25.044  25.442  1.00  0.00    -0.203 F 
ATOM     80  C   UNL A   1      43.118  22.733  25.391  1.00  0.00     0.198 A 
ATOM     81  C   UNL A   1      42.409  21.607  27.387  1.00  0.00     0.198 A 
ATOM     82  F   UNL A   1      42.125  22.821  29.383  1.00  0.00    -0.203 F 
ATOM     83  F   UNL A   1      43.404  22.707  24.082  1.00  0.00    -0.200 F 
ATOM     84  C   UNL A   1      42.732  21.570  26.039  1.00  0.00     0.200 A 
ATOM     85  F   UNL A   1      42.054  20.483  28.023  1.00  0.00    -0.200 F 
ATOM     86  F   UNL A   1      42.665  20.415  25.364  1.00  0.00    -0.200 F 
ENDBRANCH  52  76
BRANCH  64  87
ATOM     87  C   UNL A   1      47.884  27.221  31.066  1.00  0.00     0.064 A 
ATOM     88  C   UNL A   1      48.170  26.424  32.184  1.00  0.00     0.173 A 
ATOM     89  C   UNL A   1      48.956  27.617  30.252  1.00  0.00     0.173 A 
ATOM     90  F   UNL A   1      47.185  26.029  33.004  1.00  0.00    -0.203 F 
ATOM     91  C   UNL A   1      49.481  26.063  32.489  1.00  0.00     0.198 A 
ATOM     92  C   UNL A   1      50.260  27.224  30.539  1.00  0.00     0.198 A 
ATOM     93  F   UNL A   1      48.738  28.373  29.166  1.00  0.00    -0.203 F 
ATOM     94  F   UNL A   1      49.737  25.346  33.593  1.00  0.00    -0.200 F 
ATOM     95  C   UNL A   1      50.523  26.455  31.662  1.00  0.00     0.200 A 
ATOM     96  F   UNL A   1      51.262  27.588  29.728  1.00  0.00    -0.200 F 
ATOM     97  F   UNL A   1      51.782  26.098  31.951  1.00  0.00    -0.200 F 
ENDBRANCH  64  87
ENDBRANCH  38  39
ENDBRANCH  30  33
ENDBRANCH  28  29
ENDBRANCH  27  28
ENDBRANCH   1  27
TORSDOF 13
ENDMDL
MODEL 2
REMARK VINA RESULT:     -12.5      0.092      1.569
REMARK SMILES O=C1NC(=S)/C(=C/c2ccc(-c3ccc(C(=O)NCCCCNC(=O)c4ccc(-c5c6nc(c(-c7c(F)c(F)c(F)c(F)c7F)c7ccc([nH]7)c(-c7c(F)c(F)c(F)c(F)c7F)c7nc(c(-c8c(F)c(F)c(F)c(F)c8F)c8ccc5[nH]8)C=C7)C=C6)cc4)cc3)o2)S1
REMARK SMILES IDX 20 1 19 2 18 3 16 4 17 5 15 7 12 8 13 9 90 10 14 11 89 12
REMARK SMILES IDX 11 13 8 14 9 15 91 16 10 17 7 18 1 19 2 20 3 21 92 22 4 23
REMARK SMILES IDX 6 25 5 26 21 27 22 28 23 29 24 30 25 32 26 33 27 34 88 35
REMARK SMILES IDX 28 36 87 37 29 38 30 39 31 40 81 41 32 42 86 43 80 44 82 45
REMARK SMILES IDX 33 46 85 47 79 48 78 49 34 51 66 52 46 53 65 54 47 55 50 56
REMARK SMILES IDX 64 57 83 58 48 59 49 60 63 62 84 63 51 64 35 65 36 66 44 67
REMARK SMILES IDX 37 68 38 69 42 70 45 71 39 72 40 73 43 74 41 75 67 76 68 77
REMARK SMILES IDX 76 78 69 79 70 80 74 81 77 82 71 83 72 84 75 85 73 86 52 87
REMARK SMILES IDX 53 88 61 89 54 90 55 91 59 92 62 93 56 94 57 95 60 96 58 97
REMARK H PARENT 18 6 3 24 23 31 82 50 50 61
REMARK Flexibility Score: inf
ROOT
ATOM      1  C   UNL A   1      33.108  29.412  24.639  1.00  0.00     0.023 C 
ENDROOT
BRANCH   1   2
ATOM      2  C   UNL A   1      33.260  29.255  23.124  1.00  0.00     0.116 C 
BRANCH   2   3
ATOM      3  N   UNL A   1      31.980  29.435  22.467  1.00  0.00    -0.352 N 
ATOM      4  C   UNL A   1      30.902  28.599  22.318  1.00  0.00     0.251 C 
ATOM      5  O   UNL A   1      29.924  29.033  21.709  1.00  0.00    -0.269 OA
ATOM      6  H   UNL A   1      31.864  30.320  22.051  1.00  0.00     0.163 HD
BRANCH   4   7
ATOM      7  C   UNL A   1      30.844  27.234  22.914  1.00  0.00     0.039 A 
ATOM      8  C   UNL A   1      30.829  24.774  24.280  1.00  0.00     0.017 A 
ATOM      9  C   UNL A   1      30.074  25.845  24.763  1.00  0.00     0.013 A 
ATOM     10  C   UNL A   1      31.517  24.911  23.074  1.00  0.00     0.013 A 
ATOM     11  C   UNL A   1      30.092  27.072  24.088  1.00  0.00     0.014 A 
ATOM     12  C   UNL A   1      31.490  26.118  22.378  1.00  0.00     0.014 A 
BRANCH   8  13
ATOM     13  C   UNL A   1      30.959  23.538  25.015  1.00  0.00     0.134 A 
ATOM     14  C   UNL A   1      31.740  21.489  25.288  1.00  0.00     0.128 A 
ATOM     15  C   UNL A   1      31.077  21.851  26.455  1.00  0.00     0.051 A 
ATOM     16  O   UNL A   1      31.671  22.550  24.416  1.00  0.00    -0.457 OA
ATOM     17  C   UNL A   1      30.566  23.153  26.274  1.00  0.00     0.051 A 
BRANCH  14  18
ATOM     18  C   UNL A   1      32.412  20.281  24.968  1.00  0.00     0.065 C 
ATOM     19  O   UNL A   1      37.423  20.731  25.279  1.00  0.00    -0.261 OA
ATOM     20  C   UNL A   1      36.265  20.391  25.115  1.00  0.00     0.289 C 
ATOM     21  N   UNL A   1      35.838  19.155  24.743  1.00  0.00    -0.307 N 
ATOM     22  S   UNL A   1      34.887  21.441  25.316  1.00  0.00    -0.025 SA
ATOM     23  C   UNL A   1      34.492  18.933  24.608  1.00  0.00     0.120 C 
ATOM     24  H   UNL A   1      36.485  18.432  24.574  1.00  0.00     0.171 HD
ATOM     25  C   UNL A   1      33.748  20.185  24.937  1.00  0.00     0.056 C 
ATOM     26  S   UNL A   1      33.927  17.440  24.128  1.00  0.00    -0.059 S 
ENDBRANCH  14  18
ENDBRANCH   8  13
ENDBRANCH   4   7
ENDBRANCH   2   3
ENDBRANCH   1   2
BRANCH   1  27
ATOM     27  C   UNL A   1      33.414  28.136  25.424  1.00  0.00     0.023 C 
BRANCH  27  28
ATOM     28  C   UNL A   1      33.725  28.361  26.897  1.00  0.00     0.116 C 
BRANCH  28  29
ATOM     29  N   UNL A   1      33.570  29.749  27.309  1.00  0.00    -0.352 N 
ATOM     30  C   UNL A   1      34.473  30.547  27.967  1.00  0.00     0.251 C 
ATOM     31  H   UNL A   1      32.708  30.169  27.085  1.00  0.00     0.163 HD
ATOM     32  O   UNL A   1      34.153  31.663  28.361  1.00  0.00    -0.269 OA
BRANCH  30  33
ATOM     33  C   UNL A   1      35.827  30.022  28.231  1.00  0.00     0.039 A 
ATOM     34  C   UNL A   1      36.809  30.167  27.251  1.00  0.00     0.014 A 
ATOM     35  C   UNL A   1      36.132  29.442  29.465  1.00  0.00     0.014 A 
ATOM     36  C   UNL A   1      38.120  29.787  27.535  1.00  0.00     0.010 A 
ATOM     37  C   UNL A   1      37.453  29.144  29.775  1.00  0.00     0.010 A 
ATOM     38  C   UNL A   1      38.460  29.310  28.812  1.00  0.00    -0.014 A 
BRANCH  38  39
ATOM     39  C   UNL A   1      39.866  28.983  29.159  1.00  0.00     0.031 A 
ATOM     40  C   UNL A   1      40.705  29.973  29.915  1.00  0.00     0.074 A 
ATOM     41  C   UNL A   1      40.403  27.822  28.736  1.00  0.00     0.049 A 
ATOM     42  N   UNL A   1      41.964  29.895  30.264  1.00  0.00    -0.248 NA
ATOM     43  C   UNL A   1      40.051  31.232  30.306  1.00  0.00     0.031 C 
ATOM     44  C   UNL A   1      39.706  26.808  27.943  1.00  0.00     0.029 A 
ATOM     45  N   UNL A   1      41.664  27.306  28.899  1.00  0.00    -0.354 N 
ATOM     46  C   UNL A   1      42.254  31.095  30.899  1.00  0.00     0.074 A 
ATOM     47  C   UNL A   1      41.060  31.909  30.833  1.00  0.00     0.031 C 
ATOM     48  C   UNL A   1      40.540  25.784  27.708  1.00  0.00     0.029 A 
ATOM     49  C   UNL A   1      41.842  26.086  28.294  1.00  0.00     0.049 A 
ATOM     50  H   UNL A   1      42.372  27.767  29.403  1.00  0.00     0.167 HD
ATOM     51  C   UNL A   1      43.404  31.474  31.505  1.00  0.00     0.037 A 
ATOM     52  C   UNL A   1      42.936  25.307  28.210  1.00  0.00     0.037 A 
ATOM     53  C   UNL A   1      44.585  30.652  31.578  1.00  0.00     0.049 A 
ATOM     54  C   UNL A   1      44.207  25.753  28.882  1.00  0.00     0.074 A 
ATOM     55  C   UNL A   1      45.778  30.914  32.227  1.00  0.00     0.029 A 
ATOM     56  N   UNL A   1      44.724  29.413  30.969  1.00  0.00    -0.354 N 
ATOM     57  N   UNL A   1      44.444  26.851  29.558  1.00  0.00    -0.248 NA
ATOM     58  C   UNL A   1      45.359  24.847  28.789  1.00  0.00     0.031 C 
ATOM     59  C   UNL A   1      46.662  29.864  31.953  1.00  0.00     0.029 A 
ATOM     60  C   UNL A   1      45.997  28.914  31.196  1.00  0.00     0.049 A 
ATOM     61  H   UNL A   1      44.021  28.955  30.451  1.00  0.00     0.167 HD
ATOM     62  C   UNL A   1      45.760  26.757  29.992  1.00  0.00     0.074 A 
ATOM     63  C   UNL A   1      46.264  25.484  29.518  1.00  0.00     0.031 C 
ATOM     64  C   UNL A   1      46.486  27.644  30.717  1.00  0.00     0.037 A 
BRANCH  51  65
ATOM     65  C   UNL A   1      43.445  32.843  32.124  1.00  0.00     0.064 A 
ATOM     66  C   UNL A   1      43.830  33.977  31.392  1.00  0.00     0.173 A 
ATOM     67  C   UNL A   1      43.075  33.027  33.466  1.00  0.00     0.173 A 
ATOM     68  F   UNL A   1      44.204  33.859  30.109  1.00  0.00    -0.203 F 
ATOM     69  C   UNL A   1      43.882  35.234  31.990  1.00  0.00     0.198 A 
ATOM     70  C   UNL A   1      43.092  34.290  34.049  1.00  0.00     0.198 A 
ATOM     71  F   UNL A   1      42.693  31.980  34.212  1.00  0.00    -0.203 F 
ATOM     72  F   UNL A   1      44.316  36.291  31.288  1.00  0.00    -0.200 F 
ATOM     73  C   UNL A   1      43.507  35.391  33.316  1.00  0.00     0.200 A 
ATOM     74  F   UNL A   1      42.713  34.442  35.326  1.00  0.00    -0.200 F 
ATOM     75  F   UNL A   1      43.553  36.602  33.887  1.00  0.00    -0.200 F 
ENDBRANCH  51  65
BRANCH  52  76
ATOM     76  C   UNL A   1      42.872  24.019  27.466  1.00  0.00     0.064 A 
ATOM     77  C   UNL A   1      43.222  23.947  26.111  1.00  0.00     0.173 A 
ATOM     78  C   UNL A   1      42.464  22.836  28.098  1.00  0.00     0.173 A 
ATOM     79  F   UNL A   1      43.602  25.054  25.457  1.00  0.00    -0.203 F 
ATOM     80  C   UNL A   1      43.146  22.745  25.411  1.00  0.00     0.198 A 
ATOM     81  C   UNL A   1      42.420  21.627  27.406  1.00  0.00     0.198 A 
ATOM     82  F   UNL A   1      42.125  22.848  29.395  1.00  0.00    -0.203 F 
ATOM     83  F   UNL A   1      43.441  22.713  24.105  1.00  0.00    -0.200 F 
ATOM     84  C   UNL A   1      42.752  21.585  26.060  1.00  0.00     0.200 A 
ATOM     85  F   UNL A   1      42.057  20.505  28.043  1.00  0.00    -0.200 F 
ATOM     86  F   UNL A   1      42.687  20.427  25.389  1.00  0.00    -0.200 F 
ENDBRANCH  52  76
BRANCH  64  87
ATOM     87  C   UNL A   1      47.892  27.257  31.077  1.00  0.00     0.064 A 
ATOM     88  C   UNL A   1      48.989  27.644  30.293  1.00  0.00     0.173 A 
ATOM     89  C   UNL A   1      48.148  26.523  32.245  1.00  0.00     0.173 A 
ATOM     90  F   UNL A   1      48.801  28.335  29.160  1.00  0.00    -0.203 F 
ATOM     91  C   UNL A   1      50.287  27.285  30.652  1.00  0.00     0.198 A 
ATOM     92  C   UNL A   1      49.448  26.198  32.619  1.00  0.00     0.198 A 
ATOM     93  F   UNL A   1      47.136  26.133  33.035  1.00  0.00    -0.203 F 
ATOM     94  F   UNL A   1      51.315  27.619  29.859  1.00  0.00    -0.200 F 
ATOM     95  C   UNL A   1      50.517  26.571  31.818  1.00  0.00     0.200 A 
ATOM     96  F   UNL A   1      49.668  25.524  33.756  1.00  0.00    -0.200 F 
ATOM     97  F   UNL A   1      51.766  26.235  32.166  1.00  0.00    -0.200 F 
ENDBRANCH  64  87
ENDBRANCH  38  39
ENDBRANCH  30  33
ENDBRANCH  28  29
ENDBRANCH  27  28
ENDBRANCH   1  27
TORSDOF 13
ENDMDL
MODEL 3
REMARK VINA RESULT:     -12.3      3.651      8.554
REMARK SMILES O=C1NC(=S)/C(=C/c2ccc(-c3ccc(C(=O)NCCCCNC(=O)c4ccc(-c5c6nc(c(-c7c(F)c(F)c(F)c(F)c7F)c7ccc([nH]7)c(-c7c(F)c(F)c(F)c(F)c7F)c7nc(c(-c8c(F)c(F)c(F)c(F)c8F)c8ccc5[nH]8)C=C7)C=C6)cc4)cc3)o2)S1
REMARK SMILES IDX 20 1 19 2 18 3 16 4 17 5 15 7 12 8 13 9 90 10 14 11 89 12
REMARK SMILES IDX 11 13 8 14 9 15 91 16 10 17 7 18 1 19 2 20 3 21 92 22 4 23
REMARK SMILES IDX 6 25 5 26 21 27 22 28 23 29 24 30 25 32 26 33 27 34 88 35
REMARK SMILES IDX 28 36 87 37 29 38 30 39 31 40 81 41 32 42 86 43 80 44 82 45
REMARK SMILES IDX 33 46 85 47 79 48 78 49 34 51 66 52 46 53 65 54 47 55 50 56
REMARK SMILES IDX 64 57 83 58 48 59 49 60 63 62 84 63 51 64 35 65 36 66 44 67
REMARK SMILES IDX 37 68 38 69 42 70 45 71 39 72 40 73 43 74 41 75 67 76 68 77
REMARK SMILES IDX 76 78 69 79 70 80 74 81 77 82 71 83 72 84 75 85 73 86 52 87
REMARK SMILES IDX 53 88 61 89 54 90 55 91 59 92 62 93 56 94 57 95 60 96 58 97
REMARK H PARENT 18 6 3 24 23 31 82 50 50 61
REMARK Flexibility Score: inf
ROOT
ATOM      1  C   UNL A   1      31.031  31.676  25.811  1.00  0.00     0.023 C 
ENDROOT
BRANCH   1   2
ATOM      2  C   UNL A   1      31.436  30.312  25.247  1.00  0.00     0.116 C 
BRANCH   2   3
ATOM      3  N   UNL A   1      30.796  30.086  23.965  1.00  0.00    -0.352 N 
ATOM      4  C   UNL A   1      30.564  28.940  23.247  1.00  0.00     0.251 C 
ATOM      5  O   UNL A   1      29.976  29.051  22.171  1.00  0.00    -0.269 OA
ATOM      6  H   UNL A   1      30.470  30.907  23.530  1.00  0.00     0.163 HD
BRANCH   4   7
ATOM      7  C   UNL A   1      30.929  27.583  23.743  1.00  0.00     0.039 A 
ATOM      8  C   UNL A   1      31.487  25.090  24.923  1.00  0.00     0.017 A 
ATOM      9  C   UNL A   1      30.164  25.520  24.793  1.00  0.00     0.013 A 
ATOM     10  C   UNL A   1      32.514  25.866  24.385  1.00  0.00     0.013 A 
ATOM     11  C   UNL A   1      29.889  26.766  24.216  1.00  0.00     0.014 A 
ATOM     12  C   UNL A   1      32.231  27.081  23.766  1.00  0.00     0.014 A 
BRANCH   8  13
ATOM     13  C   UNL A   1      31.831  23.884  25.637  1.00  0.00     0.134 A 
ATOM     14  C   UNL A   1      32.405  21.752  25.730  1.00  0.00     0.128 A 
ATOM     15  C   UNL A   1      32.474  22.267  27.019  1.00  0.00     0.051 A 
ATOM     16  O   UNL A   1      32.023  22.770  24.887  1.00  0.00    -0.457 OA
ATOM     17  C   UNL A   1      32.093  23.624  26.961  1.00  0.00     0.051 A 
BRANCH  14  18
ATOM     18  C   UNL A   1      32.679  20.440  25.265  1.00  0.00     0.065 C 
ATOM     19  O   UNL A   1      37.622  19.530  24.886  1.00  0.00    -0.261 OA
ATOM     20  C   UNL A   1      36.405  19.520  24.872  1.00  0.00     0.289 C 
ATOM     21  N   UNL A   1      35.615  18.474  24.509  1.00  0.00    -0.307 N 
ATOM     22  S   UNL A   1      35.399  20.876  25.311  1.00  0.00    -0.025 SA
ATOM     23  C   UNL A   1      34.253  18.625  24.557  1.00  0.00     0.120 C 
ATOM     24  H   UNL A   1      36.015  17.623  24.219  1.00  0.00     0.171 HD
ATOM     25  C   UNL A   1      33.924  19.998  25.042  1.00  0.00     0.056 C 
ATOM     26  S   UNL A   1      33.250  17.377  24.096  1.00  0.00    -0.059 S 
ENDBRANCH  14  18
ENDBRANCH   8  13
ENDBRANCH   4   7
ENDBRANCH   2   3
ENDBRANCH   1   2
BRANCH   1  27
ATOM     27  C   UNL A   1      31.509  31.917  27.244  1.00  0.00     0.023 C 
BRANCH  27  28
ATOM     28  C   UNL A   1      32.732  32.817  27.356  1.00  0.00     0.116 C 
BRANCH  28  29
ATOM     29  N   UNL A   1      32.396  34.205  27.637  1.00  0.00    -0.352 N 
ATOM     30  C   UNL A   1      32.961  35.047  28.563  1.00  0.00     0.251 C 
ATOM     31  H   UNL A   1      31.671  34.590  27.092  1.00  0.00     0.163 HD
ATOM     32  O   UNL A   1      32.486  36.157  28.773  1.00  0.00    -0.269 OA
BRANCH  30  33
ATOM     33  C   UNL A   1      34.128  34.576  29.334  1.00  0.00     0.039 A 
ATOM     34  C   UNL A   1      33.926  34.066  30.617  1.00  0.00     0.014 A 
ATOM     35  C   UNL A   1      35.403  34.588  28.765  1.00  0.00     0.014 A 
ATOM     36  C   UNL A   1      35.001  33.506  31.307  1.00  0.00     0.010 A 
ATOM     37  C   UNL A   1      36.453  33.954  29.418  1.00  0.00     0.010 A 
ATOM     38  C   UNL A   1      36.263  33.409  30.698  1.00  0.00    -0.014 A 
BRANCH  38  39
ATOM     39  C   UNL A   1      37.396  32.738  31.383  1.00  0.00     0.031 A 
ATOM     40  C   UNL A   1      38.081  31.569  30.735  1.00  0.00     0.074 A 
ATOM     41  C   UNL A   1      37.762  33.142  32.614  1.00  0.00     0.049 A 
ATOM     42  N   UNL A   1      39.050  30.818  31.196  1.00  0.00    -0.248 NA
ATOM     43  C   UNL A   1      37.593  31.168  29.406  1.00  0.00     0.031 C 
ATOM     44  C   UNL A   1      37.133  34.226  33.369  1.00  0.00     0.029 A 
ATOM     45  N   UNL A   1      38.742  32.677  33.455  1.00  0.00    -0.354 N 
ATOM     46  C   UNL A   1      39.275  29.854  30.222  1.00  0.00     0.074 A 
ATOM     47  C   UNL A   1      38.302  30.074  29.175  1.00  0.00     0.031 C 
ATOM     48  C   UNL A   1      37.756  34.358  34.551  1.00  0.00     0.029 A 
ATOM     49  C   UNL A   1      38.798  33.341  34.656  1.00  0.00     0.049 A 
ATOM     50  H   UNL A   1      39.348  31.939  33.218  1.00  0.00     0.167 HD
ATOM     51  C   UNL A   1      40.224  28.888  30.193  1.00  0.00     0.037 A 
ATOM     52  C   UNL A   1      39.590  33.143  35.726  1.00  0.00     0.037 A 
ATOM     53  C   UNL A   1      41.198  28.685  31.234  1.00  0.00     0.049 A 
ATOM     54  C   UNL A   1      40.631  32.056  35.675  1.00  0.00     0.074 A 
ATOM     55  C   UNL A   1      42.244  27.781  31.270  1.00  0.00     0.029 A 
ATOM     56  N   UNL A   1      41.236  29.389  32.429  1.00  0.00    -0.354 N 
ATOM     57  N   UNL A   1      40.895  31.207  34.712  1.00  0.00    -0.248 NA
ATOM     58  C   UNL A   1      41.492  31.908  36.856  1.00  0.00     0.031 C 
ATOM     59  C   UNL A   1      42.873  27.891  32.516  1.00  0.00     0.029 A 
ATOM     60  C   UNL A   1      42.266  28.914  33.226  1.00  0.00     0.049 A 
ATOM     61  H   UNL A   1      40.622  30.119  32.675  1.00  0.00     0.167 HD
ATOM     62  C   UNL A   1      41.965  30.443  35.156  1.00  0.00     0.074 A 
ATOM     63  C   UNL A   1      42.314  30.943  36.471  1.00  0.00     0.031 C 
ATOM     64  C   UNL A   1      42.602  29.420  34.534  1.00  0.00     0.037 A 
BRANCH  51  65
ATOM     65  C   UNL A   1      40.245  27.971  29.002  1.00  0.00     0.064 A 
ATOM     66  C   UNL A   1      40.976  28.275  27.844  1.00  0.00     0.173 A 
ATOM     67  C   UNL A   1      39.538  26.758  29.028  1.00  0.00     0.173 A 
ATOM     68  F   UNL A   1      41.663  29.426  27.760  1.00  0.00    -0.203 F 
ATOM     69  C   UNL A   1      40.966  27.423  26.743  1.00  0.00     0.198 A 
ATOM     70  C   UNL A   1      39.561  25.891  27.940  1.00  0.00     0.198 A 
ATOM     71  F   UNL A   1      38.827  26.412  30.111  1.00  0.00    -0.203 F 
ATOM     72  F   UNL A   1      41.620  27.767  25.624  1.00  0.00    -0.200 F 
ATOM     73  C   UNL A   1      40.264  26.228  26.794  1.00  0.00     0.200 A 
ATOM     74  F   UNL A   1      38.896  24.728  27.998  1.00  0.00    -0.200 F 
ATOM     75  F   UNL A   1      40.260  25.406  25.736  1.00  0.00    -0.200 F 
ENDBRANCH  51  65
BRANCH  52  76
ATOM     76  C   UNL A   1      39.432  33.999  36.932  1.00  0.00     0.064 A 
ATOM     77  C   UNL A   1      40.001  35.279  36.991  1.00  0.00     0.173 A 
ATOM     78  C   UNL A   1      38.706  33.557  38.047  1.00  0.00     0.173 A 
ATOM     79  F   UNL A   1      40.719  35.742  35.958  1.00  0.00    -0.203 F 
ATOM     80  C   UNL A   1      39.867  36.074  38.128  1.00  0.00     0.198 A 
ATOM     81  C   UNL A   1      38.544  34.366  39.170  1.00  0.00     0.198 A 
ATOM     82  F   UNL A   1      38.136  32.343  38.040  1.00  0.00    -0.203 F 
ATOM     83  F   UNL A   1      40.460  37.274  38.176  1.00  0.00    -0.200 F 
ATOM     84  C   UNL A   1      39.133  35.620  39.213  1.00  0.00     0.200 A 
ATOM     85  F   UNL A   1      37.818  33.930  40.209  1.00  0.00    -0.200 F 
ATOM     86  F   UNL A   1      38.998  36.389  40.302  1.00  0.00    -0.200 F 
ENDBRANCH  52  76
BRANCH  64  87
ATOM     87  C   UNL A   1      43.766  28.793  35.249  1.00  0.00     0.064 A 
ATOM     88  C   UNL A   1      45.081  29.240  35.055  1.00  0.00     0.173 A 
ATOM     89  C   UNL A   1      43.555  27.759  36.173  1.00  0.00     0.173 A 
ATOM     90  F   UNL A   1      45.341  30.217  34.173  1.00  0.00    -0.203 F 
ATOM     91  C   UNL A   1      46.144  28.654  35.738  1.00  0.00     0.198 A 
ATOM     92  C   UNL A   1      44.615  27.200  36.880  1.00  0.00     0.198 A 
ATOM     93  F   UNL A   1      42.316  27.299  36.403  1.00  0.00    -0.203 F 
ATOM     94  F   UNL A   1      47.399  29.059  35.495  1.00  0.00    -0.200 F 
ATOM     95  C   UNL A   1      45.911  27.641  36.655  1.00  0.00     0.200 A 
ATOM     96  F   UNL A   1      44.384  26.235  37.780  1.00  0.00    -0.200 F 
ATOM     97  F   UNL A   1      46.934  27.085  37.319  1.00  0.00    -0.200 F 
ENDBRANCH  64  87
ENDBRANCH  38  39
ENDBRANCH  30  33
ENDBRANCH  28  29
ENDBRANCH  27  28
ENDBRANCH   1  27
TORSDOF 13
ENDMDL
