MODEL 1
REMARK VINA RESULT:     -12.6      0.000      0.000
REMARK SMILES Cc1cn2c(CC(=O)N[C@@H](C(=O)NCCCCNC(=O)c3ccc(-c4c5nc(c(-c6c(F)c(F)c(F)c(F)c6F)c6ccc([nH]6)c(-c6c(F)c(F)c(F)c(F)c6F)c6nc(c(-c7c(F)c(F)c(F)c(F)c7F)c7ccc4[nH]7)C=C6)C=C5)cc3)[C@H](C)O)csc2n1
REMARK SMILES IDX 15 1 14 2 13 3 11 4 12 5 10 7 9 8 7 9 8 10 6 12 5 13 1 14
REMARK SMILES IDX 2 15 3 16 90 17 4 18 89 19 88 20 87 21 84 22 85 23 86 24
REMARK SMILES IDX 16 26 17 27 18 28 19 29 20 31 21 32 22 33 83 34 23 35 82 36
REMARK SMILES IDX 24 37 25 38 26 39 76 40 27 41 81 42 75 43 77 44 28 45 80 46
REMARK SMILES IDX 74 47 73 48 29 50 61 51 41 52 60 53 42 54 45 55 59 56 78 57
REMARK SMILES IDX 43 58 44 59 58 61 79 62 46 63 30 64 31 65 39 66 32 67 33 68
REMARK SMILES IDX 37 69 40 70 34 71 35 72 38 73 36 74 62 75 63 76 71 77 64 78
REMARK SMILES IDX 65 79 69 80 72 81 66 82 67 83 70 84 68 85 47 86 48 87 56 88
REMARK SMILES IDX 49 89 50 90 54 91 57 92 51 93 52 94 55 95 53 96
REMARK H PARENT 13 6 9 11 86 25 18 30 77 49 45 60
REMARK Flexibility Score: inf
ROOT
ATOM      1  C   UNL A   1      32.040  30.457  26.833  1.00  0.00     0.023 C 
ENDROOT
BRANCH   1   2
ATOM      2  C   UNL A   1      31.750  29.813  25.484  1.00  0.00     0.116 C 
BRANCH   2   3
ATOM      3  N   UNL A   1      32.929  29.635  24.668  1.00  0.00    -0.354 N 
ATOM      4  C   UNL A   1      33.067  28.948  23.492  1.00  0.00     0.245 C 
ATOM      5  O   UNL A   1      34.045  29.244  22.803  1.00  0.00    -0.273 OA
ATOM      6  H   UNL A   1      33.747  30.068  25.005  1.00  0.00     0.163 HD
BRANCH   4   7
ATOM      7  C   UNL A   1      31.939  28.001  22.976  1.00  0.00     0.200 C 
BRANCH   7   8
ATOM      8  N   UNL A   1      32.335  27.279  21.746  1.00  0.00    -0.342 N 
ATOM      9  C   UNL A   1      32.497  25.945  21.502  1.00  0.00     0.226 C 
ATOM     10  O   UNL A   1      33.070  25.614  20.465  1.00  0.00    -0.275 OA
ATOM     11  H   UNL A   1      32.511  27.861  20.971  1.00  0.00     0.164 HD
BRANCH   9  12
ATOM     12  C   UNL A   1      31.994  24.893  22.491  1.00  0.00     0.155 C 
BRANCH  12  13
ATOM     13  C   UNL A   1      33.099  24.300  23.305  1.00  0.00     0.044 A 
ATOM     14  C   UNL A   1      32.577  19.399  24.107  1.00  0.00     0.068 C 
ATOM     15  C   UNL A   1      32.992  20.818  24.030  1.00  0.00     0.057 A 
ATOM     16  C   UNL A   1      32.433  21.832  23.266  1.00  0.00     0.117 A 
ATOM     17  N   UNL A   1      34.056  21.292  24.782  1.00  0.00    -0.224 NA
ATOM     18  N   UNL A   1      33.148  22.945  23.590  1.00  0.00    -0.294 N 
ATOM     19  C   UNL A   1      34.129  22.550  24.448  1.00  0.00     0.194 A 
ATOM     20  S   UNL A   1      35.133  23.886  24.909  1.00  0.00    -0.105 S 
ATOM     21  C   UNL A   1      34.119  24.948  23.910  1.00  0.00     0.091 A 
ENDBRANCH  12  13
ENDBRANCH   9  12
ENDBRANCH   7   8
BRANCH   7  22
ATOM     22  C   UNL A   1      30.616  28.796  22.764  1.00  0.00     0.143 C 
ATOM     23  C   UNL A   1      29.390  27.930  23.034  1.00  0.00     0.041 C 
BRANCH  22  24
ATOM     24  O   UNL A   1      30.495  29.306  21.429  1.00  0.00    -0.391 OA
ATOM     25  H   UNL A   1      29.729  29.899  21.378  1.00  0.00     0.211 HD
ENDBRANCH  22  24
ENDBRANCH   7  22
ENDBRANCH   4   7
ENDBRANCH   2   3
ENDBRANCH   1   2
BRANCH   1  26
ATOM     26  C   UNL A   1      31.721  31.950  26.887  1.00  0.00     0.023 C 
BRANCH  26  27
ATOM     27  C   UNL A   1      32.894  32.854  27.263  1.00  0.00     0.116 C 
BRANCH  27  28
ATOM     28  N   UNL A   1      32.501  34.203  27.638  1.00  0.00    -0.352 N 
ATOM     29  C   UNL A   1      33.031  35.012  28.619  1.00  0.00     0.251 C 
ATOM     30  H   UNL A   1      31.757  34.590  27.123  1.00  0.00     0.163 HD
ATOM     31  O   UNL A   1      32.523  36.094  28.874  1.00  0.00    -0.269 OA
BRANCH  29  32
ATOM     32  C   UNL A   1      34.195  34.535  29.401  1.00  0.00     0.039 A 
ATOM     33  C   UNL A   1      33.968  33.947  30.647  1.00  0.00     0.014 A 
ATOM     34  C   UNL A   1      35.493  34.629  28.893  1.00  0.00     0.014 A 
ATOM     35  C   UNL A   1      35.036  33.382  31.348  1.00  0.00     0.010 A 
ATOM     36  C   UNL A   1      36.542  33.995  29.554  1.00  0.00     0.010 A 
ATOM     37  C   UNL A   1      36.325  33.363  30.788  1.00  0.00    -0.014 A 
BRANCH  37  38
ATOM     38  C   UNL A   1      37.445  32.672  31.478  1.00  0.00     0.031 A 
ATOM     39  C   UNL A   1      38.146  31.514  30.823  1.00  0.00     0.074 A 
ATOM     40  C   UNL A   1      37.797  33.054  32.722  1.00  0.00     0.049 A 
ATOM     41  N   UNL A   1      39.132  30.779  31.276  1.00  0.00    -0.248 NA
ATOM     42  C   UNL A   1      37.661  31.109  29.494  1.00  0.00     0.031 C 
ATOM     43  C   UNL A   1      37.148  34.114  33.497  1.00  0.00     0.029 A 
ATOM     44  N   UNL A   1      38.783  32.592  33.558  1.00  0.00    -0.354 N 
ATOM     45  C   UNL A   1      39.371  29.822  30.299  1.00  0.00     0.074 A 
ATOM     46  C   UNL A   1      38.394  30.032  29.253  1.00  0.00     0.031 C 
ATOM     47  C   UNL A   1      37.771  34.239  34.679  1.00  0.00     0.029 A 
ATOM     48  C   UNL A   1      38.841  33.251  34.762  1.00  0.00     0.049 A 
ATOM     49  H   UNL A   1      39.391  31.856  33.318  1.00  0.00     0.167 HD
ATOM     50  C   UNL A   1      40.334  28.870  30.264  1.00  0.00     0.037 A 
ATOM     51  C   UNL A   1      39.666  33.079  35.812  1.00  0.00     0.037 A 
ATOM     52  C   UNL A   1      41.325  28.682  31.291  1.00  0.00     0.049 A 
ATOM     53  C   UNL A   1      40.748  32.036  35.733  1.00  0.00     0.074 A 
ATOM     54  C   UNL A   1      42.386  27.794  31.315  1.00  0.00     0.029 A 
ATOM     55  N   UNL A   1      41.377  29.398  32.479  1.00  0.00    -0.354 N 
ATOM     56  N   UNL A   1      41.020  31.198  34.763  1.00  0.00    -0.248 NA
ATOM     57  C   UNL A   1      41.650  31.930  36.888  1.00  0.00     0.031 C 
ATOM     58  C   UNL A   1      43.053  27.938  32.536  1.00  0.00     0.029 A 
ATOM     59  C   UNL A   1      42.441  28.956  33.251  1.00  0.00     0.049 A 
ATOM     60  H   UNL A   1      40.751  30.112  32.737  1.00  0.00     0.167 HD
ATOM     61  C   UNL A   1      42.139  30.486  35.176  1.00  0.00     0.074 A 
ATOM     62  C   UNL A   1      42.507  31.007  36.477  1.00  0.00     0.031 C 
ATOM     63  C   UNL A   1      42.800  29.489  34.540  1.00  0.00     0.037 A 
BRANCH  50  64
ATOM     64  C   UNL A   1      40.374  27.961  29.070  1.00  0.00     0.064 A 
ATOM     65  C   UNL A   1      39.634  26.771  29.027  1.00  0.00     0.173 A 
ATOM     66  C   UNL A   1      41.119  28.312  27.934  1.00  0.00     0.173 A 
ATOM     67  F   UNL A   1      38.914  26.385  30.092  1.00  0.00    -0.203 F 
ATOM     68  C   UNL A   1      39.655  25.952  27.902  1.00  0.00     0.198 A 
ATOM     69  C   UNL A   1      41.115  27.506  26.798  1.00  0.00     0.198 A 
ATOM     70  F   UNL A   1      41.841  29.442  27.919  1.00  0.00    -0.203 F 
ATOM     71  F   UNL A   1      38.974  24.798  27.901  1.00  0.00    -0.200 F 
ATOM     72  C   UNL A   1      40.389  26.325  26.784  1.00  0.00     0.200 A 
ATOM     73  F   UNL A   1      41.812  27.874  25.715  1.00  0.00    -0.200 F 
ATOM     74  F   UNL A   1      40.398  25.543  25.697  1.00  0.00    -0.200 F 
ENDBRANCH  50  64
BRANCH  51  75
ATOM     75  C   UNL A   1      39.526  33.936  37.020  1.00  0.00     0.064 A 
ATOM     76  C   UNL A   1      38.770  33.512  38.122  1.00  0.00     0.173 A 
ATOM     77  C   UNL A   1      40.124  35.202  37.088  1.00  0.00     0.173 A 
ATOM     78  F   UNL A   1      38.161  32.317  38.097  1.00  0.00    -0.203 F 
ATOM     79  C   UNL A   1      38.593  34.333  39.234  1.00  0.00     0.198 A 
ATOM     80  C   UNL A   1      39.972  36.010  38.213  1.00  0.00     0.198 A 
ATOM     81  F   UNL A   1      40.863  35.652  36.064  1.00  0.00    -0.203 F 
ATOM     82  F   UNL A   1      37.818  33.926  40.248  1.00  0.00    -0.200 F 
ATOM     83  C   UNL A   1      39.197  35.581  39.280  1.00  0.00     0.200 A 
ATOM     84  F   UNL A   1      40.570  37.208  38.261  1.00  0.00    -0.200 F 
ATOM     85  F   UNL A   1      39.025  36.371  40.348  1.00  0.00    -0.200 F 
ENDBRANCH  51  75
BRANCH  63  86
ATOM     86  C   UNL A   1      44.013  28.925  35.221  1.00  0.00     0.064 A 
ATOM     87  C   UNL A   1      43.925  27.842  36.109  1.00  0.00     0.173 A 
ATOM     88  C   UNL A   1      45.284  29.465  34.969  1.00  0.00     0.173 A 
ATOM     89  F   UNL A   1      42.732  27.298  36.395  1.00  0.00    -0.203 F 
ATOM     90  C   UNL A   1      45.059  27.346  36.747  1.00  0.00     0.198 A 
ATOM     91  C   UNL A   1      46.419  28.945  35.583  1.00  0.00     0.198 A 
ATOM     92  F   UNL A   1      45.425  30.496  34.122  1.00  0.00    -0.203 F 
ATOM     93  F   UNL A   1      44.942  26.350  37.637  1.00  0.00    -0.200 F 
ATOM     94  C   UNL A   1      46.304  27.893  36.479  1.00  0.00     0.200 A 
ATOM     95  F   UNL A   1      47.624  29.465  35.311  1.00  0.00    -0.200 F 
ATOM     96  F   UNL A   1      47.394  27.413  37.093  1.00  0.00    -0.200 F 
ENDBRANCH  63  86
ENDBRANCH  37  38
ENDBRANCH  29  32
ENDBRANCH  27  28
ENDBRANCH  26  27
ENDBRANCH   1  26
TORSDOF 16
ENDMDL
MODEL 2
REMARK VINA RESULT:     -12.5      1.206      7.458
REMARK SMILES Cc1cn2c(CC(=O)N[C@@H](C(=O)NCCCCNC(=O)c3ccc(-c4c5nc(c(-c6c(F)c(F)c(F)c(F)c6F)c6ccc([nH]6)c(-c6c(F)c(F)c(F)c(F)c6F)c6nc(c(-c7c(F)c(F)c(F)c(F)c7F)c7ccc4[nH]7)C=C6)C=C5)cc3)[C@H](C)O)csc2n1
REMARK SMILES IDX 15 1 14 2 13 3 11 4 12 5 10 7 9 8 7 9 8 10 6 12 5 13 1 14
REMARK SMILES IDX 2 15 3 16 90 17 4 18 89 19 88 20 87 21 84 22 85 23 86 24
REMARK SMILES IDX 16 26 17 27 18 28 19 29 20 31 21 32 22 33 83 34 23 35 82 36
REMARK SMILES IDX 24 37 25 38 26 39 76 40 27 41 81 42 75 43 77 44 28 45 80 46
REMARK SMILES IDX 74 47 73 48 29 50 61 51 41 52 60 53 42 54 45 55 59 56 78 57
REMARK SMILES IDX 43 58 44 59 58 61 79 62 46 63 30 64 31 65 39 66 32 67 33 68
REMARK SMILES IDX 37 69 40 70 34 71 35 72 38 73 36 74 62 75 63 76 71 77 64 78
REMARK SMILES IDX 65 79 69 80 72 81 66 82 67 83 70 84 68 85 47 86 48 87 56 88
REMARK SMILES IDX 49 89 50 90 54 91 57 92 51 93 52 94 55 95 53 96
REMARK H PARENT 13 6 9 11 86 25 18 30 77 49 45 60
REMARK Flexibility Score: inf
ROOT
ATOM      1  C   UNL A   1      31.686  30.573  25.713  1.00  0.00     0.023 C 
ENDROOT
BRANCH   1   2
ATOM      2  C   UNL A   1      32.725  29.474  25.897  1.00  0.00     0.116 C 
BRANCH   2   3
ATOM      3  N   UNL A   1      33.643  29.363  24.787  1.00  0.00    -0.354 N 
ATOM      4  C   UNL A   1      33.568  28.554  23.686  1.00  0.00     0.245 C 
ATOM      5  O   UNL A   1      34.248  28.894  22.716  1.00  0.00    -0.273 OA
ATOM      6  H   UNL A   1      34.432  29.951  24.829  1.00  0.00     0.163 HD
BRANCH   4   7
ATOM      7  C   UNL A   1      32.528  27.393  23.609  1.00  0.00     0.200 C 
BRANCH   7   8
ATOM      8  N   UNL A   1      33.054  26.218  22.878  1.00  0.00    -0.342 N 
ATOM      9  C   UNL A   1      33.796  25.155  23.307  1.00  0.00     0.226 C 
ATOM     10  O   UNL A   1      34.316  24.434  22.455  1.00  0.00    -0.275 OA
ATOM     11  H   UNL A   1      32.830  26.201  21.920  1.00  0.00     0.164 HD
BRANCH   9  12
ATOM     12  C   UNL A   1      33.987  24.872  24.797  1.00  0.00     0.155 C 
BRANCH  12  13
ATOM     13  C   UNL A   1      32.897  24.018  25.361  1.00  0.00     0.044 A 
ATOM     14  C   UNL A   1      33.412  19.164  24.306  1.00  0.00     0.068 C 
ATOM     15  C   UNL A   1      33.008  20.511  24.771  1.00  0.00     0.057 A 
ATOM     16  C   UNL A   1      33.723  21.696  24.682  1.00  0.00     0.117 A 
ATOM     17  N   UNL A   1      31.778  20.717  25.376  1.00  0.00    -0.224 NA
ATOM     18  N   UNL A   1      32.896  22.641  25.210  1.00  0.00    -0.294 N 
ATOM     19  C   UNL A   1      31.785  21.991  25.654  1.00  0.00     0.194 A 
ATOM     20  S   UNL A   1      30.663  23.095  26.380  1.00  0.00    -0.105 S 
ATOM     21  C   UNL A   1      31.779  24.424  26.004  1.00  0.00     0.091 A 
ENDBRANCH  12  13
ENDBRANCH   9  12
ENDBRANCH   7   8
BRANCH   7  22
ATOM     22  C   UNL A   1      31.195  27.899  22.981  1.00  0.00     0.143 C 
ATOM     23  C   UNL A   1      29.982  27.416  23.769  1.00  0.00     0.041 C 
BRANCH  22  24
ATOM     24  O   UNL A   1      31.029  27.457  21.626  1.00  0.00    -0.391 OA
ATOM     25  H   UNL A   1      31.846  27.033  21.322  1.00  0.00     0.211 HD
ENDBRANCH  22  24
ENDBRANCH   7  22
ENDBRANCH   4   7
ENDBRANCH   2   3
ENDBRANCH   1   2
BRANCH   1  26
ATOM     26  C   UNL A   1      31.593  31.541  26.891  1.00  0.00     0.023 C 
BRANCH  26  27
ATOM     27  C   UNL A   1      32.792  32.472  27.066  1.00  0.00     0.116 C 
BRANCH  27  28
ATOM     28  N   UNL A   1      32.435  33.821  27.477  1.00  0.00    -0.352 N 
ATOM     29  C   UNL A   1      33.010  34.602  28.455  1.00  0.00     0.251 C 
ATOM     30  H   UNL A   1      31.683  34.230  26.991  1.00  0.00     0.163 HD
ATOM     31  O   UNL A   1      32.529  35.687  28.745  1.00  0.00    -0.269 OA
BRANCH  29  32
ATOM     32  C   UNL A   1      34.187  34.090  29.193  1.00  0.00     0.039 A 
ATOM     33  C   UNL A   1      33.979  33.223  30.267  1.00  0.00     0.014 A 
ATOM     34  C   UNL A   1      35.486  34.429  28.804  1.00  0.00     0.014 A 
ATOM     35  C   UNL A   1      35.075  32.633  30.901  1.00  0.00     0.010 A 
ATOM     36  C   UNL A   1      36.573  33.780  29.383  1.00  0.00     0.010 A 
ATOM     37  C   UNL A   1      36.380  32.873  30.436  1.00  0.00    -0.014 A 
BRANCH  37  38
ATOM     38  C   UNL A   1      37.544  32.169  31.036  1.00  0.00     0.031 A 
ATOM     39  C   UNL A   1      38.028  32.533  32.412  1.00  0.00     0.074 A 
ATOM     40  C   UNL A   1      38.198  31.236  30.317  1.00  0.00     0.049 A 
ATOM     41  N   UNL A   1      39.035  32.041  33.092  1.00  0.00    -0.248 NA
ATOM     42  C   UNL A   1      37.307  33.610  33.108  1.00  0.00     0.031 C 
ATOM     43  C   UNL A   1      37.873  30.843  28.944  1.00  0.00     0.029 A 
ATOM     44  N   UNL A   1      39.278  30.450  30.637  1.00  0.00    -0.354 N 
ATOM     45  C   UNL A   1      39.074  32.756  34.282  1.00  0.00     0.074 A 
ATOM     46  C   UNL A   1      38.027  33.752  34.210  1.00  0.00     0.031 C 
ATOM     47  C   UNL A   1      38.715  29.873  28.552  1.00  0.00     0.029 A 
ATOM     48  C   UNL A   1      39.658  29.595  29.631  1.00  0.00     0.049 A 
ATOM     49  H   UNL A   1      39.737  30.495  31.507  1.00  0.00     0.167 HD
ATOM     50  C   UNL A   1      39.890  32.580  35.348  1.00  0.00     0.037 A 
ATOM     51  C   UNL A   1      40.653  28.689  29.585  1.00  0.00     0.037 A 
ATOM     52  C   UNL A   1      40.910  31.568  35.430  1.00  0.00     0.049 A 
ATOM     53  C   UNL A   1      41.524  28.493  30.796  1.00  0.00     0.074 A 
ATOM     54  C   UNL A   1      41.741  31.264  36.494  1.00  0.00     0.029 A 
ATOM     55  N   UNL A   1      41.239  30.693  34.404  1.00  0.00    -0.354 N 
ATOM     56  N   UNL A   1      41.491  29.115  31.950  1.00  0.00    -0.248 NA
ATOM     57  C   UNL A   1      42.560  27.454  30.705  1.00  0.00     0.031 C 
ATOM     58  C   UNL A   1      42.604  30.237  36.099  1.00  0.00     0.029 A 
ATOM     59  C   UNL A   1      42.274  29.862  34.806  1.00  0.00     0.049 A 
ATOM     60  H   UNL A   1      40.804  30.668  33.522  1.00  0.00     0.167 HD
ATOM     61  C   UNL A   1      42.477  28.525  32.730  1.00  0.00     0.074 A 
ATOM     62  C   UNL A   1      43.077  27.481  31.924  1.00  0.00     0.031 C 
ATOM     63  C   UNL A   1      42.855  28.823  33.996  1.00  0.00     0.037 A 
BRANCH  50  64
ATOM     64  C   UNL A   1      39.710  33.497  36.523  1.00  0.00     0.064 A 
ATOM     65  C   UNL A   1      40.344  34.747  36.585  1.00  0.00     0.173 A 
ATOM     66  C   UNL A   1      38.850  33.145  37.574  1.00  0.00     0.173 A 
ATOM     67  F   UNL A   1      41.184  35.127  35.610  1.00  0.00    -0.203 F 
ATOM     68  C   UNL A   1      40.143  35.601  37.666  1.00  0.00     0.198 A 
ATOM     69  C   UNL A   1      38.628  34.014  38.640  1.00  0.00     0.198 A 
ATOM     70  F   UNL A   1      38.214  31.965  37.564  1.00  0.00    -0.203 F 
ATOM     71  F   UNL A   1      40.793  36.772  37.723  1.00  0.00    -0.200 F 
ATOM     72  C   UNL A   1      39.278  35.238  38.688  1.00  0.00     0.200 A 
ATOM     73  F   UNL A   1      37.781  33.668  39.619  1.00  0.00    -0.200 F 
ATOM     74  F   UNL A   1      39.076  36.066  39.722  1.00  0.00    -0.200 F 
ENDBRANCH  50  64
BRANCH  51  75
ATOM     75  C   UNL A   1      40.862  27.871  28.360  1.00  0.00     0.064 A 
ATOM     76  C   UNL A   1      40.233  26.627  28.207  1.00  0.00     0.173 A 
ATOM     77  C   UNL A   1      41.710  28.304  27.331  1.00  0.00     0.173 A 
ATOM     78  F   UNL A   1      39.428  26.160  29.173  1.00  0.00    -0.203 F 
ATOM     79  C   UNL A   1      40.468  25.834  27.085  1.00  0.00     0.198 A 
ATOM     80  C   UNL A   1      41.921  27.525  26.196  1.00  0.00     0.198 A 
ATOM     81  F   UNL A   1      42.330  29.489  27.426  1.00  0.00    -0.203 F 
ATOM     82  F   UNL A   1      39.900  24.625  26.991  1.00  0.00    -0.200 F 
ATOM     83  C   UNL A   1      41.309  26.285  26.079  1.00  0.00     0.200 A 
ATOM     84  F   UNL A   1      42.721  27.970  25.218  1.00  0.00    -0.200 F 
ATOM     85  F   UNL A   1      41.536  25.522  25.001  1.00  0.00    -0.200 F 
ENDBRANCH  51  75
BRANCH  63  86
ATOM     86  C   UNL A   1      43.940  27.981  34.604  1.00  0.00     0.064 A 
ATOM     87  C   UNL A   1      45.289  28.365  34.552  1.00  0.00     0.173 A 
ATOM     88  C   UNL A   1      43.624  26.783  35.263  1.00  0.00     0.173 A 
ATOM     89  F   UNL A   1      45.646  29.495  33.921  1.00  0.00    -0.203 F 
ATOM     90  C   UNL A   1      46.283  27.561  35.104  1.00  0.00     0.198 A 
ATOM     91  C   UNL A   1      44.617  26.000  35.843  1.00  0.00     0.198 A 
ATOM     92  F   UNL A   1      42.349  26.375  35.350  1.00  0.00    -0.203 F 
ATOM     93  F   UNL A   1      47.570  27.918  34.989  1.00  0.00    -0.200 F 
ATOM     94  C   UNL A   1      45.947  26.384  35.754  1.00  0.00     0.200 A 
ATOM     95  F   UNL A   1      44.288  24.870  36.484  1.00  0.00    -0.200 F 
ATOM     96  F   UNL A   1      46.904  25.613  36.285  1.00  0.00    -0.200 F 
ENDBRANCH  63  86
ENDBRANCH  37  38
ENDBRANCH  29  32
ENDBRANCH  27  28
ENDBRANCH  26  27
ENDBRANCH   1  26
TORSDOF 16
ENDMDL
MODEL 3
REMARK VINA RESULT:     -12.5      0.897      1.504
REMARK SMILES Cc1cn2c(CC(=O)N[C@@H](C(=O)NCCCCNC(=O)c3ccc(-c4c5nc(c(-c6c(F)c(F)c(F)c(F)c6F)c6ccc([nH]6)c(-c6c(F)c(F)c(F)c(F)c6F)c6nc(c(-c7c(F)c(F)c(F)c(F)c7F)c7ccc4[nH]7)C=C6)C=C5)cc3)[C@H](C)O)csc2n1
REMARK SMILES IDX 15 1 14 2 13 3 11 4 12 5 10 7 9 8 7 9 8 10 6 12 5 13 1 14
REMARK SMILES IDX 2 15 3 16 90 17 4 18 89 19 88 20 87 21 84 22 85 23 86 24
REMARK SMILES IDX 16 26 17 27 18 28 19 29 20 31 21 32 22 33 83 34 23 35 82 36
REMARK SMILES IDX 24 37 25 38 26 39 76 40 27 41 81 42 75 43 77 44 28 45 80 46
REMARK SMILES IDX 74 47 73 48 29 50 61 51 41 52 60 53 42 54 45 55 59 56 78 57
REMARK SMILES IDX 43 58 44 59 58 61 79 62 46 63 30 64 31 65 39 66 32 67 33 68
REMARK SMILES IDX 37 69 40 70 34 71 35 72 38 73 36 74 62 75 63 76 71 77 64 78
REMARK SMILES IDX 65 79 69 80 72 81 66 82 67 83 70 84 68 85 47 86 48 87 56 88
REMARK SMILES IDX 49 89 50 90 54 91 57 92 51 93 52 94 55 95 53 96
REMARK H PARENT 13 6 9 11 86 25 18 30 77 49 45 60
REMARK Flexibility Score: inf
ROOT
ATOM      1  C   UNL A   1      32.029  30.507  26.749  1.00  0.00     0.023 C 
ENDROOT
BRANCH   1   2
ATOM      2  C   UNL A   1      31.719  29.927  25.375  1.00  0.00     0.116 C 
BRANCH   2   3
ATOM      3  N   UNL A   1      32.897  29.707  24.568  1.00  0.00    -0.354 N 
ATOM      4  C   UNL A   1      33.162  28.689  23.693  1.00  0.00     0.245 C 
ATOM      5  O   UNL A   1      34.044  28.906  22.859  1.00  0.00    -0.273 OA
ATOM      6  H   UNL A   1      33.607  30.383  24.661  1.00  0.00     0.163 HD
BRANCH   4   7
ATOM      7  C   UNL A   1      32.258  27.418  23.637  1.00  0.00     0.200 C 
BRANCH   7   8
ATOM      8  N   UNL A   1      32.907  26.300  22.916  1.00  0.00    -0.342 N 
ATOM      9  C   UNL A   1      33.738  25.311  23.357  1.00  0.00     0.226 C 
ATOM     10  O   UNL A   1      34.341  24.646  22.515  1.00  0.00    -0.275 OA
ATOM     11  H   UNL A   1      32.705  26.265  21.953  1.00  0.00     0.164 HD
BRANCH   9  12
ATOM     12  C   UNL A   1      33.927  25.043  24.850  1.00  0.00     0.155 C 
BRANCH  12  13
ATOM     13  C   UNL A   1      32.848  24.177  25.417  1.00  0.00     0.044 A 
ATOM     14  C   UNL A   1      33.420  19.329  24.362  1.00  0.00     0.068 C 
ATOM     15  C   UNL A   1      33.001  20.671  24.827  1.00  0.00     0.057 A 
ATOM     16  C   UNL A   1      33.702  21.864  24.737  1.00  0.00     0.117 A 
ATOM     17  N   UNL A   1      31.770  20.863  25.434  1.00  0.00    -0.224 NA
ATOM     18  N   UNL A   1      32.864  22.800  25.266  1.00  0.00    -0.294 N 
ATOM     19  C   UNL A   1      31.761  22.137  25.711  1.00  0.00     0.194 A 
ATOM     20  S   UNL A   1      30.627  23.227  26.440  1.00  0.00    -0.105 S 
ATOM     21  C   UNL A   1      31.727  24.570  26.061  1.00  0.00     0.091 A 
ENDBRANCH  12  13
ENDBRANCH   9  12
ENDBRANCH   7   8
BRANCH   7  22
ATOM     22  C   UNL A   1      30.872  27.763  23.014  1.00  0.00     0.143 C 
ATOM     23  C   UNL A   1      29.764  26.883  23.582  1.00  0.00     0.041 C 
BRANCH  22  24
ATOM     24  O   UNL A   1      30.860  27.602  21.589  1.00  0.00    -0.391 OA
ATOM     25  H   UNL A   1      30.094  27.065  21.331  1.00  0.00     0.211 HD
ENDBRANCH  22  24
ENDBRANCH   7  22
ENDBRANCH   4   7
ENDBRANCH   2   3
ENDBRANCH   1   2
BRANCH   1  26
ATOM     26  C   UNL A   1      31.701  31.993  26.881  1.00  0.00     0.023 C 
BRANCH  26  27
ATOM     27  C   UNL A   1      32.871  32.884  27.294  1.00  0.00     0.116 C 
BRANCH  27  28
ATOM     28  N   UNL A   1      32.479  34.233  27.675  1.00  0.00    -0.352 N 
ATOM     29  C   UNL A   1      33.013  35.039  28.656  1.00  0.00     0.251 C 
ATOM     30  H   UNL A   1      31.733  34.620  27.164  1.00  0.00     0.163 HD
ATOM     31  O   UNL A   1      32.505  36.119  28.916  1.00  0.00    -0.269 OA
BRANCH  29  32
ATOM     32  C   UNL A   1      34.180  34.559  29.432  1.00  0.00     0.039 A 
ATOM     33  C   UNL A   1      33.963  34.015  30.699  1.00  0.00     0.014 A 
ATOM     34  C   UNL A   1      35.470  34.608  28.899  1.00  0.00     0.014 A 
ATOM     35  C   UNL A   1      35.031  33.448  31.399  1.00  0.00     0.010 A 
ATOM     36  C   UNL A   1      36.517  33.971  29.561  1.00  0.00     0.010 A 
ATOM     37  C   UNL A   1      36.308  33.383  30.817  1.00  0.00    -0.014 A 
BRANCH  37  38
ATOM     38  C   UNL A   1      37.426  32.687  31.509  1.00  0.00     0.031 A 
ATOM     39  C   UNL A   1      38.127  31.531  30.852  1.00  0.00     0.074 A 
ATOM     40  C   UNL A   1      37.773  33.066  32.755  1.00  0.00     0.049 A 
ATOM     41  N   UNL A   1      39.110  30.793  31.307  1.00  0.00    -0.248 NA
ATOM     42  C   UNL A   1      37.645  31.130  29.521  1.00  0.00     0.031 C 
ATOM     43  C   UNL A   1      37.124  34.124  33.531  1.00  0.00     0.029 A 
ATOM     44  N   UNL A   1      38.756  32.599  33.593  1.00  0.00    -0.354 N 
ATOM     45  C   UNL A   1      39.351  29.838  30.328  1.00  0.00     0.074 A 
ATOM     46  C   UNL A   1      38.377  30.053  29.279  1.00  0.00     0.031 C 
ATOM     47  C   UNL A   1      37.743  34.245  34.716  1.00  0.00     0.029 A 
ATOM     48  C   UNL A   1      38.812  33.255  34.799  1.00  0.00     0.049 A 
ATOM     49  H   UNL A   1      39.364  31.863  33.352  1.00  0.00     0.167 HD
ATOM     50  C   UNL A   1      40.313  28.885  30.293  1.00  0.00     0.037 A 
ATOM     51  C   UNL A   1      39.633  33.079  35.851  1.00  0.00     0.037 A 
ATOM     52  C   UNL A   1      41.300  28.693  31.323  1.00  0.00     0.049 A 
ATOM     53  C   UNL A   1      40.714  32.034  35.772  1.00  0.00     0.074 A 
ATOM     54  C   UNL A   1      42.360  27.803  31.348  1.00  0.00     0.029 A 
ATOM     55  N   UNL A   1      41.349  29.404  32.513  1.00  0.00    -0.354 N 
ATOM     56  N   UNL A   1      40.988  31.198  34.801  1.00  0.00    -0.248 NA
ATOM     57  C   UNL A   1      41.612  31.923  36.930  1.00  0.00     0.031 C 
ATOM     58  C   UNL A   1      43.022  27.942  32.571  1.00  0.00     0.029 A 
ATOM     59  C   UNL A   1      42.410  28.958  33.287  1.00  0.00     0.049 A 
ATOM     60  H   UNL A   1      40.723  30.118  32.771  1.00  0.00     0.167 HD
ATOM     61  C   UNL A   1      42.104  30.483  35.216  1.00  0.00     0.074 A 
ATOM     62  C   UNL A   1      42.469  31.000  36.519  1.00  0.00     0.031 C 
ATOM     63  C   UNL A   1      42.765  29.488  34.578  1.00  0.00     0.037 A 
BRANCH  50  64
ATOM     64  C   UNL A   1      40.355  27.980  29.097  1.00  0.00     0.064 A 
ATOM     65  C   UNL A   1      39.620  26.786  29.052  1.00  0.00     0.173 A 
ATOM     66  C   UNL A   1      41.097  28.336  27.960  1.00  0.00     0.173 A 
ATOM     67  F   UNL A   1      38.903  26.394  30.116  1.00  0.00    -0.203 F 
ATOM     68  C   UNL A   1      39.644  25.970  27.924  1.00  0.00     0.198 A 
ATOM     69  C   UNL A   1      41.095  27.534  26.822  1.00  0.00     0.198 A 
ATOM     70  F   UNL A   1      41.813  29.470  27.947  1.00  0.00    -0.203 F 
ATOM     71  F   UNL A   1      38.968  24.813  27.920  1.00  0.00    -0.200 F 
ATOM     72  C   UNL A   1      40.374  26.350  26.806  1.00  0.00     0.200 A 
ATOM     73  F   UNL A   1      41.788  27.908  25.739  1.00  0.00    -0.200 F 
ATOM     74  F   UNL A   1      40.385  25.570  25.717  1.00  0.00    -0.200 F 
ENDBRANCH  50  64
BRANCH  51  75
ATOM     75  C   UNL A   1      39.490  33.932  37.061  1.00  0.00     0.064 A 
ATOM     76  C   UNL A   1      38.770  33.486  38.179  1.00  0.00     0.173 A 
ATOM     77  C   UNL A   1      40.050  35.216  37.117  1.00  0.00     0.173 A 
ATOM     78  F   UNL A   1      38.198  32.273  38.166  1.00  0.00    -0.203 F 
ATOM     79  C   UNL A   1      38.590  34.303  39.293  1.00  0.00     0.198 A 
ATOM     80  C   UNL A   1      39.896  36.021  38.244  1.00  0.00     0.198 A 
ATOM     81  F   UNL A   1      40.754  35.688  36.078  1.00  0.00    -0.203 F 
ATOM     82  F   UNL A   1      37.848  33.873  40.323  1.00  0.00    -0.200 F 
ATOM     83  C   UNL A   1      39.155  35.568  39.326  1.00  0.00     0.200 A 
ATOM     84  F   UNL A   1      40.457  37.236  38.279  1.00  0.00    -0.200 F 
ATOM     85  F   UNL A   1      38.981  36.354  40.397  1.00  0.00    -0.200 F 
ENDBRANCH  51  75
BRANCH  63  86
ATOM     86  C   UNL A   1      43.976  28.920  35.262  1.00  0.00     0.064 A 
ATOM     87  C   UNL A   1      45.266  29.410  35.007  1.00  0.00     0.173 A 
ATOM     88  C   UNL A   1      43.841  27.882  36.197  1.00  0.00     0.173 A 
ATOM     89  F   UNL A   1      45.451  30.391  34.111  1.00  0.00    -0.203 F 
ATOM     90  C   UNL A   1      46.378  28.856  35.636  1.00  0.00     0.198 A 
ATOM     91  C   UNL A   1      44.952  27.355  36.850  1.00  0.00     0.198 A 
ATOM     92  F   UNL A   1      42.629  27.383  36.484  1.00  0.00    -0.203 F 
ATOM     93  F   UNL A   1      47.607  29.299  35.332  1.00  0.00    -0.200 F 
ATOM     94  C   UNL A   1      46.220  27.835  36.560  1.00  0.00     0.200 A 
ATOM     95  F   UNL A   1      44.795  26.378  37.753  1.00  0.00    -0.200 F 
ATOM     96  F   UNL A   1      47.291  27.305  37.165  1.00  0.00    -0.200 F 
ENDBRANCH  63  86
ENDBRANCH  37  38
ENDBRANCH  29  32
ENDBRANCH  27  28
ENDBRANCH  26  27
ENDBRANCH   1  26
TORSDOF 16
ENDMDL
