MODEL 1
REMARK VINA RESULT:     -11.5      0.000      0.000
REMARK SMILES CC[C@@H]1CCCC[C@@]1(O)[C@H](F)C(=O)NCCCCNC(=O)c1ccc(-c2c3nc(c(-c4c(F)c(F)c(F)c(F)c4F)c4ccc([nH]4)c(-c4c(F)c(F)c(F)c(F)c4F)c4nc(c(-c5c(F)c(F)c(F)c(F)c5F)c5ccc2[nH]5)C=C4)C=C3)cc1
REMARK SMILES IDX 16 1 15 2 14 3 12 4 13 5 10 7 11 8 8 9 3 10 4 11 5 12 7 13
REMARK SMILES IDX 6 14 2 15 1 16 9 17 17 19 18 20 19 21 20 22 21 24 22 25
REMARK SMILES IDX 23 26 84 27 24 28 83 29 25 30 26 31 27 32 77 33 28 34 82 35
REMARK SMILES IDX 76 36 78 37 29 38 81 39 75 40 74 41 30 43 62 44 42 45 61 46
REMARK SMILES IDX 43 47 46 48 60 49 79 50 44 51 45 52 59 54 80 55 47 56 31 57
REMARK SMILES IDX 32 58 40 59 33 60 34 61 38 62 41 63 35 64 36 65 39 66 37 67
REMARK SMILES IDX 63 68 64 69 72 70 65 71 66 72 70 73 73 74 67 75 68 76 71 77
REMARK SMILES IDX 69 78 48 79 49 80 57 81 50 82 51 83 55 84 58 85 52 86 53 87
REMARK SMILES IDX 56 88 54 89
REMARK H PARENT 14 6 9 18 19 23 78 42 46 53
REMARK Flexibility Score: inf
ROOT
ATOM      1  C   UNL A   1      31.882  30.292  26.602  1.00  0.00     0.023 C 
ENDROOT
BRANCH   1   2
ATOM      2  C   UNL A   1      31.657  29.632  25.239  1.00  0.00     0.116 C 
BRANCH   2   3
ATOM      3  N   UNL A   1      32.829  29.615  24.376  1.00  0.00    -0.353 N 
ATOM      4  C   UNL A   1      33.170  28.698  23.409  1.00  0.00     0.257 C 
ATOM      5  O   UNL A   1      34.235  28.881  22.811  1.00  0.00    -0.272 OA
ATOM      6  H   UNL A   1      33.460  30.359  24.501  1.00  0.00     0.163 HD
BRANCH   4   7
ATOM      7  C   UNL A   1      32.271  27.493  23.082  1.00  0.00     0.287 C 
ATOM      8  F   UNL A   1      31.598  27.693  21.898  1.00  0.00    -0.234 F 
BRANCH   7   9
ATOM      9  C   UNL A   1      32.880  26.048  23.051  1.00  0.00     0.108 C 
ATOM     10  C   UNL A   1      33.662  25.699  24.356  1.00  0.00     0.024 C 
ATOM     11  C   UNL A   1      32.679  25.350  25.480  1.00  0.00     0.007 C 
ATOM     12  C   UNL A   1      31.742  24.204  25.149  1.00  0.00     0.001 C 
ATOM     13  C   UNL A   1      31.877  24.922  22.703  1.00  0.00     0.039 C 
ATOM     14  C   UNL A   1      30.989  24.440  23.848  1.00  0.00     0.003 C 
BRANCH  10  15
ATOM     15  C   UNL A   1      34.735  24.592  24.174  1.00  0.00     0.003 C 
ATOM     16  C   UNL A   1      35.400  24.161  25.477  1.00  0.00     0.004 C 
ENDBRANCH  10  15
BRANCH   9  17
ATOM     17  O   UNL A   1      33.821  26.086  21.944  1.00  0.00    -0.386 OA
ATOM     18  H   UNL A   1      33.366  25.836  21.123  1.00  0.00     0.211 HD
ENDBRANCH   9  17
ENDBRANCH   7   9
ENDBRANCH   4   7
ENDBRANCH   2   3
ENDBRANCH   1   2
BRANCH   1  19
ATOM     19  C   UNL A   1      31.644  31.803  26.736  1.00  0.00     0.023 C 
BRANCH  19  20
ATOM     20  C   UNL A   1      32.797  32.691  27.199  1.00  0.00     0.116 C 
BRANCH  20  21
ATOM     21  N   UNL A   1      32.414  34.028  27.620  1.00  0.00    -0.352 N 
ATOM     22  C   UNL A   1      32.979  34.866  28.554  1.00  0.00     0.251 C 
ATOM     23  H   UNL A   1      31.623  34.395  27.162  1.00  0.00     0.163 HD
ATOM     24  O   UNL A   1      32.459  35.954  28.794  1.00  0.00    -0.269 OA
BRANCH  22  25
ATOM     25  C   UNL A   1      34.181  34.459  29.318  1.00  0.00     0.039 A 
ATOM     26  C   UNL A   1      34.009  33.933  30.602  1.00  0.00     0.014 A 
ATOM     27  C   UNL A   1      35.467  34.593  28.790  1.00  0.00     0.014 A 
ATOM     28  C   UNL A   1      35.113  33.447  31.312  1.00  0.00     0.010 A 
ATOM     29  C   UNL A   1      36.558  34.049  29.472  1.00  0.00     0.010 A 
ATOM     30  C   UNL A   1      36.391  33.447  30.730  1.00  0.00    -0.014 A 
BRANCH  30  31
ATOM     31  C   UNL A   1      37.539  32.769  31.396  1.00  0.00     0.031 A 
ATOM     32  C   UNL A   1      38.223  31.593  30.756  1.00  0.00     0.074 A 
ATOM     33  C   UNL A   1      37.924  33.172  32.625  1.00  0.00     0.049 A 
ATOM     34  N   UNL A   1      39.191  30.842  31.222  1.00  0.00    -0.248 NA
ATOM     35  C   UNL A   1      37.741  31.191  29.427  1.00  0.00     0.031 C 
ATOM     36  C   UNL A   1      37.315  34.268  33.382  1.00  0.00     0.029 A 
ATOM     37  N   UNL A   1      38.908  32.701  33.461  1.00  0.00    -0.354 N 
ATOM     38  C   UNL A   1      39.424  29.876  30.251  1.00  0.00     0.074 A 
ATOM     39  C   UNL A   1      38.464  30.106  29.193  1.00  0.00     0.031 C 
ATOM     40  C   UNL A   1      37.950  34.399  34.557  1.00  0.00     0.029 A 
ATOM     41  C   UNL A   1      38.981  33.370  34.659  1.00  0.00     0.049 A 
ATOM     42  H   UNL A   1      39.504  31.955  33.223  1.00  0.00     0.167 HD
ATOM     43  C   UNL A   1      40.366  28.901  30.235  1.00  0.00     0.037 A 
ATOM     44  C   UNL A   1      39.777  33.173  35.728  1.00  0.00     0.037 A 
ATOM     45  C   UNL A   1      41.333  28.682  31.282  1.00  0.00     0.049 A 
ATOM     46  C   UNL A   1      40.803  32.071  35.691  1.00  0.00     0.074 A 
ATOM     47  C   UNL A   1      42.364  27.759  31.325  1.00  0.00     0.029 A 
ATOM     48  N   UNL A   1      41.383  29.389  32.475  1.00  0.00    -0.354 N 
ATOM     49  N   UNL A   1      41.063  31.215  34.734  1.00  0.00    -0.248 NA
ATOM     50  C   UNL A   1      41.652  31.915  36.881  1.00  0.00     0.031 C 
ATOM     51  C   UNL A   1      43.000  27.868  32.565  1.00  0.00     0.029 A 
ATOM     52  C   UNL A   1      42.409  28.903  33.272  1.00  0.00     0.049 A 
ATOM     53  H   UNL A   1      40.780  30.127  32.719  1.00  0.00     0.167 HD
ATOM     54  C   UNL A   1      42.122  30.440  35.192  1.00  0.00     0.074 A 
ATOM     55  C   UNL A   1      42.467  30.939  36.506  1.00  0.00     0.031 C 
ATOM     56  C   UNL A   1      42.751  29.410  34.576  1.00  0.00     0.037 A 
BRANCH  43  57
ATOM     57  C   UNL A   1      40.401  27.986  29.043  1.00  0.00     0.064 A 
ATOM     58  C   UNL A   1      39.651  26.801  29.001  1.00  0.00     0.173 A 
ATOM     59  C   UNL A   1      41.156  28.322  27.908  1.00  0.00     0.173 A 
ATOM     60  F   UNL A   1      38.916  26.428  30.060  1.00  0.00    -0.203 F 
ATOM     61  C   UNL A   1      39.680  25.972  27.882  1.00  0.00     0.198 A 
ATOM     62  C   UNL A   1      41.156  27.508  26.779  1.00  0.00     0.198 A 
ATOM     63  F   UNL A   1      41.884  29.449  27.889  1.00  0.00    -0.203 F 
ATOM     64  F   UNL A   1      38.994  24.821  27.885  1.00  0.00    -0.200 F 
ATOM     65  C   UNL A   1      40.426  26.330  26.770  1.00  0.00     0.200 A 
ATOM     66  F   UNL A   1      41.865  27.864  25.698  1.00  0.00    -0.200 F 
ATOM     67  F   UNL A   1      40.445  25.535  25.690  1.00  0.00    -0.200 F 
ENDBRANCH  43  57
BRANCH  44  68
ATOM     68  C   UNL A   1      39.648  34.047  36.926  1.00  0.00     0.064 A 
ATOM     69  C   UNL A   1      40.322  35.275  36.998  1.00  0.00     0.173 A 
ATOM     70  C   UNL A   1      38.864  33.669  38.025  1.00  0.00     0.173 A 
ATOM     71  F   UNL A   1      41.102  35.671  35.982  1.00  0.00    -0.203 F 
ATOM     72  C   UNL A   1      40.234  36.079  38.133  1.00  0.00     0.198 A 
ATOM     73  C   UNL A   1      38.753  34.488  39.147  1.00  0.00     0.198 A 
ATOM     74  F   UNL A   1      38.197  32.505  38.006  1.00  0.00    -0.203 F 
ATOM     75  F   UNL A   1      40.931  37.221  38.196  1.00  0.00    -0.200 F 
ATOM     76  C   UNL A   1      39.446  35.688  39.204  1.00  0.00     0.200 A 
ATOM     77  F   UNL A   1      37.976  34.114  40.173  1.00  0.00    -0.200 F 
ATOM     78  F   UNL A   1      39.360  36.462  40.293  1.00  0.00    -0.200 F 
ENDBRANCH  44  68
BRANCH  56  79
ATOM     79  C   UNL A   1      43.905  28.773  35.297  1.00  0.00     0.064 A 
ATOM     80  C   UNL A   1      43.728  27.681  36.161  1.00  0.00     0.173 A 
ATOM     81  C   UNL A   1      45.213  29.239  35.092  1.00  0.00     0.173 A 
ATOM     82  F   UNL A   1      42.497  27.206  36.404  1.00  0.00    -0.203 F 
ATOM     83  C   UNL A   1      44.813  27.099  36.812  1.00  0.00     0.198 A 
ATOM     84  C   UNL A   1      46.299  28.633  35.719  1.00  0.00     0.198 A 
ATOM     85  F   UNL A   1      45.441  30.277  34.271  1.00  0.00    -0.203 F 
ATOM     86  F   UNL A   1      44.613  26.091  37.672  1.00  0.00    -0.200 F 
ATOM     87  C   UNL A   1      46.097  27.570  36.584  1.00  0.00     0.200 A 
ATOM     88  F   UNL A   1      47.541  29.080  35.485  1.00  0.00    -0.200 F 
ATOM     89  F   UNL A   1      47.141  27.002  37.205  1.00  0.00    -0.200 F 
ENDBRANCH  56  79
ENDBRANCH  30  31
ENDBRANCH  22  25
ENDBRANCH  20  21
ENDBRANCH  19  20
ENDBRANCH   1  19
TORSDOF 14
ENDMDL
MODEL 2
REMARK VINA RESULT:     -11.5      6.044     11.383
REMARK SMILES CC[C@@H]1CCCC[C@@]1(O)[C@H](F)C(=O)NCCCCNC(=O)c1ccc(-c2c3nc(c(-c4c(F)c(F)c(F)c(F)c4F)c4ccc([nH]4)c(-c4c(F)c(F)c(F)c(F)c4F)c4nc(c(-c5c(F)c(F)c(F)c(F)c5F)c5ccc2[nH]5)C=C4)C=C3)cc1
REMARK SMILES IDX 16 1 15 2 14 3 12 4 13 5 10 7 11 8 8 9 3 10 4 11 5 12 7 13
REMARK SMILES IDX 6 14 2 15 1 16 9 17 17 19 18 20 19 21 20 22 21 24 22 25
REMARK SMILES IDX 23 26 84 27 24 28 83 29 25 30 26 31 27 32 77 33 28 34 82 35
REMARK SMILES IDX 76 36 78 37 29 38 81 39 75 40 74 41 30 43 62 44 42 45 61 46
REMARK SMILES IDX 43 47 46 48 60 49 79 50 44 51 45 52 59 54 80 55 47 56 31 57
REMARK SMILES IDX 32 58 40 59 33 60 34 61 38 62 41 63 35 64 36 65 39 66 37 67
REMARK SMILES IDX 63 68 64 69 72 70 65 71 66 72 70 73 73 74 67 75 68 76 71 77
REMARK SMILES IDX 69 78 48 79 49 80 57 81 50 82 51 83 55 84 58 85 52 86 53 87
REMARK SMILES IDX 56 88 54 89
REMARK H PARENT 14 6 9 18 19 23 78 42 46 53
REMARK Flexibility Score: inf
ROOT
ATOM      1  C   UNL A   1      36.809  21.076  24.842  1.00  0.00     0.023 C 
ENDROOT
BRANCH   1   2
ATOM      2  C   UNL A   1      35.373  20.775  25.279  1.00  0.00     0.116 C 
BRANCH   2   3
ATOM      3  N   UNL A   1      35.009  21.326  26.576  1.00  0.00    -0.353 N 
ATOM      4  C   UNL A   1      33.901  22.069  26.914  1.00  0.00     0.257 C 
ATOM      5  O   UNL A   1      33.815  22.449  28.085  1.00  0.00    -0.272 OA
ATOM      6  H   UNL A   1      35.639  21.143  27.309  1.00  0.00     0.163 HD
BRANCH   4   7
ATOM      7  C   UNL A   1      32.815  22.417  25.882  1.00  0.00     0.287 C 
ATOM      8  F   UNL A   1      31.850  21.437  25.839  1.00  0.00    -0.234 F 
BRANCH   7   9
ATOM      9  C   UNL A   1      32.087  23.806  25.950  1.00  0.00     0.108 C 
ATOM     10  C   UNL A   1      33.045  24.999  25.644  1.00  0.00     0.024 C 
ATOM     11  C   UNL A   1      33.285  25.106  24.133  1.00  0.00     0.007 C 
ATOM     12  C   UNL A   1      32.018  25.272  23.315  1.00  0.00     0.001 C 
ATOM     13  C   UNL A   1      30.799  23.911  25.099  1.00  0.00     0.039 C 
ATOM     14  C   UNL A   1      31.001  24.177  23.609  1.00  0.00     0.003 C 
BRANCH  10  15
ATOM     15  C   UNL A   1      32.579  26.353  26.243  1.00  0.00     0.003 C 
ATOM     16  C   UNL A   1      33.648  27.441  26.206  1.00  0.00     0.004 C 
ENDBRANCH  10  15
BRANCH   9  17
ATOM     17  O   UNL A   1      31.649  23.906  27.332  1.00  0.00    -0.386 OA
ATOM     18  H   UNL A   1      30.856  23.360  27.461  1.00  0.00     0.211 HD
ENDBRANCH   9  17
ENDBRANCH   7   9
ENDBRANCH   4   7
ENDBRANCH   2   3
ENDBRANCH   1   2
BRANCH   1  19
ATOM     19  C   UNL A   1      37.869  19.975  24.991  1.00  0.00     0.023 C 
BRANCH  19  20
ATOM     20  C   UNL A   1      39.148  20.286  25.766  1.00  0.00     0.116 C 
BRANCH  20  21
ATOM     21  N   UNL A   1      40.125  19.211  25.799  1.00  0.00    -0.352 N 
ATOM     22  C   UNL A   1      41.472  19.236  26.082  1.00  0.00     0.251 C 
ATOM     23  H   UNL A   1      39.766  18.319  25.584  1.00  0.00     0.163 HD
ATOM     24  O   UNL A   1      42.132  18.203  26.004  1.00  0.00    -0.269 OA
BRANCH  22  25
ATOM     25  C   UNL A   1      42.154  20.503  26.434  1.00  0.00     0.039 A 
ATOM     26  C   UNL A   1      42.712  21.268  25.404  1.00  0.00     0.014 A 
ATOM     27  C   UNL A   1      42.255  20.940  27.756  1.00  0.00     0.014 A 
ATOM     28  C   UNL A   1      43.276  22.517  25.688  1.00  0.00     0.010 A 
ATOM     29  C   UNL A   1      42.760  22.214  28.030  1.00  0.00     0.010 A 
ATOM     30  C   UNL A   1      43.254  23.028  26.997  1.00  0.00    -0.014 A 
BRANCH  30  31
ATOM     31  C   UNL A   1      43.683  24.427  27.282  1.00  0.00     0.031 A 
ATOM     32  C   UNL A   1      42.701  25.453  27.776  1.00  0.00     0.074 A 
ATOM     33  C   UNL A   1      44.956  24.794  27.026  1.00  0.00     0.049 A 
ATOM     34  N   UNL A   1      42.885  26.730  28.011  1.00  0.00    -0.248 NA
ATOM     35  C   UNL A   1      41.326  24.993  28.013  1.00  0.00     0.031 C 
ATOM     36  C   UNL A   1      45.998  23.911  26.499  1.00  0.00     0.029 A 
ATOM     37  N   UNL A   1      45.588  26.007  27.160  1.00  0.00    -0.354 N 
ATOM     38  C   UNL A   1      41.651  27.224  28.413  1.00  0.00     0.074 A 
ATOM     39  C   UNL A   1      40.715  26.122  28.341  1.00  0.00     0.031 C 
ATOM     40  C   UNL A   1      47.141  24.604  26.375  1.00  0.00     0.029 A 
ATOM     41  C   UNL A   1      46.905  25.989  26.770  1.00  0.00     0.049 A 
ATOM     42  H   UNL A   1      45.138  26.812  27.504  1.00  0.00     0.167 HD
ATOM     43  C   UNL A   1      41.331  28.476  28.823  1.00  0.00     0.037 A 
ATOM     44  C   UNL A   1      47.820  26.977  26.721  1.00  0.00     0.037 A 
ATOM     45  C   UNL A   1      42.267  29.570  28.909  1.00  0.00     0.049 A 
ATOM     46  C   UNL A   1      47.435  28.363  27.166  1.00  0.00     0.074 A 
ATOM     47  C   UNL A   1      42.049  30.857  29.372  1.00  0.00     0.029 A 
ATOM     48  N   UNL A   1      43.596  29.509  28.516  1.00  0.00    -0.354 N 
ATOM     49  N   UNL A   1      46.283  28.797  27.616  1.00  0.00    -0.248 NA
ATOM     50  C   UNL A   1      48.480  29.394  27.102  1.00  0.00     0.031 C 
ATOM     51  C   UNL A   1      43.228  31.589  29.205  1.00  0.00     0.029 A 
ATOM     52  C   UNL A   1      44.202  30.743  28.699  1.00  0.00     0.049 A 
ATOM     53  H   UNL A   1      44.044  28.707  28.161  1.00  0.00     0.167 HD
ATOM     54  C   UNL A   1      46.473  30.140  27.917  1.00  0.00     0.074 A 
ATOM     55  C   UNL A   1      47.855  30.445  27.614  1.00  0.00     0.031 C 
ATOM     56  C   UNL A   1      45.581  31.037  28.402  1.00  0.00     0.037 A 
BRANCH  43  57
ATOM     57  C   UNL A   1      39.904  28.740  29.212  1.00  0.00     0.064 A 
ATOM     58  C   UNL A   1      38.956  29.188  28.279  1.00  0.00     0.173 A 
ATOM     59  C   UNL A   1      39.466  28.493  30.523  1.00  0.00     0.173 A 
ATOM     60  F   UNL A   1      39.323  29.445  27.014  1.00  0.00    -0.203 F 
ATOM     61  C   UNL A   1      37.633  29.411  28.651  1.00  0.00     0.198 A 
ATOM     62  C   UNL A   1      38.134  28.685  30.882  1.00  0.00     0.198 A 
ATOM     63  F   UNL A   1      40.325  28.053  31.452  1.00  0.00    -0.203 F 
ATOM     64  F   UNL A   1      36.758  29.887  27.754  1.00  0.00    -0.200 F 
ATOM     65  C   UNL A   1      37.221  29.152  29.949  1.00  0.00     0.200 A 
ATOM     66  F   UNL A   1      37.734  28.417  32.133  1.00  0.00    -0.200 F 
ATOM     67  F   UNL A   1      35.944  29.357  30.302  1.00  0.00    -0.200 F 
ENDBRANCH  43  57
BRANCH  44  68
ATOM     68  C   UNL A   1      49.201  26.692  26.243  1.00  0.00     0.064 A 
ATOM     69  C   UNL A   1      50.176  26.186  27.117  1.00  0.00     0.173 A 
ATOM     70  C   UNL A   1      49.578  26.931  24.914  1.00  0.00     0.173 A 
ATOM     71  F   UNL A   1      49.871  25.962  28.402  1.00  0.00    -0.203 F 
ATOM     72  C   UNL A   1      51.479  25.954  26.683  1.00  0.00     0.198 A 
ATOM     73  C   UNL A   1      50.874  26.668  24.474  1.00  0.00     0.198 A 
ATOM     74  F   UNL A   1      48.683  27.411  24.038  1.00  0.00    -0.203 F 
ATOM     75  F   UNL A   1      52.404  25.522  27.551  1.00  0.00    -0.200 F 
ATOM     76  C   UNL A   1      51.827  26.190  25.361  1.00  0.00     0.200 A 
ATOM     77  F   UNL A   1      51.200  26.882  23.192  1.00  0.00    -0.200 F 
ATOM     78  F   UNL A   1      53.079  25.963  24.945  1.00  0.00    -0.200 F 
ENDBRANCH  44  68
BRANCH  56  79
ATOM     79  C   UNL A   1      46.078  32.429  28.676  1.00  0.00     0.064 A 
ATOM     80  C   UNL A   1      46.008  33.444  27.710  1.00  0.00     0.173 A 
ATOM     81  C   UNL A   1      46.598  32.760  29.937  1.00  0.00     0.173 A 
ATOM     82  F   UNL A   1      45.533  33.177  26.484  1.00  0.00    -0.203 F 
ATOM     83  C   UNL A   1      46.464  34.730  27.988  1.00  0.00     0.198 A 
ATOM     84  C   UNL A   1      47.022  34.056  30.222  1.00  0.00     0.198 A 
ATOM     85  F   UNL A   1      46.682  31.830  30.901  1.00  0.00    -0.203 F 
ATOM     86  F   UNL A   1      46.436  35.670  27.033  1.00  0.00    -0.200 F 
ATOM     87  C   UNL A   1      46.964  35.037  29.245  1.00  0.00     0.200 A 
ATOM     88  F   UNL A   1      47.490  34.353  31.442  1.00  0.00    -0.200 F 
ATOM     89  F   UNL A   1      47.395  36.277  29.513  1.00  0.00    -0.200 F 
ENDBRANCH  56  79
ENDBRANCH  30  31
ENDBRANCH  22  25
ENDBRANCH  20  21
ENDBRANCH  19  20
ENDBRANCH   1  19
TORSDOF 14
ENDMDL
MODEL 3
REMARK VINA RESULT:     -11.5      0.651      2.135
REMARK SMILES CC[C@@H]1CCCC[C@@]1(O)[C@H](F)C(=O)NCCCCNC(=O)c1ccc(-c2c3nc(c(-c4c(F)c(F)c(F)c(F)c4F)c4ccc([nH]4)c(-c4c(F)c(F)c(F)c(F)c4F)c4nc(c(-c5c(F)c(F)c(F)c(F)c5F)c5ccc2[nH]5)C=C4)C=C3)cc1
REMARK SMILES IDX 16 1 15 2 14 3 12 4 13 5 10 7 11 8 8 9 3 10 4 11 5 12 7 13
REMARK SMILES IDX 6 14 2 15 1 16 9 17 17 19 18 20 19 21 20 22 21 24 22 25
REMARK SMILES IDX 23 26 84 27 24 28 83 29 25 30 26 31 27 32 77 33 28 34 82 35
REMARK SMILES IDX 76 36 78 37 29 38 81 39 75 40 74 41 30 43 62 44 42 45 61 46
REMARK SMILES IDX 43 47 46 48 60 49 79 50 44 51 45 52 59 54 80 55 47 56 31 57
REMARK SMILES IDX 32 58 40 59 33 60 34 61 38 62 41 63 35 64 36 65 39 66 37 67
REMARK SMILES IDX 63 68 64 69 72 70 65 71 66 72 70 73 73 74 67 75 68 76 71 77
REMARK SMILES IDX 69 78 48 79 49 80 57 81 50 82 51 83 55 84 58 85 52 86 53 87
REMARK SMILES IDX 56 88 54 89
REMARK H PARENT 14 6 9 18 19 23 78 42 46 53
REMARK Flexibility Score: inf
ROOT
ATOM      1  C   UNL A   1      31.683  30.472  26.403  1.00  0.00     0.023 C 
ENDROOT
BRANCH   1   2
ATOM      2  C   UNL A   1      33.031  29.883  25.977  1.00  0.00     0.116 C 
BRANCH   2   3
ATOM      3  N   UNL A   1      33.184  29.704  24.541  1.00  0.00    -0.353 N 
ATOM      4  C   UNL A   1      32.555  28.799  23.717  1.00  0.00     0.257 C 
ATOM      5  O   UNL A   1      32.863  28.818  22.522  1.00  0.00    -0.272 OA
ATOM      6  H   UNL A   1      33.821  30.311  24.101  1.00  0.00     0.163 HD
BRANCH   4   7
ATOM      7  C   UNL A   1      31.516  27.800  24.254  1.00  0.00     0.287 C 
ATOM      8  F   UNL A   1      30.239  28.208  23.943  1.00  0.00    -0.234 F 
BRANCH   7   9
ATOM      9  C   UNL A   1      31.635  26.277  23.897  1.00  0.00     0.108 C 
ATOM     10  C   UNL A   1      33.063  25.708  24.166  1.00  0.00     0.024 C 
ATOM     11  C   UNL A   1      33.253  25.454  25.666  1.00  0.00     0.007 C 
ATOM     12  C   UNL A   1      32.228  24.512  26.269  1.00  0.00     0.001 C 
ATOM     13  C   UNL A   1      30.559  25.368  24.537  1.00  0.00     0.039 C 
ATOM     14  C   UNL A   1      30.802  24.966  25.990  1.00  0.00     0.003 C 
BRANCH  10  15
ATOM     15  C   UNL A   1      33.411  24.449  23.328  1.00  0.00     0.003 C 
ATOM     16  C   UNL A   1      34.781  23.858  23.646  1.00  0.00     0.004 C 
ENDBRANCH  10  15
BRANCH   9  17
ATOM     17  O   UNL A   1      31.381  26.232  22.466  1.00  0.00    -0.386 OA
ATOM     18  H   UNL A   1      30.555  25.750  22.299  1.00  0.00     0.211 HD
ENDBRANCH   9  17
ENDBRANCH   7   9
ENDBRANCH   4   7
ENDBRANCH   2   3
ENDBRANCH   1   2
BRANCH   1  19
ATOM     19  C   UNL A   1      31.563  31.994  26.564  1.00  0.00     0.023 C 
BRANCH  19  20
ATOM     20  C   UNL A   1      32.701  32.754  27.242  1.00  0.00     0.116 C 
BRANCH  20  21
ATOM     21  N   UNL A   1      32.384  34.118  27.631  1.00  0.00    -0.352 N 
ATOM     22  C   UNL A   1      32.999  34.954  28.535  1.00  0.00     0.251 C 
ATOM     23  H   UNL A   1      31.603  34.508  27.175  1.00  0.00     0.163 HD
ATOM     24  O   UNL A   1      32.532  36.070  28.752  1.00  0.00    -0.269 OA
BRANCH  22  25
ATOM     25  C   UNL A   1      34.194  34.514  29.292  1.00  0.00     0.039 A 
ATOM     26  C   UNL A   1      34.018  34.031  30.593  1.00  0.00     0.014 A 
ATOM     27  C   UNL A   1      35.476  34.576  28.743  1.00  0.00     0.014 A 
ATOM     28  C   UNL A   1      35.109  33.514  31.301  1.00  0.00     0.010 A 
ATOM     29  C   UNL A   1      36.552  34.001  29.424  1.00  0.00     0.010 A 
ATOM     30  C   UNL A   1      36.378  33.441  30.701  1.00  0.00    -0.014 A 
BRANCH  30  31
ATOM     31  C   UNL A   1      37.504  32.730  31.369  1.00  0.00     0.031 A 
ATOM     32  C   UNL A   1      38.182  31.560  30.711  1.00  0.00     0.074 A 
ATOM     33  C   UNL A   1      37.873  33.097  32.614  1.00  0.00     0.049 A 
ATOM     34  N   UNL A   1      39.130  30.784  31.175  1.00  0.00    -0.248 NA
ATOM     35  C   UNL A   1      37.717  31.198  29.365  1.00  0.00     0.031 C 
ATOM     36  C   UNL A   1      37.267  34.183  33.388  1.00  0.00     0.029 A 
ATOM     37  N   UNL A   1      38.835  32.591  33.455  1.00  0.00    -0.354 N 
ATOM     38  C   UNL A   1      39.367  29.839  30.185  1.00  0.00     0.074 A 
ATOM     39  C   UNL A   1      38.429  30.109  29.116  1.00  0.00     0.031 C 
ATOM     40  C   UNL A   1      37.883  34.275  34.576  1.00  0.00     0.029 A 
ATOM     41  C   UNL A   1      38.897  33.229  34.670  1.00  0.00     0.049 A 
ATOM     42  H   UNL A   1      39.425  31.843  33.208  1.00  0.00     0.167 HD
ATOM     43  C   UNL A   1      40.295  28.851  30.160  1.00  0.00     0.037 A 
ATOM     44  C   UNL A   1      39.672  32.994  35.747  1.00  0.00     0.037 A 
ATOM     45  C   UNL A   1      41.240  28.592  31.218  1.00  0.00     0.049 A 
ATOM     46  C   UNL A   1      40.683  31.879  35.700  1.00  0.00     0.074 A 
ATOM     47  C   UNL A   1      42.257  27.653  31.255  1.00  0.00     0.029 A 
ATOM     48  N   UNL A   1      41.280  29.269  32.428  1.00  0.00    -0.354 N 
ATOM     49  N   UNL A   1      40.947  31.042  34.726  1.00  0.00    -0.248 NA
ATOM     50  C   UNL A   1      41.508  31.681  36.900  1.00  0.00     0.031 C 
ATOM     51  C   UNL A   1      42.873  27.723  32.508  1.00  0.00     0.029 A 
ATOM     52  C   UNL A   1      42.285  28.748  33.230  1.00  0.00     0.049 A 
ATOM     53  H   UNL A   1      40.683  30.010  32.681  1.00  0.00     0.167 HD
ATOM     54  C   UNL A   1      41.987  30.242  35.183  1.00  0.00     0.074 A 
ATOM     55  C   UNL A   1      42.316  30.703  36.515  1.00  0.00     0.031 C 
ATOM     56  C   UNL A   1      42.611  29.217  34.553  1.00  0.00     0.037 A 
BRANCH  43  57
ATOM     57  C   UNL A   1      40.338  27.965  28.946  1.00  0.00     0.064 A 
ATOM     58  C   UNL A   1      41.109  28.294  27.820  1.00  0.00     0.173 A 
ATOM     59  C   UNL A   1      39.639  26.748  28.929  1.00  0.00     0.173 A 
ATOM     60  F   UNL A   1      41.791  29.447  27.783  1.00  0.00    -0.203 F 
ATOM     61  C   UNL A   1      41.152  27.453  26.711  1.00  0.00     0.198 A 
ATOM     62  C   UNL A   1      39.712  25.894  27.830  1.00  0.00     0.198 A 
ATOM     63  F   UNL A   1      38.896  26.378  29.981  1.00  0.00    -0.203 F 
ATOM     64  F   UNL A   1      41.855  27.812  25.628  1.00  0.00    -0.200 F 
ATOM     65  C   UNL A   1      40.460  26.251  26.720  1.00  0.00     0.200 A 
ATOM     66  F   UNL A   1      39.057  24.725  27.848  1.00  0.00    -0.200 F 
ATOM     67  F   UNL A   1      40.512  25.439  25.654  1.00  0.00    -0.200 F 
ENDBRANCH  43  57
BRANCH  44  68
ATOM     68  C   UNL A   1      39.535  33.840  36.964  1.00  0.00     0.064 A 
ATOM     69  C   UNL A   1      38.748  33.422  38.048  1.00  0.00     0.173 A 
ATOM     70  C   UNL A   1      40.174  35.084  37.065  1.00  0.00     0.173 A 
ATOM     71  F   UNL A   1      38.099  32.251  37.991  1.00  0.00    -0.203 F 
ATOM     72  C   UNL A   1      38.587  34.228  39.173  1.00  0.00     0.198 A 
ATOM     73  C   UNL A   1      40.037  35.875  38.204  1.00  0.00     0.198 A 
ATOM     74  F   UNL A   1      40.942  35.528  36.058  1.00  0.00    -0.203 F 
ATOM     75  F   UNL A   1      37.785  33.829  40.170  1.00  0.00    -0.200 F 
ATOM     76  C   UNL A   1      39.235  35.451  39.253  1.00  0.00     0.200 A 
ATOM     77  F   UNL A   1      40.680  37.048  38.284  1.00  0.00    -0.200 F 
ATOM     78  F   UNL A   1      39.082  36.223  40.336  1.00  0.00    -0.200 F 
ENDBRANCH  44  68
BRANCH  56  79
ATOM     79  C   UNL A   1      43.744  28.546  35.277  1.00  0.00     0.064 A 
ATOM     80  C   UNL A   1      45.068  28.991  35.156  1.00  0.00     0.173 A 
ATOM     81  C   UNL A   1      43.493  27.463  36.134  1.00  0.00     0.173 A 
ATOM     82  F   UNL A   1      45.365  30.014  34.338  1.00  0.00    -0.203 F 
ATOM     83  C   UNL A   1      46.102  28.361  35.844  1.00  0.00     0.198 A 
ATOM     84  C   UNL A   1      44.525  26.856  36.846  1.00  0.00     0.198 A 
ATOM     85  F   UNL A   1      42.244  26.999  36.292  1.00  0.00    -0.203 F 
ATOM     86  F   UNL A   1      47.366  28.771  35.672  1.00  0.00    -0.200 F 
ATOM     87  C   UNL A   1      45.829  27.300  36.694  1.00  0.00     0.200 A 
ATOM     88  F   UNL A   1      44.256  25.841  37.678  1.00  0.00    -0.200 F 
ATOM     89  F   UNL A   1      46.825  26.700  37.362  1.00  0.00    -0.200 F 
ENDBRANCH  56  79
ENDBRANCH  30  31
ENDBRANCH  22  25
ENDBRANCH  20  21
ENDBRANCH  19  20
ENDBRANCH   1  19
TORSDOF 14
ENDMDL
