MODEL 1
REMARK VINA RESULT:     -13.2      0.000      0.000
REMARK SMILES NS(=O)(=O)c1ccc(-n2nc(C(=O)NCCCC(=O)NCCCCNC(=O)c3ccc(-c4c5nc(c(-c6c(F)c(F)c(F)c(F)c6F)c6ccc([nH]6)c(-c6c(F)c(F)c(F)c(F)c6F)c6nc(c(-c7c(F)c(F)c(F)c(F)c7F)c7ccc4[nH]7)C=C6)C=C5)cc3)cc2-c2ccccc2)cc1
REMARK SMILES IDX 18 1 19 2 20 3 17 5 16 6 15 7 14 8 12 9 13 10 11 12 9 13
REMARK SMILES IDX 10 14 92 15 91 16 8 17 5 18 6 19 100 20 7 21 99 22 2 23 3 24
REMARK SMILES IDX 4 25 1 26 93 29 94 30 98 31 95 32 97 33 96 34 21 35 22 36
REMARK SMILES IDX 23 37 24 38 25 39 26 40 27 42 28 43 29 44 90 45 30 46 89 47
REMARK SMILES IDX 31 48 32 49 33 50 83 51 34 52 88 53 82 54 84 55 35 56 87 57
REMARK SMILES IDX 81 58 80 59 36 61 68 62 48 63 67 64 49 65 52 66 66 67 85 68
REMARK SMILES IDX 50 69 51 70 65 72 86 73 53 74 37 75 38 76 46 77 39 78 40 79
REMARK SMILES IDX 44 80 47 81 41 82 42 83 45 84 43 85 69 86 70 87 78 88 71 89
REMARK SMILES IDX 72 90 76 91 79 92 73 93 74 94 77 95 75 96 54 97 55 98 63 99
REMARK SMILES IDX 56 100 57 101 61 102 64 103 58 104 59 105 62 106 60 107
REMARK H PARENT 20 4 14 11 1 27 1 28 25 41 84 60 52 71
REMARK Flexibility Score: inf
ROOT
ATOM      1  C   UNL A   1      32.005  27.904  27.272  1.00  0.00     0.220 C 
ATOM      2  O   UNL A   1      31.017  27.883  28.008  1.00  0.00    -0.275 OA
ATOM      3  N   UNL A   1      33.045  28.708  27.626  1.00  0.00    -0.356 N 
ATOM      4  H   UNL A   1      32.943  29.149  28.500  1.00  0.00     0.163 HD
ENDROOT
BRANCH   1   5
ATOM      5  C   UNL A   1      32.057  27.047  26.023  1.00  0.00     0.102 C 
BRANCH   5   6
ATOM      6  C   UNL A   1      30.814  27.152  25.137  1.00  0.00     0.031 C 
BRANCH   6   7
ATOM      7  C   UNL A   1      30.113  25.832  24.834  1.00  0.00     0.116 C 
BRANCH   7   8
ATOM      8  N   UNL A   1      29.531  25.192  25.997  1.00  0.00    -0.351 N 
ATOM      9  C   UNL A   1      29.903  24.043  26.666  1.00  0.00     0.271 C 
ATOM     10  O   UNL A   1      29.203  23.716  27.626  1.00  0.00    -0.267 OA
ATOM     11  H   UNL A   1      28.743  25.650  26.370  1.00  0.00     0.163 HD
BRANCH   9  12
ATOM     12  C   UNL A   1      31.077  23.262  26.228  1.00  0.00     0.151 A 
ATOM     13  N   UNL A   1      32.189  21.580  25.485  1.00  0.00    -0.232 N 
ATOM     14  N   UNL A   1      30.930  22.025  25.707  1.00  0.00    -0.162 NA
ATOM     15  C   UNL A   1      33.116  22.608  25.597  1.00  0.00     0.075 A 
ATOM     16  C   UNL A   1      32.446  23.624  26.239  1.00  0.00     0.065 A 
BRANCH  13  17
ATOM     17  C   UNL A   1      32.453  20.221  25.162  1.00  0.00     0.065 A 
ATOM     18  C   UNL A   1      33.192  17.601  24.578  1.00  0.00     0.082 A 
ATOM     19  C   UNL A   1      32.990  17.976  25.906  1.00  0.00     0.024 A 
ATOM     20  C   UNL A   1      32.979  18.511  23.535  1.00  0.00     0.024 A 
ATOM     21  C   UNL A   1      32.627  19.287  26.197  1.00  0.00     0.030 A 
ATOM     22  C   UNL A   1      32.578  19.821  23.827  1.00  0.00     0.030 A 
BRANCH  18  23
ATOM     23  S   UNL A   1      33.785  15.973  24.227  1.00  0.00     0.238 S 
ATOM     24  O   UNL A   1      34.174  15.899  22.839  1.00  0.00    -0.207 OA
ATOM     25  O   UNL A   1      32.903  15.017  24.852  1.00  0.00    -0.207 OA
BRANCH  23  26
ATOM     26  N   UNL A   1      35.232  15.903  25.087  1.00  0.00    -0.225 NA
ATOM     27  H   UNL A   1      35.428  16.816  25.498  1.00  0.00     0.137 HD
ATOM     28  H   UNL A   1      35.990  15.643  24.458  1.00  0.00     0.137 HD
ENDBRANCH  23  26
ENDBRANCH  18  23
ENDBRANCH  13  17
BRANCH  15  29
ATOM     29  C   UNL A   1      34.454  22.619  25.009  1.00  0.00     0.000 A 
ATOM     30  C   UNL A   1      35.559  22.249  25.792  1.00  0.00     0.010 A 
ATOM     31  C   UNL A   1      34.649  22.958  23.668  1.00  0.00     0.010 A 
ATOM     32  C   UNL A   1      36.843  22.250  25.250  1.00  0.00     0.001 A 
ATOM     33  C   UNL A   1      35.937  22.959  23.127  1.00  0.00     0.001 A 
ATOM     34  C   UNL A   1      37.032  22.608  23.918  1.00  0.00     0.000 A 
ENDBRANCH  15  29
ENDBRANCH   9  12
ENDBRANCH   7   8
ENDBRANCH   6   7
ENDBRANCH   5   6
ENDBRANCH   1   5
BRANCH   3  35
ATOM     35  C   UNL A   1      34.280  29.027  26.930  1.00  0.00     0.116 C 
BRANCH  35  36
ATOM     36  C   UNL A   1      34.876  30.348  27.428  1.00  0.00     0.023 C 
BRANCH  36  37
ATOM     37  C   UNL A   1      33.874  31.372  27.972  1.00  0.00     0.023 C 
BRANCH  37  38
ATOM     38  C   UNL A   1      34.498  32.667  28.475  1.00  0.00     0.116 C 
BRANCH  38  39
ATOM     39  N   UNL A   1      34.465  32.787  29.931  1.00  0.00    -0.352 N 
ATOM     40  C   UNL A   1      35.189  32.056  30.850  1.00  0.00     0.251 C 
ATOM     41  H   UNL A   1      33.855  33.467  30.299  1.00  0.00     0.163 HD
ATOM     42  O   UNL A   1      34.825  31.946  32.013  1.00  0.00    -0.269 OA
BRANCH  40  43
ATOM     43  C   UNL A   1      36.417  31.392  30.385  1.00  0.00     0.039 A 
ATOM     44  C   UNL A   1      37.561  32.138  30.098  1.00  0.00     0.014 A 
ATOM     45  C   UNL A   1      36.432  29.999  30.358  1.00  0.00     0.014 A 
ATOM     46  C   UNL A   1      38.762  31.466  29.893  1.00  0.00     0.010 A 
ATOM     47  C   UNL A   1      37.639  29.343  30.260  1.00  0.00     0.010 A 
ATOM     48  C   UNL A   1      38.808  30.066  30.014  1.00  0.00    -0.014 A 
BRANCH  48  49
ATOM     49  C   UNL A   1      40.105  29.385  30.049  1.00  0.00     0.031 A 
ATOM     50  C   UNL A   1      40.693  29.192  31.407  1.00  0.00     0.074 A 
ATOM     51  C   UNL A   1      40.646  28.752  28.986  1.00  0.00     0.049 A 
ATOM     52  N   UNL A   1      41.816  29.648  31.859  1.00  0.00    -0.248 NA
ATOM     53  C   UNL A   1      39.900  28.470  32.415  1.00  0.00     0.031 C 
ATOM     54  C   UNL A   1      40.049  28.566  27.659  1.00  0.00     0.029 A 
ATOM     55  N   UNL A   1      41.798  28.024  28.906  1.00  0.00    -0.354 N 
ATOM     56  C   UNL A   1      41.963  29.123  33.143  1.00  0.00     0.074 A 
ATOM     57  C   UNL A   1      40.694  28.541  33.487  1.00  0.00     0.031 C 
ATOM     58  C   UNL A   1      40.708  27.589  27.002  1.00  0.00     0.029 A 
ATOM     59  C   UNL A   1      41.873  27.214  27.781  1.00  0.00     0.049 A 
ATOM     60  H   UNL A   1      42.510  28.068  29.585  1.00  0.00     0.167 HD
ATOM     61  C   UNL A   1      43.198  28.991  33.704  1.00  0.00     0.037 A 
ATOM     62  C   UNL A   1      42.812  26.280  27.503  1.00  0.00     0.037 A 
ATOM     63  C   UNL A   1      44.170  29.785  32.993  1.00  0.00     0.049 A 
ATOM     64  C   UNL A   1      44.015  26.609  28.296  1.00  0.00     0.074 A 
ATOM     65  C   UNL A   1      44.389  31.125  32.758  1.00  0.00     0.029 A 
ATOM     66  N   UNL A   1      44.946  29.101  32.096  1.00  0.00    -0.354 N 
ATOM     67  N   UNL A   1      44.755  27.664  28.095  1.00  0.00    -0.248 NA
ATOM     68  C   UNL A   1      44.241  25.922  29.559  1.00  0.00     0.031 C 
ATOM     69  C   UNL A   1      45.014  31.189  31.474  1.00  0.00     0.029 A 
ATOM     70  C   UNL A   1      45.182  29.887  31.004  1.00  0.00     0.049 A 
ATOM     71  H   UNL A   1      45.283  28.185  32.219  1.00  0.00     0.167 HD
ATOM     72  C   UNL A   1      45.193  28.022  29.356  1.00  0.00     0.074 A 
ATOM     73  C   UNL A   1      45.010  26.826  30.170  1.00  0.00     0.031 C 
ATOM     74  C   UNL A   1      45.363  29.337  29.679  1.00  0.00     0.037 A 
BRANCH  61  75
ATOM     75  C   UNL A   1      43.650  27.808  34.553  1.00  0.00     0.064 A 
ATOM     76  C   UNL A   1      43.454  26.503  34.044  1.00  0.00     0.173 A 
ATOM     77  C   UNL A   1      43.898  27.878  35.940  1.00  0.00     0.173 A 
ATOM     78  F   UNL A   1      43.223  26.305  32.736  1.00  0.00    -0.203 F 
ATOM     79  C   UNL A   1      43.364  25.384  34.879  1.00  0.00     0.198 A 
ATOM     80  C   UNL A   1      43.859  26.750  36.763  1.00  0.00     0.198 A 
ATOM     81  F   UNL A   1      44.077  29.037  36.582  1.00  0.00    -0.203 F 
ATOM     82  F   UNL A   1      43.011  24.197  34.367  1.00  0.00    -0.200 F 
ATOM     83  C   UNL A   1      43.548  25.513  36.241  1.00  0.00     0.200 A 
ATOM     84  F   UNL A   1      44.033  26.896  38.084  1.00  0.00    -0.200 F 
ATOM     85  F   UNL A   1      43.378  24.463  37.055  1.00  0.00    -0.200 F 
ENDBRANCH  61  75
BRANCH  62  86
ATOM     86  C   UNL A   1      42.674  25.022  26.736  1.00  0.00     0.064 A 
ATOM     87  C   UNL A   1      43.428  24.796  25.574  1.00  0.00     0.173 A 
ATOM     88  C   UNL A   1      42.002  23.908  27.277  1.00  0.00     0.173 A 
ATOM     89  F   UNL A   1      44.128  25.794  25.018  1.00  0.00    -0.203 F 
ATOM     90  C   UNL A   1      43.532  23.522  25.007  1.00  0.00     0.198 A 
ATOM     91  C   UNL A   1      42.098  22.641  26.702  1.00  0.00     0.198 A 
ATOM     92  F   UNL A   1      41.315  24.010  28.423  1.00  0.00    -0.203 F 
ATOM     93  F   UNL A   1      44.319  23.330  23.938  1.00  0.00    -0.200 F 
ATOM     94  C   UNL A   1      42.877  22.444  25.578  1.00  0.00     0.200 A 
ATOM     95  F   UNL A   1      41.485  21.600  27.284  1.00  0.00    -0.200 F 
ATOM     96  F   UNL A   1      43.030  21.212  25.073  1.00  0.00    -0.200 F 
ENDBRANCH  62  86
BRANCH  74  97
ATOM     97  C   UNL A   1      45.539  30.307  28.550  1.00  0.00     0.064 A 
ATOM     98  C   UNL A   1      44.488  30.965  27.891  1.00  0.00     0.173 A 
ATOM     99  C   UNL A   1      46.848  30.648  28.183  1.00  0.00     0.173 A 
ATOM    100  F   UNL A   1      43.214  30.765  28.249  1.00  0.00    -0.203 F 
ATOM    101  C   UNL A   1      44.740  31.883  26.874  1.00  0.00     0.198 A 
ATOM    102  C   UNL A   1      47.098  31.593  27.195  1.00  0.00     0.198 A 
ATOM    103  F   UNL A   1      47.891  30.086  28.815  1.00  0.00    -0.203 F 
ATOM    104  F   UNL A   1      43.720  32.479  26.239  1.00  0.00    -0.200 F 
ATOM    105  C   UNL A   1      46.044  32.199  26.530  1.00  0.00     0.200 A 
ATOM    106  F   UNL A   1      48.360  31.930  26.900  1.00  0.00    -0.200 F 
ATOM    107  F   UNL A   1      46.288  33.105  25.573  1.00  0.00    -0.200 F 
ENDBRANCH  74  97
ENDBRANCH  48  49
ENDBRANCH  40  43
ENDBRANCH  38  39
ENDBRANCH  37  38
ENDBRANCH  36  37
ENDBRANCH  35  36
ENDBRANCH   3  35
TORSDOF 19
ENDMDL
MODEL 2
REMARK VINA RESULT:     -12.1      1.823      6.577
REMARK SMILES NS(=O)(=O)c1ccc(-n2nc(C(=O)NCCCC(=O)NCCCCNC(=O)c3ccc(-c4c5nc(c(-c6c(F)c(F)c(F)c(F)c6F)c6ccc([nH]6)c(-c6c(F)c(F)c(F)c(F)c6F)c6nc(c(-c7c(F)c(F)c(F)c(F)c7F)c7ccc4[nH]7)C=C6)C=C5)cc3)cc2-c2ccccc2)cc1
REMARK SMILES IDX 18 1 19 2 20 3 17 5 16 6 15 7 14 8 12 9 13 10 11 12 9 13
REMARK SMILES IDX 10 14 92 15 91 16 8 17 5 18 6 19 100 20 7 21 99 22 2 23 3 24
REMARK SMILES IDX 4 25 1 26 93 29 94 30 98 31 95 32 97 33 96 34 21 35 22 36
REMARK SMILES IDX 23 37 24 38 25 39 26 40 27 42 28 43 29 44 90 45 30 46 89 47
REMARK SMILES IDX 31 48 32 49 33 50 83 51 34 52 88 53 82 54 84 55 35 56 87 57
REMARK SMILES IDX 81 58 80 59 36 61 68 62 48 63 67 64 49 65 52 66 66 67 85 68
REMARK SMILES IDX 50 69 51 70 65 72 86 73 53 74 37 75 38 76 46 77 39 78 40 79
REMARK SMILES IDX 44 80 47 81 41 82 42 83 45 84 43 85 69 86 70 87 78 88 71 89
REMARK SMILES IDX 72 90 76 91 79 92 73 93 74 94 77 95 75 96 54 97 55 98 63 99
REMARK SMILES IDX 56 100 57 101 61 102 64 103 58 104 59 105 62 106 60 107
REMARK H PARENT 20 4 14 11 1 27 1 28 25 41 84 60 52 71
REMARK Flexibility Score: inf
ROOT
ATOM      1  C   UNL A   1      31.783  27.908  26.586  1.00  0.00     0.220 C 
ATOM      2  O   UNL A   1      30.928  27.582  27.412  1.00  0.00    -0.275 OA
ATOM      3  N   UNL A   1      33.088  27.873  26.973  1.00  0.00    -0.356 N 
ATOM      4  H   UNL A   1      33.238  27.506  27.874  1.00  0.00     0.163 HD
ENDROOT
BRANCH   1   5
ATOM      5  C   UNL A   1      31.384  28.318  25.183  1.00  0.00     0.102 C 
BRANCH   5   6
ATOM      6  C   UNL A   1      30.213  27.520  24.604  1.00  0.00     0.031 C 
BRANCH   6   7
ATOM      7  C   UNL A   1      30.403  26.007  24.578  1.00  0.00     0.116 C 
BRANCH   7   8
ATOM      8  N   UNL A   1      29.789  25.315  25.694  1.00  0.00    -0.351 N 
ATOM      9  C   UNL A   1      30.193  24.187  26.379  1.00  0.00     0.271 C 
ATOM     10  O   UNL A   1      29.454  23.801  27.286  1.00  0.00    -0.267 OA
ATOM     11  H   UNL A   1      28.948  25.714  26.016  1.00  0.00     0.163 HD
BRANCH   9  12
ATOM     12  C   UNL A   1      31.445  23.493  26.017  1.00  0.00     0.151 A 
ATOM     13  N   UNL A   1      32.714  21.925  25.276  1.00  0.00    -0.232 N 
ATOM     14  N   UNL A   1      31.417  22.298  25.389  1.00  0.00    -0.162 NA
ATOM     15  C   UNL A   1      33.571  22.977  25.570  1.00  0.00     0.075 A 
ATOM     16  C   UNL A   1      32.785  23.909  26.209  1.00  0.00     0.065 A 
BRANCH  13  17
ATOM     17  C   UNL A   1      33.079  20.609  24.881  1.00  0.00     0.065 A 
ATOM     18  C   UNL A   1      33.668  17.953  24.286  1.00  0.00     0.082 A 
ATOM     19  C   UNL A   1      32.453  18.495  23.870  1.00  0.00     0.024 A 
ATOM     20  C   UNL A   1      34.614  18.742  24.954  1.00  0.00     0.024 A 
ATOM     21  C   UNL A   1      32.156  19.820  24.173  1.00  0.00     0.030 A 
ATOM     22  C   UNL A   1      34.330  20.087  25.227  1.00  0.00     0.030 A 
BRANCH  18  23
ATOM     23  S   UNL A   1      33.979  16.234  24.017  1.00  0.00     0.238 S 
ATOM     24  O   UNL A   1      34.457  16.044  22.669  1.00  0.00    -0.207 OA
ATOM     25  O   UNL A   1      32.888  15.475  24.582  1.00  0.00    -0.207 OA
BRANCH  23  26
ATOM     26  N   UNL A   1      35.314  15.932  24.999  1.00  0.00    -0.225 NA
ATOM     27  H   UNL A   1      35.393  16.668  25.701  1.00  0.00     0.137 HD
ATOM     28  H   UNL A   1      36.159  15.913  24.429  1.00  0.00     0.137 HD
ENDBRANCH  23  26
ENDBRANCH  18  23
ENDBRANCH  13  17
BRANCH  15  29
ATOM     29  C   UNL A   1      34.962  23.092  25.138  1.00  0.00     0.000 A 
ATOM     30  C   UNL A   1      35.977  23.231  26.099  1.00  0.00     0.010 A 
ATOM     31  C   UNL A   1      35.305  23.028  23.786  1.00  0.00     0.010 A 
ATOM     32  C   UNL A   1      37.311  23.339  25.709  1.00  0.00     0.001 A 
ATOM     33  C   UNL A   1      36.642  23.136  23.397  1.00  0.00     0.001 A 
ATOM     34  C   UNL A   1      37.643  23.294  24.357  1.00  0.00     0.000 A 
ENDBRANCH  15  29
ENDBRANCH   9  12
ENDBRANCH   7   8
ENDBRANCH   6   7
ENDBRANCH   5   6
ENDBRANCH   1   5
BRANCH   3  35
ATOM     35  C   UNL A   1      34.296  28.289  26.281  1.00  0.00     0.116 C 
BRANCH  35  36
ATOM     36  C   UNL A   1      35.239  29.054  27.216  1.00  0.00     0.023 C 
BRANCH  36  37
ATOM     37  C   UNL A   1      34.758  30.439  27.666  1.00  0.00     0.023 C 
BRANCH  37  38
ATOM     38  C   UNL A   1      35.815  31.281  28.369  1.00  0.00     0.116 C 
BRANCH  38  39
ATOM     39  N   UNL A   1      35.792  31.126  29.822  1.00  0.00    -0.352 N 
ATOM     40  C   UNL A   1      36.484  30.203  30.578  1.00  0.00     0.251 C 
ATOM     41  H   UNL A   1      35.216  31.752  30.318  1.00  0.00     0.163 HD
ATOM     42  O   UNL A   1      36.119  29.892  31.704  1.00  0.00    -0.269 OA
BRANCH  40  43
ATOM     43  C   UNL A   1      37.677  29.584  29.982  1.00  0.00     0.039 A 
ATOM     44  C   UNL A   1      38.497  30.310  29.116  1.00  0.00     0.014 A 
ATOM     45  C   UNL A   1      38.022  28.300  30.402  1.00  0.00     0.014 A 
ATOM     46  C   UNL A   1      39.733  29.778  28.763  1.00  0.00     0.010 A 
ATOM     47  C   UNL A   1      39.287  27.825  30.136  1.00  0.00     0.010 A 
ATOM     48  C   UNL A   1      40.145  28.550  29.307  1.00  0.00    -0.014 A 
BRANCH  48  49
ATOM     49  C   UNL A   1      41.534  28.113  29.138  1.00  0.00     0.031 A 
ATOM     50  C   UNL A   1      41.722  26.856  28.356  1.00  0.00     0.074 A 
ATOM     51  C   UNL A   1      42.602  28.882  29.441  1.00  0.00     0.049 A 
ATOM     52  N   UNL A   1      42.258  25.747  28.751  1.00  0.00    -0.248 NA
ATOM     53  C   UNL A   1      41.175  26.794  26.991  1.00  0.00     0.031 C 
ATOM     54  C   UNL A   1      42.596  30.270  29.915  1.00  0.00     0.029 A 
ATOM     55  N   UNL A   1      43.931  28.626  29.263  1.00  0.00    -0.354 N 
ATOM     56  C   UNL A   1      42.285  24.907  27.638  1.00  0.00     0.074 A 
ATOM     57  C   UNL A   1      41.472  25.541  26.636  1.00  0.00     0.031 C 
ATOM     58  C   UNL A   1      43.823  30.806  29.751  1.00  0.00     0.029 A 
ATOM     59  C   UNL A   1      44.734  29.756  29.337  1.00  0.00     0.049 A 
ATOM     60  H   UNL A   1      44.287  27.723  29.097  1.00  0.00     0.167 HD
ATOM     61  C   UNL A   1      43.187  23.888  27.555  1.00  0.00     0.037 A 
ATOM     62  C   UNL A   1      46.056  29.842  29.062  1.00  0.00     0.037 A 
ATOM     63  C   UNL A   1      43.755  23.603  28.851  1.00  0.00     0.049 A 
ATOM     64  C   UNL A   1      46.626  28.484  29.182  1.00  0.00     0.074 A 
ATOM     65  C   UNL A   1      43.297  23.138  30.064  1.00  0.00     0.029 A 
ATOM     66  N   UNL A   1      44.991  24.144  29.083  1.00  0.00    -0.354 N 
ATOM     67  N   UNL A   1      46.727  27.832  30.307  1.00  0.00    -0.248 NA
ATOM     68  C   UNL A   1      46.808  27.683  27.980  1.00  0.00     0.031 C 
ATOM     69  C   UNL A   1      44.131  23.754  31.048  1.00  0.00     0.029 A 
ATOM     70  C   UNL A   1      45.080  24.535  30.389  1.00  0.00     0.049 A 
ATOM     71  H   UNL A   1      45.706  24.236  28.413  1.00  0.00     0.167 HD
ATOM     72  C   UNL A   1      46.532  26.510  29.956  1.00  0.00     0.074 A 
ATOM     73  C   UNL A   1      46.779  26.462  28.520  1.00  0.00     0.031 C 
ATOM     74  C   UNL A   1      45.889  25.658  30.807  1.00  0.00     0.037 A 
BRANCH  61  75
ATOM     75  C   UNL A   1      43.927  23.477  26.288  1.00  0.00     0.064 A 
ATOM     76  C   UNL A   1      43.948  22.106  25.938  1.00  0.00     0.173 A 
ATOM     77  C   UNL A   1      44.895  24.273  25.642  1.00  0.00     0.173 A 
ATOM     78  F   UNL A   1      43.066  21.248  26.475  1.00  0.00    -0.203 F 
ATOM     79  C   UNL A   1      44.950  21.560  25.129  1.00  0.00     0.198 A 
ATOM     80  C   UNL A   1      45.862  23.731  24.793  1.00  0.00     0.198 A 
ATOM     81  F   UNL A   1      45.026  25.582  25.881  1.00  0.00    -0.203 F 
ATOM     82  F   UNL A   1      45.024  20.232  24.964  1.00  0.00    -0.200 F 
ATOM     83  C   UNL A   1      45.918  22.371  24.573  1.00  0.00     0.200 A 
ATOM     84  F   UNL A   1      46.799  24.534  24.268  1.00  0.00    -0.200 F 
ATOM     85  F   UNL A   1      46.929  21.845  23.869  1.00  0.00    -0.200 F 
ENDBRANCH  61  75
BRANCH  62  86
ATOM     86  C   UNL A   1      46.821  30.990  28.525  1.00  0.00     0.064 A 
ATOM     87  C   UNL A   1      46.412  31.650  27.356  1.00  0.00     0.173 A 
ATOM     88  C   UNL A   1      47.811  31.631  29.295  1.00  0.00     0.173 A 
ATOM     89  F   UNL A   1      45.447  31.125  26.586  1.00  0.00    -0.203 F 
ATOM     90  C   UNL A   1      46.936  32.895  26.997  1.00  0.00     0.198 A 
ATOM     91  C   UNL A   1      48.341  32.869  28.929  1.00  0.00     0.198 A 
ATOM     92  F   UNL A   1      48.214  31.115  30.464  1.00  0.00    -0.203 F 
ATOM     93  F   UNL A   1      46.469  33.528  25.911  1.00  0.00    -0.200 F 
ATOM     94  C   UNL A   1      47.891  33.509  27.790  1.00  0.00     0.200 A 
ATOM     95  F   UNL A   1      49.241  33.467  29.723  1.00  0.00    -0.200 F 
ATOM     96  F   UNL A   1      48.345  34.732  27.482  1.00  0.00    -0.200 F 
ENDBRANCH  62  86
BRANCH  74  97
ATOM     97  C   UNL A   1      45.844  26.035  32.257  1.00  0.00     0.064 A 
ATOM     98  C   UNL A   1      46.890  25.822  33.170  1.00  0.00     0.173 A 
ATOM     99  C   UNL A   1      44.715  26.726  32.715  1.00  0.00     0.173 A 
ATOM    100  F   UNL A   1      48.040  25.255  32.786  1.00  0.00    -0.203 F 
ATOM    101  C   UNL A   1      46.782  26.237  34.496  1.00  0.00     0.198 A 
ATOM    102  C   UNL A   1      44.626  27.174  34.028  1.00  0.00     0.198 A 
ATOM    103  F   UNL A   1      43.706  27.000  31.872  1.00  0.00    -0.203 F 
ATOM    104  F   UNL A   1      47.781  25.999  35.358  1.00  0.00    -0.200 F 
ATOM    105  C   UNL A   1      45.652  26.916  34.922  1.00  0.00     0.200 A 
ATOM    106  F   UNL A   1      43.552  27.872  34.422  1.00  0.00    -0.200 F 
ATOM    107  F   UNL A   1      45.561  27.344  36.189  1.00  0.00    -0.200 F 
ENDBRANCH  74  97
ENDBRANCH  48  49
ENDBRANCH  40  43
ENDBRANCH  38  39
ENDBRANCH  37  38
ENDBRANCH  36  37
ENDBRANCH  35  36
ENDBRANCH   3  35
TORSDOF 19
ENDMDL
MODEL 3
REMARK VINA RESULT:     -12.0      6.305     10.862
REMARK SMILES NS(=O)(=O)c1ccc(-n2nc(C(=O)NCCCC(=O)NCCCCNC(=O)c3ccc(-c4c5nc(c(-c6c(F)c(F)c(F)c(F)c6F)c6ccc([nH]6)c(-c6c(F)c(F)c(F)c(F)c6F)c6nc(c(-c7c(F)c(F)c(F)c(F)c7F)c7ccc4[nH]7)C=C6)C=C5)cc3)cc2-c2ccccc2)cc1
REMARK SMILES IDX 18 1 19 2 20 3 17 5 16 6 15 7 14 8 12 9 13 10 11 12 9 13
REMARK SMILES IDX 10 14 92 15 91 16 8 17 5 18 6 19 100 20 7 21 99 22 2 23 3 24
REMARK SMILES IDX 4 25 1 26 93 29 94 30 98 31 95 32 97 33 96 34 21 35 22 36
REMARK SMILES IDX 23 37 24 38 25 39 26 40 27 42 28 43 29 44 90 45 30 46 89 47
REMARK SMILES IDX 31 48 32 49 33 50 83 51 34 52 88 53 82 54 84 55 35 56 87 57
REMARK SMILES IDX 81 58 80 59 36 61 68 62 48 63 67 64 49 65 52 66 66 67 85 68
REMARK SMILES IDX 50 69 51 70 65 72 86 73 53 74 37 75 38 76 46 77 39 78 40 79
REMARK SMILES IDX 44 80 47 81 41 82 42 83 45 84 43 85 69 86 70 87 78 88 71 89
REMARK SMILES IDX 72 90 76 91 79 92 73 93 74 94 77 95 75 96 54 97 55 98 63 99
REMARK SMILES IDX 56 100 57 101 61 102 64 103 58 104 59 105 62 106 60 107
REMARK H PARENT 20 4 14 11 1 27 1 28 25 41 84 60 52 71
REMARK Flexibility Score: inf
ROOT
ATOM      1  C   UNL A   1      41.723  29.677  32.515  1.00  0.00     0.220 C 
ATOM      2  O   UNL A   1      41.322  29.854  31.363  1.00  0.00    -0.275 OA
ATOM      3  N   UNL A   1      41.291  28.568  33.177  1.00  0.00    -0.356 N 
ATOM      4  H   UNL A   1      40.748  27.953  32.633  1.00  0.00     0.163 HD
ENDROOT
BRANCH   1   5
ATOM      5  C   UNL A   1      42.679  30.661  33.160  1.00  0.00     0.102 C 
BRANCH   5   6
ATOM      6  C   UNL A   1      43.059  31.844  32.267  1.00  0.00     0.031 C 
BRANCH   6   7
ATOM      7  C   UNL A   1      42.198  33.091  32.433  1.00  0.00     0.116 C 
BRANCH   7   8
ATOM      8  N   UNL A   1      42.305  34.033  31.336  1.00  0.00    -0.351 N 
ATOM      9  C   UNL A   1      41.380  34.402  30.381  1.00  0.00     0.271 C 
ATOM     10  O   UNL A   1      41.755  35.223  29.541  1.00  0.00    -0.267 OA
ATOM     11  H   UNL A   1      43.178  34.482  31.261  1.00  0.00     0.163 HD
BRANCH   9  12
ATOM     12  C   UNL A   1      40.022  33.822  30.381  1.00  0.00     0.151 A 
ATOM     13  N   UNL A   1      37.885  33.747  30.595  1.00  0.00    -0.232 N 
ATOM     14  N   UNL A   1      38.938  34.599  30.591  1.00  0.00    -0.162 NA
ATOM     15  C   UNL A   1      38.247  32.493  30.122  1.00  0.00     0.075 A 
ATOM     16  C   UNL A   1      39.623  32.482  30.156  1.00  0.00     0.065 A 
BRANCH  13  17
ATOM     17  C   UNL A   1      36.595  34.160  31.025  1.00  0.00     0.065 A 
ATOM     18  C   UNL A   1      34.108  35.172  31.764  1.00  0.00     0.082 A 
ATOM     19  C   UNL A   1      34.285  34.659  30.480  1.00  0.00     0.024 A 
ATOM     20  C   UNL A   1      35.150  35.137  32.700  1.00  0.00     0.024 A 
ATOM     21  C   UNL A   1      35.529  34.160  30.109  1.00  0.00     0.030 A 
ATOM     22  C   UNL A   1      36.392  34.600  32.338  1.00  0.00     0.030 A 
BRANCH  18  23
ATOM     23  S   UNL A   1      32.566  35.928  32.182  1.00  0.00     0.238 S 
ATOM     24  O   UNL A   1      31.657  34.916  32.666  1.00  0.00    -0.207 OA
ATOM     25  O   UNL A   1      32.219  36.869  31.144  1.00  0.00    -0.207 OA
BRANCH  23  26
ATOM     26  N   UNL A   1      32.951  36.851  33.537  1.00  0.00    -0.225 NA
ATOM     27  H   UNL A   1      32.542  36.423  34.368  1.00  0.00     0.137 HD
ATOM     28  H   UNL A   1      32.580  37.794  33.424  1.00  0.00     0.137 HD
ENDBRANCH  23  26
ENDBRANCH  18  23
ENDBRANCH  13  17
BRANCH  15  29
ATOM     29  C   UNL A   1      37.335  31.492  29.573  1.00  0.00     0.000 A 
ATOM     30  C   UNL A   1      37.021  31.515  28.205  1.00  0.00     0.010 A 
ATOM     31  C   UNL A   1      36.798  30.487  30.381  1.00  0.00     0.010 A 
ATOM     32  C   UNL A   1      36.156  30.567  27.661  1.00  0.00     0.001 A 
ATOM     33  C   UNL A   1      35.932  29.538  29.834  1.00  0.00     0.001 A 
ATOM     34  C   UNL A   1      35.609  29.580  28.477  1.00  0.00     0.000 A 
ENDBRANCH  15  29
ENDBRANCH   9  12
ENDBRANCH   7   8
ENDBRANCH   6   7
ENDBRANCH   5   6
ENDBRANCH   1   5
BRANCH   3  35
ATOM     35  C   UNL A   1      41.495  28.141  34.550  1.00  0.00     0.116 C 
BRANCH  35  36
ATOM     36  C   UNL A   1      41.984  26.689  34.615  1.00  0.00     0.023 C 
BRANCH  36  37
ATOM     37  C   UNL A   1      41.423  25.845  35.765  1.00  0.00     0.023 C 
BRANCH  37  38
ATOM     38  C   UNL A   1      42.026  24.451  35.882  1.00  0.00     0.116 C 
BRANCH  38  39
ATOM     39  N   UNL A   1      43.100  24.376  36.869  1.00  0.00    -0.352 N 
ATOM     40  C   UNL A   1      44.432  24.097  36.640  1.00  0.00     0.251 C 
ATOM     41  H   UNL A   1      42.845  24.544  37.805  1.00  0.00     0.163 HD
ATOM     42  O   UNL A   1      45.162  23.677  37.528  1.00  0.00    -0.269 OA
BRANCH  40  43
ATOM     43  C   UNL A   1      44.953  24.306  35.280  1.00  0.00     0.039 A 
ATOM     44  C   UNL A   1      44.945  23.265  34.350  1.00  0.00     0.014 A 
ATOM     45  C   UNL A   1      45.338  25.596  34.923  1.00  0.00     0.014 A 
ATOM     46  C   UNL A   1      45.221  23.558  33.018  1.00  0.00     0.010 A 
ATOM     47  C   UNL A   1      45.505  25.901  33.590  1.00  0.00     0.010 A 
ATOM     48  C   UNL A   1      45.462  24.887  32.632  1.00  0.00    -0.014 A 
BRANCH  48  49
ATOM     49  C   UNL A   1      45.502  25.231  31.207  1.00  0.00     0.031 A 
ATOM     50  C   UNL A   1      46.612  26.141  30.796  1.00  0.00     0.074 A 
ATOM     51  C   UNL A   1      44.761  24.608  30.266  1.00  0.00     0.049 A 
ATOM     52  N   UNL A   1      46.520  27.315  30.262  1.00  0.00    -0.248 NA
ATOM     53  C   UNL A   1      47.995  25.731  31.089  1.00  0.00     0.031 C 
ATOM     54  C   UNL A   1      43.856  23.469  30.453  1.00  0.00     0.029 A 
ATOM     55  N   UNL A   1      44.759  24.780  28.912  1.00  0.00    -0.354 N 
ATOM     56  C   UNL A   1      47.825  27.719  29.980  1.00  0.00     0.074 A 
ATOM     57  C   UNL A   1      48.689  26.783  30.647  1.00  0.00     0.031 C 
ATOM     58  C   UNL A   1      43.593  22.902  29.258  1.00  0.00     0.029 A 
ATOM     59  C   UNL A   1      44.157  23.740  28.216  1.00  0.00     0.049 A 
ATOM     60  H   UNL A   1      45.150  25.568  28.469  1.00  0.00     0.167 HD
ATOM     61  C   UNL A   1      48.074  28.642  29.008  1.00  0.00     0.037 A 
ATOM     62  C   UNL A   1      44.131  23.557  26.876  1.00  0.00     0.037 A 
ATOM     63  C   UNL A   1      46.869  29.353  28.658  1.00  0.00     0.049 A 
ATOM     64  C   UNL A   1      44.371  24.870  26.242  1.00  0.00     0.074 A 
ATOM     65  C   UNL A   1      45.994  30.211  29.289  1.00  0.00     0.029 A 
ATOM     66  N   UNL A   1      46.237  28.919  27.524  1.00  0.00    -0.354 N 
ATOM     67  N   UNL A   1      43.535  25.869  26.295  1.00  0.00    -0.248 NA
ATOM     68  C   UNL A   1      45.715  25.206  25.795  1.00  0.00     0.031 C 
ATOM     69  C   UNL A   1      44.720  29.967  28.687  1.00  0.00     0.029 A 
ATOM     70  C   UNL A   1      44.884  29.002  27.694  1.00  0.00     0.049 A 
ATOM     71  H   UNL A   1      46.688  28.597  26.710  1.00  0.00     0.167 HD
ATOM     72  C   UNL A   1      44.341  26.991  26.331  1.00  0.00     0.074 A 
ATOM     73  C   UNL A   1      45.635  26.538  25.832  1.00  0.00     0.031 C 
ATOM     74  C   UNL A   1      43.967  28.087  27.052  1.00  0.00     0.037 A 
BRANCH  61  75
ATOM     75  C   UNL A   1      49.241  28.587  28.029  1.00  0.00     0.064 A 
ATOM     76  C   UNL A   1      49.966  29.776  27.782  1.00  0.00     0.173 A 
ATOM     77  C   UNL A   1      49.429  27.563  27.077  1.00  0.00     0.173 A 
ATOM     78  F   UNL A   1      49.882  30.818  28.624  1.00  0.00    -0.203 F 
ATOM     79  C   UNL A   1      50.693  29.972  26.603  1.00  0.00     0.198 A 
ATOM     80  C   UNL A   1      50.199  27.745  25.927  1.00  0.00     0.198 A 
ATOM     81  F   UNL A   1      48.797  26.387  27.151  1.00  0.00    -0.203 F 
ATOM     82  F   UNL A   1      51.223  31.175  26.339  1.00  0.00    -0.200 F 
ATOM     83  C   UNL A   1      50.793  28.963  25.667  1.00  0.00     0.200 A 
ATOM     84  F   UNL A   1      50.278  26.756  25.026  1.00  0.00    -0.200 F 
ATOM     85  F   UNL A   1      51.414  29.172  24.499  1.00  0.00    -0.200 F 
ENDBRANCH  61  75
BRANCH  62  86
ATOM     86  C   UNL A   1      44.094  22.290  26.111  1.00  0.00     0.064 A 
ATOM     87  C   UNL A   1      45.275  21.684  25.654  1.00  0.00     0.173 A 
ATOM     88  C   UNL A   1      42.922  21.510  26.049  1.00  0.00     0.173 A 
ATOM     89  F   UNL A   1      46.439  22.346  25.714  1.00  0.00    -0.203 F 
ATOM     90  C   UNL A   1      45.289  20.364  25.195  1.00  0.00     0.198 A 
ATOM     91  C   UNL A   1      42.937  20.196  25.580  1.00  0.00     0.198 A 
ATOM     92  F   UNL A   1      41.761  21.975  26.529  1.00  0.00    -0.203 F 
ATOM     93  F   UNL A   1      46.449  19.796  24.833  1.00  0.00    -0.200 F 
ATOM     94  C   UNL A   1      44.123  19.617  25.170  1.00  0.00     0.200 A 
ATOM     95  F   UNL A   1      41.807  19.474  25.592  1.00  0.00    -0.200 F 
ATOM     96  F   UNL A   1      44.149  18.331  24.793  1.00  0.00    -0.200 F 
ENDBRANCH  62  86
BRANCH  74  97
ATOM     97  C   UNL A   1      42.511  28.233  27.378  1.00  0.00     0.064 A 
ATOM     98  C   UNL A   1      41.559  28.828  26.533  1.00  0.00     0.173 A 
ATOM     99  C   UNL A   1      42.050  27.661  28.571  1.00  0.00     0.173 A 
ATOM    100  F   UNL A   1      41.905  29.312  25.334  1.00  0.00    -0.203 F 
ATOM    101  C   UNL A   1      40.215  28.891  26.897  1.00  0.00     0.198 A 
ATOM    102  C   UNL A   1      40.703  27.690  28.913  1.00  0.00     0.198 A 
ATOM    103  F   UNL A   1      42.909  27.035  29.392  1.00  0.00    -0.203 F 
ATOM    104  F   UNL A   1      39.328  29.488  26.088  1.00  0.00    -0.200 F 
ATOM    105  C   UNL A   1      39.789  28.318  28.083  1.00  0.00     0.200 A 
ATOM    106  F   UNL A   1      40.288  27.093  30.038  1.00  0.00    -0.200 F 
ATOM    107  F   UNL A   1      38.491  28.351  28.418  1.00  0.00    -0.200 F 
ENDBRANCH  74  97
ENDBRANCH  48  49
ENDBRANCH  40  43
ENDBRANCH  38  39
ENDBRANCH  37  38
ENDBRANCH  36  37
ENDBRANCH  35  36
ENDBRANCH   3  35
TORSDOF 19
ENDMDL
