MODEL 1
REMARK VINA RESULT:      -9.8      0.000      0.000
REMARK SMILES O=C(NCCCCNC(=O)[C@H]1CS[C@H](c2cc(F)ccc2F)[NH2+]1)c1ccc(-c2c3nc(c(-c4c(F)c(F)c(F)c(F)c4F)c4ccc([nH]4)c(-c4c(F)c(F)c(F)c(F)c4F)c4nc(c(-c5c(F)c(F)c(F)c(F)c5F)c5ccc2[nH]5)C=C4)C=C3)cc1
REMARK SMILES IDX 5 1 4 2 3 3 1 4 2 5 24 7 25 8 86 9 26 10 85 11 27 12 28 13
REMARK SMILES IDX 29 14 79 15 30 16 84 17 78 18 80 19 31 20 83 21 77 22 76 23
REMARK SMILES IDX 32 25 64 26 44 27 63 28 45 29 48 30 62 31 81 32 46 33 47 34
REMARK SMILES IDX 61 36 82 37 49 38 33 39 34 40 42 41 35 42 36 43 40 44 43 45
REMARK SMILES IDX 37 46 38 47 41 48 39 49 65 50 66 51 74 52 67 53 68 54 72 55
REMARK SMILES IDX 75 56 69 57 70 58 73 59 71 60 50 61 51 62 59 63 52 64 53 65
REMARK SMILES IDX 57 66 60 67 54 68 55 69 58 70 56 71 6 72 7 73 8 74 9 75
REMARK SMILES IDX 10 77 11 78 12 79 23 80 13 81 14 82 15 85 16 86 21 87 17 88
REMARK SMILES IDX 20 89 22 90 18 91 19 92
REMARK H PARENT 3 6 80 24 48 35 8 76 23 83 23 84
REMARK Flexibility Score: inf
ROOT
ATOM      1  C   UNL A   1      41.211  21.157  27.501  1.00  0.00     0.023 C 
ENDROOT
BRANCH   1   2
ATOM      2  C   UNL A   1      41.024  21.834  26.150  1.00  0.00     0.116 C 
BRANCH   2   3
ATOM      3  N   UNL A   1      39.630  21.919  25.750  1.00  0.00    -0.352 N 
ATOM      4  O   UNL A   1      37.519  22.724  25.777  1.00  0.00    -0.269 OA
ATOM      5  C   UNL A   1      38.700  22.874  26.078  1.00  0.00     0.251 C 
ATOM      6  H   UNL A   1      39.308  21.194  25.167  1.00  0.00     0.163 HD
BRANCH   5   7
ATOM      7  C   UNL A   1      39.125  24.083  26.813  1.00  0.00     0.039 A 
ATOM      8  C   UNL A   1      38.865  24.210  28.180  1.00  0.00     0.014 A 
ATOM      9  C   UNL A   1      39.807  25.090  26.126  1.00  0.00     0.014 A 
ATOM     10  C   UNL A   1      39.194  25.390  28.838  1.00  0.00     0.010 A 
ATOM     11  C   UNL A   1      40.209  26.241  26.806  1.00  0.00     0.010 A 
ATOM     12  C   UNL A   1      39.899  26.400  28.165  1.00  0.00    -0.014 A 
BRANCH  12  13
ATOM     13  C   UNL A   1      40.430  27.552  28.932  1.00  0.00     0.031 A 
ATOM     14  C   UNL A   1      41.855  27.602  29.388  1.00  0.00     0.074 A 
ATOM     15  C   UNL A   1      39.586  28.562  29.212  1.00  0.00     0.049 A 
ATOM     16  N   UNL A   1      42.462  28.528  30.089  1.00  0.00    -0.248 NA
ATOM     17  C   UNL A   1      42.713  26.470  29.014  1.00  0.00     0.031 C 
ATOM     18  C   UNL A   1      38.179  28.614  28.809  1.00  0.00     0.029 A 
ATOM     19  N   UNL A   1      39.783  29.739  29.884  1.00  0.00    -0.354 N 
ATOM     20  C   UNL A   1      43.769  28.092  30.243  1.00  0.00     0.074 A 
ATOM     21  C   UNL A   1      43.860  26.801  29.591  1.00  0.00     0.031 C 
ATOM     22  C   UNL A   1      37.654  29.783  29.196  1.00  0.00     0.029 A 
ATOM     23  C   UNL A   1      38.664  30.529  29.937  1.00  0.00     0.049 A 
ATOM     24  H   UNL A   1      40.644  29.993  30.289  1.00  0.00     0.167 HD
ATOM     25  C   UNL A   1      44.797  28.720  30.867  1.00  0.00     0.037 A 
ATOM     26  C   UNL A   1      38.463  31.720  30.529  1.00  0.00     0.037 A 
ATOM     27  C   UNL A   1      44.682  29.997  31.531  1.00  0.00     0.049 A 
ATOM     28  C   UNL A   1      39.597  32.362  31.269  1.00  0.00     0.074 A 
ATOM     29  C   UNL A   1      45.656  30.709  32.209  1.00  0.00     0.029 A 
ATOM     30  N   UNL A   1      43.516  30.750  31.607  1.00  0.00    -0.354 N 
ATOM     31  N   UNL A   1      40.827  31.938  31.419  1.00  0.00    -0.248 NA
ATOM     32  C   UNL A   1      39.314  33.644  31.923  1.00  0.00     0.031 C 
ATOM     33  C   UNL A   1      45.070  31.866  32.735  1.00  0.00     0.029 A 
ATOM     34  C   UNL A   1      43.745  31.910  32.332  1.00  0.00     0.049 A 
ATOM     35  H   UNL A   1      42.654  30.496  31.204  1.00  0.00     0.167 HD
ATOM     36  C   UNL A   1      41.476  32.912  32.163  1.00  0.00     0.074 A 
ATOM     37  C   UNL A   1      40.501  33.953  32.424  1.00  0.00     0.031 C 
ATOM     38  C   UNL A   1      42.765  32.940  32.584  1.00  0.00     0.037 A 
BRANCH  25  39
ATOM     39  C   UNL A   1      46.131  28.026  30.879  1.00  0.00     0.064 A 
ATOM     40  C   UNL A   1      47.123  28.365  29.946  1.00  0.00     0.173 A 
ATOM     41  C   UNL A   1      46.417  27.000  31.792  1.00  0.00     0.173 A 
ATOM     42  F   UNL A   1      46.902  29.335  29.045  1.00  0.00    -0.203 F 
ATOM     43  C   UNL A   1      48.346  27.700  29.922  1.00  0.00     0.198 A 
ATOM     44  C   UNL A   1      47.654  26.358  31.787  1.00  0.00     0.198 A 
ATOM     45  F   UNL A   1      45.510  26.642  32.713  1.00  0.00    -0.203 F 
ATOM     46  F   UNL A   1      49.268  28.025  29.005  1.00  0.00    -0.200 F 
ATOM     47  C   UNL A   1      48.615  26.704  30.849  1.00  0.00     0.200 A 
ATOM     48  F   UNL A   1      47.921  25.414  32.700  1.00  0.00    -0.200 F 
ATOM     49  F   UNL A   1      49.801  26.081  30.840  1.00  0.00    -0.200 F 
ENDBRANCH  25  39
BRANCH  26  50
ATOM     50  C   UNL A   1      37.138  32.374  30.399  1.00  0.00     0.064 A 
ATOM     51  C   UNL A   1      36.855  33.248  29.338  1.00  0.00     0.173 A 
ATOM     52  C   UNL A   1      36.160  32.204  31.386  1.00  0.00     0.173 A 
ATOM     53  F   UNL A   1      37.767  33.453  28.375  1.00  0.00    -0.203 F 
ATOM     54  C   UNL A   1      35.657  33.955  29.291  1.00  0.00     0.198 A 
ATOM     55  C   UNL A   1      34.949  32.890  31.323  1.00  0.00     0.198 A 
ATOM     56  F   UNL A   1      36.381  31.367  32.411  1.00  0.00    -0.203 F 
ATOM     57  F   UNL A   1      35.434  34.826  28.298  1.00  0.00    -0.200 F 
ATOM     58  C   UNL A   1      34.704  33.775  30.283  1.00  0.00     0.200 A 
ATOM     59  F   UNL A   1      34.026  32.701  32.274  1.00  0.00    -0.200 F 
ATOM     60  F   UNL A   1      33.553  34.458  30.240  1.00  0.00    -0.200 F 
ENDBRANCH  26  50
BRANCH  38  61
ATOM     61  C   UNL A   1      43.210  34.160  33.339  1.00  0.00     0.064 A 
ATOM     62  C   UNL A   1      43.125  34.194  34.739  1.00  0.00     0.173 A 
ATOM     63  C   UNL A   1      43.695  35.301  32.683  1.00  0.00     0.173 A 
ATOM     64  F   UNL A   1      42.664  33.130  35.414  1.00  0.00    -0.203 F 
ATOM     65  C   UNL A   1      43.504  35.327  35.454  1.00  0.00     0.198 A 
ATOM     66  C   UNL A   1      44.103  36.421  33.404  1.00  0.00     0.198 A 
ATOM     67  F   UNL A   1      43.812  35.314  31.347  1.00  0.00    -0.203 F 
ATOM     68  F   UNL A   1      43.390  35.343  36.789  1.00  0.00    -0.200 F 
ATOM     69  C   UNL A   1      44.001  36.435  34.787  1.00  0.00     0.200 A 
ATOM     70  F   UNL A   1      44.613  37.480  32.760  1.00  0.00    -0.200 F 
ATOM     71  F   UNL A   1      44.390  37.515  35.478  1.00  0.00    -0.200 F 
ENDBRANCH  38  61
ENDBRANCH  12  13
ENDBRANCH   5   7
ENDBRANCH   2   3
ENDBRANCH   1   2
BRANCH   1  72
ATOM     72  C   UNL A   1      42.047  21.942  28.512  1.00  0.00     0.023 C 
BRANCH  72  73
ATOM     73  C   UNL A   1      42.895  23.064  27.917  1.00  0.00     0.116 C 
BRANCH  73  74
ATOM     74  N   UNL A   1      44.163  22.577  27.408  1.00  0.00    -0.351 N 
ATOM     75  C   UNL A   1      45.224  23.266  26.903  1.00  0.00     0.279 C 
ATOM     76  H   UNL A   1      44.274  21.599  27.431  1.00  0.00     0.163 HD
ATOM     77  O   UNL A   1      46.167  22.612  26.451  1.00  0.00    -0.268 OA
BRANCH  75  78
ATOM     78  C   UNL A   1      45.207  24.801  26.851  1.00  0.00     0.283 C 
ATOM     79  C   UNL A   1      46.511  25.363  27.422  1.00  0.00     0.151 C 
ATOM     80  N   UNL A   1      45.037  25.213  25.430  1.00  0.00    -0.320 N 
ATOM     81  S   UNL A   1      47.074  26.601  26.232  1.00  0.00    -0.087 SA
ATOM     82  C   UNL A   1      45.502  26.594  25.310  1.00  0.00     0.277 C 
ATOM     83  H   UNL A   1      44.053  25.152  25.166  1.00  0.00     0.348 HD
ATOM     84  H   UNL A   1      45.572  24.601  24.815  1.00  0.00     0.348 HD
BRANCH  82  85
ATOM     85  C   UNL A   1      44.547  27.679  25.787  1.00  0.00     0.059 A 
ATOM     86  C   UNL A   1      45.044  28.729  26.591  1.00  0.00     0.053 A 
ATOM     87  C   UNL A   1      43.190  27.742  25.434  1.00  0.00     0.133 A 
ATOM     88  C   UNL A   1      44.202  29.732  27.066  1.00  0.00     0.123 A 
ATOM     89  C   UNL A   1      42.349  28.750  25.913  1.00  0.00     0.043 A 
ATOM     90  F   UNL A   1      42.636  26.827  24.626  1.00  0.00    -0.206 F 
ATOM     91  F   UNL A   1      44.703  30.696  27.848  1.00  0.00    -0.207 F 
ATOM     92  C   UNL A   1      42.854  29.746  26.743  1.00  0.00     0.042 A 
ENDBRANCH  82  85
ENDBRANCH  75  78
ENDBRANCH  73  74
ENDBRANCH  72  73
ENDBRANCH   1  72
TORSDOF 12
ENDMDL
MODEL 2
REMARK VINA RESULT:      -9.7      3.399      9.959
REMARK SMILES O=C(NCCCCNC(=O)[C@H]1CS[C@H](c2cc(F)ccc2F)[NH2+]1)c1ccc(-c2c3nc(c(-c4c(F)c(F)c(F)c(F)c4F)c4ccc([nH]4)c(-c4c(F)c(F)c(F)c(F)c4F)c4nc(c(-c5c(F)c(F)c(F)c(F)c5F)c5ccc2[nH]5)C=C4)C=C3)cc1
REMARK SMILES IDX 5 1 4 2 3 3 1 4 2 5 24 7 25 8 86 9 26 10 85 11 27 12 28 13
REMARK SMILES IDX 29 14 79 15 30 16 84 17 78 18 80 19 31 20 83 21 77 22 76 23
REMARK SMILES IDX 32 25 64 26 44 27 63 28 45 29 48 30 62 31 81 32 46 33 47 34
REMARK SMILES IDX 61 36 82 37 49 38 33 39 34 40 42 41 35 42 36 43 40 44 43 45
REMARK SMILES IDX 37 46 38 47 41 48 39 49 65 50 66 51 74 52 67 53 68 54 72 55
REMARK SMILES IDX 75 56 69 57 70 58 73 59 71 60 50 61 51 62 59 63 52 64 53 65
REMARK SMILES IDX 57 66 60 67 54 68 55 69 58 70 56 71 6 72 7 73 8 74 9 75
REMARK SMILES IDX 10 77 11 78 12 79 23 80 13 81 14 82 15 85 16 86 21 87 17 88
REMARK SMILES IDX 20 89 22 90 18 91 19 92
REMARK H PARENT 3 6 80 24 48 35 8 76 23 83 23 84
REMARK Flexibility Score: inf
ROOT
ATOM      1  C   UNL A   1      34.607  32.946  29.542  1.00  0.00     0.023 C 
ENDROOT
BRANCH   1   2
ATOM      2  C   UNL A   1      34.431  32.635  28.062  1.00  0.00     0.116 C 
BRANCH   2   3
ATOM      3  N   UNL A   1      33.672  31.417  27.829  1.00  0.00    -0.352 N 
ATOM      4  O   UNL A   1      33.374  29.227  27.365  1.00  0.00    -0.269 OA
ATOM      5  C   UNL A   1      34.131  30.130  27.708  1.00  0.00     0.251 C 
ATOM      6  H   UNL A   1      32.698  31.532  27.745  1.00  0.00     0.163 HD
BRANCH   5   7
ATOM      7  C   UNL A   1      35.553  29.835  27.977  1.00  0.00     0.039 A 
ATOM      8  C   UNL A   1      36.525  30.075  27.001  1.00  0.00     0.014 A 
ATOM      9  C   UNL A   1      35.917  29.331  29.228  1.00  0.00     0.014 A 
ATOM     10  C   UNL A   1      37.845  29.712  27.239  1.00  0.00     0.010 A 
ATOM     11  C   UNL A   1      37.257  29.042  29.494  1.00  0.00     0.010 A 
ATOM     12  C   UNL A   1      38.228  29.226  28.498  1.00  0.00    -0.014 A 
BRANCH  12  13
ATOM     13  C   UNL A   1      39.667  29.049  28.804  1.00  0.00     0.031 A 
ATOM     14  C   UNL A   1      40.438  30.074  29.576  1.00  0.00     0.074 A 
ATOM     15  C   UNL A   1      40.270  27.930  28.363  1.00  0.00     0.049 A 
ATOM     16  N   UNL A   1      41.708  30.076  29.901  1.00  0.00    -0.248 NA
ATOM     17  C   UNL A   1      39.695  31.252  30.044  1.00  0.00     0.031 C 
ATOM     18  C   UNL A   1      39.608  26.865  27.607  1.00  0.00     0.029 A 
ATOM     19  N   UNL A   1      41.561  27.492  28.494  1.00  0.00    -0.354 N 
ATOM     20  C   UNL A   1      41.917  31.251  30.608  1.00  0.00     0.074 A 
ATOM     21  C   UNL A   1      40.651  31.955  30.636  1.00  0.00     0.031 C 
ATOM     22  C   UNL A   1      40.483  25.875  27.385  1.00  0.00     0.029 A 
ATOM     23  C   UNL A   1      41.782  26.268  27.917  1.00  0.00     0.049 A 
ATOM     24  H   UNL A   1      42.263  28.006  28.957  1.00  0.00     0.167 HD
ATOM     25  C   UNL A   1      43.063  31.693  31.184  1.00  0.00     0.037 A 
ATOM     26  C   UNL A   1      42.909  25.542  27.812  1.00  0.00     0.037 A 
ATOM     27  C   UNL A   1      44.321  30.989  31.127  1.00  0.00     0.049 A 
ATOM     28  C   UNL A   1      44.176  26.083  28.400  1.00  0.00     0.074 A 
ATOM     29  C   UNL A   1      45.544  31.359  31.661  1.00  0.00     0.029 A 
ATOM     30  N   UNL A   1      44.520  29.769  30.491  1.00  0.00    -0.354 N 
ATOM     31  N   UNL A   1      44.369  27.200  29.057  1.00  0.00    -0.248 NA
ATOM     32  C   UNL A   1      45.383  25.266  28.229  1.00  0.00     0.031 C 
ATOM     33  C   UNL A   1      46.490  30.390  31.306  1.00  0.00     0.029 A 
ATOM     34  C   UNL A   1      45.847  29.382  30.606  1.00  0.00     0.049 A 
ATOM     35  H   UNL A   1      43.820  29.256  30.025  1.00  0.00     0.167 HD
ATOM     36  C   UNL A   1      45.712  27.211  29.403  1.00  0.00     0.074 A 
ATOM     37  C   UNL A   1      46.283  25.982  28.889  1.00  0.00     0.031 C 
ATOM     38  C   UNL A   1      46.403  28.154  30.089  1.00  0.00     0.037 A 
BRANCH  25  39
ATOM     39  C   UNL A   1      43.013  33.009  31.909  1.00  0.00     0.064 A 
ATOM     40  C   UNL A   1      42.725  33.060  33.282  1.00  0.00     0.173 A 
ATOM     41  C   UNL A   1      43.214  34.226  31.240  1.00  0.00     0.173 A 
ATOM     42  F   UNL A   1      42.518  31.929  33.973  1.00  0.00    -0.203 F 
ATOM     43  C   UNL A   1      42.637  34.277  33.954  1.00  0.00     0.198 A 
ATOM     44  C   UNL A   1      43.157  35.439  31.921  1.00  0.00     0.198 A 
ATOM     45  F   UNL A   1      43.502  34.236  29.929  1.00  0.00    -0.203 F 
ATOM     46  F   UNL A   1      42.337  34.300  35.260  1.00  0.00    -0.200 F 
ATOM     47  C   UNL A   1      42.862  35.465  33.276  1.00  0.00     0.200 A 
ATOM     48  F   UNL A   1      43.400  36.585  31.269  1.00  0.00    -0.200 F 
ATOM     49  F   UNL A   1      42.799  36.634  33.929  1.00  0.00    -0.200 F 
ENDBRANCH  25  39
BRANCH  26  50
ATOM     50  C   UNL A   1      42.852  24.215  27.151  1.00  0.00     0.064 A 
ATOM     51  C   UNL A   1      42.493  23.060  27.862  1.00  0.00     0.173 A 
ATOM     52  C   UNL A   1      43.244  24.067  25.816  1.00  0.00     0.173 A 
ATOM     53  F   UNL A   1      42.123  23.150  29.149  1.00  0.00    -0.203 F 
ATOM     54  C   UNL A   1      42.563  21.802  27.269  1.00  0.00     0.198 A 
ATOM     55  C   UNL A   1      43.288  22.811  25.215  1.00  0.00     0.198 A 
ATOM     56  F   UNL A   1      43.583  25.146  25.094  1.00  0.00    -0.203 F 
ATOM     57  F   UNL A   1      42.270  20.708  27.985  1.00  0.00    -0.200 F 
ATOM     58  C   UNL A   1      42.960  21.678  25.946  1.00  0.00     0.200 A 
ATOM     59  F   UNL A   1      43.655  22.698  23.932  1.00  0.00    -0.200 F 
ATOM     60  F   UNL A   1      43.032  20.468  25.377  1.00  0.00    -0.200 F 
ENDBRANCH  26  50
BRANCH  38  61
ATOM     61  C   UNL A   1      47.853  27.873  30.364  1.00  0.00     0.064 A 
ATOM     62  C   UNL A   1      48.839  28.305  29.463  1.00  0.00     0.173 A 
ATOM     63  C   UNL A   1      48.267  27.157  31.496  1.00  0.00     0.173 A 
ATOM     64  F   UNL A   1      48.495  28.990  28.362  1.00  0.00    -0.203 F 
ATOM     65  C   UNL A   1      50.184  28.027  29.685  1.00  0.00     0.198 A 
ATOM     66  C   UNL A   1      49.618  26.908  31.731  1.00  0.00     0.198 A 
ATOM     67  F   UNL A   1      47.367  26.736  32.397  1.00  0.00    -0.203 F 
ATOM     68  F   UNL A   1      51.104  28.430  28.797  1.00  0.00    -0.200 F 
ATOM     69  C   UNL A   1      50.573  27.338  30.822  1.00  0.00     0.200 A 
ATOM     70  F   UNL A   1      49.995  26.269  32.847  1.00  0.00    -0.200 F 
ATOM     71  F   UNL A   1      51.872  27.094  31.048  1.00  0.00    -0.200 F 
ENDBRANCH  38  61
ENDBRANCH  12  13
ENDBRANCH   5   7
ENDBRANCH   2   3
ENDBRANCH   1   2
BRANCH   1  72
ATOM     72  C   UNL A   1      35.986  32.618  30.116  1.00  0.00     0.023 C 
BRANCH  72  73
ATOM     73  C   UNL A   1      36.913  33.818  30.295  1.00  0.00     0.116 C 
BRANCH  73  74
ATOM     74  N   UNL A   1      36.591  34.583  31.485  1.00  0.00    -0.351 N 
ATOM     75  C   UNL A   1      36.949  34.372  32.782  1.00  0.00     0.279 C 
ATOM     76  H   UNL A   1      36.027  35.375  31.331  1.00  0.00     0.163 HD
ATOM     77  O   UNL A   1      36.473  35.125  33.636  1.00  0.00    -0.268 OA
BRANCH  75  78
ATOM     78  C   UNL A   1      37.866  33.199  33.160  1.00  0.00     0.283 C 
ATOM     79  C   UNL A   1      39.055  33.702  33.983  1.00  0.00     0.151 C 
ATOM     80  N   UNL A   1      37.064  32.220  33.945  1.00  0.00    -0.320 N 
ATOM     81  S   UNL A   1      39.176  32.589  35.401  1.00  0.00    -0.087 SA
ATOM     82  C   UNL A   1      37.998  31.387  34.702  1.00  0.00     0.277 C 
ATOM     83  H   UNL A   1      36.512  31.638  33.314  1.00  0.00     0.348 HD
ATOM     84  H   UNL A   1      36.425  32.705  34.574  1.00  0.00     0.348 HD
BRANCH  82  85
ATOM     85  C   UNL A   1      38.694  30.273  33.936  1.00  0.00     0.059 A 
ATOM     86  C   UNL A   1      40.080  30.072  34.120  1.00  0.00     0.053 A 
ATOM     87  C   UNL A   1      38.034  29.376  33.081  1.00  0.00     0.133 A 
ATOM     88  C   UNL A   1      40.762  29.076  33.425  1.00  0.00     0.123 A 
ATOM     89  C   UNL A   1      38.723  28.379  32.384  1.00  0.00     0.043 A 
ATOM     90  F   UNL A   1      36.709  29.444  32.886  1.00  0.00    -0.206 F 
ATOM     91  F   UNL A   1      42.081  28.934  33.605  1.00  0.00    -0.207 F 
ATOM     92  C   UNL A   1      40.096  28.233  32.548  1.00  0.00     0.042 A 
ENDBRANCH  82  85
ENDBRANCH  75  78
ENDBRANCH  73  74
ENDBRANCH  72  73
ENDBRANCH   1  72
TORSDOF 12
ENDMDL
MODEL 3
REMARK VINA RESULT:      -9.7      3.415      8.736
REMARK SMILES O=C(NCCCCNC(=O)[C@H]1CS[C@H](c2cc(F)ccc2F)[NH2+]1)c1ccc(-c2c3nc(c(-c4c(F)c(F)c(F)c(F)c4F)c4ccc([nH]4)c(-c4c(F)c(F)c(F)c(F)c4F)c4nc(c(-c5c(F)c(F)c(F)c(F)c5F)c5ccc2[nH]5)C=C4)C=C3)cc1
REMARK SMILES IDX 5 1 4 2 3 3 1 4 2 5 24 7 25 8 86 9 26 10 85 11 27 12 28 13
REMARK SMILES IDX 29 14 79 15 30 16 84 17 78 18 80 19 31 20 83 21 77 22 76 23
REMARK SMILES IDX 32 25 64 26 44 27 63 28 45 29 48 30 62 31 81 32 46 33 47 34
REMARK SMILES IDX 61 36 82 37 49 38 33 39 34 40 42 41 35 42 36 43 40 44 43 45
REMARK SMILES IDX 37 46 38 47 41 48 39 49 65 50 66 51 74 52 67 53 68 54 72 55
REMARK SMILES IDX 75 56 69 57 70 58 73 59 71 60 50 61 51 62 59 63 52 64 53 65
REMARK SMILES IDX 57 66 60 67 54 68 55 69 58 70 56 71 6 72 7 73 8 74 9 75
REMARK SMILES IDX 10 77 11 78 12 79 23 80 13 81 14 82 15 85 16 86 21 87 17 88
REMARK SMILES IDX 20 89 22 90 18 91 19 92
REMARK H PARENT 3 6 80 24 48 35 8 76 23 83 23 84
REMARK Flexibility Score: inf
ROOT
ATOM      1  C   UNL A   1      34.962  32.988  29.577  1.00  0.00     0.023 C 
ENDROOT
BRANCH   1   2
ATOM      2  C   UNL A   1      34.678  32.796  28.093  1.00  0.00     0.116 C 
BRANCH   2   3
ATOM      3  N   UNL A   1      33.893  31.603  27.820  1.00  0.00    -0.352 N 
ATOM      4  O   UNL A   1      33.550  29.427  27.321  1.00  0.00    -0.269 OA
ATOM      5  C   UNL A   1      34.320  30.304  27.700  1.00  0.00     0.251 C 
ATOM      6  H   UNL A   1      32.926  31.746  27.704  1.00  0.00     0.163 HD
BRANCH   5   7
ATOM      7  C   UNL A   1      35.724  29.967  28.014  1.00  0.00     0.039 A 
ATOM      8  C   UNL A   1      36.737  30.205  27.082  1.00  0.00     0.014 A 
ATOM      9  C   UNL A   1      36.027  29.422  29.265  1.00  0.00     0.014 A 
ATOM     10  C   UNL A   1      38.038  29.803  27.359  1.00  0.00     0.010 A 
ATOM     11  C   UNL A   1      37.348  29.092  29.573  1.00  0.00     0.010 A 
ATOM     12  C   UNL A   1      38.360  29.275  28.619  1.00  0.00    -0.014 A 
BRANCH  12  13
ATOM     13  C   UNL A   1      39.782  29.054  28.974  1.00  0.00     0.031 A 
ATOM     14  C   UNL A   1      40.511  27.813  28.561  1.00  0.00     0.074 A 
ATOM     15  C   UNL A   1      40.407  30.009  29.687  1.00  0.00     0.049 A 
ATOM     16  N   UNL A   1      41.748  27.462  28.817  1.00  0.00    -0.248 NA
ATOM     17  C   UNL A   1      39.761  26.836  27.761  1.00  0.00     0.031 C 
ATOM     18  C   UNL A   1      39.789  31.259  30.134  1.00  0.00     0.029 A 
ATOM     19  N   UNL A   1      41.694  30.090  30.148  1.00  0.00    -0.354 N 
ATOM     20  C   UNL A   1      41.924  26.226  28.213  1.00  0.00     0.074 A 
ATOM     21  C   UNL A   1      40.657  25.871  27.607  1.00  0.00     0.031 C 
ATOM     22  C   UNL A   1      40.710  32.004  30.761  1.00  0.00     0.029 A 
ATOM     23  C   UNL A   1      41.958  31.254  30.823  1.00  0.00     0.049 A 
ATOM     24  H   UNL A   1      42.364  29.382  30.009  1.00  0.00     0.167 HD
ATOM     25  C   UNL A   1      43.046  25.465  28.167  1.00  0.00     0.037 A 
ATOM     26  C   UNL A   1      43.078  31.671  31.440  1.00  0.00     0.037 A 
ATOM     27  C   UNL A   1      44.294  25.825  28.797  1.00  0.00     0.049 A 
ATOM     28  C   UNL A   1      44.284  30.783  31.431  1.00  0.00     0.074 A 
ATOM     29  C   UNL A   1      45.483  25.116  28.826  1.00  0.00     0.029 A 
ATOM     30  N   UNL A   1      44.512  26.994  29.516  1.00  0.00    -0.354 N 
ATOM     31  N   UNL A   1      44.439  29.610  30.868  1.00  0.00    -0.248 NA
ATOM     32  C   UNL A   1      45.468  31.273  32.147  1.00  0.00     0.031 C 
ATOM     33  C   UNL A   1      46.403  25.831  29.602  1.00  0.00     0.029 A 
ATOM     34  C   UNL A   1      45.811  27.018  30.004  1.00  0.00     0.049 A 
ATOM     35  H   UNL A   1      43.842  27.701  29.658  1.00  0.00     0.167 HD
ATOM     36  C   UNL A   1      45.746  29.230  31.136  1.00  0.00     0.074 A 
ATOM     37  C   UNL A   1      46.341  30.305  31.906  1.00  0.00     0.031 C 
ATOM     38  C   UNL A   1      46.391  28.095  30.770  1.00  0.00     0.037 A 
BRANCH  25  39
ATOM     39  C   UNL A   1      42.969  24.158  27.428  1.00  0.00     0.064 A 
ATOM     40  C   UNL A   1      42.563  22.986  28.086  1.00  0.00     0.173 A 
ATOM     41  C   UNL A   1      43.332  24.054  26.077  1.00  0.00     0.173 A 
ATOM     42  F   UNL A   1      42.210  23.024  29.380  1.00  0.00    -0.203 F 
ATOM     43  C   UNL A   1      42.528  21.763  27.422  1.00  0.00     0.198 A 
ATOM     44  C   UNL A   1      43.266  22.835  25.406  1.00  0.00     0.198 A 
ATOM     45  F   UNL A   1      43.719  25.143  25.396  1.00  0.00    -0.203 F 
ATOM     46  F   UNL A   1      42.159  20.654  28.079  1.00  0.00    -0.200 F 
ATOM     47  C   UNL A   1      42.870  21.689  26.080  1.00  0.00     0.200 A 
ATOM     48  F   UNL A   1      43.572  22.771  24.103  1.00  0.00    -0.200 F 
ATOM     49  F   UNL A   1      42.814  20.516  25.436  1.00  0.00    -0.200 F 
ENDBRANCH  25  39
BRANCH  26  50
ATOM     50  C   UNL A   1      43.093  33.012  32.076  1.00  0.00     0.064 A 
ATOM     51  C   UNL A   1      42.802  33.178  33.438  1.00  0.00     0.173 A 
ATOM     52  C   UNL A   1      43.311  34.161  31.307  1.00  0.00     0.173 A 
ATOM     53  F   UNL A   1      42.572  32.106  34.212  1.00  0.00    -0.203 F 
ATOM     54  C   UNL A   1      42.693  34.448  33.999  1.00  0.00     0.198 A 
ATOM     55  C   UNL A   1      43.230  35.431  31.875  1.00  0.00     0.198 A 
ATOM     56  F   UNL A   1      43.606  34.049  30.003  1.00  0.00    -0.203 F 
ATOM     57  F   UNL A   1      42.359  34.582  35.289  1.00  0.00    -0.200 F 
ATOM     58  C   UNL A   1      42.908  35.573  33.217  1.00  0.00     0.200 A 
ATOM     59  F   UNL A   1      43.454  36.514  31.121  1.00  0.00    -0.200 F 
ATOM     60  F   UNL A   1      42.800  36.795  33.755  1.00  0.00    -0.200 F 
ENDBRANCH  26  50
BRANCH  38  61
ATOM     61  C   UNL A   1      47.836  27.975  31.163  1.00  0.00     0.064 A 
ATOM     62  C   UNL A   1      48.186  27.416  32.402  1.00  0.00     0.173 A 
ATOM     63  C   UNL A   1      48.870  28.431  30.333  1.00  0.00     0.173 A 
ATOM     64  F   UNL A   1      47.234  26.967  33.235  1.00  0.00    -0.203 F 
ATOM     65  C   UNL A   1      49.518  27.324  32.796  1.00  0.00     0.198 A 
ATOM     66  C   UNL A   1      50.203  28.308  30.718  1.00  0.00     0.198 A 
ATOM     67  F   UNL A   1      48.590  28.958  29.132  1.00  0.00    -0.203 F 
ATOM     68  F   UNL A   1      49.825  26.808  33.995  1.00  0.00    -0.200 F 
ATOM     69  C   UNL A   1      50.525  27.761  31.951  1.00  0.00     0.200 A 
ATOM     70  F   UNL A   1      51.178  28.703  29.887  1.00  0.00    -0.200 F 
ATOM     71  F   UNL A   1      51.808  27.648  32.321  1.00  0.00    -0.200 F 
ENDBRANCH  38  61
ENDBRANCH  12  13
ENDBRANCH   5   7
ENDBRANCH   2   3
ENDBRANCH   1   2
BRANCH   1  72
ATOM     72  C   UNL A   1      36.406  32.721  30.003  1.00  0.00     0.023 C 
BRANCH  72  73
ATOM     73  C   UNL A   1      37.243  33.970  30.267  1.00  0.00     0.116 C 
BRANCH  73  74
ATOM     74  N   UNL A   1      36.792  34.691  31.443  1.00  0.00    -0.351 N 
ATOM     75  C   UNL A   1      37.028  34.445  32.761  1.00  0.00     0.279 C 
ATOM     76  H   UNL A   1      36.228  35.477  31.258  1.00  0.00     0.163 HD
ATOM     77  O   UNL A   1      36.456  35.162  33.587  1.00  0.00    -0.268 OA
BRANCH  75  78
ATOM     78  C   UNL A   1      37.929  33.278  33.191  1.00  0.00     0.283 C 
ATOM     79  C   UNL A   1      39.097  33.796  34.034  1.00  0.00     0.151 C 
ATOM     80  N   UNL A   1      37.102  32.320  33.975  1.00  0.00    -0.320 N 
ATOM     81  S   UNL A   1      39.175  32.715  35.480  1.00  0.00    -0.087 SA
ATOM     82  C   UNL A   1      38.011  31.502  34.777  1.00  0.00     0.277 C 
ATOM     83  H   UNL A   1      36.565  31.726  33.342  1.00  0.00     0.348 HD
ATOM     84  H   UNL A   1      36.447  32.821  34.575  1.00  0.00     0.348 HD
BRANCH  82  85
ATOM     85  C   UNL A   1      38.723  30.367  34.055  1.00  0.00     0.059 A 
ATOM     86  C   UNL A   1      40.104  30.170  34.278  1.00  0.00     0.053 A 
ATOM     87  C   UNL A   1      38.083  29.450  33.207  1.00  0.00     0.133 A 
ATOM     88  C   UNL A   1      40.801  29.156  33.624  1.00  0.00     0.123 A 
ATOM     89  C   UNL A   1      38.786  28.435  32.552  1.00  0.00     0.043 A 
ATOM     90  F   UNL A   1      36.763  29.515  32.978  1.00  0.00    -0.206 F 
ATOM     91  F   UNL A   1      42.115  29.016  33.839  1.00  0.00    -0.207 F 
ATOM     92  C   UNL A   1      40.155  28.292  32.753  1.00  0.00     0.042 A 
ENDBRANCH  82  85
ENDBRANCH  75  78
ENDBRANCH  73  74
ENDBRANCH  72  73
ENDBRANCH   1  72
TORSDOF 12
ENDMDL
