MODEL 1
REMARK VINA RESULT:     -11.8      0.000      0.000
REMARK SMILES CC(C)C[C@H](NC(=O)CNC(=O)[C@@H](NC(=O)OCc1ccccc1)C(C)C)C(=O)NCCCCNC(=O)c1ccc(-c2c3nc(c(-c4c(F)c(F)c(F)c(F)c4F)c4ccc([nH]4)c(-c4c(F)c(F)c(F)c(F)c4F)c4nc(c(-c5c(F)c(F)c(F)c(F)c5F)c5ccc2[nH]5)C=C4)C=C3)cc1
REMARK SMILES IDX 28 1 29 2 30 3 5 5 4 6 2 7 1 8 3 9 6 10 7 11 8 13 9 14 10 15
REMARK SMILES IDX 11 16 12 18 13 19 14 20 15 21 16 23 17 24 18 25 19 26 20 27
REMARK SMILES IDX 24 28 21 29 23 30 22 31 25 32 26 33 27 34 31 35 32 36 33 37
REMARK SMILES IDX 34 38 35 39 36 40 37 42 38 43 39 44 100 45 40 46 99 47 41 48
REMARK SMILES IDX 42 49 43 50 93 51 44 52 98 53 92 54 94 55 45 56 97 57 91 58
REMARK SMILES IDX 90 59 46 61 78 62 58 63 77 64 59 65 62 66 76 67 95 68 60 69
REMARK SMILES IDX 61 70 75 72 96 73 63 74 47 75 48 76 56 77 49 78 50 79 54 80
REMARK SMILES IDX 57 81 51 82 52 83 55 84 53 85 79 86 80 87 88 88 81 89 82 90
REMARK SMILES IDX 86 91 89 92 83 93 84 94 87 95 85 96 64 97 65 98 73 99 66 100
REMARK SMILES IDX 67 101 71 102 74 103 68 104 69 105 72 106 70 107
REMARK H PARENT 30 4 6 12 10 17 14 22 35 41 94 60 62 71
REMARK Flexibility Score: inf
ROOT
ATOM      1  C   UNL A   1      32.765  27.107  25.568  1.00  0.00     0.242 C 
ATOM      2  O   UNL A   1      33.920  27.040  25.144  1.00  0.00    -0.273 OA
ATOM      3  N   UNL A   1      32.564  27.430  26.928  1.00  0.00    -0.354 N 
ATOM      4  H   UNL A   1      32.587  26.700  27.588  1.00  0.00     0.163 HD
ENDROOT
BRANCH   1   5
ATOM      5  C   UNL A   1      31.517  26.511  24.754  1.00  0.00     0.171 C 
BRANCH   5   6
ATOM      6  C   UNL A   1      30.292  27.369  24.226  1.00  0.00     0.038 C 
BRANCH   6   7
ATOM      7  C   UNL A   1      30.359  28.501  23.074  1.00  0.00    -0.015 C 
ATOM      8  C   UNL A   1      29.647  29.871  23.282  1.00  0.00     0.007 C 
ATOM      9  C   UNL A   1      31.778  28.941  22.736  1.00  0.00     0.007 C 
ENDBRANCH   6   7
ENDBRANCH   5   6
BRANCH   5  10
ATOM     10  N   UNL A   1      31.016  25.406  25.475  1.00  0.00    -0.343 N 
ATOM     11  C   UNL A   1      31.519  24.170  25.247  1.00  0.00     0.240 C 
ATOM     12  H   UNL A   1      30.303  25.534  26.142  1.00  0.00     0.164 HD
ATOM     13  O   UNL A   1      31.222  23.276  26.042  1.00  0.00    -0.273 OA
BRANCH  11  14
ATOM     14  C   UNL A   1      32.466  23.885  23.994  1.00  0.00     0.216 C 
BRANCH  14  15
ATOM     15  N   UNL A   1      33.977  23.698  23.711  1.00  0.00    -0.345 N 
ATOM     16  C   UNL A   1      35.232  23.222  23.926  1.00  0.00     0.243 C 
ATOM     17  H   UNL A   1      34.101  24.244  22.901  1.00  0.00     0.164 HD
ATOM     18  O   UNL A   1      35.879  23.413  22.865  1.00  0.00    -0.273 OA
BRANCH  16  19
ATOM     19  C   UNL A   1      36.144  22.534  25.133  1.00  0.00     0.177 C 
BRANCH  19  20
ATOM     20  N   UNL A   1      35.448  22.165  26.400  1.00  0.00    -0.309 N 
ATOM     21  C   UNL A   1      34.229  21.598  26.690  1.00  0.00     0.408 C 
ATOM     22  H   UNL A   1      35.978  22.372  27.204  1.00  0.00     0.167 HD
ATOM     23  O   UNL A   1      33.817  21.575  27.837  1.00  0.00    -0.225 OA
BRANCH  21  24
ATOM     24  O   UNL A   1      33.527  21.156  25.613  1.00  0.00    -0.445 OA
BRANCH  24  25
ATOM     25  C   UNL A   1      32.925  19.846  25.718  1.00  0.00     0.270 C 
BRANCH  25  26
ATOM     26  C   UNL A   1      33.259  18.817  24.679  1.00  0.00    -0.011 A 
ATOM     27  C   UNL A   1      32.490  18.771  23.504  1.00  0.00     0.007 A 
ATOM     28  C   UNL A   1      34.346  17.958  24.825  1.00  0.00     0.007 A 
ATOM     29  C   UNL A   1      32.749  17.810  22.532  1.00  0.00     0.000 A 
ATOM     30  C   UNL A   1      34.600  16.991  23.855  1.00  0.00     0.000 A 
ATOM     31  C   UNL A   1      33.791  16.906  22.721  1.00  0.00     0.000 A 
ENDBRANCH  25  26
ENDBRANCH  24  25
ENDBRANCH  21  24
ENDBRANCH  19  20
BRANCH  19  32
ATOM     32  C   UNL A   1      37.444  21.731  24.825  1.00  0.00     0.015 C 
ATOM     33  C   UNL A   1      38.565  22.057  25.818  1.00  0.00     0.010 C 
ATOM     34  C   UNL A   1      37.262  20.192  24.868  1.00  0.00     0.010 C 
ENDBRANCH  19  32
ENDBRANCH  16  19
ENDBRANCH  14  15
ENDBRANCH  11  14
ENDBRANCH   5  10
ENDBRANCH   1   5
BRANCH   3  35
ATOM     35  C   UNL A   1      32.319  28.805  27.417  1.00  0.00     0.116 C 
BRANCH  35  36
ATOM     36  C   UNL A   1      32.564  29.940  26.406  1.00  0.00     0.023 C 
BRANCH  36  37
ATOM     37  C   UNL A   1      32.047  31.338  26.808  1.00  0.00     0.023 C 
BRANCH  37  38
ATOM     38  C   UNL A   1      33.024  32.342  27.424  1.00  0.00     0.116 C 
BRANCH  38  39
ATOM     39  N   UNL A   1      32.491  33.681  27.667  1.00  0.00    -0.352 N 
ATOM     40  C   UNL A   1      33.014  34.704  28.434  1.00  0.00     0.251 C 
ATOM     41  H   UNL A   1      31.638  33.883  27.220  1.00  0.00     0.163 HD
ATOM     42  O   UNL A   1      32.465  35.800  28.483  1.00  0.00    -0.269 OA
BRANCH  40  43
ATOM     43  C   UNL A   1      34.196  34.439  29.280  1.00  0.00     0.039 A 
ATOM     44  C   UNL A   1      33.987  33.919  30.560  1.00  0.00     0.014 A 
ATOM     45  C   UNL A   1      35.488  34.574  28.775  1.00  0.00     0.014 A 
ATOM     46  C   UNL A   1      35.068  33.415  31.284  1.00  0.00     0.010 A 
ATOM     47  C   UNL A   1      36.548  33.976  29.452  1.00  0.00     0.010 A 
ATOM     48  C   UNL A   1      36.347  33.374  30.705  1.00  0.00    -0.014 A 
BRANCH  48  49
ATOM     49  C   UNL A   1      37.477  32.685  31.384  1.00  0.00     0.031 A 
ATOM     50  C   UNL A   1      38.144  31.507  30.730  1.00  0.00     0.074 A 
ATOM     51  C   UNL A   1      37.859  33.074  32.618  1.00  0.00     0.049 A 
ATOM     52  N   UNL A   1      39.098  30.735  31.187  1.00  0.00    -0.248 NA
ATOM     53  C   UNL A   1      37.650  31.122  29.399  1.00  0.00     0.031 C 
ATOM     54  C   UNL A   1      37.258  34.165  33.388  1.00  0.00     0.029 A 
ATOM     55  N   UNL A   1      38.841  32.591  33.448  1.00  0.00    -0.354 N 
ATOM     56  C   UNL A   1      39.304  29.771  30.210  1.00  0.00     0.074 A 
ATOM     57  C   UNL A   1      38.333  30.013  29.164  1.00  0.00     0.031 C 
ATOM     58  C   UNL A   1      37.905  34.290  34.558  1.00  0.00     0.029 A 
ATOM     59  C   UNL A   1      38.936  33.262  34.644  1.00  0.00     0.049 A 
ATOM     60  H   UNL A   1      39.422  31.833  33.209  1.00  0.00     0.167 HD
ATOM     61  C   UNL A   1      40.236  28.790  30.172  1.00  0.00     0.037 A 
ATOM     62  C   UNL A   1      39.759  33.068  35.694  1.00  0.00     0.037 A 
ATOM     63  C   UNL A   1      41.219  28.569  31.199  1.00  0.00     0.049 A 
ATOM     64  C   UNL A   1      40.780  31.963  35.629  1.00  0.00     0.074 A 
ATOM     65  C   UNL A   1      42.250  27.647  31.221  1.00  0.00     0.029 A 
ATOM     66  N   UNL A   1      41.291  29.279  32.389  1.00  0.00    -0.354 N 
ATOM     67  N   UNL A   1      41.018  31.109  34.663  1.00  0.00    -0.248 NA
ATOM     68  C   UNL A   1      41.651  31.797  36.801  1.00  0.00     0.031 C 
ATOM     69  C   UNL A   1      42.910  27.758  32.448  1.00  0.00     0.029 A 
ATOM     70  C   UNL A   1      42.332  28.793  33.165  1.00  0.00     0.049 A 
ATOM     71  H   UNL A   1      40.692  30.017  32.644  1.00  0.00     0.167 HD
ATOM     72  C   UNL A   1      42.084  30.331  35.094  1.00  0.00     0.074 A 
ATOM     73  C   UNL A   1      42.457  30.822  36.404  1.00  0.00     0.031 C 
ATOM     74  C   UNL A   1      42.699  29.301  34.463  1.00  0.00     0.037 A 
BRANCH  61  75
ATOM     75  C   UNL A   1      40.237  27.880  28.977  1.00  0.00     0.064 A 
ATOM     76  C   UNL A   1      40.957  28.191  27.814  1.00  0.00     0.173 A 
ATOM     77  C   UNL A   1      39.538  26.664  29.009  1.00  0.00     0.173 A 
ATOM     78  F   UNL A   1      41.633  29.346  27.725  1.00  0.00    -0.203 F 
ATOM     79  C   UNL A   1      40.950  27.335  26.714  1.00  0.00     0.198 A 
ATOM     80  C   UNL A   1      39.562  25.794  27.922  1.00  0.00     0.198 A 
ATOM     81  F   UNL A   1      38.837  26.314  30.099  1.00  0.00    -0.203 F 
ATOM     82  F   UNL A   1      41.599  27.680  25.595  1.00  0.00    -0.200 F 
ATOM     83  C   UNL A   1      40.260  26.134  26.773  1.00  0.00     0.200 A 
ATOM     84  F   UNL A   1      38.906  24.627  27.986  1.00  0.00    -0.200 F 
ATOM     85  F   UNL A   1      40.262  25.306  25.719  1.00  0.00    -0.200 F 
ENDBRANCH  61  75
BRANCH  62  86
ATOM     86  C   UNL A   1      39.675  33.952  36.887  1.00  0.00     0.064 A 
ATOM     87  C   UNL A   1      38.910  33.584  38.004  1.00  0.00     0.173 A 
ATOM     88  C   UNL A   1      40.333  35.190  36.930  1.00  0.00     0.173 A 
ATOM     89  F   UNL A   1      38.243  32.420  38.004  1.00  0.00    -0.203 F 
ATOM     90  C   UNL A   1      38.787  34.429  39.105  1.00  0.00     0.198 A 
ATOM     91  C   UNL A   1      40.235  36.021  38.046  1.00  0.00     0.198 A 
ATOM     92  F   UNL A   1      41.081  35.591  35.891  1.00  0.00    -0.203 F 
ATOM     93  F   UNL A   1      38.006  34.074  40.135  1.00  0.00    -0.200 F 
ATOM     94  C   UNL A   1      39.453  35.644  39.128  1.00  0.00     0.200 A 
ATOM     95  F   UNL A   1      40.893  37.188  38.069  1.00  0.00    -0.200 F 
ATOM     96  F   UNL A   1      39.336  36.456  40.186  1.00  0.00    -0.200 F 
ENDBRANCH  62  86
BRANCH  74  97
ATOM     97  C   UNL A   1      43.869  28.663  35.156  1.00  0.00     0.064 A 
ATOM     98  C   UNL A   1      43.707  27.593  36.047  1.00  0.00     0.173 A 
ATOM     99  C   UNL A   1      45.175  29.103  34.889  1.00  0.00     0.173 A 
ATOM    100  F   UNL A   1      42.478  27.144  36.348  1.00  0.00    -0.203 F 
ATOM    101  C   UNL A   1      44.806  27.005  36.668  1.00  0.00     0.198 A 
ATOM    102  C   UNL A   1      46.274  28.490  35.483  1.00  0.00     0.198 A 
ATOM    103  F   UNL A   1      45.387  30.117  34.037  1.00  0.00    -0.203 F 
ATOM    104  F   UNL A   1      44.624  26.017  37.556  1.00  0.00    -0.200 F 
ATOM    105  C   UNL A   1      46.089  27.448  36.379  1.00  0.00     0.200 A 
ATOM    106  F   UNL A   1      47.513  28.907  35.189  1.00  0.00    -0.200 F 
ATOM    107  F   UNL A   1      47.146  26.873  36.968  1.00  0.00    -0.200 F 
ENDBRANCH  74  97
ENDBRANCH  48  49
ENDBRANCH  40  43
ENDBRANCH  38  39
ENDBRANCH  37  38
ENDBRANCH  36  37
ENDBRANCH  35  36
ENDBRANCH   3  35
TORSDOF 22
ENDMDL
MODEL 2
REMARK VINA RESULT:     -11.7      0.771      7.019
REMARK SMILES CC(C)C[C@H](NC(=O)CNC(=O)[C@@H](NC(=O)OCc1ccccc1)C(C)C)C(=O)NCCCCNC(=O)c1ccc(-c2c3nc(c(-c4c(F)c(F)c(F)c(F)c4F)c4ccc([nH]4)c(-c4c(F)c(F)c(F)c(F)c4F)c4nc(c(-c5c(F)c(F)c(F)c(F)c5F)c5ccc2[nH]5)C=C4)C=C3)cc1
REMARK SMILES IDX 28 1 29 2 30 3 5 5 4 6 2 7 1 8 3 9 6 10 7 11 8 13 9 14 10 15
REMARK SMILES IDX 11 16 12 18 13 19 14 20 15 21 16 23 17 24 18 25 19 26 20 27
REMARK SMILES IDX 24 28 21 29 23 30 22 31 25 32 26 33 27 34 31 35 32 36 33 37
REMARK SMILES IDX 34 38 35 39 36 40 37 42 38 43 39 44 100 45 40 46 99 47 41 48
REMARK SMILES IDX 42 49 43 50 93 51 44 52 98 53 92 54 94 55 45 56 97 57 91 58
REMARK SMILES IDX 90 59 46 61 78 62 58 63 77 64 59 65 62 66 76 67 95 68 60 69
REMARK SMILES IDX 61 70 75 72 96 73 63 74 47 75 48 76 56 77 49 78 50 79 54 80
REMARK SMILES IDX 57 81 51 82 52 83 55 84 53 85 79 86 80 87 88 88 81 89 82 90
REMARK SMILES IDX 86 91 89 92 83 93 84 94 87 95 85 96 64 97 65 98 73 99 66 100
REMARK SMILES IDX 67 101 71 102 74 103 68 104 69 105 72 106 70 107
REMARK H PARENT 30 4 6 12 10 17 14 22 35 41 94 60 62 71
REMARK Flexibility Score: inf
ROOT
ATOM      1  C   UNL A   1      31.909  27.415  24.772  1.00  0.00     0.242 C 
ATOM      2  O   UNL A   1      32.883  27.580  24.036  1.00  0.00    -0.273 OA
ATOM      3  N   UNL A   1      32.068  27.631  26.159  1.00  0.00    -0.354 N 
ATOM      4  H   UNL A   1      32.401  26.886  26.710  1.00  0.00     0.163 HD
ENDROOT
BRANCH   1   5
ATOM      5  C   UNL A   1      30.589  26.642  24.288  1.00  0.00     0.171 C 
BRANCH   5   6
ATOM      6  C   UNL A   1      29.299  27.346  23.691  1.00  0.00     0.038 C 
BRANCH   6   7
ATOM      7  C   UNL A   1      29.283  28.718  22.837  1.00  0.00    -0.015 C 
ATOM      8  C   UNL A   1      27.929  29.339  22.379  1.00  0.00     0.007 C 
ATOM      9  C   UNL A   1      29.930  29.893  23.560  1.00  0.00     0.007 C 
ENDBRANCH   6   7
ENDBRANCH   5   6
BRANCH   5  10
ATOM     10  N   UNL A   1      30.188  25.773  25.325  1.00  0.00    -0.343 N 
ATOM     11  C   UNL A   1      30.681  24.514  25.376  1.00  0.00     0.240 C 
ATOM     12  H   UNL A   1      29.553  26.083  26.011  1.00  0.00     0.164 HD
ATOM     13  O   UNL A   1      30.489  23.865  26.407  1.00  0.00    -0.273 OA
BRANCH  11  14
ATOM     14  C   UNL A   1      31.486  23.895  24.145  1.00  0.00     0.216 C 
BRANCH  14  15
ATOM     15  N   UNL A   1      32.961  23.702  23.713  1.00  0.00    -0.345 N 
ATOM     16  C   UNL A   1      34.261  23.330  23.858  1.00  0.00     0.243 C 
ATOM     17  H   UNL A   1      32.951  24.055  22.793  1.00  0.00     0.164 HD
ATOM     18  O   UNL A   1      34.761  23.299  22.705  1.00  0.00    -0.273 OA
BRANCH  16  19
ATOM     19  C   UNL A   1      35.353  22.963  25.056  1.00  0.00     0.177 C 
BRANCH  19  20
ATOM     20  N   UNL A   1      34.838  22.845  26.451  1.00  0.00    -0.309 N 
ATOM     21  C   UNL A   1      33.729  22.256  27.012  1.00  0.00     0.408 C 
ATOM     22  H   UNL A   1      35.418  23.285  27.113  1.00  0.00     0.167 HD
ATOM     23  O   UNL A   1      33.440  22.470  28.177  1.00  0.00    -0.225 OA
BRANCH  21  24
ATOM     24  O   UNL A   1      32.978  21.508  26.161  1.00  0.00    -0.445 OA
BRANCH  24  25
ATOM     25  C   UNL A   1      33.278  20.095  26.094  1.00  0.00     0.270 C 
BRANCH  25  26
ATOM     26  C   UNL A   1      33.041  19.371  24.802  1.00  0.00    -0.011 A 
ATOM     27  C   UNL A   1      32.450  20.068  23.736  1.00  0.00     0.007 A 
ATOM     28  C   UNL A   1      33.452  18.051  24.619  1.00  0.00     0.007 A 
ATOM     29  C   UNL A   1      32.185  19.421  22.533  1.00  0.00     0.000 A 
ATOM     30  C   UNL A   1      33.180  17.402  23.418  1.00  0.00     0.000 A 
ATOM     31  C   UNL A   1      32.531  18.080  22.385  1.00  0.00     0.000 A 
ENDBRANCH  25  26
ENDBRANCH  24  25
ENDBRANCH  21  24
ENDBRANCH  19  20
BRANCH  19  32
ATOM     32  C   UNL A   1      36.664  22.173  24.758  1.00  0.00     0.015 C 
ATOM     33  C   UNL A   1      37.817  22.621  25.662  1.00  0.00     0.010 C 
ATOM     34  C   UNL A   1      36.535  20.640  24.949  1.00  0.00     0.010 C 
ENDBRANCH  19  32
ENDBRANCH  16  19
ENDBRANCH  14  15
ENDBRANCH  11  14
ENDBRANCH   5  10
ENDBRANCH   1   5
BRANCH   3  35
ATOM     35  C   UNL A   1      31.760  28.913  26.830  1.00  0.00     0.116 C 
BRANCH  35  36
ATOM     36  C   UNL A   1      32.320  30.182  26.162  1.00  0.00     0.023 C 
BRANCH  36  37
ATOM     37  C   UNL A   1      31.872  31.530  26.768  1.00  0.00     0.023 C 
BRANCH  37  38
ATOM     38  C   UNL A   1      32.934  32.497  27.296  1.00  0.00     0.116 C 
BRANCH  38  39
ATOM     39  N   UNL A   1      32.461  33.837  27.636  1.00  0.00    -0.352 N 
ATOM     40  C   UNL A   1      33.040  34.786  28.455  1.00  0.00     0.251 C 
ATOM     41  H   UNL A   1      31.608  34.102  27.222  1.00  0.00     0.163 HD
ATOM     42  O   UNL A   1      32.538  35.897  28.587  1.00  0.00    -0.269 OA
BRANCH  40  43
ATOM     43  C   UNL A   1      34.226  34.420  29.257  1.00  0.00     0.039 A 
ATOM     44  C   UNL A   1      34.021  33.812  30.498  1.00  0.00     0.014 A 
ATOM     45  C   UNL A   1      35.513  34.550  28.739  1.00  0.00     0.014 A 
ATOM     46  C   UNL A   1      35.097  33.220  31.162  1.00  0.00     0.010 A 
ATOM     47  C   UNL A   1      36.564  33.869  29.349  1.00  0.00     0.010 A 
ATOM     48  C   UNL A   1      36.363  33.181  30.557  1.00  0.00    -0.014 A 
BRANCH  48  49
ATOM     49  C   UNL A   1      37.481  32.406  31.161  1.00  0.00     0.031 A 
ATOM     50  C   UNL A   1      37.967  32.737  32.544  1.00  0.00     0.074 A 
ATOM     51  C   UNL A   1      38.104  31.452  30.439  1.00  0.00     0.049 A 
ATOM     52  N   UNL A   1      38.966  32.223  33.217  1.00  0.00    -0.248 NA
ATOM     53  C   UNL A   1      37.258  33.812  33.255  1.00  0.00     0.031 C 
ATOM     54  C   UNL A   1      37.769  31.072  29.065  1.00  0.00     0.029 A 
ATOM     55  N   UNL A   1      39.157  30.630  30.758  1.00  0.00    -0.354 N 
ATOM     56  C   UNL A   1      39.013  32.921  34.415  1.00  0.00     0.074 A 
ATOM     57  C   UNL A   1      37.985  33.938  34.354  1.00  0.00     0.031 C 
ATOM     58  C   UNL A   1      38.573  30.071  28.674  1.00  0.00     0.029 A 
ATOM     59  C   UNL A   1      39.512  29.767  29.748  1.00  0.00     0.049 A 
ATOM     60  H   UNL A   1      39.617  30.657  31.628  1.00  0.00     0.167 HD
ATOM     61  C   UNL A   1      39.819  32.716  35.484  1.00  0.00     0.037 A 
ATOM     62  C   UNL A   1      40.487  28.838  29.693  1.00  0.00     0.037 A 
ATOM     63  C   UNL A   1      40.820  31.685  35.555  1.00  0.00     0.049 A 
ATOM     64  C   UNL A   1      41.376  28.637  30.892  1.00  0.00     0.074 A 
ATOM     65  C   UNL A   1      41.639  31.351  36.618  1.00  0.00     0.029 A 
ATOM     66  N   UNL A   1      41.140  30.822  34.516  1.00  0.00    -0.354 N 
ATOM     67  N   UNL A   1      41.357  29.250  32.051  1.00  0.00    -0.248 NA
ATOM     68  C   UNL A   1      42.422  27.611  30.776  1.00  0.00     0.031 C 
ATOM     69  C   UNL A   1      42.495  30.326  36.205  1.00  0.00     0.029 A 
ATOM     70  C   UNL A   1      42.167  29.976  34.905  1.00  0.00     0.049 A 
ATOM     71  H   UNL A   1      40.704  30.813  33.634  1.00  0.00     0.167 HD
ATOM     72  C   UNL A   1      42.358  28.662  32.812  1.00  0.00     0.074 A 
ATOM     73  C   UNL A   1      42.959  27.634  31.988  1.00  0.00     0.031 C 
ATOM     74  C   UNL A   1      42.747  28.949  34.079  1.00  0.00     0.037 A 
BRANCH  61  75
ATOM     75  C   UNL A   1      39.648  33.626  36.667  1.00  0.00     0.064 A 
ATOM     76  C   UNL A   1      40.296  34.868  36.741  1.00  0.00     0.173 A 
ATOM     77  C   UNL A   1      38.798  33.266  37.723  1.00  0.00     0.173 A 
ATOM     78  F   UNL A   1      41.130  35.255  35.765  1.00  0.00    -0.203 F 
ATOM     79  C   UNL A   1      40.126  35.701  37.845  1.00  0.00     0.198 A 
ATOM     80  C   UNL A   1      38.601  34.117  38.808  1.00  0.00     0.198 A 
ATOM     81  F   UNL A   1      38.149  32.092  37.700  1.00  0.00    -0.203 F 
ATOM     82  F   UNL A   1      40.799  36.857  37.919  1.00  0.00    -0.200 F 
ATOM     83  C   UNL A   1      39.273  35.329  38.872  1.00  0.00     0.200 A 
ATOM     84  F   UNL A   1      37.765  33.763  39.793  1.00  0.00    -0.200 F 
ATOM     85  F   UNL A   1      39.101  36.136  39.928  1.00  0.00    -0.200 F 
ENDBRANCH  61  75
BRANCH  62  86
ATOM     86  C   UNL A   1      40.663  28.006  28.472  1.00  0.00     0.064 A 
ATOM     87  C   UNL A   1      41.431  28.466  27.392  1.00  0.00     0.173 A 
ATOM     88  C   UNL A   1      40.052  26.749  28.347  1.00  0.00     0.173 A 
ATOM     89  F   UNL A   1      42.017  29.670  27.452  1.00  0.00    -0.203 F 
ATOM     90  C   UNL A   1      41.560  27.714  26.226  1.00  0.00     0.198 A 
ATOM     91  C   UNL A   1      40.209  25.984  27.192  1.00  0.00     0.198 A 
ATOM     92  F   UNL A   1      39.310  26.260  29.351  1.00  0.00    -0.203 F 
ATOM     93  F   UNL A   1      42.255  28.202  25.189  1.00  0.00    -0.200 F 
ATOM     94  C   UNL A   1      40.954  26.471  26.129  1.00  0.00     0.200 A 
ATOM     95  F   UNL A   1      39.633  24.776  27.110  1.00  0.00    -0.200 F 
ATOM     96  F   UNL A   1      41.078  25.747  25.008  1.00  0.00    -0.200 F 
ENDBRANCH  62  86
BRANCH  74  97
ATOM     97  C   UNL A   1      43.844  28.111  34.672  1.00  0.00     0.064 A 
ATOM     98  C   UNL A   1      45.190  28.491  34.591  1.00  0.00     0.173 A 
ATOM     99  C   UNL A   1      43.535  26.933  35.371  1.00  0.00     0.173 A 
ATOM    100  F   UNL A   1      45.541  29.600  33.922  1.00  0.00    -0.203 F 
ATOM    101  C   UNL A   1      46.191  27.708  35.162  1.00  0.00     0.198 A 
ATOM    102  C   UNL A   1      44.532  26.172  35.971  1.00  0.00     0.198 A 
ATOM    103  F   UNL A   1      42.260  26.530  35.486  1.00  0.00    -0.203 F 
ATOM    104  F   UNL A   1      47.476  28.063  35.027  1.00  0.00    -0.200 F 
ATOM    105  C   UNL A   1      45.860  26.555  35.859  1.00  0.00     0.200 A 
ATOM    106  F   UNL A   1      44.210  25.068  36.659  1.00  0.00    -0.200 F 
ATOM    107  F   UNL A   1      46.824  25.809  36.417  1.00  0.00    -0.200 F 
ENDBRANCH  74  97
ENDBRANCH  48  49
ENDBRANCH  40  43
ENDBRANCH  38  39
ENDBRANCH  37  38
ENDBRANCH  36  37
ENDBRANCH  35  36
ENDBRANCH   3  35
TORSDOF 22
ENDMDL
MODEL 3
REMARK VINA RESULT:     -11.6      1.237      7.335
REMARK SMILES CC(C)C[C@H](NC(=O)CNC(=O)[C@@H](NC(=O)OCc1ccccc1)C(C)C)C(=O)NCCCCNC(=O)c1ccc(-c2c3nc(c(-c4c(F)c(F)c(F)c(F)c4F)c4ccc([nH]4)c(-c4c(F)c(F)c(F)c(F)c4F)c4nc(c(-c5c(F)c(F)c(F)c(F)c5F)c5ccc2[nH]5)C=C4)C=C3)cc1
REMARK SMILES IDX 28 1 29 2 30 3 5 5 4 6 2 7 1 8 3 9 6 10 7 11 8 13 9 14 10 15
REMARK SMILES IDX 11 16 12 18 13 19 14 20 15 21 16 23 17 24 18 25 19 26 20 27
REMARK SMILES IDX 24 28 21 29 23 30 22 31 25 32 26 33 27 34 31 35 32 36 33 37
REMARK SMILES IDX 34 38 35 39 36 40 37 42 38 43 39 44 100 45 40 46 99 47 41 48
REMARK SMILES IDX 42 49 43 50 93 51 44 52 98 53 92 54 94 55 45 56 97 57 91 58
REMARK SMILES IDX 90 59 46 61 78 62 58 63 77 64 59 65 62 66 76 67 95 68 60 69
REMARK SMILES IDX 61 70 75 72 96 73 63 74 47 75 48 76 56 77 49 78 50 79 54 80
REMARK SMILES IDX 57 81 51 82 52 83 55 84 53 85 79 86 80 87 88 88 81 89 82 90
REMARK SMILES IDX 86 91 89 92 83 93 84 94 87 95 85 96 64 97 65 98 73 99 66 100
REMARK SMILES IDX 67 101 71 102 74 103 68 104 69 105 72 106 70 107
REMARK H PARENT 30 4 6 12 10 17 14 22 35 41 94 60 62 71
REMARK Flexibility Score: inf
ROOT
ATOM      1  C   UNL A   1      31.274  26.758  26.578  1.00  0.00     0.242 C 
ATOM      2  O   UNL A   1      31.775  26.340  27.623  1.00  0.00    -0.273 OA
ATOM      3  N   UNL A   1      31.169  28.153  26.391  1.00  0.00    -0.354 N 
ATOM      4  H   UNL A   1      30.379  28.614  26.758  1.00  0.00     0.163 HD
ENDROOT
BRANCH   1   5
ATOM      5  C   UNL A   1      30.431  25.812  25.592  1.00  0.00     0.171 C 
BRANCH   5   6
ATOM      6  C   UNL A   1      29.547  26.330  24.382  1.00  0.00     0.038 C 
BRANCH   6   7
ATOM      7  C   UNL A   1      29.868  27.621  23.464  1.00  0.00    -0.015 C 
ATOM      8  C   UNL A   1      30.851  27.500  22.260  1.00  0.00     0.007 C 
ATOM      9  C   UNL A   1      28.635  28.214  22.795  1.00  0.00     0.007 C 
ENDBRANCH   6   7
ENDBRANCH   5   6
BRANCH   5  10
ATOM     10  N   UNL A   1      29.647  24.947  26.385  1.00  0.00    -0.343 N 
ATOM     11  C   UNL A   1      30.141  23.743  26.757  1.00  0.00     0.240 C 
ATOM     12  H   UNL A   1      28.744  25.219  26.667  1.00  0.00     0.164 HD
ATOM     13  O   UNL A   1      29.528  23.117  27.625  1.00  0.00    -0.273 OA
BRANCH  11  14
ATOM     14  C   UNL A   1      31.472  23.159  26.098  1.00  0.00     0.216 C 
BRANCH  14  15
ATOM     15  N   UNL A   1      32.687  22.299  26.524  1.00  0.00    -0.345 N 
ATOM     16  C   UNL A   1      33.755  21.478  26.339  1.00  0.00     0.243 C 
ATOM     17  H   UNL A   1      32.683  22.412  27.502  1.00  0.00     0.164 HD
ATOM     18  O   UNL A   1      34.419  21.501  27.406  1.00  0.00    -0.273 OA
BRANCH  16  19
ATOM     19  C   UNL A   1      34.397  20.462  25.191  1.00  0.00     0.177 C 
BRANCH  19  20
ATOM     20  N   UNL A   1      35.808  20.015  25.374  1.00  0.00    -0.309 N 
ATOM     21  C   UNL A   1      37.007  20.385  24.809  1.00  0.00     0.408 C 
ATOM     22  H   UNL A   1      35.902  19.300  26.044  1.00  0.00     0.167 HD
ATOM     23  O   UNL A   1      38.011  19.720  25.003  1.00  0.00    -0.225 OA
BRANCH  21  24
ATOM     24  O   UNL A   1      36.951  21.469  23.991  1.00  0.00    -0.445 OA
BRANCH  24  25
ATOM     25  C   UNL A   1      36.957  22.767  24.625  1.00  0.00     0.270 C 
BRANCH  25  26
ATOM     26  C   UNL A   1      35.776  23.671  24.423  1.00  0.00    -0.011 A 
ATOM     27  C   UNL A   1      34.988  23.505  23.273  1.00  0.00     0.007 A 
ATOM     28  C   UNL A   1      35.411  24.619  25.378  1.00  0.00     0.007 A 
ATOM     29  C   UNL A   1      33.905  24.345  23.035  1.00  0.00     0.000 A 
ATOM     30  C   UNL A   1      34.331  25.464  25.136  1.00  0.00     0.000 A 
ATOM     31  C   UNL A   1      33.592  25.339  23.958  1.00  0.00     0.000 A 
ENDBRANCH  25  26
ENDBRANCH  24  25
ENDBRANCH  21  24
ENDBRANCH  19  20
BRANCH  19  32
ATOM     32  C   UNL A   1      33.499  19.513  24.340  1.00  0.00     0.015 C 
ATOM     33  C   UNL A   1      32.738  18.511  25.215  1.00  0.00     0.010 C 
ATOM     34  C   UNL A   1      32.428  20.248  23.493  1.00  0.00     0.010 C 
ENDBRANCH  19  32
ENDBRANCH  16  19
ENDBRANCH  14  15
ENDBRANCH  11  14
ENDBRANCH   5  10
ENDBRANCH   1   5
BRANCH   3  35
ATOM     35  C   UNL A   1      32.178  28.963  25.674  1.00  0.00     0.116 C 
BRANCH  35  36
ATOM     36  C   UNL A   1      33.066  29.871  26.546  1.00  0.00     0.023 C 
BRANCH  36  37
ATOM     37  C   UNL A   1      32.456  31.226  26.966  1.00  0.00     0.023 C 
BRANCH  37  38
ATOM     38  C   UNL A   1      33.366  32.452  27.062  1.00  0.00     0.116 C 
BRANCH  38  39
ATOM     39  N   UNL A   1      32.735  33.675  27.554  1.00  0.00    -0.352 N 
ATOM     40  C   UNL A   1      33.148  34.528  28.559  1.00  0.00     0.251 C 
ATOM     41  H   UNL A   1      31.896  33.928  27.104  1.00  0.00     0.163 HD
ATOM     42  O   UNL A   1      32.527  35.556  28.808  1.00  0.00    -0.269 OA
BRANCH  40  43
ATOM     43  C   UNL A   1      34.295  34.142  29.406  1.00  0.00     0.039 A 
ATOM     44  C   UNL A   1      34.056  33.304  30.498  1.00  0.00     0.014 A 
ATOM     45  C   UNL A   1      35.598  34.490  29.054  1.00  0.00     0.014 A 
ATOM     46  C   UNL A   1      35.133  32.712  31.160  1.00  0.00     0.010 A 
ATOM     47  C   UNL A   1      36.664  33.817  29.646  1.00  0.00     0.010 A 
ATOM     48  C   UNL A   1      36.442  32.907  30.693  1.00  0.00    -0.014 A 
BRANCH  48  49
ATOM     49  C   UNL A   1      37.586  32.150  31.269  1.00  0.00     0.031 A 
ATOM     50  C   UNL A   1      38.094  32.483  32.644  1.00  0.00     0.074 A 
ATOM     51  C   UNL A   1      38.212  31.211  30.530  1.00  0.00     0.049 A 
ATOM     52  N   UNL A   1      39.116  31.984  33.294  1.00  0.00    -0.248 NA
ATOM     53  C   UNL A   1      37.380  33.541  33.375  1.00  0.00     0.031 C 
ATOM     54  C   UNL A   1      37.856  30.832  29.161  1.00  0.00     0.029 A 
ATOM     55  N   UNL A   1      39.287  30.407  30.823  1.00  0.00    -0.354 N 
ATOM     56  C   UNL A   1      39.174  32.677  34.495  1.00  0.00     0.074 A 
ATOM     57  C   UNL A   1      38.127  33.675  34.460  1.00  0.00     0.031 C 
ATOM     58  C   UNL A   1      38.671  29.849  28.748  1.00  0.00     0.029 A 
ATOM     59  C   UNL A   1      39.637  29.556  29.801  1.00  0.00     0.049 A 
ATOM     60  H   UNL A   1      39.763  30.439  31.684  1.00  0.00     0.167 HD
ATOM     61  C   UNL A   1      40.005  32.481  35.546  1.00  0.00     0.037 A 
ATOM     62  C   UNL A   1      40.628  28.647  29.721  1.00  0.00     0.037 A 
ATOM     63  C   UNL A   1      41.027  31.469  35.591  1.00  0.00     0.049 A 
ATOM     64  C   UNL A   1      41.545  28.457  30.901  1.00  0.00     0.074 A 
ATOM     65  C   UNL A   1      41.873  31.146  36.635  1.00  0.00     0.029 A 
ATOM     66  N   UNL A   1      41.342  30.618  34.541  1.00  0.00    -0.354 N 
ATOM     67  N   UNL A   1      41.537  29.062  32.063  1.00  0.00    -0.248 NA
ATOM     68  C   UNL A   1      42.608  27.451  30.759  1.00  0.00     0.031 C 
ATOM     69  C   UNL A   1      42.740  30.139  36.200  1.00  0.00     0.029 A 
ATOM     70  C   UNL A   1      42.392  29.789  34.905  1.00  0.00     0.049 A 
ATOM     71  H   UNL A   1      40.888  30.605  33.668  1.00  0.00     0.167 HD
ATOM     72  C   UNL A   1      42.565  28.490  32.801  1.00  0.00     0.074 A 
ATOM     73  C   UNL A   1      43.168  27.477  31.960  1.00  0.00     0.031 C 
ATOM     74  C   UNL A   1      42.974  28.777  34.061  1.00  0.00     0.037 A 
BRANCH  61  75
ATOM     75  C   UNL A   1      39.842  33.382  36.737  1.00  0.00     0.064 A 
ATOM     76  C   UNL A   1      40.597  34.555  36.884  1.00  0.00     0.173 A 
ATOM     77  C   UNL A   1      38.892  33.086  37.726  1.00  0.00     0.173 A 
ATOM     78  F   UNL A   1      41.527  34.878  35.974  1.00  0.00    -0.203 F 
ATOM     79  C   UNL A   1      40.432  35.381  37.994  1.00  0.00     0.198 A 
ATOM     80  C   UNL A   1      38.704  33.932  38.816  1.00  0.00     0.198 A 
ATOM     81  F   UNL A   1      38.138  31.980  37.633  1.00  0.00    -0.203 F 
ATOM     82  F   UNL A   1      41.204  36.465  38.140  1.00  0.00    -0.200 F 
ATOM     83  C   UNL A   1      39.480  35.073  38.953  1.00  0.00     0.200 A 
ATOM     84  F   UNL A   1      37.773  33.641  39.736  1.00  0.00    -0.200 F 
ATOM     85  F   UNL A   1      39.315  35.874  40.016  1.00  0.00    -0.200 F 
ENDBRANCH  61  75
BRANCH  62  86
ATOM     86  C   UNL A   1      40.795  27.824  28.493  1.00  0.00     0.064 A 
ATOM     87  C   UNL A   1      41.635  28.246  27.452  1.00  0.00     0.173 A 
ATOM     88  C   UNL A   1      40.104  26.616  28.320  1.00  0.00     0.173 A 
ATOM     89  F   UNL A   1      42.301  29.406  27.558  1.00  0.00    -0.203 F 
ATOM     90  C   UNL A   1      41.758  27.506  26.278  1.00  0.00     0.198 A 
ATOM     91  C   UNL A   1      40.253  25.860  27.158  1.00  0.00     0.198 A 
ATOM     92  F   UNL A   1      39.290  26.163  29.285  1.00  0.00    -0.203 F 
ATOM     93  F   UNL A   1      42.527  27.961  25.279  1.00  0.00    -0.200 F 
ATOM     94  C   UNL A   1      41.072  26.311  26.134  1.00  0.00     0.200 A 
ATOM     95  F   UNL A   1      39.598  24.697  27.030  1.00  0.00    -0.200 F 
ATOM     96  F   UNL A   1      41.190  25.598  25.005  1.00  0.00    -0.200 F 
ENDBRANCH  62  86
BRANCH  74  97
ATOM     97  C   UNL A   1      44.098  27.958  34.628  1.00  0.00     0.064 A 
ATOM     98  C   UNL A   1      43.869  26.737  35.277  1.00  0.00     0.173 A 
ATOM     99  C   UNL A   1      45.428  28.382  34.478  1.00  0.00     0.173 A 
ATOM    100  F   UNL A   1      42.616  26.293  35.459  1.00  0.00    -0.203 F 
ATOM    101  C   UNL A   1      44.927  25.984  35.781  1.00  0.00     0.198 A 
ATOM    102  C   UNL A   1      46.485  27.611  34.951  1.00  0.00     0.198 A 
ATOM    103  F   UNL A   1      45.703  29.539  33.856  1.00  0.00    -0.203 F 
ATOM    104  F   UNL A   1      44.681  24.845  36.444  1.00  0.00    -0.200 F 
ATOM    105  C   UNL A   1      46.234  26.417  35.610  1.00  0.00     0.200 A 
ATOM    106  F   UNL A   1      47.747  28.022  34.769  1.00  0.00    -0.200 F 
ATOM    107  F   UNL A   1      47.251  25.686  36.086  1.00  0.00    -0.200 F 
ENDBRANCH  74  97
ENDBRANCH  48  49
ENDBRANCH  40  43
ENDBRANCH  38  39
ENDBRANCH  37  38
ENDBRANCH  36  37
ENDBRANCH  35  36
ENDBRANCH   3  35
TORSDOF 22
ENDMDL
