MODEL 1
REMARK VINA RESULT:     -13.4      0.000      0.000
REMARK SMILES Cc1nn(C)cc1-c1cc(C(F)(F)F)c2c(C)nn(CC(=O)NCCCCNC(=O)c3ccc(-c4c5nc(c(-c6c(F)c(F)c(F)c(F)c6F)c6ccc([nH]6)c(-c6c(F)c(F)c(F)c(F)c6F)c6nc(c(-c7c(F)c(F)c(F)c(F)c7F)c7ccc4[nH]7)C=C6)C=C5)cc3)c2n1
REMARK SMILES IDX 25 1 24 2 23 3 21 4 22 5 20 7 19 8 8 9 9 10 95 11 10 12
REMARK SMILES IDX 94 13 15 14 16 15 18 16 17 17 7 18 1 19 2 20 3 21 4 22 6 23
REMARK SMILES IDX 5 24 11 25 12 26 13 27 14 28 26 29 27 30 28 31 29 32 30 34
REMARK SMILES IDX 31 35 32 36 93 37 33 38 92 39 34 40 35 41 36 42 86 43 37 44
REMARK SMILES IDX 91 45 85 46 87 47 38 48 90 49 84 50 83 51 39 53 71 54 51 55
REMARK SMILES IDX 70 56 52 57 55 58 69 59 88 60 53 61 54 62 68 64 89 65 56 66
REMARK SMILES IDX 40 67 41 68 49 69 42 70 43 71 47 72 50 73 44 74 45 75 48 76
REMARK SMILES IDX 46 77 72 78 73 79 81 80 74 81 75 82 79 83 82 84 76 85 77 86
REMARK SMILES IDX 80 87 78 88 57 89 58 90 66 91 59 92 60 93 64 94 67 95 61 96
REMARK SMILES IDX 62 97 65 98 63 99
REMARK H PARENT 23 6 28 33 87 52 55 63
REMARK Flexibility Score: inf
ROOT
ATOM      1  C   UNL A   1      36.085  22.147  24.193  1.00  0.00     0.023 C 
ENDROOT
BRANCH   1   2
ATOM      2  C   UNL A   1      35.297  23.243  23.497  1.00  0.00     0.116 C 
BRANCH   2   3
ATOM      3  N   UNL A   1      33.876  22.959  23.509  1.00  0.00    -0.354 N 
ATOM      4  C   UNL A   1      32.923  23.336  24.416  1.00  0.00     0.241 C 
ATOM      5  O   UNL A   1      31.769  22.948  24.214  1.00  0.00    -0.273 OA
ATOM      6  H   UNL A   1      33.549  22.414  22.758  1.00  0.00     0.163 HD
BRANCH   4   7
ATOM      7  C   UNL A   1      33.252  24.279  25.549  1.00  0.00     0.246 C 
BRANCH   7   8
ATOM      8  N   UNL A   1      33.079  25.675  25.183  1.00  0.00    -0.237 N 
ATOM      9  C   UNL A   1      31.591  28.543  26.732  1.00  0.00     0.077 A 
ATOM     10  C   UNL A   1      32.281  29.744  26.813  1.00  0.00     0.043 A 
ATOM     11  N   UNL A   1      32.171  27.433  27.315  1.00  0.00    -0.228 NA
ATOM     12  C   UNL A   1      33.654  29.719  26.459  1.00  0.00     0.071 A 
ATOM     13  C   UNL A   1      33.215  27.074  26.505  1.00  0.00     0.159 A 
ATOM     14  C   UNL A   1      33.991  28.578  25.694  1.00  0.00     0.054 A 
ATOM     15  C   UNL A   1      34.024  28.168  23.714  1.00  0.00     0.070 A 
ATOM     16  N   UNL A   1      33.703  26.390  23.470  1.00  0.00    -0.175 NA
ATOM     17  C   UNL A   1      33.654  29.146  22.648  1.00  0.00     0.069 C 
BRANCH   9  18
ATOM     18  C   UNL A   1      31.309  28.164  25.331  1.00  0.00     0.041 A 
ATOM     19  C   UNL A   1      29.979  25.214  26.340  1.00  0.00     0.069 C 
ATOM     20  C   UNL A   1      30.478  26.895  25.003  1.00  0.00     0.069 A 
ATOM     21  N   UNL A   1      29.912  27.224  23.770  1.00  0.00    -0.178 NA
ATOM     22  N   UNL A   1      30.503  28.333  23.323  1.00  0.00    -0.275 N 
ATOM     23  C   UNL A   1      31.320  28.962  24.214  1.00  0.00     0.119 A 
ATOM     24  C   UNL A   1      30.035  28.847  22.055  1.00  0.00     0.173 C 
ENDBRANCH   9  18
BRANCH  12  25
ATOM     25  C   UNL A   1      34.597  30.100  27.597  1.00  0.00     0.417 C 
ATOM     26  F   UNL A   1      35.026  29.006  28.292  1.00  0.00    -0.166 F 
ATOM     27  F   UNL A   1      35.725  30.723  27.164  1.00  0.00    -0.166 F 
ATOM     28  F   UNL A   1      34.028  30.923  28.518  1.00  0.00    -0.166 F 
ENDBRANCH  12  25
ENDBRANCH   7   8
ENDBRANCH   4   7
ENDBRANCH   2   3
ENDBRANCH   1   2
BRANCH   1  29
ATOM     29  C   UNL A   1      36.519  22.326  25.642  1.00  0.00     0.023 C 
BRANCH  29  30
ATOM     30  C   UNL A   1      37.855  23.020  25.755  1.00  0.00     0.116 C 
BRANCH  30  31
ATOM     31  N   UNL A   1      38.870  22.179  26.402  1.00  0.00    -0.352 N 
ATOM     32  C   UNL A   1      40.070  22.585  26.948  1.00  0.00     0.251 C 
ATOM     33  H   UNL A   1      38.672  21.217  26.450  1.00  0.00     0.163 HD
ATOM     34  O   UNL A   1      40.990  21.808  27.154  1.00  0.00    -0.269 OA
BRANCH  32  35
ATOM     35  C   UNL A   1      40.179  23.997  27.328  1.00  0.00     0.039 A 
ATOM     36  C   UNL A   1      39.155  24.919  27.108  1.00  0.00     0.014 A 
ATOM     37  C   UNL A   1      41.348  24.347  28.001  1.00  0.00     0.014 A 
ATOM     38  C   UNL A   1      39.323  26.209  27.596  1.00  0.00     0.010 A 
ATOM     39  C   UNL A   1      41.393  25.521  28.686  1.00  0.00     0.010 A 
ATOM     40  C   UNL A   1      40.455  26.490  28.375  1.00  0.00    -0.014 A 
BRANCH  40  41
ATOM     41  C   UNL A   1      40.678  27.777  29.000  1.00  0.00     0.031 A 
ATOM     42  C   UNL A   1      41.819  28.513  28.410  1.00  0.00     0.074 A 
ATOM     43  C   UNL A   1      39.759  28.305  29.841  1.00  0.00     0.049 A 
ATOM     44  N   UNL A   1      42.942  28.786  28.982  1.00  0.00    -0.248 NA
ATOM     45  C   UNL A   1      41.803  28.810  26.965  1.00  0.00     0.031 C 
ATOM     46  C   UNL A   1      38.460  27.751  30.250  1.00  0.00     0.029 A 
ATOM     47  N   UNL A   1      39.761  29.525  30.445  1.00  0.00    -0.354 N 
ATOM     48  C   UNL A   1      43.679  29.498  28.044  1.00  0.00     0.074 A 
ATOM     49  C   UNL A   1      43.039  29.280  26.777  1.00  0.00     0.031 C 
ATOM     50  C   UNL A   1      37.714  28.716  30.834  1.00  0.00     0.029 A 
ATOM     51  C   UNL A   1      38.522  29.910  30.971  1.00  0.00     0.049 A 
ATOM     52  H   UNL A   1      40.566  30.089  30.505  1.00  0.00     0.167 HD
ATOM     53  C   UNL A   1      44.574  30.441  28.449  1.00  0.00     0.037 A 
ATOM     54  C   UNL A   1      38.217  31.159  31.415  1.00  0.00     0.037 A 
ATOM     55  C   UNL A   1      44.890  30.276  29.847  1.00  0.00     0.049 A 
ATOM     56  C   UNL A   1      39.521  31.818  31.728  1.00  0.00     0.074 A 
ATOM     57  C   UNL A   1      45.433  29.243  30.588  1.00  0.00     0.029 A 
ATOM     58  N   UNL A   1      44.236  31.081  30.749  1.00  0.00    -0.354 N 
ATOM     59  N   UNL A   1      40.318  31.396  32.676  1.00  0.00    -0.248 NA
ATOM     60  C   UNL A   1      40.163  32.543  30.639  1.00  0.00     0.031 C 
ATOM     61  C   UNL A   1      44.656  29.204  31.782  1.00  0.00     0.029 A 
ATOM     62  C   UNL A   1      43.765  30.277  31.757  1.00  0.00     0.049 A 
ATOM     63  H   UNL A   1      44.124  32.057  30.683  1.00  0.00     0.167 HD
ATOM     64  C   UNL A   1      41.584  31.418  32.107  1.00  0.00     0.074 A 
ATOM     65  C   UNL A   1      41.423  32.152  30.849  1.00  0.00     0.031 C 
ATOM     66  C   UNL A   1      42.574  30.574  32.522  1.00  0.00     0.037 A 
BRANCH  53  67
ATOM     67  C   UNL A   1      44.844  31.726  27.711  1.00  0.00     0.064 A 
ATOM     68  C   UNL A   1      46.076  31.882  27.047  1.00  0.00     0.173 A 
ATOM     69  C   UNL A   1      44.084  32.907  27.868  1.00  0.00     0.173 A 
ATOM     70  F   UNL A   1      46.892  30.832  26.867  1.00  0.00    -0.203 F 
ATOM     71  C   UNL A   1      46.541  33.134  26.639  1.00  0.00     0.198 A 
ATOM     72  C   UNL A   1      44.526  34.145  27.409  1.00  0.00     0.198 A 
ATOM     73  F   UNL A   1      42.944  32.938  28.568  1.00  0.00    -0.203 F 
ATOM     74  F   UNL A   1      47.772  33.250  26.125  1.00  0.00    -0.200 F 
ATOM     75  C   UNL A   1      45.766  34.265  26.822  1.00  0.00     0.200 A 
ATOM     76  F   UNL A   1      43.768  35.231  27.620  1.00  0.00    -0.200 F 
ATOM     77  F   UNL A   1      46.231  35.473  26.482  1.00  0.00    -0.200 F 
ENDBRANCH  53  67
BRANCH  54  78
ATOM     78  C   UNL A   1      36.960  31.924  31.171  1.00  0.00     0.064 A 
ATOM     79  C   UNL A   1      36.125  32.331  32.228  1.00  0.00     0.173 A 
ATOM     80  C   UNL A   1      36.692  32.511  29.918  1.00  0.00     0.173 A 
ATOM     81  F   UNL A   1      36.333  31.866  33.469  1.00  0.00    -0.203 F 
ATOM     82  C   UNL A   1      35.104  33.276  32.044  1.00  0.00     0.198 A 
ATOM     83  C   UNL A   1      35.674  33.450  29.734  1.00  0.00     0.198 A 
ATOM     84  F   UNL A   1      37.473  32.258  28.858  1.00  0.00    -0.203 F 
ATOM     85  F   UNL A   1      34.364  33.679  33.087  1.00  0.00    -0.200 F 
ATOM     86  C   UNL A   1      34.887  33.842  30.799  1.00  0.00     0.200 A 
ATOM     87  F   UNL A   1      35.504  34.016  28.531  1.00  0.00    -0.200 F 
ATOM     88  F   UNL A   1      33.953  34.790  30.632  1.00  0.00    -0.200 F 
ENDBRANCH  54  78
BRANCH  66  89
ATOM     89  C   UNL A   1      42.346  29.718  33.740  1.00  0.00     0.064 A 
ATOM     90  C   UNL A   1      41.823  28.412  33.701  1.00  0.00     0.173 A 
ATOM     91  C   UNL A   1      42.904  30.145  34.952  1.00  0.00     0.173 A 
ATOM     92  F   UNL A   1      41.350  27.894  32.562  1.00  0.00    -0.203 F 
ATOM     93  C   UNL A   1      41.854  27.582  34.823  1.00  0.00     0.198 A 
ATOM     94  C   UNL A   1      42.966  29.305  36.060  1.00  0.00     0.198 A 
ATOM     95  F   UNL A   1      43.469  31.360  35.035  1.00  0.00    -0.203 F 
ATOM     96  F   UNL A   1      41.368  26.334  34.751  1.00  0.00    -0.200 F 
ATOM     97  C   UNL A   1      42.440  28.025  35.996  1.00  0.00     0.200 A 
ATOM     98  F   UNL A   1      43.583  29.719  37.174  1.00  0.00    -0.200 F 
ATOM     99  F   UNL A   1      42.529  27.208  37.055  1.00  0.00    -0.200 F 
ENDBRANCH  66  89
ENDBRANCH  40  41
ENDBRANCH  32  35
ENDBRANCH  30  31
ENDBRANCH  29  30
ENDBRANCH   1  29
TORSDOF 14
ENDMDL
MODEL 2
REMARK VINA RESULT:     -13.4      0.476      1.244
REMARK SMILES Cc1nn(C)cc1-c1cc(C(F)(F)F)c2c(C)nn(CC(=O)NCCCCNC(=O)c3ccc(-c4c5nc(c(-c6c(F)c(F)c(F)c(F)c6F)c6ccc([nH]6)c(-c6c(F)c(F)c(F)c(F)c6F)c6nc(c(-c7c(F)c(F)c(F)c(F)c7F)c7ccc4[nH]7)C=C6)C=C5)cc3)c2n1
REMARK SMILES IDX 25 1 24 2 23 3 21 4 22 5 20 7 19 8 8 9 9 10 95 11 10 12
REMARK SMILES IDX 94 13 15 14 16 15 18 16 17 17 7 18 1 19 2 20 3 21 4 22 6 23
REMARK SMILES IDX 5 24 11 25 12 26 13 27 14 28 26 29 27 30 28 31 29 32 30 34
REMARK SMILES IDX 31 35 32 36 93 37 33 38 92 39 34 40 35 41 36 42 86 43 37 44
REMARK SMILES IDX 91 45 85 46 87 47 38 48 90 49 84 50 83 51 39 53 71 54 51 55
REMARK SMILES IDX 70 56 52 57 55 58 69 59 88 60 53 61 54 62 68 64 89 65 56 66
REMARK SMILES IDX 40 67 41 68 49 69 42 70 43 71 47 72 50 73 44 74 45 75 48 76
REMARK SMILES IDX 46 77 72 78 73 79 81 80 74 81 75 82 79 83 82 84 76 85 77 86
REMARK SMILES IDX 80 87 78 88 57 89 58 90 66 91 59 92 60 93 64 94 67 95 61 96
REMARK SMILES IDX 62 97 65 98 63 99
REMARK H PARENT 23 6 28 33 87 52 55 63
REMARK Flexibility Score: inf
ROOT
ATOM      1  C   UNL A   1      35.852  22.268  24.086  1.00  0.00     0.023 C 
ENDROOT
BRANCH   1   2
ATOM      2  C   UNL A   1      35.037  23.309  23.338  1.00  0.00     0.116 C 
BRANCH   2   3
ATOM      3  N   UNL A   1      33.618  23.027  23.422  1.00  0.00    -0.354 N 
ATOM      4  C   UNL A   1      32.715  23.396  24.382  1.00  0.00     0.241 C 
ATOM      5  O   UNL A   1      31.551  23.012  24.236  1.00  0.00    -0.273 OA
ATOM      6  H   UNL A   1      33.251  22.491  22.683  1.00  0.00     0.163 HD
BRANCH   4   7
ATOM      7  C   UNL A   1      33.105  24.325  25.506  1.00  0.00     0.246 C 
BRANCH   7   8
ATOM      8  N   UNL A   1      32.971  25.727  25.145  1.00  0.00    -0.237 N 
ATOM      9  C   UNL A   1      31.572  28.632  26.707  1.00  0.00     0.077 A 
ATOM     10  C   UNL A   1      32.296  29.812  26.789  1.00  0.00     0.043 A 
ATOM     11  N   UNL A   1      32.121  27.504  27.285  1.00  0.00    -0.228 NA
ATOM     12  C   UNL A   1      33.667  29.748  26.431  1.00  0.00     0.071 A 
ATOM     13  C   UNL A   1      33.152  27.117  26.471  1.00  0.00     0.159 A 
ATOM     14  C   UNL A   1      33.969  28.600  25.662  1.00  0.00     0.054 A 
ATOM     15  C   UNL A   1      33.984  28.196  23.680  1.00  0.00     0.070 A 
ATOM     16  N   UNL A   1      33.611  26.429  23.432  1.00  0.00    -0.175 NA
ATOM     17  C   UNL A   1      33.638  29.188  22.618  1.00  0.00     0.069 C 
BRANCH   9  18
ATOM     18  C   UNL A   1      31.275  28.266  25.306  1.00  0.00     0.041 A 
ATOM     19  C   UNL A   1      29.865  25.351  26.310  1.00  0.00     0.069 C 
ATOM     20  C   UNL A   1      30.406  27.022  24.977  1.00  0.00     0.069 A 
ATOM     21  N   UNL A   1      29.847  27.370  23.747  1.00  0.00    -0.178 NA
ATOM     22  N   UNL A   1      30.467  28.464  23.301  1.00  0.00    -0.275 N 
ATOM     23  C   UNL A   1      31.304  29.066  24.192  1.00  0.00     0.119 A 
ATOM     24  C   UNL A   1      30.010  28.994  22.037  1.00  0.00     0.173 C 
ENDBRANCH   9  18
BRANCH  12  25
ATOM     25  C   UNL A   1      34.624  30.098  27.568  1.00  0.00     0.417 C 
ATOM     26  F   UNL A   1      34.027  30.879  28.515  1.00  0.00    -0.166 F 
ATOM     27  F   UNL A   1      35.081  29.003  28.232  1.00  0.00    -0.166 F 
ATOM     28  F   UNL A   1      35.721  30.790  27.157  1.00  0.00    -0.166 F 
ENDBRANCH  12  25
ENDBRANCH   7   8
ENDBRANCH   4   7
ENDBRANCH   2   3
ENDBRANCH   1   2
BRANCH   1  29
ATOM     29  C   UNL A   1      36.278  22.527  25.525  1.00  0.00     0.023 C 
BRANCH  29  30
ATOM     30  C   UNL A   1      37.691  23.052  25.615  1.00  0.00     0.116 C 
BRANCH  30  31
ATOM     31  N   UNL A   1      38.582  22.139  26.342  1.00  0.00    -0.352 N 
ATOM     32  C   UNL A   1      39.770  22.451  26.970  1.00  0.00     0.251 C 
ATOM     33  H   UNL A   1      38.299  21.197  26.386  1.00  0.00     0.163 HD
ATOM     34  O   UNL A   1      40.604  21.603  27.250  1.00  0.00    -0.269 OA
BRANCH  32  35
ATOM     35  C   UNL A   1      39.972  23.855  27.342  1.00  0.00     0.039 A 
ATOM     36  C   UNL A   1      38.967  24.817  27.229  1.00  0.00     0.014 A 
ATOM     37  C   UNL A   1      41.215  24.155  27.895  1.00  0.00     0.014 A 
ATOM     38  C   UNL A   1      39.234  26.097  27.702  1.00  0.00     0.010 A 
ATOM     39  C   UNL A   1      41.374  25.321  28.577  1.00  0.00     0.010 A 
ATOM     40  C   UNL A   1      40.448  26.328  28.365  1.00  0.00    -0.014 A 
BRANCH  40  41
ATOM     41  C   UNL A   1      40.783  27.601  28.969  1.00  0.00     0.031 A 
ATOM     42  C   UNL A   1      41.995  28.215  28.381  1.00  0.00     0.074 A 
ATOM     43  C   UNL A   1      39.907  28.228  29.787  1.00  0.00     0.049 A 
ATOM     44  N   UNL A   1      43.131  28.393  28.965  1.00  0.00    -0.248 NA
ATOM     45  C   UNL A   1      42.025  28.483  26.932  1.00  0.00     0.031 C 
ATOM     46  C   UNL A   1      38.557  27.806  30.187  1.00  0.00     0.029 A 
ATOM     47  N   UNL A   1      40.016  29.455  30.368  1.00  0.00    -0.354 N 
ATOM     48  C   UNL A   1      43.944  29.015  28.024  1.00  0.00     0.074 A 
ATOM     49  C   UNL A   1      43.301  28.833  26.752  1.00  0.00     0.031 C 
ATOM     50  C   UNL A   1      37.897  28.848  30.743  1.00  0.00     0.029 A 
ATOM     51  C   UNL A   1      38.812  29.964  30.869  1.00  0.00     0.049 A 
ATOM     52  H   UNL A   1      40.869  29.943  30.429  1.00  0.00     0.167 HD
ATOM     53  C   UNL A   1      44.917  29.878  28.424  1.00  0.00     0.037 A 
ATOM     54  C   UNL A   1      38.619  31.244  31.286  1.00  0.00     0.037 A 
ATOM     55  C   UNL A   1      45.199  29.711  29.830  1.00  0.00     0.049 A 
ATOM     56  C   UNL A   1      39.975  31.785  31.605  1.00  0.00     0.074 A 
ATOM     57  C   UNL A   1      45.634  28.647  30.598  1.00  0.00     0.029 A 
ATOM     58  N   UNL A   1      44.612  30.592  30.707  1.00  0.00    -0.354 N 
ATOM     59  N   UNL A   1      40.717  31.309  32.572  1.00  0.00    -0.248 NA
ATOM     60  C   UNL A   1      40.696  32.425  30.512  1.00  0.00     0.031 C 
ATOM     61  C   UNL A   1      44.841  28.704  31.780  1.00  0.00     0.029 A 
ATOM     62  C   UNL A   1      44.055  29.856  31.723  1.00  0.00     0.049 A 
ATOM     63  H   UNL A   1      44.593  31.573  30.621  1.00  0.00     0.167 HD
ATOM     64  C   UNL A   1      41.986  31.202  32.020  1.00  0.00     0.074 A 
ATOM     65  C   UNL A   1      41.911  31.923  30.747  1.00  0.00     0.031 C 
ATOM     66  C   UNL A   1      42.888  30.277  32.465  1.00  0.00     0.037 A 
BRANCH  53  67
ATOM     67  C   UNL A   1      45.316  31.117  27.667  1.00  0.00     0.064 A 
ATOM     68  C   UNL A   1      46.648  31.247  27.229  1.00  0.00     0.173 A 
ATOM     69  C   UNL A   1      44.539  32.295  27.607  1.00  0.00     0.173 A 
ATOM     70  F   UNL A   1      47.484  30.199  27.268  1.00  0.00    -0.203 F 
ATOM     71  C   UNL A   1      47.178  32.477  26.832  1.00  0.00     0.198 A 
ATOM     72  C   UNL A   1      45.055  33.508  27.157  1.00  0.00     0.198 A 
ATOM     73  F   UNL A   1      43.290  32.356  28.085  1.00  0.00    -0.203 F 
ATOM     74  F   UNL A   1      48.481  32.576  26.544  1.00  0.00    -0.200 F 
ATOM     75  C   UNL A   1      46.381  33.607  26.799  1.00  0.00     0.200 A 
ATOM     76  F   UNL A   1      44.271  34.595  27.156  1.00  0.00    -0.200 F 
ATOM     77  F   UNL A   1      46.899  34.797  26.472  1.00  0.00    -0.200 F 
ENDBRANCH  53  67
BRANCH  54  78
ATOM     78  C   UNL A   1      37.442  32.118  31.010  1.00  0.00     0.064 A 
ATOM     79  C   UNL A   1      37.210  32.664  29.734  1.00  0.00     0.173 A 
ATOM     80  C   UNL A   1      36.371  32.214  31.922  1.00  0.00     0.173 A 
ATOM     81  F   UNL A   1      38.150  32.577  28.782  1.00  0.00    -0.203 F 
ATOM     82  C   UNL A   1      35.980  33.248  29.391  1.00  0.00     0.198 A 
ATOM     83  C   UNL A   1      35.149  32.797  31.581  1.00  0.00     0.198 A 
ATOM     84  F   UNL A   1      36.452  31.659  33.139  1.00  0.00    -0.203 F 
ATOM     85  F   UNL A   1      35.778  33.708  28.148  1.00  0.00    -0.200 F 
ATOM     86  C   UNL A   1      34.948  33.304  30.312  1.00  0.00     0.200 A 
ATOM     87  F   UNL A   1      34.148  32.808  32.473  1.00  0.00    -0.200 F 
ATOM     88  F   UNL A   1      33.752  33.806  29.969  1.00  0.00    -0.200 F 
ENDBRANCH  54  78
BRANCH  66  89
ATOM     89  C   UNL A   1      42.566  29.471  33.696  1.00  0.00     0.064 A 
ATOM     90  C   UNL A   1      41.898  28.233  33.675  1.00  0.00     0.173 A 
ATOM     91  C   UNL A   1      43.171  29.849  34.902  1.00  0.00     0.173 A 
ATOM     92  F   UNL A   1      41.368  27.755  32.544  1.00  0.00    -0.203 F 
ATOM     93  C   UNL A   1      41.836  27.421  34.809  1.00  0.00     0.198 A 
ATOM     94  C   UNL A   1      43.138  29.023  36.021  1.00  0.00     0.198 A 
ATOM     95  F   UNL A   1      43.869  30.993  34.967  1.00  0.00    -0.203 F 
ATOM     96  F   UNL A   1      41.211  26.235  34.756  1.00  0.00    -0.200 F 
ATOM     97  C   UNL A   1      42.470  27.811  35.976  1.00  0.00     0.200 A 
ATOM     98  F   UNL A   1      43.799  29.382  37.129  1.00  0.00    -0.200 F 
ATOM     99  F   UNL A   1      42.467  27.004  37.047  1.00  0.00    -0.200 F 
ENDBRANCH  66  89
ENDBRANCH  40  41
ENDBRANCH  32  35
ENDBRANCH  30  31
ENDBRANCH  29  30
ENDBRANCH   1  29
TORSDOF 14
ENDMDL
MODEL 3
REMARK VINA RESULT:     -13.2      2.563      3.994
REMARK SMILES Cc1nn(C)cc1-c1cc(C(F)(F)F)c2c(C)nn(CC(=O)NCCCCNC(=O)c3ccc(-c4c5nc(c(-c6c(F)c(F)c(F)c(F)c6F)c6ccc([nH]6)c(-c6c(F)c(F)c(F)c(F)c6F)c6nc(c(-c7c(F)c(F)c(F)c(F)c7F)c7ccc4[nH]7)C=C6)C=C5)cc3)c2n1
REMARK SMILES IDX 25 1 24 2 23 3 21 4 22 5 20 7 19 8 8 9 9 10 95 11 10 12
REMARK SMILES IDX 94 13 15 14 16 15 18 16 17 17 7 18 1 19 2 20 3 21 4 22 6 23
REMARK SMILES IDX 5 24 11 25 12 26 13 27 14 28 26 29 27 30 28 31 29 32 30 34
REMARK SMILES IDX 31 35 32 36 93 37 33 38 92 39 34 40 35 41 36 42 86 43 37 44
REMARK SMILES IDX 91 45 85 46 87 47 38 48 90 49 84 50 83 51 39 53 71 54 51 55
REMARK SMILES IDX 70 56 52 57 55 58 69 59 88 60 53 61 54 62 68 64 89 65 56 66
REMARK SMILES IDX 40 67 41 68 49 69 42 70 43 71 47 72 50 73 44 74 45 75 48 76
REMARK SMILES IDX 46 77 72 78 73 79 81 80 74 81 75 82 79 83 82 84 76 85 77 86
REMARK SMILES IDX 80 87 78 88 57 89 58 90 66 91 59 92 60 93 64 94 67 95 61 96
REMARK SMILES IDX 62 97 65 98 63 99
REMARK H PARENT 23 6 28 33 87 52 55 63
REMARK Flexibility Score: inf
ROOT
ATOM      1  C   UNL A   1      40.661  21.742  27.029  1.00  0.00     0.023 C 
ENDROOT
BRANCH   1   2
ATOM      2  C   UNL A   1      39.538  22.621  26.502  1.00  0.00     0.116 C 
BRANCH   2   3
ATOM      3  N   UNL A   1      38.628  21.865  25.665  1.00  0.00    -0.354 N 
ATOM      4  C   UNL A   1      37.328  22.135  25.333  1.00  0.00     0.241 C 
ATOM      5  O   UNL A   1      36.751  21.319  24.610  1.00  0.00    -0.273 OA
ATOM      6  H   UNL A   1      38.997  21.038  25.282  1.00  0.00     0.163 HD
BRANCH   4   7
ATOM      7  C   UNL A   1      36.670  23.432  25.742  1.00  0.00     0.246 C 
BRANCH   7   8
ATOM      8  N   UNL A   1      35.414  23.664  25.049  1.00  0.00    -0.237 N 
ATOM      9  C   UNL A   1      31.987  24.002  26.041  1.00  0.00     0.077 A 
ATOM     10  C   UNL A   1      31.218  25.064  25.586  1.00  0.00     0.043 A 
ATOM     11  N   UNL A   1      33.138  24.302  26.744  1.00  0.00    -0.228 NA
ATOM     12  C   UNL A   1      31.902  26.104  24.905  1.00  0.00     0.071 A 
ATOM     13  C   UNL A   1      34.039  24.772  25.826  1.00  0.00     0.159 A 
ATOM     14  C   UNL A   1      33.174  25.697  24.441  1.00  0.00     0.054 A 
ATOM     15  C   UNL A   1      33.848  24.860  22.728  1.00  0.00     0.070 A 
ATOM     16  N   UNL A   1      35.315  23.843  23.101  1.00  0.00    -0.175 NA
ATOM     17  C   UNL A   1      32.979  24.517  21.563  1.00  0.00     0.069 C 
BRANCH   9  18
ATOM     18  C   UNL A   1      32.407  23.116  24.935  1.00  0.00     0.041 A 
ATOM     19  C   UNL A   1      34.189  21.192  27.083  1.00  0.00     0.069 C 
ATOM     20  C   UNL A   1      33.174  21.796  25.222  1.00  0.00     0.069 A 
ATOM     21  N   UNL A   1      32.820  21.006  24.127  1.00  0.00    -0.178 NA
ATOM     22  N   UNL A   1      32.203  21.782  23.235  1.00  0.00    -0.275 N 
ATOM     23  C   UNL A   1      31.897  23.039  23.664  1.00  0.00     0.119 A 
ATOM     24  C   UNL A   1      31.740  21.134  22.028  1.00  0.00     0.173 C 
ENDBRANCH   9  18
BRANCH  12  25
ATOM     25  C   UNL A   1      31.811  27.463  25.594  1.00  0.00     0.417 C 
ATOM     26  F   UNL A   1      31.129  28.373  24.838  1.00  0.00    -0.166 F 
ATOM     27  F   UNL A   1      31.154  27.412  26.783  1.00  0.00    -0.166 F 
ATOM     28  F   UNL A   1      33.024  28.025  25.844  1.00  0.00    -0.166 F 
ENDBRANCH  12  25
ENDBRANCH   7   8
ENDBRANCH   4   7
ENDBRANCH   2   3
ENDBRANCH   1   2
BRANCH   1  29
ATOM     29  C   UNL A   1      41.208  20.612  26.169  1.00  0.00     0.023 C 
BRANCH  29  30
ATOM     30  C   UNL A   1      42.469  20.015  26.746  1.00  0.00     0.116 C 
BRANCH  30  31
ATOM     31  N   UNL A   1      43.531  19.872  25.743  1.00  0.00    -0.352 N 
ATOM     32  C   UNL A   1      44.091  20.866  24.967  1.00  0.00     0.251 C 
ATOM     33  H   UNL A   1      43.884  18.963  25.609  1.00  0.00     0.163 HD
ATOM     34  O   UNL A   1      44.709  20.623  23.940  1.00  0.00    -0.269 OA
BRANCH  32  35
ATOM     35  C   UNL A   1      43.958  22.240  25.457  1.00  0.00     0.039 A 
ATOM     36  C   UNL A   1      43.159  23.194  24.826  1.00  0.00     0.014 A 
ATOM     37  C   UNL A   1      44.623  22.517  26.651  1.00  0.00     0.014 A 
ATOM     38  C   UNL A   1      43.026  24.438  25.430  1.00  0.00     0.010 A 
ATOM     39  C   UNL A   1      44.288  23.631  27.355  1.00  0.00     0.010 A 
ATOM     40  C   UNL A   1      43.608  24.638  26.691  1.00  0.00    -0.014 A 
BRANCH  40  41
ATOM     41  C   UNL A   1      43.454  25.866  27.441  1.00  0.00     0.031 A 
ATOM     42  C   UNL A   1      44.417  26.914  27.032  1.00  0.00     0.074 A 
ATOM     43  C   UNL A   1      42.371  26.065  28.226  1.00  0.00     0.049 A 
ATOM     44  N   UNL A   1      45.389  27.387  27.735  1.00  0.00    -0.248 NA
ATOM     45  C   UNL A   1      44.439  27.349  25.623  1.00  0.00     0.031 C 
ATOM     46  C   UNL A   1      41.223  25.174  28.454  1.00  0.00     0.029 A 
ATOM     47  N   UNL A   1      42.022  27.179  28.927  1.00  0.00    -0.354 N 
ATOM     48  C   UNL A   1      45.995  28.351  26.939  1.00  0.00     0.074 A 
ATOM     49  C   UNL A   1      45.528  28.121  25.600  1.00  0.00     0.031 C 
ATOM     50  C   UNL A   1      40.217  25.864  29.039  1.00  0.00     0.029 A 
ATOM     51  C   UNL A   1      40.689  27.196  29.357  1.00  0.00     0.049 A 
ATOM     52  H   UNL A   1      42.653  27.911  29.115  1.00  0.00     0.167 HD
ATOM     53  C   UNL A   1      46.592  29.433  27.509  1.00  0.00     0.037 A 
ATOM     54  C   UNL A   1      40.048  28.280  29.871  1.00  0.00     0.037 A 
ATOM     55  C   UNL A   1      46.831  29.202  28.913  1.00  0.00     0.049 A 
ATOM     56  C   UNL A   1      41.119  29.197  30.367  1.00  0.00     0.074 A 
ATOM     57  C   UNL A   1      47.556  28.258  29.616  1.00  0.00     0.029 A 
ATOM     58  N   UNL A   1      45.929  29.726  29.809  1.00  0.00    -0.354 N 
ATOM     59  N   UNL A   1      41.920  28.882  31.352  1.00  0.00    -0.248 NA
ATOM     60  C   UNL A   1      41.641  30.167  29.413  1.00  0.00     0.031 C 
ATOM     61  C   UNL A   1      46.724  27.907  30.718  1.00  0.00     0.029 A 
ATOM     62  C   UNL A   1      45.597  28.731  30.694  1.00  0.00     0.049 A 
ATOM     63  H   UNL A   1      45.583  30.648  29.814  1.00  0.00     0.167 HD
ATOM     64  C   UNL A   1      43.180  29.268  30.917  1.00  0.00     0.074 A 
ATOM     65  C   UNL A   1      42.939  30.071  29.715  1.00  0.00     0.031 C 
ATOM     66  C   UNL A   1      44.316  28.649  31.357  1.00  0.00     0.037 A 
BRANCH  53  67
ATOM     67  C   UNL A   1      46.589  30.817  26.913  1.00  0.00     0.064 A 
ATOM     68  C   UNL A   1      47.794  31.544  26.878  1.00  0.00     0.173 A 
ATOM     69  C   UNL A   1      45.420  31.563  26.645  1.00  0.00     0.173 A 
ATOM     70  F   UNL A   1      48.963  30.941  27.143  1.00  0.00    -0.203 F 
ATOM     71  C   UNL A   1      47.817  32.924  26.664  1.00  0.00     0.198 A 
ATOM     72  C   UNL A   1      45.452  32.929  26.376  1.00  0.00     0.198 A 
ATOM     73  F   UNL A   1      44.194  31.037  26.744  1.00  0.00    -0.203 F 
ATOM     74  F   UNL A   1      48.973  33.592  26.764  1.00  0.00    -0.200 F 
ATOM     75  C   UNL A   1      46.646  33.616  26.416  1.00  0.00     0.200 A 
ATOM     76  F   UNL A   1      44.302  33.583  26.163  1.00  0.00    -0.200 F 
ATOM     77  F   UNL A   1      46.658  34.946  26.265  1.00  0.00    -0.200 F 
ENDBRANCH  53  67
BRANCH  54  78
ATOM     78  C   UNL A   1      38.663  28.741  29.566  1.00  0.00     0.064 A 
ATOM     79  C   UNL A   1      37.761  29.096  30.586  1.00  0.00     0.173 A 
ATOM     80  C   UNL A   1      38.283  29.106  28.258  1.00  0.00     0.173 A 
ATOM     81  F   UNL A   1      38.057  28.837  31.868  1.00  0.00    -0.203 F 
ATOM     82  C   UNL A   1      36.570  29.787  30.315  1.00  0.00     0.198 A 
ATOM     83  C   UNL A   1      37.096  29.791  27.988  1.00  0.00     0.198 A 
ATOM     84  F   UNL A   1      39.101  28.888  27.219  1.00  0.00    -0.203 F 
ATOM     85  F   UNL A   1      35.763  30.157  31.319  1.00  0.00    -0.200 F 
ATOM     86  C   UNL A   1      36.245  30.143  29.016  1.00  0.00     0.200 A 
ATOM     87  F   UNL A   1      36.817  30.161  26.730  1.00  0.00    -0.200 F 
ATOM     88  F   UNL A   1      35.138  30.856  28.760  1.00  0.00    -0.200 F 
ENDBRANCH  54  78
BRANCH  66  89
ATOM     89  C   UNL A   1      44.216  27.639  32.470  1.00  0.00     0.064 A 
ATOM     90  C   UNL A   1      44.111  26.250  32.269  1.00  0.00     0.173 A 
ATOM     91  C   UNL A   1      44.480  28.077  33.775  1.00  0.00     0.173 A 
ATOM     92  F   UNL A   1      43.947  25.743  31.043  1.00  0.00    -0.203 F 
ATOM     93  C   UNL A   1      44.261  25.349  33.325  1.00  0.00     0.198 A 
ATOM     94  C   UNL A   1      44.663  27.176  34.820  1.00  0.00     0.198 A 
ATOM     95  F   UNL A   1      44.645  29.386  34.018  1.00  0.00    -0.203 F 
ATOM     96  F   UNL A   1      44.178  24.029  33.102  1.00  0.00    -0.200 F 
ATOM     97  C   UNL A   1      44.552  25.814  34.597  1.00  0.00     0.200 A 
ATOM     98  F   UNL A   1      44.998  27.629  36.035  1.00  0.00    -0.200 F 
ATOM     99  F   UNL A   1      44.758  24.949  35.600  1.00  0.00    -0.200 F 
ENDBRANCH  66  89
ENDBRANCH  40  41
ENDBRANCH  32  35
ENDBRANCH  30  31
ENDBRANCH  29  30
ENDBRANCH   1  29
TORSDOF 14
ENDMDL
