MODEL 1
REMARK VINA RESULT:     -12.3      0.000      0.000
REMARK SMILES Cc1nc(C[N@@H+]2CCC[C@H]2C(=O)NCCCCNC(=O)c2ccc(-c3c4nc(c(-c5c(F)c(F)c(F)c(F)c5F)c5ccc([nH]5)c(-c5c(F)c(F)c(F)c(F)c5F)c5nc(c(-c6c(F)c(F)c(F)c(F)c6F)c6ccc3[nH]6)C=C5)C=C4)cc2)cs1
REMARK SMILES IDX 15 1 14 2 13 3 11 4 12 5 10 7 6 8 7 9 8 11 9 12 5 13 4 14
REMARK SMILES IDX 1 15 2 16 3 17 85 18 84 19 16 20 17 21 18 22 19 23 20 25
REMARK SMILES IDX 21 26 22 27 83 28 23 29 82 30 24 31 25 32 26 33 76 34 27 35
REMARK SMILES IDX 81 36 75 37 77 38 28 39 80 40 74 41 73 42 29 44 61 45 41 46
REMARK SMILES IDX 60 47 42 48 45 49 59 50 78 51 43 52 44 53 58 55 79 56 46 57
REMARK SMILES IDX 30 58 31 59 39 60 32 61 33 62 37 63 40 64 34 65 35 66 38 67
REMARK SMILES IDX 36 68 62 69 63 70 71 71 64 72 65 73 69 74 72 75 66 76 67 77
REMARK SMILES IDX 70 78 68 79 47 80 48 81 56 82 49 83 50 84 54 85 57 86 51 87
REMARK SMILES IDX 52 88 55 89 53 90
REMARK H PARENT 13 6 6 10 18 24 77 43 45 54
REMARK Flexibility Score: inf
ROOT
ATOM      1  C   UNL A   1      31.629  30.542  26.772  1.00  0.00     0.023 C 
ENDROOT
BRANCH   1   2
ATOM      2  C   UNL A   1      32.985  29.866  26.603  1.00  0.00     0.116 C 
BRANCH   2   3
ATOM      3  N   UNL A   1      33.374  29.774  25.209  1.00  0.00    -0.351 N 
ATOM      4  C   UNL A   1      32.840  29.134  24.133  1.00  0.00     0.278 C 
ATOM      5  O   UNL A   1      33.479  29.271  23.079  1.00  0.00    -0.268 OA
ATOM      6  H   UNL A   1      34.194  30.276  24.998  1.00  0.00     0.163 HD
BRANCH   4   7
ATOM      7  C   UNL A   1      31.583  28.229  24.165  1.00  0.00     0.274 C 
ATOM      8  N   UNL A   1      30.960  28.036  22.849  1.00  0.00    -0.320 N 
ATOM      9  C   UNL A   1      31.410  26.767  22.304  1.00  0.00     0.263 C 
ATOM     10  H   UNL A   1      31.285  28.760  22.208  1.00  0.00     0.349 HD
ATOM     11  C   UNL A   1      31.642  25.871  23.500  1.00  0.00     0.068 C 
ATOM     12  C   UNL A   1      31.976  26.820  24.641  1.00  0.00     0.081 C 
BRANCH   8  13
ATOM     13  C   UNL A   1      29.524  28.321  22.796  1.00  0.00     0.321 C 
BRANCH  13  14
ATOM     14  C   UNL A   1      29.162  29.759  22.586  1.00  0.00     0.106 A 
ATOM     15  C   UNL A   1      27.891  32.214  20.194  1.00  0.00     0.079 C 
ATOM     16  C   UNL A   1      28.412  31.451  21.359  1.00  0.00     0.090 A 
ATOM     17  N   UNL A   1      28.742  30.177  21.328  1.00  0.00    -0.241 NA
ATOM     18  S   UNL A   1      28.620  32.230  22.876  1.00  0.00    -0.127 S 
ATOM     19  C   UNL A   1      29.137  30.748  23.553  1.00  0.00     0.096 A 
ENDBRANCH  13  14
ENDBRANCH   8  13
ENDBRANCH   4   7
ENDBRANCH   2   3
ENDBRANCH   1   2
BRANCH   1  20
ATOM     20  C   UNL A   1      31.648  32.059  26.591  1.00  0.00     0.023 C 
BRANCH  20  21
ATOM     21  C   UNL A   1      32.767  32.788  27.328  1.00  0.00     0.116 C 
BRANCH  21  22
ATOM     22  N   UNL A   1      32.431  34.163  27.672  1.00  0.00    -0.352 N 
ATOM     23  C   UNL A   1      32.996  34.980  28.623  1.00  0.00     0.251 C 
ATOM     24  H   UNL A   1      31.698  34.562  27.151  1.00  0.00     0.163 HD
ATOM     25  O   UNL A   1      32.519  36.080  28.862  1.00  0.00    -0.269 OA
BRANCH  23  26
ATOM     26  C   UNL A   1      34.166  34.499  29.386  1.00  0.00     0.039 A 
ATOM     27  C   UNL A   1      33.961  33.916  30.639  1.00  0.00     0.014 A 
ATOM     28  C   UNL A   1      35.454  34.589  28.851  1.00  0.00     0.014 A 
ATOM     29  C   UNL A   1      35.040  33.357  31.324  1.00  0.00     0.010 A 
ATOM     30  C   UNL A   1      36.513  33.964  29.498  1.00  0.00     0.010 A 
ATOM     31  C   UNL A   1      36.318  33.341  30.740  1.00  0.00    -0.014 A 
BRANCH  31  32
ATOM     32  C   UNL A   1      37.462  32.675  31.409  1.00  0.00     0.031 A 
ATOM     33  C   UNL A   1      38.170  31.535  30.737  1.00  0.00     0.074 A 
ATOM     34  C   UNL A   1      37.817  33.050  32.653  1.00  0.00     0.049 A 
ATOM     35  N   UNL A   1      39.147  30.785  31.183  1.00  0.00    -0.248 NA
ATOM     36  C   UNL A   1      37.694  31.165  29.395  1.00  0.00     0.031 C 
ATOM     37  C   UNL A   1      37.176  34.112  33.430  1.00  0.00     0.029 A 
ATOM     38  N   UNL A   1      38.799  32.575  33.485  1.00  0.00    -0.354 N 
ATOM     39  C   UNL A   1      39.389  29.851  30.186  1.00  0.00     0.074 A 
ATOM     40  C   UNL A   1      38.418  30.087  29.139  1.00  0.00     0.031 C 
ATOM     41  C   UNL A   1      37.802  34.229  34.613  1.00  0.00     0.029 A 
ATOM     42  C   UNL A   1      38.861  33.227  34.692  1.00  0.00     0.049 A 
ATOM     43  H   UNL A   1      39.402  31.836  33.239  1.00  0.00     0.167 HD
ATOM     44  C   UNL A   1      40.351  28.897  30.135  1.00  0.00     0.037 A 
ATOM     45  C   UNL A   1      39.680  33.037  35.742  1.00  0.00     0.037 A 
ATOM     46  C   UNL A   1      41.326  28.678  31.171  1.00  0.00     0.049 A 
ATOM     47  C   UNL A   1      40.730  31.963  35.672  1.00  0.00     0.074 A 
ATOM     48  C   UNL A   1      42.381  27.784  31.190  1.00  0.00     0.029 A 
ATOM     49  N   UNL A   1      41.359  29.360  32.380  1.00  0.00    -0.354 N 
ATOM     50  N   UNL A   1      41.001  31.133  34.694  1.00  0.00    -0.248 NA
ATOM     51  C   UNL A   1      41.592  31.803  36.851  1.00  0.00     0.031 C 
ATOM     52  C   UNL A   1      43.023  27.889  32.429  1.00  0.00     0.029 A 
ATOM     53  C   UNL A   1      42.401  28.888  33.163  1.00  0.00     0.049 A 
ATOM     54  H   UNL A   1      40.735  30.075  32.643  1.00  0.00     0.167 HD
ATOM     55  C   UNL A   1      42.079  30.372  35.125  1.00  0.00     0.074 A 
ATOM     56  C   UNL A   1      42.421  30.848  36.451  1.00  0.00     0.031 C 
ATOM     57  C   UNL A   1      42.730  29.373  34.480  1.00  0.00     0.037 A 
BRANCH  44  58
ATOM     58  C   UNL A   1      40.382  28.018  28.918  1.00  0.00     0.064 A 
ATOM     59  C   UNL A   1      39.687  26.800  28.870  1.00  0.00     0.173 A 
ATOM     60  C   UNL A   1      41.121  28.394  27.785  1.00  0.00     0.173 A 
ATOM     61  F   UNL A   1      38.975  26.385  29.930  1.00  0.00    -0.203 F 
ATOM     62  C   UNL A   1      39.766  25.971  27.754  1.00  0.00     0.198 A 
ATOM     63  C   UNL A   1      41.169  27.579  26.657  1.00  0.00     0.198 A 
ATOM     64  F   UNL A   1      41.799  29.551  27.774  1.00  0.00    -0.203 F 
ATOM     65  F   UNL A   1      39.149  24.780  27.760  1.00  0.00    -0.200 F 
ATOM     66  C   UNL A   1      40.503  26.362  26.647  1.00  0.00     0.200 A 
ATOM     67  F   UNL A   1      41.871  27.966  25.583  1.00  0.00    -0.200 F 
ATOM     68  F   UNL A   1      40.581  25.563  25.575  1.00  0.00    -0.200 F 
ENDBRANCH  44  58
BRANCH  45  69
ATOM     69  C   UNL A   1      39.568  33.919  36.932  1.00  0.00     0.064 A 
ATOM     70  C   UNL A   1      40.209  35.166  36.958  1.00  0.00     0.173 A 
ATOM     71  C   UNL A   1      38.806  33.552  38.051  1.00  0.00     0.173 A 
ATOM     72  F   UNL A   1      40.964  35.551  35.919  1.00  0.00    -0.203 F 
ATOM     73  C   UNL A   1      40.100  36.007  38.063  1.00  0.00     0.198 A 
ATOM     74  C   UNL A   1      38.678  34.405  39.145  1.00  0.00     0.198 A 
ATOM     75  F   UNL A   1      38.170  32.371  38.072  1.00  0.00    -0.203 F 
ATOM     76  F   UNL A   1      40.750  37.180  38.075  1.00  0.00    -0.200 F 
ATOM     77  C   UNL A   1      39.330  35.630  39.152  1.00  0.00     0.200 A 
ATOM     78  F   UNL A   1      37.921  34.043  40.189  1.00  0.00    -0.200 F 
ATOM     79  F   UNL A   1      39.217  36.445  40.210  1.00  0.00    -0.200 F 
ENDBRANCH  45  69
BRANCH  57  80
ATOM     80  C   UNL A   1      43.900  28.748  35.183  1.00  0.00     0.064 A 
ATOM     81  C   UNL A   1      45.208  29.227  35.009  1.00  0.00     0.173 A 
ATOM     82  C   UNL A   1      43.705  27.680  36.072  1.00  0.00     0.173 A 
ATOM     83  F   UNL A   1      45.448  30.235  34.158  1.00  0.00    -0.203 F 
ATOM     84  C   UNL A   1      46.278  28.644  35.682  1.00  0.00     0.198 A 
ATOM     85  C   UNL A   1      44.774  27.120  36.766  1.00  0.00     0.198 A 
ATOM     86  F   UNL A   1      42.474  27.188  36.278  1.00  0.00    -0.203 F 
ATOM     87  F   UNL A   1      47.524  29.087  35.464  1.00  0.00    -0.200 F 
ATOM     88  C   UNL A   1      46.060  27.597  36.565  1.00  0.00     0.200 A 
ATOM     89  F   UNL A   1      44.559  26.117  37.629  1.00  0.00    -0.200 F 
ATOM     90  F   UNL A   1      47.091  27.042  37.217  1.00  0.00    -0.200 F 
ENDBRANCH  57  80
ENDBRANCH  31  32
ENDBRANCH  23  26
ENDBRANCH  21  22
ENDBRANCH  20  21
ENDBRANCH   1  20
TORSDOF 13
ENDMDL
MODEL 2
REMARK VINA RESULT:     -12.3      6.857     11.977
REMARK SMILES Cc1nc(C[N@@H+]2CCC[C@H]2C(=O)NCCCCNC(=O)c2ccc(-c3c4nc(c(-c5c(F)c(F)c(F)c(F)c5F)c5ccc([nH]5)c(-c5c(F)c(F)c(F)c(F)c5F)c5nc(c(-c6c(F)c(F)c(F)c(F)c6F)c6ccc3[nH]6)C=C5)C=C4)cc2)cs1
REMARK SMILES IDX 15 1 14 2 13 3 11 4 12 5 10 7 6 8 7 9 8 11 9 12 5 13 4 14
REMARK SMILES IDX 1 15 2 16 3 17 85 18 84 19 16 20 17 21 18 22 19 23 20 25
REMARK SMILES IDX 21 26 22 27 83 28 23 29 82 30 24 31 25 32 26 33 76 34 27 35
REMARK SMILES IDX 81 36 75 37 77 38 28 39 80 40 74 41 73 42 29 44 61 45 41 46
REMARK SMILES IDX 60 47 42 48 45 49 59 50 78 51 43 52 44 53 58 55 79 56 46 57
REMARK SMILES IDX 30 58 31 59 39 60 32 61 33 62 37 63 40 64 34 65 35 66 38 67
REMARK SMILES IDX 36 68 62 69 63 70 71 71 64 72 65 73 69 74 72 75 66 76 67 77
REMARK SMILES IDX 70 78 68 79 47 80 48 81 56 82 49 83 50 84 54 85 57 86 51 87
REMARK SMILES IDX 52 88 55 89 53 90
REMARK H PARENT 13 6 6 10 18 24 77 43 45 54
REMARK Flexibility Score: inf
ROOT
ATOM      1  C   UNL A   1      37.239  21.219  24.447  1.00  0.00     0.023 C 
ENDROOT
BRANCH   1   2
ATOM      2  C   UNL A   1      37.042  22.359  25.440  1.00  0.00     0.116 C 
BRANCH   2   3
ATOM      3  N   UNL A   1      36.066  22.027  26.460  1.00  0.00    -0.351 N 
ATOM      4  C   UNL A   1      34.742  21.718  26.417  1.00  0.00     0.278 C 
ATOM      5  O   UNL A   1      34.221  21.508  27.523  1.00  0.00    -0.268 OA
ATOM      6  H   UNL A   1      36.439  22.025  27.371  1.00  0.00     0.163 HD
BRANCH   4   7
ATOM      7  C   UNL A   1      33.872  21.689  25.134  1.00  0.00     0.274 C 
ATOM      8  N   UNL A   1      32.634  20.911  25.278  1.00  0.00    -0.320 N 
ATOM      9  C   UNL A   1      31.541  21.825  25.557  1.00  0.00     0.263 C 
ATOM     10  H   UNL A   1      32.711  20.293  26.085  1.00  0.00     0.349 HD
ATOM     11  C   UNL A   1      31.898  23.114  24.850  1.00  0.00     0.068 C 
ATOM     12  C   UNL A   1      33.419  23.117  24.788  1.00  0.00     0.081 C 
BRANCH   8  13
ATOM     13  C   UNL A   1      32.418  19.897  24.242  1.00  0.00     0.321 C 
BRANCH  13  14
ATOM     14  C   UNL A   1      32.982  18.543  24.542  1.00  0.00     0.106 A 
ATOM     15  C   UNL A   1      32.250  15.212  25.858  1.00  0.00     0.079 C 
ATOM     16  C   UNL A   1      32.826  16.453  25.275  1.00  0.00     0.090 A 
ATOM     17  N   UNL A   1      32.174  17.591  25.153  1.00  0.00    -0.241 NA
ATOM     18  S   UNL A   1      34.446  16.466  24.704  1.00  0.00    -0.127 S 
ATOM     19  C   UNL A   1      34.246  18.090  24.210  1.00  0.00     0.096 A 
ENDBRANCH  13  14
ENDBRANCH   8  13
ENDBRANCH   4   7
ENDBRANCH   2   3
ENDBRANCH   1   2
BRANCH   1  20
ATOM     20  C   UNL A   1      37.988  20.011  25.008  1.00  0.00     0.023 C 
BRANCH  20  21
ATOM     21  C   UNL A   1      39.244  20.339  25.809  1.00  0.00     0.116 C 
BRANCH  21  22
ATOM     22  N   UNL A   1      40.191  19.235  25.874  1.00  0.00    -0.352 N 
ATOM     23  C   UNL A   1      41.550  19.271  26.086  1.00  0.00     0.251 C 
ATOM     24  H   UNL A   1      39.806  18.338  25.749  1.00  0.00     0.163 HD
ATOM     25  O   UNL A   1      42.221  18.253  26.000  1.00  0.00    -0.269 OA
BRANCH  23  26
ATOM     26  C   UNL A   1      42.200  20.565  26.380  1.00  0.00     0.039 A 
ATOM     27  C   UNL A   1      42.597  21.377  25.315  1.00  0.00     0.014 A 
ATOM     28  C   UNL A   1      42.384  20.988  27.699  1.00  0.00     0.014 A 
ATOM     29  C   UNL A   1      43.112  22.649  25.573  1.00  0.00     0.010 A 
ATOM     30  C   UNL A   1      42.823  22.283  27.951  1.00  0.00     0.010 A 
ATOM     31  C   UNL A   1      43.191  23.126  26.892  1.00  0.00    -0.014 A 
BRANCH  31  32
ATOM     32  C   UNL A   1      43.651  24.505  27.185  1.00  0.00     0.031 A 
ATOM     33  C   UNL A   1      42.691  25.522  27.730  1.00  0.00     0.074 A 
ATOM     34  C   UNL A   1      44.916  24.862  26.891  1.00  0.00     0.049 A 
ATOM     35  N   UNL A   1      42.884  26.791  27.992  1.00  0.00    -0.248 NA
ATOM     36  C   UNL A   1      41.319  25.058  27.987  1.00  0.00     0.031 C 
ATOM     37  C   UNL A   1      45.931  23.979  26.313  1.00  0.00     0.029 A 
ATOM     38  N   UNL A   1      45.563  26.065  27.031  1.00  0.00    -0.354 N 
ATOM     39  C   UNL A   1      41.659  27.276  28.426  1.00  0.00     0.074 A 
ATOM     40  C   UNL A   1      40.714  26.183  28.336  1.00  0.00     0.031 C 
ATOM     41  C   UNL A   1      47.080  24.660  26.178  1.00  0.00     0.029 A 
ATOM     42  C   UNL A   1      46.873  26.036  26.623  1.00  0.00     0.049 A 
ATOM     43  H   UNL A   1      45.127  26.871  27.391  1.00  0.00     0.167 HD
ATOM     44  C   UNL A   1      41.353  28.514  28.884  1.00  0.00     0.037 A 
ATOM     45  C   UNL A   1      47.802  27.009  26.609  1.00  0.00     0.037 A 
ATOM     46  C   UNL A   1      42.301  29.593  28.989  1.00  0.00     0.049 A 
ATOM     47  C   UNL A   1      47.438  28.381  27.107  1.00  0.00     0.074 A 
ATOM     48  C   UNL A   1      42.110  30.864  29.499  1.00  0.00     0.029 A 
ATOM     49  N   UNL A   1      43.621  29.526  28.567  1.00  0.00    -0.354 N 
ATOM     50  N   UNL A   1      46.296  28.811  27.586  1.00  0.00    -0.248 NA
ATOM     51  C   UNL A   1      48.494  29.401  27.065  1.00  0.00     0.031 C 
ATOM     52  C   UNL A   1      43.300  31.583  29.340  1.00  0.00     0.029 A 
ATOM     53  C   UNL A   1      44.250  30.743  28.781  1.00  0.00     0.049 A 
ATOM     54  H   UNL A   1      44.049  28.732  28.173  1.00  0.00     0.167 HD
ATOM     55  C   UNL A   1      46.502  30.140  27.929  1.00  0.00     0.074 A 
ATOM     56  C   UNL A   1      47.883  30.442  27.613  1.00  0.00     0.031 C 
ATOM     57  C   UNL A   1      45.627  31.028  28.462  1.00  0.00     0.037 A 
BRANCH  44  58
ATOM     58  C   UNL A   1      39.930  28.762  29.296  1.00  0.00     0.064 A 
ATOM     59  C   UNL A   1      39.482  28.494  30.598  1.00  0.00     0.173 A 
ATOM     60  C   UNL A   1      39.000  29.271  28.376  1.00  0.00     0.173 A 
ATOM     61  F   UNL A   1      40.327  27.996  31.515  1.00  0.00    -0.203 F 
ATOM     62  C   UNL A   1      38.148  28.682  30.952  1.00  0.00     0.198 A 
ATOM     63  C   UNL A   1      37.675  29.490  28.743  1.00  0.00     0.198 A 
ATOM     64  F   UNL A   1      39.375  29.551  27.119  1.00  0.00    -0.203 F 
ATOM     65  F   UNL A   1      37.730  28.352  32.183  1.00  0.00    -0.200 F 
ATOM     66  C   UNL A   1      37.247  29.183  30.027  1.00  0.00     0.200 A 
ATOM     67  F   UNL A   1      36.808  29.987  27.851  1.00  0.00    -0.200 F 
ATOM     68  F   UNL A   1      35.963  29.360  30.366  1.00  0.00    -0.200 F 
ENDBRANCH  44  58
BRANCH  45  69
ATOM     69  C   UNL A   1      49.181  26.704  26.151  1.00  0.00     0.064 A 
ATOM     70  C   UNL A   1      49.568  26.963  24.828  1.00  0.00     0.173 A 
ATOM     71  C   UNL A   1      50.145  26.174  27.021  1.00  0.00     0.173 A 
ATOM     72  F   UNL A   1      48.674  27.452  23.955  1.00  0.00    -0.203 F 
ATOM     73  C   UNL A   1      50.862  26.692  24.390  1.00  0.00     0.198 A 
ATOM     74  C   UNL A   1      51.446  25.927  26.588  1.00  0.00     0.198 A 
ATOM     75  F   UNL A   1      49.827  25.912  28.297  1.00  0.00    -0.203 F 
ATOM     76  F   UNL A   1      51.194  26.919  23.111  1.00  0.00    -0.200 F 
ATOM     77  C   UNL A   1      51.802  26.182  25.271  1.00  0.00     0.200 A 
ATOM     78  F   UNL A   1      52.356  25.446  27.446  1.00  0.00    -0.200 F 
ATOM     79  F   UNL A   1      53.050  25.932  24.852  1.00  0.00    -0.200 F 
ENDBRANCH  45  69
BRANCH  57  80
ATOM     80  C   UNL A   1      46.145  32.404  28.770  1.00  0.00     0.064 A 
ATOM     81  C   UNL A   1      46.063  33.449  27.837  1.00  0.00     0.173 A 
ATOM     82  C   UNL A   1      46.695  32.689  30.029  1.00  0.00     0.173 A 
ATOM     83  F   UNL A   1      45.560  33.223  26.614  1.00  0.00    -0.203 F 
ATOM     84  C   UNL A   1      46.534  34.722  28.147  1.00  0.00     0.198 A 
ATOM     85  C   UNL A   1      47.137  33.970  30.345  1.00  0.00     0.198 A 
ATOM     86  F   UNL A   1      46.792  31.726  30.958  1.00  0.00    -0.203 F 
ATOM     87  F   UNL A   1      46.490  35.693  27.224  1.00  0.00    -0.200 F 
ATOM     88  C   UNL A   1      47.064  34.984  29.402  1.00  0.00     0.200 A 
ATOM     89  F   UNL A   1      47.636  34.224  31.563  1.00  0.00    -0.200 F 
ATOM     90  F   UNL A   1      47.511  36.211  29.700  1.00  0.00    -0.200 F 
ENDBRANCH  57  80
ENDBRANCH  31  32
ENDBRANCH  23  26
ENDBRANCH  21  22
ENDBRANCH  20  21
ENDBRANCH   1  20
TORSDOF 13
ENDMDL
MODEL 3
REMARK VINA RESULT:     -12.1      6.678     10.792
REMARK SMILES Cc1nc(C[N@@H+]2CCC[C@H]2C(=O)NCCCCNC(=O)c2ccc(-c3c4nc(c(-c5c(F)c(F)c(F)c(F)c5F)c5ccc([nH]5)c(-c5c(F)c(F)c(F)c(F)c5F)c5nc(c(-c6c(F)c(F)c(F)c(F)c6F)c6ccc3[nH]6)C=C5)C=C4)cc2)cs1
REMARK SMILES IDX 15 1 14 2 13 3 11 4 12 5 10 7 6 8 7 9 8 11 9 12 5 13 4 14
REMARK SMILES IDX 1 15 2 16 3 17 85 18 84 19 16 20 17 21 18 22 19 23 20 25
REMARK SMILES IDX 21 26 22 27 83 28 23 29 82 30 24 31 25 32 26 33 76 34 27 35
REMARK SMILES IDX 81 36 75 37 77 38 28 39 80 40 74 41 73 42 29 44 61 45 41 46
REMARK SMILES IDX 60 47 42 48 45 49 59 50 78 51 43 52 44 53 58 55 79 56 46 57
REMARK SMILES IDX 30 58 31 59 39 60 32 61 33 62 37 63 40 64 34 65 35 66 38 67
REMARK SMILES IDX 36 68 62 69 63 70 71 71 64 72 65 73 69 74 72 75 66 76 67 77
REMARK SMILES IDX 70 78 68 79 47 80 48 81 56 82 49 83 50 84 54 85 57 86 51 87
REMARK SMILES IDX 52 88 55 89 53 90
REMARK H PARENT 13 6 6 10 18 24 77 43 45 54
REMARK Flexibility Score: inf
ROOT
ATOM      1  C   UNL A   1      36.913  20.744  24.729  1.00  0.00     0.023 C 
ENDROOT
BRANCH   1   2
ATOM      2  C   UNL A   1      36.962  21.916  25.702  1.00  0.00     0.116 C 
BRANCH   2   3
ATOM      3  N   UNL A   1      35.886  21.860  26.673  1.00  0.00    -0.351 N 
ATOM      4  C   UNL A   1      34.535  21.759  26.561  1.00  0.00     0.278 C 
ATOM      5  O   UNL A   1      33.922  21.762  27.639  1.00  0.00    -0.268 OA
ATOM      6  H   UNL A   1      36.199  21.906  27.605  1.00  0.00     0.163 HD
BRANCH   4   7
ATOM      7  C   UNL A   1      33.749  21.718  25.225  1.00  0.00     0.274 C 
ATOM      8  N   UNL A   1      32.517  20.922  25.289  1.00  0.00    -0.320 N 
ATOM      9  C   UNL A   1      31.394  21.819  25.497  1.00  0.00     0.263 C 
ATOM     10  H   UNL A   1      32.551  20.305  26.100  1.00  0.00     0.349 HD
ATOM     11  C   UNL A   1      31.777  23.114  24.815  1.00  0.00     0.068 C 
ATOM     12  C   UNL A   1      33.298  23.139  24.850  1.00  0.00     0.081 C 
BRANCH   8  13
ATOM     13  C   UNL A   1      32.382  19.906  24.242  1.00  0.00     0.321 C 
BRANCH  13  14
ATOM     14  C   UNL A   1      32.966  18.566  24.568  1.00  0.00     0.106 A 
ATOM     15  C   UNL A   1      32.259  15.212  25.836  1.00  0.00     0.079 C 
ATOM     16  C   UNL A   1      32.830  16.470  25.287  1.00  0.00     0.090 A 
ATOM     17  N   UNL A   1      32.154  17.590  25.134  1.00  0.00    -0.241 NA
ATOM     18  S   UNL A   1      34.477  16.530  24.804  1.00  0.00    -0.127 S 
ATOM     19  C   UNL A   1      34.259  18.150  24.304  1.00  0.00     0.096 A 
ENDBRANCH  13  14
ENDBRANCH   8  13
ENDBRANCH   4   7
ENDBRANCH   2   3
ENDBRANCH   1   2
BRANCH   1  20
ATOM     20  C   UNL A   1      37.988  19.683  24.957  1.00  0.00     0.023 C 
BRANCH  20  21
ATOM     21  C   UNL A   1      39.217  20.157  25.726  1.00  0.00     0.116 C 
BRANCH  21  22
ATOM     22  N   UNL A   1      40.235  19.127  25.880  1.00  0.00    -0.352 N 
ATOM     23  C   UNL A   1      41.573  19.268  26.164  1.00  0.00     0.251 C 
ATOM     24  H   UNL A   1      39.922  18.202  25.764  1.00  0.00     0.163 HD
ATOM     25  O   UNL A   1      42.318  18.299  26.150  1.00  0.00    -0.269 OA
BRANCH  23  26
ATOM     26  C   UNL A   1      42.113  20.614  26.450  1.00  0.00     0.039 A 
ATOM     27  C   UNL A   1      42.441  21.450  25.380  1.00  0.00     0.014 A 
ATOM     28  C   UNL A   1      42.260  21.059  27.766  1.00  0.00     0.014 A 
ATOM     29  C   UNL A   1      42.848  22.761  25.630  1.00  0.00     0.010 A 
ATOM     30  C   UNL A   1      42.590  22.387  28.010  1.00  0.00     0.010 A 
ATOM     31  C   UNL A   1      42.885  23.252  26.945  1.00  0.00    -0.014 A 
BRANCH  31  32
ATOM     32  C   UNL A   1      43.229  24.667  27.230  1.00  0.00     0.031 A 
ATOM     33  C   UNL A   1      44.615  25.176  26.962  1.00  0.00     0.074 A 
ATOM     34  C   UNL A   1      42.312  25.474  27.798  1.00  0.00     0.049 A 
ATOM     35  N   UNL A   1      45.127  26.357  27.201  1.00  0.00    -0.248 NA
ATOM     36  C   UNL A   1      45.565  24.217  26.377  1.00  0.00     0.031 C 
ATOM     37  C   UNL A   1      40.946  25.084  28.151  1.00  0.00     0.029 A 
ATOM     38  N   UNL A   1      42.393  26.788  28.185  1.00  0.00    -0.354 N 
ATOM     39  C   UNL A   1      46.456  26.278  26.810  1.00  0.00     0.074 A 
ATOM     40  C   UNL A   1      46.689  24.917  26.377  1.00  0.00     0.031 C 
ATOM     41  C   UNL A   1      40.308  26.144  28.672  1.00  0.00     0.029 A 
ATOM     42  C   UNL A   1      41.229  27.275  28.726  1.00  0.00     0.049 A 
ATOM     43  H   UNL A   1      43.210  27.329  28.083  1.00  0.00     0.167 HD
ATOM     44  C   UNL A   1      47.392  27.257  26.790  1.00  0.00     0.037 A 
ATOM     45  C   UNL A   1      40.940  28.497  29.211  1.00  0.00     0.037 A 
ATOM     46  C   UNL A   1      47.150  28.614  27.206  1.00  0.00     0.049 A 
ATOM     47  C   UNL A   1      41.998  29.565  29.194  1.00  0.00     0.074 A 
ATOM     48  C   UNL A   1      48.010  29.697  27.164  1.00  0.00     0.029 A 
ATOM     49  N   UNL A   1      45.957  29.072  27.747  1.00  0.00    -0.354 N 
ATOM     50  N   UNL A   1      43.231  29.502  28.753  1.00  0.00    -0.248 NA
ATOM     51  C   UNL A   1      41.622  30.876  29.739  1.00  0.00     0.031 C 
ATOM     52  C   UNL A   1      47.355  30.798  27.726  1.00  0.00     0.029 A 
ATOM     53  C   UNL A   1      46.067  30.416  28.069  1.00  0.00     0.049 A 
ATOM     54  H   UNL A   1      45.151  28.523  27.883  1.00  0.00     0.167 HD
ATOM     55  C   UNL A   1      43.770  30.768  28.939  1.00  0.00     0.074 A 
ATOM     56  C   UNL A   1      42.724  31.583  29.524  1.00  0.00     0.031 C 
ATOM     57  C   UNL A   1      45.016  31.214  28.649  1.00  0.00     0.037 A 
BRANCH  44  58
ATOM     58  C   UNL A   1      48.766  26.884  26.309  1.00  0.00     0.064 A 
ATOM     59  C   UNL A   1      49.754  26.416  27.188  1.00  0.00     0.173 A 
ATOM     60  C   UNL A   1      49.101  27.000  24.951  1.00  0.00     0.173 A 
ATOM     61  F   UNL A   1      49.491  26.298  28.499  1.00  0.00    -0.203 F 
ATOM     62  C   UNL A   1      51.038  26.122  26.736  1.00  0.00     0.198 A 
ATOM     63  C   UNL A   1      50.375  26.671  24.496  1.00  0.00     0.198 A 
ATOM     64  F   UNL A   1      48.193  27.436  24.065  1.00  0.00    -0.203 F 
ATOM     65  F   UNL A   1      51.984  25.744  27.607  1.00  0.00    -0.200 F 
ATOM     66  C   UNL A   1      51.346  26.246  25.391  1.00  0.00     0.200 A 
ATOM     67  F   UNL A   1      50.668  26.780  23.193  1.00  0.00    -0.200 F 
ATOM     68  F   UNL A   1      52.582  25.967  24.956  1.00  0.00    -0.200 F 
ENDBRANCH  44  58
BRANCH  45  69
ATOM     69  C   UNL A   1      39.571  28.786  29.709  1.00  0.00     0.064 A 
ATOM     70  C   UNL A   1      39.233  28.546  31.049  1.00  0.00     0.173 A 
ATOM     71  C   UNL A   1      38.583  29.325  28.872  1.00  0.00     0.173 A 
ATOM     72  F   UNL A   1      40.140  28.012  31.881  1.00  0.00    -0.203 F 
ATOM     73  C   UNL A   1      37.956  28.824  31.529  1.00  0.00     0.198 A 
ATOM     74  C   UNL A   1      37.313  29.626  29.361  1.00  0.00     0.198 A 
ATOM     75  F   UNL A   1      38.857  29.576  27.584  1.00  0.00    -0.203 F 
ATOM     76  F   UNL A   1      37.651  28.555  32.807  1.00  0.00    -0.200 F 
ATOM     77  C   UNL A   1      37.000  29.371  30.688  1.00  0.00     0.200 A 
ATOM     78  F   UNL A   1      36.396  30.167  28.548  1.00  0.00    -0.200 F 
ATOM     79  F   UNL A   1      35.774  29.648  31.155  1.00  0.00    -0.200 F 
ENDBRANCH  45  69
BRANCH  57  80
ATOM     80  C   UNL A   1      45.310  32.661  28.926  1.00  0.00     0.064 A 
ATOM     81  C   UNL A   1      45.899  33.077  30.129  1.00  0.00     0.173 A 
ATOM     82  C   UNL A   1      45.033  33.639  27.958  1.00  0.00     0.173 A 
ATOM     83  F   UNL A   1      46.168  32.183  31.093  1.00  0.00    -0.203 F 
ATOM     84  C   UNL A   1      46.178  34.421  30.362  1.00  0.00     0.198 A 
ATOM     85  C   UNL A   1      45.342  34.977  28.182  1.00  0.00     0.198 A 
ATOM     86  F   UNL A   1      44.475  33.293  26.788  1.00  0.00    -0.203 F 
ATOM     87  F   UNL A   1      46.697  34.801  31.537  1.00  0.00    -0.200 F 
ATOM     88  C   UNL A   1      45.907  35.369  29.386  1.00  0.00     0.200 A 
ATOM     89  F   UNL A   1      45.091  35.889  27.233  1.00  0.00    -0.200 F 
ATOM     90  F   UNL A   1      46.183  36.661  29.609  1.00  0.00    -0.200 F 
ENDBRANCH  57  80
ENDBRANCH  31  32
ENDBRANCH  23  26
ENDBRANCH  21  22
ENDBRANCH  20  21
ENDBRANCH   1  20
TORSDOF 13
ENDMDL
