MODEL 1
REMARK VINA RESULT:     -12.9      0.000      0.000
REMARK SMILES O=C(NCCCCNC(=O)c1cccc(Nc2ccnc3ccc(Cl)cc23)c1)c1ccc(-c2c3nc(c(-c4c(F)c(F)c(F)c(F)c4F)c4ccc([nH]4)c(-c4c(F)c(F)c(F)c(F)c4F)c4nc(c(-c5c(F)c(F)c(F)c(F)c5F)c5ccc2[nH]5)C=C4)C=C3)cc1
REMARK SMILES IDX 5 1 4 2 3 3 1 4 2 5 29 7 30 8 91 9 31 10 90 11 32 12 33 13
REMARK SMILES IDX 34 14 84 15 35 16 89 17 83 18 85 19 36 20 88 21 82 22 81 23
REMARK SMILES IDX 37 25 69 26 49 27 68 28 50 29 53 30 67 31 86 32 51 33 52 34
REMARK SMILES IDX 66 36 87 37 54 38 38 39 39 40 47 41 40 42 41 43 45 44 48 45
REMARK SMILES IDX 42 46 43 47 46 48 44 49 70 50 71 51 79 52 72 53 73 54 77 55
REMARK SMILES IDX 80 56 74 57 75 58 78 59 76 60 55 61 56 62 64 63 57 64 58 65
REMARK SMILES IDX 62 66 65 67 59 68 60 69 63 70 61 71 6 72 7 73 8 74 9 75
REMARK SMILES IDX 10 77 11 78 12 79 28 80 13 81 15 82 14 83 16 84 17 86 18 87
REMARK SMILES IDX 27 88 19 89 21 90 26 91 20 92 22 93 24 94 23 95 25 96
REMARK H PARENT 3 6 85 24 53 35 8 76 16 85
REMARK Flexibility Score: inf
ROOT
ATOM      1  C   UNL A   1      32.139  28.644  24.728  1.00  0.00     0.023 C 
ENDROOT
BRANCH   1   2
ATOM      2  C   UNL A   1      33.126  29.310  25.679  1.00  0.00     0.116 C 
BRANCH   2   3
ATOM      3  N   UNL A   1      32.713  30.638  26.111  1.00  0.00    -0.352 N 
ATOM      4  O   UNL A   1      32.719  32.523  27.351  1.00  0.00    -0.269 OA
ATOM      5  C   UNL A   1      33.275  31.468  27.051  1.00  0.00     0.251 C 
ATOM      6  H   UNL A   1      31.913  30.994  25.662  1.00  0.00     0.163 HD
BRANCH   5   7
ATOM      7  C   UNL A   1      34.528  31.077  27.730  1.00  0.00     0.039 A 
ATOM      8  C   UNL A   1      34.718  29.772  28.183  1.00  0.00     0.014 A 
ATOM      9  C   UNL A   1      35.528  32.037  27.918  1.00  0.00     0.014 A 
ATOM     10  C   UNL A   1      35.827  29.466  28.962  1.00  0.00     0.010 A 
ATOM     11  C   UNL A   1      36.689  31.702  28.620  1.00  0.00     0.010 A 
ATOM     12  C   UNL A   1      36.834  30.423  29.177  1.00  0.00    -0.014 A 
BRANCH  12  13
ATOM     13  C   UNL A   1      38.053  30.036  29.929  1.00  0.00     0.031 A 
ATOM     14  C   UNL A   1      38.311  30.544  31.320  1.00  0.00     0.074 A 
ATOM     15  C   UNL A   1      38.926  29.192  29.347  1.00  0.00     0.049 A 
ATOM     16  N   UNL A   1      39.321  30.294  32.117  1.00  0.00    -0.248 NA
ATOM     17  C   UNL A   1      37.311  31.458  31.892  1.00  0.00     0.031 C 
ATOM     18  C   UNL A   1      38.788  28.645  27.995  1.00  0.00     0.029 A 
ATOM     19  N   UNL A   1      40.091  28.636  29.812  1.00  0.00    -0.354 N 
ATOM     20  C   UNL A   1      39.089  31.030  33.271  1.00  0.00     0.074 A 
ATOM     21  C   UNL A   1      37.856  31.760  33.063  1.00  0.00     0.031 C 
ATOM     22  C   UNL A   1      39.803  27.804  27.755  1.00  0.00     0.029 A 
ATOM     23  C   UNL A   1      40.698  27.803  28.905  1.00  0.00     0.049 A 
ATOM     24  H   UNL A   1      40.455  28.818  30.708  1.00  0.00     0.167 HD
ATOM     25  C   UNL A   1      39.835  31.082  34.402  1.00  0.00     0.037 A 
ATOM     26  C   UNL A   1      41.861  27.131  28.980  1.00  0.00     0.037 A 
ATOM     27  C   UNL A   1      41.057  30.343  34.602  1.00  0.00     0.049 A 
ATOM     28  C   UNL A   1      42.682  27.233  30.233  1.00  0.00     0.074 A 
ATOM     29  C   UNL A   1      41.862  30.296  35.729  1.00  0.00     0.029 A 
ATOM     30  N   UNL A   1      41.656  29.529  33.651  1.00  0.00    -0.354 N 
ATOM     31  N   UNL A   1      42.429  27.896  31.335  1.00  0.00    -0.248 NA
ATOM     32  C   UNL A   1      43.950  26.494  30.252  1.00  0.00     0.031 C 
ATOM     33  C   UNL A   1      42.977  29.500  35.438  1.00  0.00     0.029 A 
ATOM     34  C   UNL A   1      42.836  29.001  34.153  1.00  0.00     0.049 A 
ATOM     35  H   UNL A   1      41.297  29.353  32.751  1.00  0.00     0.167 HD
ATOM     36  C   UNL A   1      43.494  27.640  32.186  1.00  0.00     0.074 A 
ATOM     37  C   UNL A   1      44.386  26.743  31.479  1.00  0.00     0.031 C 
ATOM     38  C   UNL A   1      43.715  28.111  33.438  1.00  0.00     0.037 A 
BRANCH  25  39
ATOM     39  C   UNL A   1      39.369  31.986  35.508  1.00  0.00     0.064 A 
ATOM     40  C   UNL A   1      38.530  31.527  36.537  1.00  0.00     0.173 A 
ATOM     41  C   UNL A   1      39.808  33.318  35.569  1.00  0.00     0.173 A 
ATOM     42  F   UNL A   1      38.075  30.266  36.524  1.00  0.00    -0.203 F 
ATOM     43  C   UNL A   1      38.129  32.375  37.567  1.00  0.00     0.198 A 
ATOM     44  C   UNL A   1      39.428  34.154  36.617  1.00  0.00     0.198 A 
ATOM     45  F   UNL A   1      40.618  33.808  34.619  1.00  0.00    -0.203 F 
ATOM     46  F   UNL A   1      37.291  31.927  38.513  1.00  0.00    -0.200 F 
ATOM     47  C   UNL A   1      38.583  33.684  37.610  1.00  0.00     0.200 A 
ATOM     48  F   UNL A   1      39.882  35.415  36.665  1.00  0.00    -0.200 F 
ATOM     49  F   UNL A   1      38.203  34.496  38.607  1.00  0.00    -0.200 F 
ENDBRANCH  25  39
BRANCH  26  50
ATOM     50  C   UNL A   1      42.314  26.316  27.823  1.00  0.00     0.064 A 
ATOM     51  C   UNL A   1      41.875  24.997  27.650  1.00  0.00     0.173 A 
ATOM     52  C   UNL A   1      43.184  26.847  26.858  1.00  0.00     0.173 A 
ATOM     53  F   UNL A   1      41.057  24.439  28.555  1.00  0.00    -0.203 F 
ATOM     54  C   UNL A   1      42.301  24.235  26.564  1.00  0.00     0.198 A 
ATOM     55  C   UNL A   1      43.581  26.096  25.755  1.00  0.00     0.198 A 
ATOM     56  F   UNL A   1      43.626  28.108  26.974  1.00  0.00    -0.203 F 
ATOM     57  F   UNL A   1      41.901  22.962  26.445  1.00  0.00    -0.200 F 
ATOM     58  C   UNL A   1      43.147  24.788  25.614  1.00  0.00     0.200 A 
ATOM     59  F   UNL A   1      44.382  26.642  24.830  1.00  0.00    -0.200 F 
ATOM     60  F   UNL A   1      43.548  24.057  24.564  1.00  0.00    -0.200 F 
ENDBRANCH  26  50
BRANCH  38  61
ATOM     61  C   UNL A   1      44.958  27.636  34.135  1.00  0.00     0.064 A 
ATOM     62  C   UNL A   1      46.163  28.350  34.059  1.00  0.00     0.173 A 
ATOM     63  C   UNL A   1      44.935  26.465  34.908  1.00  0.00     0.173 A 
ATOM     64  F   UNL A   1      46.243  29.466  33.318  1.00  0.00    -0.203 F 
ATOM     65  C   UNL A   1      47.308  27.892  34.709  1.00  0.00     0.198 A 
ATOM     66  C   UNL A   1      46.072  26.029  35.582  1.00  0.00     0.198 A 
ATOM     67  F   UNL A   1      43.806  25.749  35.017  1.00  0.00    -0.203 F 
ATOM     68  F   UNL A   1      48.462  28.560  34.577  1.00  0.00    -0.200 F 
ATOM     69  C   UNL A   1      47.258  26.737  35.475  1.00  0.00     0.200 A 
ATOM     70  F   UNL A   1      46.019  24.920  36.333  1.00  0.00    -0.200 F 
ATOM     71  F   UNL A   1      48.359  26.302  36.103  1.00  0.00    -0.200 F 
ENDBRANCH  38  61
ENDBRANCH  12  13
ENDBRANCH   5   7
ENDBRANCH   2   3
ENDBRANCH   1   2
BRANCH   1  72
ATOM     72  C   UNL A   1      32.450  28.787  23.240  1.00  0.00     0.023 C 
BRANCH  72  73
ATOM     73  C   UNL A   1      33.739  28.121  22.773  1.00  0.00     0.116 C 
BRANCH  73  74
ATOM     74  N   UNL A   1      33.567  27.293  21.595  1.00  0.00    -0.352 N 
ATOM     75  C   UNL A   1      33.012  26.051  21.436  1.00  0.00     0.251 C 
ATOM     76  H   UNL A   1      33.910  27.694  20.764  1.00  0.00     0.163 HD
ATOM     77  O   UNL A   1      33.062  25.518  20.329  1.00  0.00    -0.269 OA
BRANCH  75  78
ATOM     78  C   UNL A   1      32.385  25.322  22.562  1.00  0.00     0.041 A 
ATOM     79  C   UNL A   1      31.010  25.500  22.760  1.00  0.00     0.014 A 
ATOM     80  C   UNL A   1      33.131  24.596  23.499  1.00  0.00     0.039 A 
ATOM     81  C   UNL A   1      30.375  24.911  23.850  1.00  0.00     0.003 A 
ATOM     82  C   UNL A   1      32.498  23.993  24.595  1.00  0.00     0.039 A 
ATOM     83  C   UNL A   1      31.117  24.160  24.759  1.00  0.00     0.026 A 
BRANCH  82  84
ATOM     84  N   UNL A   1      33.263  23.470  25.672  1.00  0.00    -0.355 N 
ATOM     85  H   UNL A   1      33.290  23.933  26.540  1.00  0.00     0.167 HD
BRANCH  84  86
ATOM     86  C   UNL A   1      33.991  22.264  25.468  1.00  0.00     0.050 A 
ATOM     87  C   UNL A   1      33.267  21.099  25.194  1.00  0.00     0.047 A 
ATOM     88  C   UNL A   1      35.403  22.216  25.494  1.00  0.00     0.025 A 
ATOM     89  C   UNL A   1      33.957  19.967  24.830  1.00  0.00     0.114 A 
ATOM     90  C   UNL A   1      36.001  20.983  25.144  1.00  0.00     0.072 A 
ATOM     91  C   UNL A   1      36.233  23.311  25.835  1.00  0.00     0.033 A 
ATOM     92  N   UNL A   1      35.299  19.895  24.795  1.00  0.00    -0.256 NA
ATOM     93  C   UNL A   1      37.383  20.876  25.165  1.00  0.00     0.030 A 
ATOM     94  C   UNL A   1      37.619  23.162  25.868  1.00  0.00     0.041 A 
ATOM     95  C   UNL A   1      38.198  21.944  25.540  1.00  0.00     0.023 A 
ATOM     96  Cl  UNL A   1      38.620  24.482  26.329  1.00  0.00    -0.084 Cl
ENDBRANCH  84  86
ENDBRANCH  82  84
ENDBRANCH  75  78
ENDBRANCH  73  74
ENDBRANCH  72  73
ENDBRANCH   1  72
TORSDOF 13
ENDMDL
MODEL 2
REMARK VINA RESULT:     -12.8      2.989      4.307
REMARK SMILES O=C(NCCCCNC(=O)c1cccc(Nc2ccnc3ccc(Cl)cc23)c1)c1ccc(-c2c3nc(c(-c4c(F)c(F)c(F)c(F)c4F)c4ccc([nH]4)c(-c4c(F)c(F)c(F)c(F)c4F)c4nc(c(-c5c(F)c(F)c(F)c(F)c5F)c5ccc2[nH]5)C=C4)C=C3)cc1
REMARK SMILES IDX 5 1 4 2 3 3 1 4 2 5 29 7 30 8 91 9 31 10 90 11 32 12 33 13
REMARK SMILES IDX 34 14 84 15 35 16 89 17 83 18 85 19 36 20 88 21 82 22 81 23
REMARK SMILES IDX 37 25 69 26 49 27 68 28 50 29 53 30 67 31 86 32 51 33 52 34
REMARK SMILES IDX 66 36 87 37 54 38 38 39 39 40 47 41 40 42 41 43 45 44 48 45
REMARK SMILES IDX 42 46 43 47 46 48 44 49 70 50 71 51 79 52 72 53 73 54 77 55
REMARK SMILES IDX 80 56 74 57 75 58 78 59 76 60 55 61 56 62 64 63 57 64 58 65
REMARK SMILES IDX 62 66 65 67 59 68 60 69 63 70 61 71 6 72 7 73 8 74 9 75
REMARK SMILES IDX 10 77 11 78 12 79 28 80 13 81 15 82 14 83 16 84 17 86 18 87
REMARK SMILES IDX 27 88 19 89 21 90 26 91 20 92 22 93 24 94 23 95 25 96
REMARK H PARENT 3 6 85 24 53 35 8 76 16 85
REMARK Flexibility Score: inf
ROOT
ATOM      1  C   UNL A   1      33.663  27.974  25.436  1.00  0.00     0.023 C 
ENDROOT
BRANCH   1   2
ATOM      2  C   UNL A   1      33.795  28.204  26.936  1.00  0.00     0.116 C 
BRANCH   2   3
ATOM      3  N   UNL A   1      33.589  29.590  27.334  1.00  0.00    -0.352 N 
ATOM      4  O   UNL A   1      34.056  31.571  28.306  1.00  0.00    -0.269 OA
ATOM      5  C   UNL A   1      34.449  30.458  27.962  1.00  0.00     0.251 C 
ATOM      6  H   UNL A   1      32.702  29.960  27.120  1.00  0.00     0.163 HD
BRANCH   5   7
ATOM      7  C   UNL A   1      35.837  30.043  28.256  1.00  0.00     0.039 A 
ATOM      8  C   UNL A   1      36.174  29.508  29.499  1.00  0.00     0.014 A 
ATOM      9  C   UNL A   1      36.816  30.197  27.270  1.00  0.00     0.014 A 
ATOM     10  C   UNL A   1      37.508  29.281  29.814  1.00  0.00     0.010 A 
ATOM     11  C   UNL A   1      38.146  29.876  27.556  1.00  0.00     0.010 A 
ATOM     12  C   UNL A   1      38.508  29.447  28.842  1.00  0.00    -0.014 A 
BRANCH  12  13
ATOM     13  C   UNL A   1      39.911  29.099  29.179  1.00  0.00     0.031 A 
ATOM     14  C   UNL A   1      40.767  30.014  30.010  1.00  0.00     0.074 A 
ATOM     15  C   UNL A   1      40.405  27.925  28.742  1.00  0.00     0.049 A 
ATOM     16  N   UNL A   1      42.008  29.854  30.401  1.00  0.00    -0.248 NA
ATOM     17  C   UNL A   1      40.159  31.277  30.454  1.00  0.00     0.031 C 
ATOM     18  C   UNL A   1      39.671  26.963  27.917  1.00  0.00     0.029 A 
ATOM     19  N   UNL A   1      41.626  27.332  28.936  1.00  0.00    -0.354 N 
ATOM     20  C   UNL A   1      42.333  30.997  31.119  1.00  0.00     0.074 A 
ATOM     21  C   UNL A   1      41.170  31.858  31.087  1.00  0.00     0.031 C 
ATOM     22  C   UNL A   1      40.440  25.885  27.708  1.00  0.00     0.029 A 
ATOM     23  C   UNL A   1      41.742  26.107  28.326  1.00  0.00     0.049 A 
ATOM     24  H   UNL A   1      42.349  27.745  29.461  1.00  0.00     0.167 HD
ATOM     25  C   UNL A   1      43.494  31.293  31.753  1.00  0.00     0.037 A 
ATOM     26  C   UNL A   1      42.787  25.265  28.249  1.00  0.00     0.037 A 
ATOM     27  C   UNL A   1      44.644  30.424  31.787  1.00  0.00     0.049 A 
ATOM     28  C   UNL A   1      44.072  25.634  28.935  1.00  0.00     0.074 A 
ATOM     29  C   UNL A   1      45.852  30.615  32.438  1.00  0.00     0.029 A 
ATOM     30  N   UNL A   1      44.734  29.202  31.135  1.00  0.00    -0.354 N 
ATOM     31  N   UNL A   1      44.351  26.697  29.649  1.00  0.00    -0.248 NA
ATOM     32  C   UNL A   1      45.185  24.687  28.802  1.00  0.00     0.031 C 
ATOM     33  C   UNL A   1      46.691  29.537  32.132  1.00  0.00     0.029 A 
ATOM     34  C   UNL A   1      45.987  28.643  31.342  1.00  0.00     0.049 A 
ATOM     35  H   UNL A   1      44.014  28.791  30.603  1.00  0.00     0.167 HD
ATOM     36  C   UNL A   1      45.664  26.540  30.067  1.00  0.00     0.074 A 
ATOM     37  C   UNL A   1      46.118  25.267  29.544  1.00  0.00     0.031 C 
ATOM     38  C   UNL A   1      46.425  27.377  30.814  1.00  0.00     0.037 A 
BRANCH  25  39
ATOM     39  C   UNL A   1      43.596  32.623  32.445  1.00  0.00     0.064 A 
ATOM     40  C   UNL A   1      44.039  33.776  31.776  1.00  0.00     0.173 A 
ATOM     41  C   UNL A   1      43.196  32.758  33.784  1.00  0.00     0.173 A 
ATOM     42  F   UNL A   1      44.440  33.702  30.499  1.00  0.00    -0.203 F 
ATOM     43  C   UNL A   1      44.102  35.005  32.430  1.00  0.00     0.198 A 
ATOM     44  C   UNL A   1      43.233  33.995  34.425  1.00  0.00     0.198 A 
ATOM     45  F   UNL A   1      42.755  31.693  34.470  1.00  0.00    -0.203 F 
ATOM     46  F   UNL A   1      44.572  36.081  31.784  1.00  0.00    -0.200 F 
ATOM     47  C   UNL A   1      43.693  35.115  33.750  1.00  0.00     0.200 A 
ATOM     48  F   UNL A   1      42.821  34.102  35.696  1.00  0.00    -0.200 F 
ATOM     49  F   UNL A   1      43.747  36.300  34.374  1.00  0.00    -0.200 F 
ENDBRANCH  25  39
BRANCH  26  50
ATOM     50  C   UNL A   1      42.656  23.999  27.483  1.00  0.00     0.064 A 
ATOM     51  C   UNL A   1      43.028  23.926  26.134  1.00  0.00     0.173 A 
ATOM     52  C   UNL A   1      42.170  22.831  28.091  1.00  0.00     0.173 A 
ATOM     53  F   UNL A   1      43.481  25.021  25.505  1.00  0.00    -0.203 F 
ATOM     54  C   UNL A   1      42.903  22.738  25.419  1.00  0.00     0.198 A 
ATOM     55  C   UNL A   1      42.079  21.635  27.384  1.00  0.00     0.198 A 
ATOM     56  F   UNL A   1      41.808  22.846  29.383  1.00  0.00    -0.203 F 
ATOM     57  F   UNL A   1      43.225  22.706  24.118  1.00  0.00    -0.200 F 
ATOM     58  C   UNL A   1      42.437  21.592  26.046  1.00  0.00     0.200 A 
ATOM     59  F   UNL A   1      41.647  20.527  28.000  1.00  0.00    -0.200 F 
ATOM     60  F   UNL A   1      42.328  20.446  25.359  1.00  0.00    -0.200 F 
ENDBRANCH  26  50
BRANCH  38  61
ATOM     61  C   UNL A   1      47.821  26.925  31.135  1.00  0.00     0.064 A 
ATOM     62  C   UNL A   1      48.101  26.136  32.260  1.00  0.00     0.173 A 
ATOM     63  C   UNL A   1      48.889  27.268  30.291  1.00  0.00     0.173 A 
ATOM     64  F   UNL A   1      47.118  25.797  33.109  1.00  0.00    -0.203 F 
ATOM     65  C   UNL A   1      49.403  25.730  32.544  1.00  0.00     0.198 A 
ATOM     66  C   UNL A   1      50.184  26.833  30.560  1.00  0.00     0.198 A 
ATOM     67  F   UNL A   1      48.675  28.017  29.199  1.00  0.00    -0.203 F 
ATOM     68  F   UNL A   1      49.654  25.024  33.655  1.00  0.00    -0.200 F 
ATOM     69  C   UNL A   1      50.441  26.073  31.691  1.00  0.00     0.200 A 
ATOM     70  F   UNL A   1      51.183  27.153  29.727  1.00  0.00    -0.200 F 
ATOM     71  F   UNL A   1      51.692  25.677  31.964  1.00  0.00    -0.200 F 
ENDBRANCH  38  61
ENDBRANCH  12  13
ENDBRANCH   5   7
ENDBRANCH   2   3
ENDBRANCH   1   2
BRANCH   1  72
ATOM     72  C   UNL A   1      33.321  29.206  24.601  1.00  0.00     0.023 C 
BRANCH  72  73
ATOM     73  C   UNL A   1      33.290  28.987  23.093  1.00  0.00     0.116 C 
BRANCH  73  74
ATOM     74  N   UNL A   1      32.013  29.315  22.489  1.00  0.00    -0.352 N 
ATOM     75  C   UNL A   1      30.860  28.586  22.360  1.00  0.00     0.251 C 
ATOM     76  H   UNL A   1      31.968  30.219  22.102  1.00  0.00     0.163 HD
ATOM     77  O   UNL A   1      29.926  29.066  21.722  1.00  0.00    -0.269 OA
BRANCH  75  78
ATOM     78  C   UNL A   1      30.720  27.231  22.940  1.00  0.00     0.041 A 
ATOM     79  C   UNL A   1      30.085  27.123  24.183  1.00  0.00     0.014 A 
ATOM     80  C   UNL A   1      31.316  26.101  22.366  1.00  0.00     0.039 A 
ATOM     81  C   UNL A   1      29.996  25.889  24.822  1.00  0.00     0.003 A 
ATOM     82  C   UNL A   1      31.225  24.853  22.999  1.00  0.00     0.039 A 
ATOM     83  C   UNL A   1      30.561  24.762  24.229  1.00  0.00     0.026 A 
BRANCH  82  84
ATOM     84  N   UNL A   1      32.024  23.763  22.564  1.00  0.00    -0.355 N 
ATOM     85  H   UNL A   1      31.771  23.240  21.769  1.00  0.00     0.167 HD
BRANCH  84  86
ATOM     86  C   UNL A   1      33.200  23.443  23.301  1.00  0.00     0.050 A 
ATOM     87  C   UNL A   1      34.098  24.476  23.584  1.00  0.00     0.047 A 
ATOM     88  C   UNL A   1      33.463  22.141  23.781  1.00  0.00     0.025 A 
ATOM     89  C   UNL A   1      35.148  24.220  24.433  1.00  0.00     0.114 A 
ATOM     90  C   UNL A   1      34.598  21.990  24.611  1.00  0.00     0.072 A 
ATOM     91  C   UNL A   1      32.666  21.007  23.492  1.00  0.00     0.033 A 
ATOM     92  N   UNL A   1      35.404  23.006  24.951  1.00  0.00    -0.256 NA
ATOM     93  C   UNL A   1      34.911  20.732  25.101  1.00  0.00     0.030 A 
ATOM     94  C   UNL A   1      33.023  19.751  23.982  1.00  0.00     0.041 A 
ATOM     95  C   UNL A   1      34.148  19.607  24.783  1.00  0.00     0.023 A 
ATOM     96  Cl  UNL A   1      32.079  18.369  23.589  1.00  0.00    -0.084 Cl
ENDBRANCH  84  86
ENDBRANCH  82  84
ENDBRANCH  75  78
ENDBRANCH  73  74
ENDBRANCH  72  73
ENDBRANCH   1  72
TORSDOF 13
ENDMDL
MODEL 3
REMARK VINA RESULT:     -12.7      2.755      3.789
REMARK SMILES O=C(NCCCCNC(=O)c1cccc(Nc2ccnc3ccc(Cl)cc23)c1)c1ccc(-c2c3nc(c(-c4c(F)c(F)c(F)c(F)c4F)c4ccc([nH]4)c(-c4c(F)c(F)c(F)c(F)c4F)c4nc(c(-c5c(F)c(F)c(F)c(F)c5F)c5ccc2[nH]5)C=C4)C=C3)cc1
REMARK SMILES IDX 5 1 4 2 3 3 1 4 2 5 29 7 30 8 91 9 31 10 90 11 32 12 33 13
REMARK SMILES IDX 34 14 84 15 35 16 89 17 83 18 85 19 36 20 88 21 82 22 81 23
REMARK SMILES IDX 37 25 69 26 49 27 68 28 50 29 53 30 67 31 86 32 51 33 52 34
REMARK SMILES IDX 66 36 87 37 54 38 38 39 39 40 47 41 40 42 41 43 45 44 48 45
REMARK SMILES IDX 42 46 43 47 46 48 44 49 70 50 71 51 79 52 72 53 73 54 77 55
REMARK SMILES IDX 80 56 74 57 75 58 78 59 76 60 55 61 56 62 64 63 57 64 58 65
REMARK SMILES IDX 62 66 65 67 59 68 60 69 63 70 61 71 6 72 7 73 8 74 9 75
REMARK SMILES IDX 10 77 11 78 12 79 28 80 13 81 15 82 14 83 16 84 17 86 18 87
REMARK SMILES IDX 27 88 19 89 21 90 26 91 20 92 22 93 24 94 23 95 25 96
REMARK H PARENT 3 6 85 24 53 35 8 76 16 85
REMARK Flexibility Score: inf
ROOT
ATOM      1  C   UNL A   1      33.677  27.954  25.234  1.00  0.00     0.023 C 
ENDROOT
BRANCH   1   2
ATOM      2  C   UNL A   1      33.789  28.184  26.737  1.00  0.00     0.116 C 
BRANCH   2   3
ATOM      3  N   UNL A   1      33.590  29.572  27.130  1.00  0.00    -0.352 N 
ATOM      4  O   UNL A   1      34.041  31.538  28.141  1.00  0.00    -0.269 OA
ATOM      5  C   UNL A   1      34.430  30.418  27.814  1.00  0.00     0.251 C 
ATOM      6  H   UNL A   1      32.726  29.962  26.866  1.00  0.00     0.163 HD
BRANCH   5   7
ATOM      7  C   UNL A   1      35.788  29.971  28.187  1.00  0.00     0.039 A 
ATOM      8  C   UNL A   1      36.045  29.450  29.455  1.00  0.00     0.014 A 
ATOM      9  C   UNL A   1      36.822  30.081  27.251  1.00  0.00     0.014 A 
ATOM     10  C   UNL A   1      37.354  29.192  29.843  1.00  0.00     0.010 A 
ATOM     11  C   UNL A   1      38.126  29.729  27.613  1.00  0.00     0.010 A 
ATOM     12  C   UNL A   1      38.408  29.314  28.923  1.00  0.00    -0.014 A 
BRANCH  12  13
ATOM     13  C   UNL A   1      39.781  28.935  29.339  1.00  0.00     0.031 A 
ATOM     14  C   UNL A   1      40.593  29.810  30.251  1.00  0.00     0.074 A 
ATOM     15  C   UNL A   1      40.287  27.767  28.898  1.00  0.00     0.049 A 
ATOM     16  N   UNL A   1      41.803  29.620  30.717  1.00  0.00    -0.248 NA
ATOM     17  C   UNL A   1      39.974  31.068  30.695  1.00  0.00     0.031 C 
ATOM     18  C   UNL A   1      39.596  26.842  27.996  1.00  0.00     0.029 A 
ATOM     19  N   UNL A   1      41.485  27.150  29.151  1.00  0.00    -0.354 N 
ATOM     20  C   UNL A   1      42.096  30.735  31.491  1.00  0.00     0.074 A 
ATOM     21  C   UNL A   1      40.949  31.614  31.411  1.00  0.00     0.031 C 
ATOM     22  C   UNL A   1      40.363  25.760  27.804  1.00  0.00     0.029 A 
ATOM     23  C   UNL A   1      41.624  25.943  28.511  1.00  0.00     0.049 A 
ATOM     24  H   UNL A   1      42.178  27.535  29.735  1.00  0.00     0.167 HD
ATOM     25  C   UNL A   1      43.217  30.994  32.207  1.00  0.00     0.037 A 
ATOM     26  C   UNL A   1      42.661  25.088  28.476  1.00  0.00     0.037 A 
ATOM     27  C   UNL A   1      44.351  30.106  32.289  1.00  0.00     0.049 A 
ATOM     28  C   UNL A   1      43.903  25.416  29.255  1.00  0.00     0.074 A 
ATOM     29  C   UNL A   1      45.516  30.259  33.022  1.00  0.00     0.029 A 
ATOM     30  N   UNL A   1      44.467  28.904  31.605  1.00  0.00    -0.354 N 
ATOM     31  N   UNL A   1      44.148  26.452  30.018  1.00  0.00    -0.248 NA
ATOM     32  C   UNL A   1      45.010  24.457  29.165  1.00  0.00     0.031 C 
ATOM     33  C   UNL A   1      46.359  29.179  32.737  1.00  0.00     0.029 A 
ATOM     34  C   UNL A   1      45.696  28.321  31.875  1.00  0.00     0.049 A 
ATOM     35  H   UNL A   1      43.778  28.521  31.015  1.00  0.00     0.167 HD
ATOM     36  C   UNL A   1      45.430  26.262  30.516  1.00  0.00     0.074 A 
ATOM     37  C   UNL A   1      45.900  24.999  29.983  1.00  0.00     0.031 C 
ATOM     38  C   UNL A   1      46.151  27.064  31.336  1.00  0.00     0.037 A 
BRANCH  25  39
ATOM     39  C   UNL A   1      43.291  32.300  32.947  1.00  0.00     0.064 A 
ATOM     40  C   UNL A   1      43.799  33.464  32.347  1.00  0.00     0.173 A 
ATOM     41  C   UNL A   1      42.800  32.402  34.258  1.00  0.00     0.173 A 
ATOM     42  F   UNL A   1      44.288  33.422  31.100  1.00  0.00    -0.203 F 
ATOM     43  C   UNL A   1      43.835  34.672  33.042  1.00  0.00     0.198 A 
ATOM     44  C   UNL A   1      42.810  33.618  34.938  1.00  0.00     0.198 A 
ATOM     45  F   UNL A   1      42.294  31.325  34.877  1.00  0.00    -0.203 F 
ATOM     46  F   UNL A   1      44.367  35.759  32.465  1.00  0.00    -0.200 F 
ATOM     47  C   UNL A   1      43.335  34.749  34.333  1.00  0.00     0.200 A 
ATOM     48  F   UNL A   1      42.312  33.694  36.180  1.00  0.00    -0.200 F 
ATOM     49  F   UNL A   1      43.364  35.914  34.996  1.00  0.00    -0.200 F 
ENDBRANCH  25  39
BRANCH  26  50
ATOM     50  C   UNL A   1      42.564  23.848  27.663  1.00  0.00     0.064 A 
ATOM     51  C   UNL A   1      42.117  22.646  28.224  1.00  0.00     0.173 A 
ATOM     52  C   UNL A   1      42.902  23.847  26.300  1.00  0.00     0.173 A 
ATOM     53  F   UNL A   1      41.800  22.592  29.527  1.00  0.00    -0.203 F 
ATOM     54  C   UNL A   1      42.028  21.485  27.459  1.00  0.00     0.198 A 
ATOM     55  C   UNL A   1      42.778  22.696  25.528  1.00  0.00     0.198 A 
ATOM     56  F   UNL A   1      43.327  24.976  25.712  1.00  0.00    -0.203 F 
ATOM     57  F   UNL A   1      41.639  20.337  28.032  1.00  0.00    -0.200 F 
ATOM     58  C   UNL A   1      42.350  21.513  26.111  1.00  0.00     0.200 A 
ATOM     59  F   UNL A   1      43.072  22.733  24.222  1.00  0.00    -0.200 F 
ATOM     60  F   UNL A   1      42.253  20.398  25.373  1.00  0.00    -0.200 F 
ENDBRANCH  26  50
BRANCH  38  61
ATOM     61  C   UNL A   1      47.517  26.582  31.732  1.00  0.00     0.064 A 
ATOM     62  C   UNL A   1      48.668  26.969  31.030  1.00  0.00     0.173 A 
ATOM     63  C   UNL A   1      47.678  25.740  32.844  1.00  0.00     0.173 A 
ATOM     64  F   UNL A   1      48.567  27.757  29.949  1.00  0.00    -0.203 F 
ATOM     65  C   UNL A   1      49.927  26.507  31.410  1.00  0.00     0.198 A 
ATOM     66  C   UNL A   1      48.941  25.308  33.239  1.00  0.00     0.198 A 
ATOM     67  F   UNL A   1      46.610  25.344  33.553  1.00  0.00    -0.203 F 
ATOM     68  F   UNL A   1      51.006  26.845  30.690  1.00  0.00    -0.200 F 
ATOM     69  C   UNL A   1      50.062  25.684  32.517  1.00  0.00     0.200 A 
ATOM     70  F   UNL A   1      49.071  24.523  34.319  1.00  0.00    -0.200 F 
ATOM     71  F   UNL A   1      51.275  25.246  32.883  1.00  0.00    -0.200 F 
ENDBRANCH  38  61
ENDBRANCH  12  13
ENDBRANCH   5   7
ENDBRANCH   2   3
ENDBRANCH   1   2
BRANCH   1  72
ATOM     72  C   UNL A   1      33.434  29.200  24.386  1.00  0.00     0.023 C 
BRANCH  72  73
ATOM     73  C   UNL A   1      33.277  28.954  22.890  1.00  0.00     0.116 C 
BRANCH  73  74
ATOM     74  N   UNL A   1      31.956  29.276  22.389  1.00  0.00    -0.352 N 
ATOM     75  C   UNL A   1      30.792  28.552  22.376  1.00  0.00     0.251 C 
ATOM     76  H   UNL A   1      31.882  30.171  21.986  1.00  0.00     0.163 HD
ATOM     77  O   UNL A   1      29.809  29.024  21.808  1.00  0.00    -0.269 OA
BRANCH  75  78
ATOM     78  C   UNL A   1      30.695  27.212  22.997  1.00  0.00     0.041 A 
ATOM     79  C   UNL A   1      30.099  27.129  24.262  1.00  0.00     0.014 A 
ATOM     80  C   UNL A   1      31.296  26.077  22.439  1.00  0.00     0.039 A 
ATOM     81  C   UNL A   1      30.052  25.912  24.938  1.00  0.00     0.003 A 
ATOM     82  C   UNL A   1      31.246  24.846  23.109  1.00  0.00     0.039 A 
ATOM     83  C   UNL A   1      30.621  24.779  24.361  1.00  0.00     0.026 A 
BRANCH  82  84
ATOM     84  N   UNL A   1      32.053  23.759  22.681  1.00  0.00    -0.355 N 
ATOM     85  H   UNL A   1      31.805  23.230  21.889  1.00  0.00     0.167 HD
BRANCH  84  86
ATOM     86  C   UNL A   1      33.229  23.449  23.423  1.00  0.00     0.050 A 
ATOM     87  C   UNL A   1      34.117  24.491  23.710  1.00  0.00     0.047 A 
ATOM     88  C   UNL A   1      33.502  22.149  23.903  1.00  0.00     0.025 A 
ATOM     89  C   UNL A   1      35.165  24.244  24.563  1.00  0.00     0.114 A 
ATOM     90  C   UNL A   1      34.635  22.009  24.738  1.00  0.00     0.072 A 
ATOM     91  C   UNL A   1      32.717  21.008  23.611  1.00  0.00     0.033 A 
ATOM     92  N   UNL A   1      35.431  23.032  25.082  1.00  0.00    -0.256 NA
ATOM     93  C   UNL A   1      34.957  20.753  25.229  1.00  0.00     0.030 A 
ATOM     94  C   UNL A   1      33.083  19.756  24.102  1.00  0.00     0.041 A 
ATOM     95  C   UNL A   1      34.207  19.622  24.907  1.00  0.00     0.023 A 
ATOM     96  Cl  UNL A   1      32.153  18.365  23.704  1.00  0.00    -0.084 Cl
ENDBRANCH  84  86
ENDBRANCH  82  84
ENDBRANCH  75  78
ENDBRANCH  73  74
ENDBRANCH  72  73
ENDBRANCH   1  72
TORSDOF 13
ENDMDL
