MODEL 1
REMARK VINA RESULT:     -13.5      0.000      0.000
REMARK SMILES O=C(NCCCCNC(=O)[C@H]1[C@H]2CC[C@H](CC2)[C@H]1C(=O)Nc1ccc(C(=O)N2CCCC2)cc1)c1ccc(-c2c3nc(c(-c4c(F)c(F)c(F)c(F)c4F)c4ccc([nH]4)c(-c4c(F)c(F)c(F)c(F)c4F)c4nc(c(-c5c(F)c(F)c(F)c(F)c5F)c5ccc2[nH]5)C=C4)C=C3)cc1
REMARK SMILES IDX 6 1 5 2 4 3 3 4 1 5 2 6 35 8 36 9 97 10 37 11 96 12 38 13
REMARK SMILES IDX 39 14 40 15 90 16 41 17 95 18 89 19 91 20 42 21 94 22 88 23
REMARK SMILES IDX 87 24 43 26 75 27 55 28 74 29 56 30 59 31 73 32 92 33 57 34
REMARK SMILES IDX 58 35 72 37 93 38 60 39 44 40 45 41 53 42 46 43 47 44 51 45
REMARK SMILES IDX 54 46 48 47 49 48 52 49 50 50 76 51 77 52 85 53 78 54 79 55
REMARK SMILES IDX 83 56 86 57 80 58 81 59 84 60 82 61 61 62 62 63 70 64 63 65
REMARK SMILES IDX 64 66 68 67 71 68 65 69 66 70 69 71 67 72 7 73 8 74 9 75
REMARK SMILES IDX 10 77 11 78 12 79 18 80 17 81 13 82 15 83 16 84 14 85 19 86
REMARK SMILES IDX 20 87 21 88 22 90 23 91 34 92 24 93 33 94 25 95 26 96 27 97
REMARK SMILES IDX 28 98 29 99 32 100 30 101 31 102
REMARK H PARENT 3 7 91 25 59 36 8 76 21 89
REMARK Flexibility Score: inf
ROOT
ATOM      1  C   UNL A   1      31.610  30.661  26.068  1.00  0.00     0.023 C 
ENDROOT
BRANCH   1   2
ATOM      2  C   UNL A   1      31.404  31.952  26.875  1.00  0.00     0.023 C 
BRANCH   2   3
ATOM      3  C   UNL A   1      32.446  33.056  26.681  1.00  0.00     0.116 C 
BRANCH   3   4
ATOM      4  N   UNL A   1      32.380  34.128  27.661  1.00  0.00    -0.352 N 
ATOM      5  O   UNL A   1      33.070  35.419  29.378  1.00  0.00    -0.269 OA
ATOM      6  C   UNL A   1      33.283  34.460  28.652  1.00  0.00     0.251 C 
ATOM      7  H   UNL A   1      31.579  34.699  27.612  1.00  0.00     0.163 HD
BRANCH   6   8
ATOM      8  C   UNL A   1      34.466  33.600  28.877  1.00  0.00     0.039 A 
ATOM      9  C   UNL A   1      34.336  32.292  29.342  1.00  0.00     0.014 A 
ATOM     10  C   UNL A   1      35.734  34.168  28.708  1.00  0.00     0.014 A 
ATOM     11  C   UNL A   1      35.456  31.630  29.838  1.00  0.00     0.010 A 
ATOM     12  C   UNL A   1      36.865  33.475  29.140  1.00  0.00     0.010 A 
ATOM     13  C   UNL A   1      36.723  32.234  29.779  1.00  0.00    -0.014 A 
BRANCH  13  14
ATOM     14  C   UNL A   1      37.874  31.584  30.453  1.00  0.00     0.031 A 
ATOM     15  C   UNL A   1      38.188  31.896  31.893  1.00  0.00     0.074 A 
ATOM     16  C   UNL A   1      38.599  30.670  29.783  1.00  0.00     0.049 A 
ATOM     17  N   UNL A   1      39.140  31.419  32.656  1.00  0.00    -0.248 NA
ATOM     18  C   UNL A   1      37.322  32.878  32.566  1.00  0.00     0.031 C 
ATOM     19  C   UNL A   1      38.386  30.290  28.386  1.00  0.00     0.029 A 
ATOM     20  N   UNL A   1      39.645  29.884  30.190  1.00  0.00    -0.354 N 
ATOM     21  C   UNL A   1      38.998  32.052  33.885  1.00  0.00     0.074 A 
ATOM     22  C   UNL A   1      37.885  32.968  33.763  1.00  0.00     0.031 C 
ATOM     23  C   UNL A   1      39.256  29.323  28.059  1.00  0.00     0.029 A 
ATOM     24  C   UNL A   1      40.111  29.045  29.209  1.00  0.00     0.049 A 
ATOM     25  H   UNL A   1      40.026  29.919  31.097  1.00  0.00     0.167 HD
ATOM     26  C   UNL A   1      39.725  31.877  35.015  1.00  0.00     0.037 A 
ATOM     27  C   UNL A   1      41.123  28.158  29.231  1.00  0.00     0.037 A 
ATOM     28  C   UNL A   1      40.822  30.950  35.136  1.00  0.00     0.049 A 
ATOM     29  C   UNL A   1      41.902  27.973  30.502  1.00  0.00     0.074 A 
ATOM     30  C   UNL A   1      41.623  30.695  36.236  1.00  0.00     0.029 A 
ATOM     31  N   UNL A   1      41.264  30.117  34.118  1.00  0.00    -0.354 N 
ATOM     32  N   UNL A   1      41.759  28.581  31.654  1.00  0.00    -0.248 NA
ATOM     33  C   UNL A   1      42.980  26.976  30.477  1.00  0.00     0.031 C 
ATOM     34  C   UNL A   1      42.568  29.729  35.875  1.00  0.00     0.029 A 
ATOM     35  C   UNL A   1      42.331  29.353  34.563  1.00  0.00     0.049 A 
ATOM     36  H   UNL A   1      40.878  30.076  33.214  1.00  0.00     0.167 HD
ATOM     37  C   UNL A   1      42.727  28.045  32.490  1.00  0.00     0.074 A 
ATOM     38  C   UNL A   1      43.428  27.035  31.722  1.00  0.00     0.031 C 
ATOM     39  C   UNL A   1      43.020  28.366  33.774  1.00  0.00     0.037 A 
BRANCH  26  40
ATOM     40  C   UNL A   1      39.368  32.706  36.214  1.00  0.00     0.064 A 
ATOM     41  C   UNL A   1      38.454  32.252  37.176  1.00  0.00     0.173 A 
ATOM     42  C   UNL A   1      39.991  33.944  36.436  1.00  0.00     0.173 A 
ATOM     43  F   UNL A   1      37.819  31.083  37.003  1.00  0.00    -0.203 F 
ATOM     44  C   UNL A   1      38.166  33.012  38.308  1.00  0.00     0.198 A 
ATOM     45  C   UNL A   1      39.720  34.690  37.580  1.00  0.00     0.198 A 
ATOM     46  F   UNL A   1      40.877  34.423  35.549  1.00  0.00    -0.203 F 
ATOM     47  F   UNL A   1      37.264  32.573  39.197  1.00  0.00    -0.200 F 
ATOM     48  C   UNL A   1      38.805  34.225  38.513  1.00  0.00     0.200 A 
ATOM     49  F   UNL A   1      40.345  35.859  37.782  1.00  0.00    -0.200 F 
ATOM     50  F   UNL A   1      38.536  34.950  39.609  1.00  0.00    -0.200 F 
ENDBRANCH  26  40
BRANCH  27  51
ATOM     51  C   UNL A   1      41.445  27.386  28.006  1.00  0.00     0.064 A 
ATOM     52  C   UNL A   1      42.335  27.885  27.047  1.00  0.00     0.173 A 
ATOM     53  C   UNL A   1      40.889  26.117  27.785  1.00  0.00     0.173 A 
ATOM     54  F   UNL A   1      42.877  29.102  27.206  1.00  0.00    -0.203 F 
ATOM     55  C   UNL A   1      42.650  27.148  25.907  1.00  0.00     0.198 A 
ATOM     56  C   UNL A   1      41.226  25.369  26.661  1.00  0.00     0.198 A 
ATOM     57  F   UNL A   1      40.035  25.594  28.678  1.00  0.00    -0.203 F 
ATOM     58  F   UNL A   1      43.478  27.662  24.988  1.00  0.00    -0.200 F 
ATOM     59  C   UNL A   1      42.102  25.887  25.720  1.00  0.00     0.200 A 
ATOM     60  F   UNL A   1      40.708  24.145  26.491  1.00  0.00    -0.200 F 
ATOM     61  F   UNL A   1      42.417  25.175  24.630  1.00  0.00    -0.200 F 
ENDBRANCH  27  51
BRANCH  39  62
ATOM     62  C   UNL A   1      44.149  27.616  34.414  1.00  0.00     0.064 A 
ATOM     63  C   UNL A   1      43.932  26.393  35.065  1.00  0.00     0.173 A 
ATOM     64  C   UNL A   1      45.456  28.121  34.373  1.00  0.00     0.173 A 
ATOM     65  F   UNL A   1      42.695  25.879  35.141  1.00  0.00    -0.203 F 
ATOM     66  C   UNL A   1      44.981  25.717  35.681  1.00  0.00     0.198 A 
ATOM     67  C   UNL A   1      46.506  27.430  34.970  1.00  0.00     0.198 A 
ATOM     68  F   UNL A   1      45.713  29.285  33.758  1.00  0.00    -0.203 F 
ATOM     69  F   UNL A   1      44.743  24.575  36.342  1.00  0.00    -0.200 F 
ATOM     70  C   UNL A   1      46.267  26.234  35.630  1.00  0.00     0.200 A 
ATOM     71  F   UNL A   1      47.750  27.926  34.915  1.00  0.00    -0.200 F 
ATOM     72  F   UNL A   1      47.274  25.584  36.229  1.00  0.00    -0.200 F 
ENDBRANCH  39  62
ENDBRANCH  13  14
ENDBRANCH   6   8
ENDBRANCH   3   4
ENDBRANCH   2   3
ENDBRANCH   1   2
BRANCH   1  73
ATOM     73  C   UNL A   1      32.178  29.482  26.856  1.00  0.00     0.116 C 
BRANCH  73  74
ATOM     74  N   UNL A   1      31.269  28.361  26.953  1.00  0.00    -0.356 N 
ATOM     75  C   UNL A   1      31.213  27.203  26.247  1.00  0.00     0.224 C 
ATOM     76  H   UNL A   1      30.576  28.453  27.644  1.00  0.00     0.163 HD
ATOM     77  O   UNL A   1      30.779  26.236  26.887  1.00  0.00    -0.275 OA
BRANCH  75  78
ATOM     78  C   UNL A   1      31.447  27.052  24.740  1.00  0.00     0.094 C 
ATOM     79  C   UNL A   1      31.156  28.080  23.610  1.00  0.00     0.002 C 
ATOM     80  C   UNL A   1      32.697  26.205  24.364  1.00  0.00     0.094 C 
ATOM     81  C   UNL A   1      32.402  28.856  23.148  1.00  0.00     0.005 C 
ATOM     82  C   UNL A   1      30.712  27.274  22.359  1.00  0.00     0.005 C 
ATOM     83  C   UNL A   1      33.056  26.450  22.867  1.00  0.00     0.002 C 
ATOM     84  C   UNL A   1      33.483  27.901  22.629  1.00  0.00     0.005 C 
ATOM     85  C   UNL A   1      31.783  26.225  22.009  1.00  0.00     0.005 C 
BRANCH  80  86
ATOM     86  C   UNL A   1      33.944  25.958  25.265  1.00  0.00     0.228 C 
ATOM     87  O   UNL A   1      34.603  26.952  25.617  1.00  0.00    -0.274 OA
ATOM     88  N   UNL A   1      34.269  24.807  25.924  1.00  0.00    -0.326 N 
ATOM     89  H   UNL A   1      34.864  24.955  26.693  1.00  0.00     0.169 HD
BRANCH  88  90
ATOM     90  C   UNL A   1      33.937  23.468  25.736  1.00  0.00     0.041 A 
ATOM     91  C   UNL A   1      32.617  23.057  25.915  1.00  0.00     0.027 A 
ATOM     92  C   UNL A   1      34.883  22.518  25.413  1.00  0.00     0.027 A 
ATOM     93  C   UNL A   1      32.216  21.793  25.453  1.00  0.00     0.016 A 
ATOM     94  C   UNL A   1      34.486  21.243  24.994  1.00  0.00     0.016 A 
ATOM     95  C   UNL A   1      33.142  20.910  24.876  1.00  0.00     0.040 A 
BRANCH  95  96
ATOM     96  C   UNL A   1      32.608  19.814  23.991  1.00  0.00     0.253 C 
ATOM     97  O   UNL A   1      32.156  20.136  22.891  1.00  0.00    -0.269 OA
ATOM     98  N   UNL A   1      32.903  18.487  24.283  1.00  0.00    -0.339 N 
ATOM     99  C   UNL A   1      32.523  17.701  25.440  1.00  0.00     0.120 C 
ATOM    100  C   UNL A   1      33.287  17.580  23.209  1.00  0.00     0.120 C 
ATOM    101  C   UNL A   1      33.481  16.527  25.372  1.00  0.00     0.023 C 
ATOM    102  C   UNL A   1      33.502  16.220  23.879  1.00  0.00     0.023 C 
ENDBRANCH  95  96
ENDBRANCH  88  90
ENDBRANCH  80  86
ENDBRANCH  75  78
ENDBRANCH  73  74
ENDBRANCH   1  73
TORSDOF 14
ENDMDL
MODEL 2
REMARK VINA RESULT:     -13.5      1.794      4.605
REMARK SMILES O=C(NCCCCNC(=O)[C@H]1[C@H]2CC[C@H](CC2)[C@H]1C(=O)Nc1ccc(C(=O)N2CCCC2)cc1)c1ccc(-c2c3nc(c(-c4c(F)c(F)c(F)c(F)c4F)c4ccc([nH]4)c(-c4c(F)c(F)c(F)c(F)c4F)c4nc(c(-c5c(F)c(F)c(F)c(F)c5F)c5ccc2[nH]5)C=C4)C=C3)cc1
REMARK SMILES IDX 6 1 5 2 4 3 3 4 1 5 2 6 35 8 36 9 97 10 37 11 96 12 38 13
REMARK SMILES IDX 39 14 40 15 90 16 41 17 95 18 89 19 91 20 42 21 94 22 88 23
REMARK SMILES IDX 87 24 43 26 75 27 55 28 74 29 56 30 59 31 73 32 92 33 57 34
REMARK SMILES IDX 58 35 72 37 93 38 60 39 44 40 45 41 53 42 46 43 47 44 51 45
REMARK SMILES IDX 54 46 48 47 49 48 52 49 50 50 76 51 77 52 85 53 78 54 79 55
REMARK SMILES IDX 83 56 86 57 80 58 81 59 84 60 82 61 61 62 62 63 70 64 63 65
REMARK SMILES IDX 64 66 68 67 71 68 65 69 66 70 69 71 67 72 7 73 8 74 9 75
REMARK SMILES IDX 10 77 11 78 12 79 18 80 17 81 13 82 15 83 16 84 14 85 19 86
REMARK SMILES IDX 20 87 21 88 22 90 23 91 34 92 24 93 33 94 25 95 26 96 27 97
REMARK SMILES IDX 28 98 29 99 32 100 30 101 31 102
REMARK H PARENT 3 7 91 25 59 36 8 76 21 89
REMARK Flexibility Score: inf
ROOT
ATOM      1  C   UNL A   1      31.746  28.588  27.285  1.00  0.00     0.023 C 
ENDROOT
BRANCH   1   2
ATOM      2  C   UNL A   1      31.407  29.902  26.564  1.00  0.00     0.023 C 
BRANCH   2   3
ATOM      3  C   UNL A   1      32.576  30.844  26.269  1.00  0.00     0.116 C 
BRANCH   3   4
ATOM      4  N   UNL A   1      32.482  32.144  26.914  1.00  0.00    -0.352 N 
ATOM      5  O   UNL A   1      33.182  33.927  28.108  1.00  0.00    -0.269 OA
ATOM      6  C   UNL A   1      33.431  32.820  27.655  1.00  0.00     0.251 C 
ATOM      7  H   UNL A   1      31.621  32.609  26.807  1.00  0.00     0.163 HD
BRANCH   6   8
ATOM      8  C   UNL A   1      34.720  32.161  27.963  1.00  0.00     0.039 A 
ATOM      9  C   UNL A   1      34.787  30.802  28.270  1.00  0.00     0.014 A 
ATOM     10  C   UNL A   1      35.866  32.960  28.037  1.00  0.00     0.014 A 
ATOM     11  C   UNL A   1      35.942  30.291  28.854  1.00  0.00     0.010 A 
ATOM     12  C   UNL A   1      37.047  32.428  28.557  1.00  0.00     0.010 A 
ATOM     13  C   UNL A   1      37.068  31.112  29.042  1.00  0.00    -0.014 A 
BRANCH  13  14
ATOM     14  C   UNL A   1      38.229  30.596  29.806  1.00  0.00     0.031 A 
ATOM     15  C   UNL A   1      38.425  30.986  31.249  1.00  0.00     0.074 A 
ATOM     16  C   UNL A   1      39.073  29.729  29.217  1.00  0.00     0.049 A 
ATOM     17  N   UNL A   1      39.367  30.626  32.084  1.00  0.00    -0.248 NA
ATOM     18  C   UNL A   1      37.433  31.907  31.830  1.00  0.00     0.031 C 
ATOM     19  C   UNL A   1      38.982  29.283  27.827  1.00  0.00     0.029 A 
ATOM     20  N   UNL A   1      40.160  29.059  29.716  1.00  0.00    -0.354 N 
ATOM     21  C   UNL A   1      39.093  31.286  33.276  1.00  0.00     0.074 A 
ATOM     22  C   UNL A   1      37.911  32.090  33.052  1.00  0.00     0.031 C 
ATOM     23  C   UNL A   1      39.954  28.390  27.591  1.00  0.00     0.029 A 
ATOM     24  C   UNL A   1      40.759  28.233  28.798  1.00  0.00     0.049 A 
ATOM     25  H   UNL A   1      40.480  29.161  30.641  1.00  0.00     0.167 HD
ATOM     26  C   UNL A   1      39.763  31.220  34.452  1.00  0.00     0.037 A 
ATOM     27  C   UNL A   1      41.844  27.445  28.915  1.00  0.00     0.037 A 
ATOM     28  C   UNL A   1      40.929  30.403  34.675  1.00  0.00     0.049 A 
ATOM     29  C   UNL A   1      42.557  27.378  30.235  1.00  0.00     0.074 A 
ATOM     30  C   UNL A   1      41.681  30.263  35.828  1.00  0.00     0.029 A 
ATOM     31  N   UNL A   1      41.507  29.580  33.719  1.00  0.00    -0.354 N 
ATOM     32  N   UNL A   1      42.289  28.010  31.352  1.00  0.00    -0.248 NA
ATOM     33  C   UNL A   1      43.720  26.485  30.313  1.00  0.00     0.031 C 
ATOM     34  C   UNL A   1      42.731  29.376  35.562  1.00  0.00     0.029 A 
ATOM     35  C   UNL A   1      42.610  28.934  34.255  1.00  0.00     0.049 A 
ATOM     36  H   UNL A   1      41.182  29.471  32.796  1.00  0.00     0.167 HD
ATOM     37  C   UNL A   1      43.249  27.597  32.264  1.00  0.00     0.074 A 
ATOM     38  C   UNL A   1      44.084  26.629  31.579  1.00  0.00     0.031 C 
ATOM     39  C   UNL A   1      43.432  27.988  33.548  1.00  0.00     0.037 A 
BRANCH  26  40
ATOM     40  C   UNL A   1      39.259  32.054  35.594  1.00  0.00     0.064 A 
ATOM     41  C   UNL A   1      38.414  31.520  36.577  1.00  0.00     0.173 A 
ATOM     42  C   UNL A   1      39.674  33.387  35.740  1.00  0.00     0.173 A 
ATOM     43  F   UNL A   1      37.976  30.256  36.476  1.00  0.00    -0.203 F 
ATOM     44  C   UNL A   1      37.991  32.293  37.657  1.00  0.00     0.198 A 
ATOM     45  C   UNL A   1      39.269  34.150  36.833  1.00  0.00     0.198 A 
ATOM     46  F   UNL A   1      40.485  33.946  34.829  1.00  0.00    -0.203 F 
ATOM     47  F   UNL A   1      37.156  31.771  38.567  1.00  0.00    -0.200 F 
ATOM     48  C   UNL A   1      38.425  33.604  37.788  1.00  0.00     0.200 A 
ATOM     49  F   UNL A   1      39.696  35.414  36.963  1.00  0.00    -0.200 F 
ATOM     50  F   UNL A   1      38.026  34.342  38.834  1.00  0.00    -0.200 F 
ENDBRANCH  26  40
BRANCH  27  51
ATOM     51  C   UNL A   1      42.309  26.663  27.743  1.00  0.00     0.064 A 
ATOM     52  C   UNL A   1      43.253  27.187  26.850  1.00  0.00     0.173 A 
ATOM     53  C   UNL A   1      41.839  25.362  27.511  1.00  0.00     0.173 A 
ATOM     54  F   UNL A   1      43.716  28.434  27.021  1.00  0.00    -0.203 F 
ATOM     55  C   UNL A   1      43.702  26.442  25.762  1.00  0.00     0.198 A 
ATOM     56  C   UNL A   1      42.309  24.608  26.439  1.00  0.00     0.198 A 
ATOM     57  F   UNL A   1      40.938  24.816  28.341  1.00  0.00    -0.203 F 
ATOM     58  F   UNL A   1      44.579  26.978  24.903  1.00  0.00    -0.200 F 
ATOM     59  C   UNL A   1      43.236  25.150  25.563  1.00  0.00     0.200 A 
ATOM     60  F   UNL A   1      41.870  23.355  26.259  1.00  0.00    -0.200 F 
ATOM     61  F   UNL A   1      43.679  24.431  24.523  1.00  0.00    -0.200 F 
ENDBRANCH  27  51
BRANCH  39  62
ATOM     62  C   UNL A   1      44.583  27.370  34.283  1.00  0.00     0.064 A 
ATOM     63  C   UNL A   1      45.848  27.976  34.295  1.00  0.00     0.173 A 
ATOM     64  C   UNL A   1      44.419  26.166  34.983  1.00  0.00     0.173 A 
ATOM     65  F   UNL A   1      46.054  29.121  33.626  1.00  0.00    -0.203 F 
ATOM     66  C   UNL A   1      46.917  27.381  34.957  1.00  0.00     0.198 A 
ATOM     67  C   UNL A   1      45.486  25.587  35.664  1.00  0.00     0.198 A 
ATOM     68  F   UNL A   1      43.227  25.552  35.004  1.00  0.00    -0.203 F 
ATOM     69  F   UNL A   1      48.130  27.951  34.913  1.00  0.00    -0.200 F 
ATOM     70  C   UNL A   1      46.735  26.190  35.644  1.00  0.00     0.200 A 
ATOM     71  F   UNL A   1      45.307  24.440  36.333  1.00  0.00    -0.200 F 
ATOM     72  F   UNL A   1      47.767  25.616  36.275  1.00  0.00    -0.200 F 
ENDBRANCH  39  62
ENDBRANCH  13  14
ENDBRANCH   6   8
ENDBRANCH   3   4
ENDBRANCH   2   3
ENDBRANCH   1   2
BRANCH   1  73
ATOM     73  C   UNL A   1      31.768  27.343  26.398  1.00  0.00     0.116 C 
BRANCH  73  74
ATOM     74  N   UNL A   1      33.051  27.097  25.780  1.00  0.00    -0.356 N 
ATOM     75  C   UNL A   1      33.521  26.011  25.114  1.00  0.00     0.224 C 
ATOM     76  H   UNL A   1      33.692  27.840  25.854  1.00  0.00     0.163 HD
ATOM     77  O   UNL A   1      34.342  26.272  24.226  1.00  0.00    -0.275 OA
BRANCH  75  78
ATOM     78  C   UNL A   1      33.274  24.547  25.491  1.00  0.00     0.094 C 
ATOM     79  C   UNL A   1      32.336  23.978  26.594  1.00  0.00     0.002 C 
ATOM     80  C   UNL A   1      33.330  23.555  24.293  1.00  0.00     0.094 C 
ATOM     81  C   UNL A   1      30.986  23.472  26.054  1.00  0.00     0.005 C 
ATOM     82  C   UNL A   1      33.023  22.712  27.174  1.00  0.00     0.005 C 
ATOM     83  C   UNL A   1      32.684  22.200  24.713  1.00  0.00     0.002 C 
ATOM     84  C   UNL A   1      31.192  22.365  25.014  1.00  0.00     0.005 C 
ATOM     85  C   UNL A   1      33.343  21.726  26.035  1.00  0.00     0.005 C 
BRANCH  80  86
ATOM     86  C   UNL A   1      33.095  23.911  22.794  1.00  0.00     0.228 C 
ATOM     87  O   UNL A   1      33.768  23.299  21.947  1.00  0.00    -0.274 OA
ATOM     88  N   UNL A   1      32.064  24.640  22.274  1.00  0.00    -0.326 N 
ATOM     89  H   UNL A   1      31.900  24.453  21.321  1.00  0.00     0.169 HD
BRANCH  88  90
ATOM     90  C   UNL A   1      31.198  25.591  22.805  1.00  0.00     0.041 A 
ATOM     91  C   UNL A   1      31.421  26.943  22.549  1.00  0.00     0.027 A 
ATOM     92  C   UNL A   1      30.136  25.243  23.613  1.00  0.00     0.027 A 
ATOM     93  C   UNL A   1      30.411  27.878  22.825  1.00  0.00     0.016 A 
ATOM     94  C   UNL A   1      29.150  26.186  23.927  1.00  0.00     0.016 A 
ATOM     95  C   UNL A   1      29.204  27.479  23.421  1.00  0.00     0.040 A 
BRANCH  95  96
ATOM     96  C   UNL A   1      28.011  28.384  23.261  1.00  0.00     0.253 C 
ATOM     97  O   UNL A   1      26.937  28.002  23.727  1.00  0.00    -0.269 OA
ATOM     98  N   UNL A   1      28.197  29.709  22.884  1.00  0.00    -0.339 N 
ATOM     99  C   UNL A   1      28.730  30.239  21.645  1.00  0.00     0.120 C 
ATOM    100  C   UNL A   1      27.449  30.763  23.557  1.00  0.00     0.120 C 
ATOM    101  C   UNL A   1      29.068  31.671  22.016  1.00  0.00     0.023 C 
ATOM    102  C   UNL A   1      27.873  32.067  22.875  1.00  0.00     0.023 C 
ENDBRANCH  95  96
ENDBRANCH  88  90
ENDBRANCH  80  86
ENDBRANCH  75  78
ENDBRANCH  73  74
ENDBRANCH   1  73
TORSDOF 14
ENDMDL
MODEL 3
REMARK VINA RESULT:     -13.5      4.204      9.501
REMARK SMILES O=C(NCCCCNC(=O)[C@H]1[C@H]2CC[C@H](CC2)[C@H]1C(=O)Nc1ccc(C(=O)N2CCCC2)cc1)c1ccc(-c2c3nc(c(-c4c(F)c(F)c(F)c(F)c4F)c4ccc([nH]4)c(-c4c(F)c(F)c(F)c(F)c4F)c4nc(c(-c5c(F)c(F)c(F)c(F)c5F)c5ccc2[nH]5)C=C4)C=C3)cc1
REMARK SMILES IDX 6 1 5 2 4 3 3 4 1 5 2 6 35 8 36 9 97 10 37 11 96 12 38 13
REMARK SMILES IDX 39 14 40 15 90 16 41 17 95 18 89 19 91 20 42 21 94 22 88 23
REMARK SMILES IDX 87 24 43 26 75 27 55 28 74 29 56 30 59 31 73 32 92 33 57 34
REMARK SMILES IDX 58 35 72 37 93 38 60 39 44 40 45 41 53 42 46 43 47 44 51 45
REMARK SMILES IDX 54 46 48 47 49 48 52 49 50 50 76 51 77 52 85 53 78 54 79 55
REMARK SMILES IDX 83 56 86 57 80 58 81 59 84 60 82 61 61 62 62 63 70 64 63 65
REMARK SMILES IDX 64 66 68 67 71 68 65 69 66 70 69 71 67 72 7 73 8 74 9 75
REMARK SMILES IDX 10 77 11 78 12 79 18 80 17 81 13 82 15 83 16 84 14 85 19 86
REMARK SMILES IDX 20 87 21 88 22 90 23 91 34 92 24 93 33 94 25 95 26 96 27 97
REMARK SMILES IDX 28 98 29 99 32 100 30 101 31 102
REMARK H PARENT 3 7 91 25 59 36 8 76 21 89
REMARK Flexibility Score: inf
ROOT
ATOM      1  C   UNL A   1      35.206  22.920  23.590  1.00  0.00     0.023 C 
ENDROOT
BRANCH   1   2
ATOM      2  C   UNL A   1      36.653  22.492  23.875  1.00  0.00     0.023 C 
BRANCH   2   3
ATOM      3  C   UNL A   1      36.956  21.995  25.290  1.00  0.00     0.116 C 
BRANCH   3   4
ATOM      4  N   UNL A   1      38.058  21.049  25.376  1.00  0.00    -0.352 N 
ATOM      5  O   UNL A   1      40.068  20.254  26.022  1.00  0.00    -0.269 OA
ATOM      6  C   UNL A   1      39.261  21.171  26.042  1.00  0.00     0.251 C 
ATOM      7  H   UNL A   1      37.927  20.201  24.892  1.00  0.00     0.163 HD
BRANCH   6   8
ATOM      8  C   UNL A   1      39.598  22.447  26.711  1.00  0.00     0.039 A 
ATOM      9  C   UNL A   1      38.954  23.637  26.373  1.00  0.00     0.014 A 
ATOM     10  C   UNL A   1      40.656  22.451  27.626  1.00  0.00     0.014 A 
ATOM     11  C   UNL A   1      39.502  24.849  26.782  1.00  0.00     0.010 A 
ATOM     12  C   UNL A   1      41.161  23.665  28.093  1.00  0.00     0.010 A 
ATOM     13  C   UNL A   1      40.637  24.873  27.611  1.00  0.00    -0.014 A 
BRANCH  13  14
ATOM     14  C   UNL A   1      41.299  26.168  27.906  1.00  0.00     0.031 A 
ATOM     15  C   UNL A   1      42.687  26.447  27.391  1.00  0.00     0.074 A 
ATOM     16  C   UNL A   1      40.625  27.112  28.588  1.00  0.00     0.049 A 
ATOM     17  N   UNL A   1      43.422  27.522  27.531  1.00  0.00    -0.248 NA
ATOM     18  C   UNL A   1      43.339  25.376  26.619  1.00  0.00     0.031 C 
ATOM     19  C   UNL A   1      39.278  26.951  29.135  1.00  0.00     0.029 A 
ATOM     20  N   UNL A   1      40.973  28.395  28.921  1.00  0.00    -0.354 N 
ATOM     21  C   UNL A   1      44.622  27.251  26.885  1.00  0.00     0.074 A 
ATOM     22  C   UNL A   1      44.531  25.901  26.372  1.00  0.00     0.031 C 
ATOM     23  C   UNL A   1      38.900  28.101  29.712  1.00  0.00     0.029 A 
ATOM     24  C   UNL A   1      39.992  29.064  29.610  1.00  0.00     0.049 A 
ATOM     25  H   UNL A   1      41.841  28.797  28.690  1.00  0.00     0.167 HD
ATOM     26  C   UNL A   1      45.698  28.059  26.727  1.00  0.00     0.037 A 
ATOM     27  C   UNL A   1      39.981  30.312  30.113  1.00  0.00     0.037 A 
ATOM     28  C   UNL A   1      45.777  29.409  27.225  1.00  0.00     0.049 A 
ATOM     29  C   UNL A   1      41.181  31.192  29.909  1.00  0.00     0.074 A 
ATOM     30  C   UNL A   1      46.820  30.312  27.118  1.00  0.00     0.029 A 
ATOM     31  N   UNL A   1      44.762  30.051  27.919  1.00  0.00    -0.354 N 
ATOM     32  N   UNL A   1      42.309  30.921  29.299  1.00  0.00    -0.248 NA
ATOM     33  C   UNL A   1      41.105  32.551  30.458  1.00  0.00     0.031 C 
ATOM     34  C   UNL A   1      46.448  31.492  27.772  1.00  0.00     0.029 A 
ATOM     35  C   UNL A   1      45.157  31.337  28.252  1.00  0.00     0.049 A 
ATOM     36  H   UNL A   1      43.890  29.653  28.143  1.00  0.00     0.167 HD
ATOM     37  C   UNL A   1      43.078  32.071  29.393  1.00  0.00     0.074 A 
ATOM     38  C   UNL A   1      42.272  33.056  30.087  1.00  0.00     0.031 C 
ATOM     39  C   UNL A   1      44.342  32.292  28.956  1.00  0.00     0.037 A 
BRANCH  26  40
ATOM     40  C   UNL A   1      46.885  27.510  25.990  1.00  0.00     0.064 A 
ATOM     41  C   UNL A   1      47.012  27.640  24.599  1.00  0.00     0.173 A 
ATOM     42  C   UNL A   1      47.937  26.898  26.689  1.00  0.00     0.173 A 
ATOM     43  F   UNL A   1      46.028  28.203  23.882  1.00  0.00    -0.203 F 
ATOM     44  C   UNL A   1      48.141  27.166  23.934  1.00  0.00     0.198 A 
ATOM     45  C   UNL A   1      49.075  26.447  26.024  1.00  0.00     0.198 A 
ATOM     46  F   UNL A   1      47.869  26.751  28.021  1.00  0.00    -0.203 F 
ATOM     47  F   UNL A   1      48.225  27.273  22.600  1.00  0.00    -0.200 F 
ATOM     48  C   UNL A   1      49.174  26.578  24.647  1.00  0.00     0.200 A 
ATOM     49  F   UNL A   1      50.078  25.886  26.716  1.00  0.00    -0.200 F 
ATOM     50  F   UNL A   1      50.265  26.134  24.007  1.00  0.00    -0.200 F 
ENDBRANCH  26  40
BRANCH  27  51
ATOM     51  C   UNL A   1      38.788  30.790  30.855  1.00  0.00     0.064 A 
ATOM     52  C   UNL A   1      38.697  30.657  32.246  1.00  0.00     0.173 A 
ATOM     53  C   UNL A   1      37.725  31.417  30.186  1.00  0.00     0.173 A 
ATOM     54  F   UNL A   1      39.680  30.047  32.925  1.00  0.00    -0.203 F 
ATOM     55  C   UNL A   1      37.584  31.125  32.941  1.00  0.00     0.198 A 
ATOM     56  C   UNL A   1      36.627  31.910  30.884  1.00  0.00     0.198 A 
ATOM     57  F   UNL A   1      37.769  31.572  28.854  1.00  0.00    -0.203 F 
ATOM     58  F   UNL A   1      37.506  30.956  34.268  1.00  0.00    -0.200 F 
ATOM     59  C   UNL A   1      36.554  31.759  32.260  1.00  0.00     0.200 A 
ATOM     60  F   UNL A   1      35.642  32.535  30.226  1.00  0.00    -0.200 F 
ATOM     61  F   UNL A   1      35.491  32.220  32.932  1.00  0.00    -0.200 F 
ENDBRANCH  27  51
BRANCH  39  62
ATOM     62  C   UNL A   1      44.921  33.648  29.225  1.00  0.00     0.064 A 
ATOM     63  C   UNL A   1      45.658  33.905  30.390  1.00  0.00     0.173 A 
ATOM     64  C   UNL A   1      44.741  34.695  28.311  1.00  0.00     0.173 A 
ATOM     65  F   UNL A   1      45.842  32.936  31.300  1.00  0.00    -0.203 F 
ATOM     66  C   UNL A   1      46.169  35.174  30.645  1.00  0.00     0.198 A 
ATOM     67  C   UNL A   1      45.273  35.957  28.558  1.00  0.00     0.198 A 
ATOM     68  F   UNL A   1      44.047  34.496  27.181  1.00  0.00    -0.203 F 
ATOM     69  F   UNL A   1      46.827  35.412  31.789  1.00  0.00    -0.200 F 
ATOM     70  C   UNL A   1      45.979  36.198  29.728  1.00  0.00     0.200 A 
ATOM     71  F   UNL A   1      45.097  36.944  27.669  1.00  0.00    -0.200 F 
ATOM     72  F   UNL A   1      46.467  37.420  29.979  1.00  0.00    -0.200 F 
ENDBRANCH  39  62
ENDBRANCH  13  14
ENDBRANCH   6   8
ENDBRANCH   3   4
ENDBRANCH   2   3
ENDBRANCH   1   2
BRANCH   1  73
ATOM     73  C   UNL A   1      34.767  24.223  24.257  1.00  0.00     0.116 C 
BRANCH  73  74
ATOM     74  N   UNL A   1      34.029  25.102  23.378  1.00  0.00    -0.356 N 
ATOM     75  C   UNL A   1      33.743  26.425  23.483  1.00  0.00     0.224 C 
ATOM     76  H   UNL A   1      33.674  24.669  22.569  1.00  0.00     0.163 HD
ATOM     77  O   UNL A   1      33.652  27.015  22.399  1.00  0.00    -0.275 OA
BRANCH  75  78
ATOM     78  C   UNL A   1      33.349  27.163  24.766  1.00  0.00     0.094 C 
ATOM     79  C   UNL A   1      33.864  28.536  25.288  1.00  0.00     0.002 C 
ATOM     80  C   UNL A   1      31.866  26.967  25.195  1.00  0.00     0.094 C 
ATOM     81  C   UNL A   1      32.903  29.703  25.001  1.00  0.00     0.005 C 
ATOM     82  C   UNL A   1      33.919  28.447  26.837  1.00  0.00     0.005 C 
ATOM     83  C   UNL A   1      31.485  28.051  26.248  1.00  0.00     0.002 C 
ATOM     84  C   UNL A   1      31.533  29.456  25.642  1.00  0.00     0.005 C 
ATOM     85  C   UNL A   1      32.541  28.031  27.384  1.00  0.00     0.005 C 
BRANCH  80  86
ATOM     86  C   UNL A   1      30.684  26.574  24.258  1.00  0.00     0.228 C 
ATOM     87  O   UNL A   1      30.043  27.498  23.726  1.00  0.00    -0.274 OA
ATOM     88  N   UNL A   1      30.414  25.336  23.749  1.00  0.00    -0.326 N 
ATOM     89  H   UNL A   1      29.871  25.365  22.929  1.00  0.00     0.169 HD
BRANCH  88  90
ATOM     90  C   UNL A   1      30.743  24.044  24.146  1.00  0.00     0.041 A 
ATOM     91  C   UNL A   1      31.174  23.122  23.193  1.00  0.00     0.027 A 
ATOM     92  C   UNL A   1      30.622  23.627  25.455  1.00  0.00     0.027 A 
ATOM     93  C   UNL A   1      31.778  21.925  23.610  1.00  0.00     0.016 A 
ATOM     94  C   UNL A   1      31.187  22.413  25.863  1.00  0.00     0.016 A 
ATOM     95  C   UNL A   1      31.893  21.613  24.973  1.00  0.00     0.040 A 
BRANCH  95  96
ATOM     96  C   UNL A   1      32.934  20.602  25.375  1.00  0.00     0.253 C 
ATOM     97  O   UNL A   1      33.647  20.869  26.344  1.00  0.00    -0.269 OA
ATOM     98  N   UNL A   1      32.872  19.309  24.868  1.00  0.00    -0.339 N 
ATOM     99  C   UNL A   1      33.005  18.860  23.496  1.00  0.00     0.120 C 
ATOM    100  C   UNL A   1      33.098  18.173  25.753  1.00  0.00     0.120 C 
ATOM    101  C   UNL A   1      32.425  17.459  23.549  1.00  0.00     0.023 C 
ATOM    102  C   UNL A   1      32.987  16.932  24.864  1.00  0.00     0.023 C 
ENDBRANCH  95  96
ENDBRANCH  88  90
ENDBRANCH  80  86
ENDBRANCH  75  78
ENDBRANCH  73  74
ENDBRANCH   1  73
TORSDOF 14
ENDMDL
