MODEL 1
REMARK VINA RESULT:     -12.6      0.000      0.000
REMARK SMILES O=C(NCCCCNC(=O)[C@@H]1CN(c2ncnc3c2CCC3)CCO1)c1ccc(-c2c3nc(c(-c4c(F)c(F)c(F)c(F)c4F)c4ccc([nH]4)c(-c4c(F)c(F)c(F)c(F)c4F)c4nc(c(-c5c(F)c(F)c(F)c(F)c5F)c5ccc2[nH]5)C=C4)C=C3)cc1
REMARK SMILES IDX 5 1 4 2 3 3 1 4 2 5 26 7 27 8 88 9 28 10 87 11 29 12 30 13
REMARK SMILES IDX 31 14 81 15 32 16 86 17 80 18 82 19 33 20 85 21 79 22 78 23
REMARK SMILES IDX 34 25 66 26 46 27 65 28 47 29 50 30 64 31 83 32 48 33 49 34
REMARK SMILES IDX 63 36 84 37 51 38 35 39 36 40 44 41 37 42 38 43 42 44 45 45
REMARK SMILES IDX 39 46 40 47 43 48 41 49 67 50 68 51 76 52 69 53 70 54 74 55
REMARK SMILES IDX 77 56 71 57 72 58 75 59 73 60 52 61 53 62 61 63 54 64 55 65
REMARK SMILES IDX 59 66 62 67 56 68 57 69 60 70 58 71 6 72 7 73 8 74 9 75
REMARK SMILES IDX 10 77 11 78 12 79 25 80 13 81 24 82 23 83 14 84 15 85 19 86
REMARK SMILES IDX 16 87 18 88 20 89 17 90 22 91 21 92
REMARK H PARENT 3 6 82 24 50 35 8 76
REMARK Flexibility Score: inf
ROOT
ATOM      1  C   UNL A   1      31.534  31.669  26.679  1.00  0.00     0.023 C 
ENDROOT
BRANCH   1   2
ATOM      2  C   UNL A   1      32.772  32.478  27.021  1.00  0.00     0.116 C 
BRANCH   2   3
ATOM      3  N   UNL A   1      32.466  33.831  27.462  1.00  0.00    -0.352 N 
ATOM      4  O   UNL A   1      32.618  35.648  28.800  1.00  0.00    -0.269 OA
ATOM      5  C   UNL A   1      33.066  34.556  28.461  1.00  0.00     0.251 C 
ATOM      6  H   UNL A   1      31.735  34.283  26.982  1.00  0.00     0.163 HD
BRANCH   5   7
ATOM      7  C   UNL A   1      34.241  33.989  29.148  1.00  0.00     0.039 A 
ATOM      8  C   UNL A   1      35.531  34.352  28.751  1.00  0.00     0.014 A 
ATOM      9  C   UNL A   1      34.048  33.060  30.172  1.00  0.00     0.014 A 
ATOM     10  C   UNL A   1      36.625  33.685  29.283  1.00  0.00     0.010 A 
ATOM     11  C   UNL A   1      35.155  32.446  30.763  1.00  0.00     0.010 A 
ATOM     12  C   UNL A   1      36.448  32.734  30.302  1.00  0.00    -0.014 A 
BRANCH  12  13
ATOM     13  C   UNL A   1      37.642  32.097  30.905  1.00  0.00     0.031 A 
ATOM     14  C   UNL A   1      38.099  32.459  32.288  1.00  0.00     0.074 A 
ATOM     15  C   UNL A   1      38.282  31.146  30.200  1.00  0.00     0.049 A 
ATOM     16  N   UNL A   1      39.103  31.974  32.974  1.00  0.00    -0.248 NA
ATOM     17  C   UNL A   1      37.336  33.499  32.995  1.00  0.00     0.031 C 
ATOM     18  C   UNL A   1      37.915  30.713  28.850  1.00  0.00     0.029 A 
ATOM     19  N   UNL A   1      39.352  30.353  30.524  1.00  0.00    -0.354 N 
ATOM     20  C   UNL A   1      39.097  32.651  34.187  1.00  0.00     0.074 A 
ATOM     21  C   UNL A   1      38.008  33.602  34.134  1.00  0.00     0.031 C 
ATOM     22  C   UNL A   1      38.710  29.699  28.482  1.00  0.00     0.029 A 
ATOM     23  C   UNL A   1      39.680  29.450  29.543  1.00  0.00     0.049 A 
ATOM     24  H   UNL A   1      39.837  30.423  31.377  1.00  0.00     0.167 HD
ATOM     25  C   UNL A   1      39.922  32.479  35.246  1.00  0.00     0.037 A 
ATOM     26  C   UNL A   1      40.660  28.530  29.497  1.00  0.00     0.037 A 
ATOM     27  C   UNL A   1      40.996  31.521  35.292  1.00  0.00     0.049 A 
ATOM     28  C   UNL A   1      41.587  28.398  30.670  1.00  0.00     0.074 A 
ATOM     29  C   UNL A   1      41.877  31.261  36.328  1.00  0.00     0.029 A 
ATOM     30  N   UNL A   1      41.337  30.664  34.255  1.00  0.00    -0.354 N 
ATOM     31  N   UNL A   1      41.564  29.036  31.815  1.00  0.00    -0.248 NA
ATOM     32  C   UNL A   1      42.681  27.427  30.541  1.00  0.00     0.031 C 
ATOM     33  C   UNL A   1      42.776  30.277  35.903  1.00  0.00     0.029 A 
ATOM     34  C   UNL A   1      42.429  29.892  34.619  1.00  0.00     0.049 A 
ATOM     35  H   UNL A   1      40.872  30.614  33.389  1.00  0.00     0.167 HD
ATOM     36  C   UNL A   1      42.632  28.541  32.547  1.00  0.00     0.074 A 
ATOM     37  C   UNL A   1      43.271  27.531  31.725  1.00  0.00     0.031 C 
ATOM     38  C   UNL A   1      43.052  28.896  33.785  1.00  0.00     0.037 A 
BRANCH  25  39
ATOM     39  C   UNL A   1      39.705  33.344  36.454  1.00  0.00     0.064 A 
ATOM     40  C   UNL A   1      40.342  34.586  36.589  1.00  0.00     0.173 A 
ATOM     41  C   UNL A   1      38.788  32.964  37.446  1.00  0.00     0.173 A 
ATOM     42  F   UNL A   1      41.234  34.990  35.672  1.00  0.00    -0.203 F 
ATOM     43  C   UNL A   1      40.073  35.413  37.677  1.00  0.00     0.198 A 
ATOM     44  C   UNL A   1      38.506  33.804  38.520  1.00  0.00     0.198 A 
ATOM     45  F   UNL A   1      38.149  31.788  37.361  1.00  0.00    -0.203 F 
ATOM     46  F   UNL A   1      40.711  36.586  37.798  1.00  0.00    -0.200 F 
ATOM     47  C   UNL A   1      39.149  35.026  38.636  1.00  0.00     0.200 A 
ATOM     48  F   UNL A   1      37.603  33.433  39.440  1.00  0.00    -0.200 F 
ATOM     49  F   UNL A   1      38.880  35.832  39.673  1.00  0.00    -0.200 F 
ENDBRANCH  25  39
BRANCH  26  50
ATOM     50  C   UNL A   1      40.798  27.666  28.299  1.00  0.00     0.064 A 
ATOM     51  C   UNL A   1      41.581  28.068  27.210  1.00  0.00     0.173 A 
ATOM     52  C   UNL A   1      40.184  26.406  28.235  1.00  0.00     0.173 A 
ATOM     53  F   UNL A   1      42.173  29.272  27.219  1.00  0.00    -0.203 F 
ATOM     54  C   UNL A   1      41.742  27.244  26.098  1.00  0.00     0.198 A 
ATOM     55  C   UNL A   1      40.368  25.572  27.135  1.00  0.00     0.198 A 
ATOM     56  F   UNL A   1      39.429  25.975  29.255  1.00  0.00    -0.203 F 
ATOM     57  F   UNL A   1      42.474  27.664  25.057  1.00  0.00    -0.200 F 
ATOM     58  C   UNL A   1      41.143  25.993  26.066  1.00  0.00     0.200 A 
ATOM     59  F   UNL A   1      39.803  24.357  27.116  1.00  0.00    -0.200 F 
ATOM     60  F   UNL A   1      41.312  25.195  25.002  1.00  0.00    -0.200 F 
ENDBRANCH  26  50
BRANCH  38  61
ATOM     61  C   UNL A   1      44.254  28.187  34.332  1.00  0.00     0.064 A 
ATOM     62  C   UNL A   1      44.132  26.972  35.021  1.00  0.00     0.173 A 
ATOM     63  C   UNL A   1      45.543  28.696  34.114  1.00  0.00     0.173 A 
ATOM     64  F   UNL A   1      42.918  26.454  35.267  1.00  0.00    -0.203 F 
ATOM     65  C   UNL A   1      45.257  26.298  35.485  1.00  0.00     0.198 A 
ATOM     66  C   UNL A   1      46.667  28.005  34.556  1.00  0.00     0.198 A 
ATOM     67  F   UNL A   1      45.711  29.852  33.454  1.00  0.00    -0.203 F 
ATOM     68  F   UNL A   1      45.117  25.157  36.172  1.00  0.00    -0.200 F 
ATOM     69  C   UNL A   1      46.524  26.811  35.244  1.00  0.00     0.200 A 
ATOM     70  F   UNL A   1      47.891  28.496  34.313  1.00  0.00    -0.200 F 
ATOM     71  F   UNL A   1      47.607  26.154  35.681  1.00  0.00    -0.200 F 
ENDBRANCH  38  61
ENDBRANCH  12  13
ENDBRANCH   5   7
ENDBRANCH   2   3
ENDBRANCH   1   2
BRANCH   1  72
ATOM     72  C   UNL A   1      31.785  30.181  26.446  1.00  0.00     0.023 C 
BRANCH  72  73
ATOM     73  C   UNL A   1      31.653  29.723  24.992  1.00  0.00     0.116 C 
BRANCH  73  74
ATOM     74  N   UNL A   1      32.934  29.704  24.311  1.00  0.00    -0.354 N 
ATOM     75  C   UNL A   1      33.518  28.691  23.595  1.00  0.00     0.250 C 
ATOM     76  H   UNL A   1      33.459  30.535  24.372  1.00  0.00     0.163 HD
ATOM     77  O   UNL A   1      34.636  28.905  23.120  1.00  0.00    -0.272 OA
BRANCH  75  78
ATOM     78  C   UNL A   1      32.766  27.359  23.414  1.00  0.00     0.226 C 
ATOM     79  C   UNL A   1      33.603  26.247  24.056  1.00  0.00     0.160 C 
ATOM     80  O   UNL A   1      32.545  27.040  22.026  1.00  0.00    -0.365 OA
ATOM     81  N   UNL A   1      32.969  24.939  23.902  1.00  0.00    -0.351 N 
ATOM     82  C   UNL A   1      31.797  25.817  21.906  1.00  0.00     0.183 C 
ATOM     83  C   UNL A   1      32.518  24.616  22.549  1.00  0.00     0.146 C 
BRANCH  81  84
ATOM     84  C   UNL A   1      32.296  24.415  24.986  1.00  0.00     0.135 A 
ATOM     85  N   UNL A   1      31.014  24.758  25.217  1.00  0.00    -0.219 NA
ATOM     86  C   UNL A   1      32.971  23.618  25.880  1.00  0.00     0.016 A 
ATOM     87  C   UNL A   1      30.437  24.246  26.329  1.00  0.00     0.224 A 
ATOM     88  C   UNL A   1      32.295  23.181  26.995  1.00  0.00     0.049 A 
ATOM     89  C   UNL A   1      34.391  23.184  25.871  1.00  0.00     0.042 C 
ATOM     90  N   UNL A   1      31.015  23.463  27.254  1.00  0.00    -0.241 NA
ATOM     91  C   UNL A   1      33.175  22.367  27.893  1.00  0.00     0.057 C 
ATOM     92  C   UNL A   1      34.561  22.522  27.246  1.00  0.00     0.011 C 
ENDBRANCH  81  84
ENDBRANCH  75  78
ENDBRANCH  73  74
ENDBRANCH  72  73
ENDBRANCH   1  72
TORSDOF 12
ENDMDL
MODEL 2
REMARK VINA RESULT:     -12.6      1.475      2.457
REMARK SMILES O=C(NCCCCNC(=O)[C@@H]1CN(c2ncnc3c2CCC3)CCO1)c1ccc(-c2c3nc(c(-c4c(F)c(F)c(F)c(F)c4F)c4ccc([nH]4)c(-c4c(F)c(F)c(F)c(F)c4F)c4nc(c(-c5c(F)c(F)c(F)c(F)c5F)c5ccc2[nH]5)C=C4)C=C3)cc1
REMARK SMILES IDX 5 1 4 2 3 3 1 4 2 5 26 7 27 8 88 9 28 10 87 11 29 12 30 13
REMARK SMILES IDX 31 14 81 15 32 16 86 17 80 18 82 19 33 20 85 21 79 22 78 23
REMARK SMILES IDX 34 25 66 26 46 27 65 28 47 29 50 30 64 31 83 32 48 33 49 34
REMARK SMILES IDX 63 36 84 37 51 38 35 39 36 40 44 41 37 42 38 43 42 44 45 45
REMARK SMILES IDX 39 46 40 47 43 48 41 49 67 50 68 51 76 52 69 53 70 54 74 55
REMARK SMILES IDX 77 56 71 57 72 58 75 59 73 60 52 61 53 62 61 63 54 64 55 65
REMARK SMILES IDX 59 66 62 67 56 68 57 69 60 70 58 71 6 72 7 73 8 74 9 75
REMARK SMILES IDX 10 77 11 78 12 79 25 80 13 81 24 82 23 83 14 84 15 85 19 86
REMARK SMILES IDX 16 87 18 88 20 89 17 90 22 91 21 92
REMARK H PARENT 3 6 82 24 50 35 8 76
REMARK Flexibility Score: inf
ROOT
ATOM      1  C   UNL A   1      31.905  28.580  25.436  1.00  0.00     0.023 C 
ENDROOT
BRANCH   1   2
ATOM      2  C   UNL A   1      33.048  29.410  25.994  1.00  0.00     0.116 C 
BRANCH   2   3
ATOM      3  N   UNL A   1      32.663  30.780  26.299  1.00  0.00    -0.352 N 
ATOM      4  O   UNL A   1      32.765  32.755  27.396  1.00  0.00    -0.269 OA
ATOM      5  C   UNL A   1      33.276  31.667  27.148  1.00  0.00     0.251 C 
ATOM      6  H   UNL A   1      31.860  31.113  25.836  1.00  0.00     0.163 HD
BRANCH   5   7
ATOM      7  C   UNL A   1      34.546  31.280  27.790  1.00  0.00     0.039 A 
ATOM      8  C   UNL A   1      34.714  29.987  28.294  1.00  0.00     0.014 A 
ATOM      9  C   UNL A   1      35.561  32.231  27.919  1.00  0.00     0.014 A 
ATOM     10  C   UNL A   1      35.840  29.687  29.047  1.00  0.00     0.010 A 
ATOM     11  C   UNL A   1      36.730  31.901  28.610  1.00  0.00     0.010 A 
ATOM     12  C   UNL A   1      36.863  30.637  29.203  1.00  0.00    -0.014 A 
BRANCH  12  13
ATOM     13  C   UNL A   1      38.089  30.258  29.945  1.00  0.00     0.031 A 
ATOM     14  C   UNL A   1      38.329  30.742  31.345  1.00  0.00     0.074 A 
ATOM     15  C   UNL A   1      38.963  29.427  29.349  1.00  0.00     0.049 A 
ATOM     16  N   UNL A   1      39.332  30.479  32.144  1.00  0.00    -0.248 NA
ATOM     17  C   UNL A   1      37.317  31.637  31.927  1.00  0.00     0.031 C 
ATOM     18  C   UNL A   1      38.821  28.892  27.993  1.00  0.00     0.029 A 
ATOM     19  N   UNL A   1      40.125  28.863  29.809  1.00  0.00    -0.354 N 
ATOM     20  C   UNL A   1      39.078  31.178  33.317  1.00  0.00     0.074 A 
ATOM     21  C   UNL A   1      37.840  31.902  33.118  1.00  0.00     0.031 C 
ATOM     22  C   UNL A   1      39.825  28.038  27.750  1.00  0.00     0.029 A 
ATOM     23  C   UNL A   1      40.713  28.011  28.907  1.00  0.00     0.049 A 
ATOM     24  H   UNL A   1      40.500  29.050  30.698  1.00  0.00     0.167 HD
ATOM     25  C   UNL A   1      39.810  31.199  34.455  1.00  0.00     0.037 A 
ATOM     26  C   UNL A   1      41.848  27.295  28.996  1.00  0.00     0.037 A 
ATOM     27  C   UNL A   1      41.035  30.466  34.647  1.00  0.00     0.049 A 
ATOM     28  C   UNL A   1      42.661  27.378  30.256  1.00  0.00     0.074 A 
ATOM     29  C   UNL A   1      41.840  30.411  35.771  1.00  0.00     0.029 A 
ATOM     30  N   UNL A   1      41.632  29.660  33.688  1.00  0.00    -0.354 N 
ATOM     31  N   UNL A   1      42.404  28.033  31.361  1.00  0.00    -0.248 NA
ATOM     32  C   UNL A   1      43.925  26.631  30.276  1.00  0.00     0.031 C 
ATOM     33  C   UNL A   1      42.945  29.605  35.479  1.00  0.00     0.029 A 
ATOM     34  C   UNL A   1      42.807  29.122  34.189  1.00  0.00     0.049 A 
ATOM     35  H   UNL A   1      41.274  29.496  32.786  1.00  0.00     0.167 HD
ATOM     36  C   UNL A   1      43.467  27.773  32.212  1.00  0.00     0.074 A 
ATOM     37  C   UNL A   1      44.363  26.881  31.503  1.00  0.00     0.031 C 
ATOM     38  C   UNL A   1      43.687  28.239  33.465  1.00  0.00     0.037 A 
BRANCH  25  39
ATOM     39  C   UNL A   1      39.315  32.042  35.594  1.00  0.00     0.064 A 
ATOM     40  C   UNL A   1      38.447  31.523  36.565  1.00  0.00     0.173 A 
ATOM     41  C   UNL A   1      39.779  33.355  35.763  1.00  0.00     0.173 A 
ATOM     42  F   UNL A   1      37.967  30.276  36.445  1.00  0.00    -0.203 F 
ATOM     43  C   UNL A   1      38.055  32.292  37.659  1.00  0.00     0.198 A 
ATOM     44  C   UNL A   1      39.403  34.112  36.869  1.00  0.00     0.198 A 
ATOM     45  F   UNL A   1      40.616  33.897  34.864  1.00  0.00    -0.203 F 
ATOM     46  F   UNL A   1      37.205  31.783  38.563  1.00  0.00    -0.200 F 
ATOM     47  C   UNL A   1      38.541  33.581  37.815  1.00  0.00     0.200 A 
ATOM     48  F   UNL A   1      39.884  35.354  37.024  1.00  0.00    -0.200 F 
ATOM     49  F   UNL A   1      38.176  34.312  38.878  1.00  0.00    -0.200 F 
ENDBRANCH  25  39
BRANCH  26  50
ATOM     50  C   UNL A   1      42.265  26.438  27.859  1.00  0.00     0.064 A 
ATOM     51  C   UNL A   1      41.731  25.155  27.693  1.00  0.00     0.173 A 
ATOM     52  C   UNL A   1      43.174  26.899  26.895  1.00  0.00     0.173 A 
ATOM     53  F   UNL A   1      40.871  24.665  28.599  1.00  0.00    -0.203 F 
ATOM     54  C   UNL A   1      42.094  24.361  26.607  1.00  0.00     0.198 A 
ATOM     55  C   UNL A   1      43.515  26.116  25.796  1.00  0.00     0.198 A 
ATOM     56  F   UNL A   1      43.709  28.124  27.008  1.00  0.00    -0.203 F 
ATOM     57  F   UNL A   1      41.590  23.125  26.486  1.00  0.00    -0.200 F 
ATOM     58  C   UNL A   1      42.978  24.846  25.655  1.00  0.00     0.200 A 
ATOM     59  F   UNL A   1      44.355  26.596  24.869  1.00  0.00    -0.200 F 
ATOM     60  F   UNL A   1      43.313  24.087  24.602  1.00  0.00    -0.200 F 
ENDBRANCH  26  50
BRANCH  38  61
ATOM     61  C   UNL A   1      44.939  27.790  34.155  1.00  0.00     0.064 A 
ATOM     62  C   UNL A   1      44.974  26.605  34.904  1.00  0.00     0.173 A 
ATOM     63  C   UNL A   1      46.130  28.518  34.017  1.00  0.00     0.173 A 
ATOM     64  F   UNL A   1      43.855  25.884  35.077  1.00  0.00    -0.203 F 
ATOM     65  C   UNL A   1      46.153  26.173  35.502  1.00  0.00     0.198 A 
ATOM     66  C   UNL A   1      47.314  28.069  34.594  1.00  0.00     0.198 A 
ATOM     67  F   UNL A   1      46.149  29.655  33.304  1.00  0.00    -0.203 F 
ATOM     68  F   UNL A   1      46.156  25.057  36.243  1.00  0.00    -0.200 F 
ATOM     69  C   UNL A   1      47.323  26.900  35.340  1.00  0.00     0.200 A 
ATOM     70  F   UNL A   1      48.446  28.765  34.427  1.00  0.00    -0.200 F 
ATOM     71  F   UNL A   1      48.461  26.475  35.906  1.00  0.00    -0.200 F 
ENDBRANCH  38  61
ENDBRANCH  12  13
ENDBRANCH   5   7
ENDBRANCH   2   3
ENDBRANCH   1   2
BRANCH   1  72
ATOM     72  C   UNL A   1      31.008  29.313  24.442  1.00  0.00     0.023 C 
BRANCH  72  73
ATOM     73  C   UNL A   1      31.100  28.812  22.999  1.00  0.00     0.116 C 
BRANCH  73  74
ATOM     74  N   UNL A   1      32.435  28.972  22.453  1.00  0.00    -0.354 N 
ATOM     75  C   UNL A   1      33.378  28.014  22.181  1.00  0.00     0.250 C 
ATOM     76  H   UNL A   1      32.702  29.897  22.250  1.00  0.00     0.163 HD
ATOM     77  O   UNL A   1      34.461  28.398  21.736  1.00  0.00    -0.272 OA
BRANCH  75  78
ATOM     78  C   UNL A   1      33.048  26.531  22.436  1.00  0.00     0.226 C 
ATOM     79  C   UNL A   1      33.829  26.074  23.673  1.00  0.00     0.160 C 
ATOM     80  O   UNL A   1      33.405  25.693  21.319  1.00  0.00    -0.365 OA
ATOM     81  N   UNL A   1      33.593  24.662  23.967  1.00  0.00    -0.351 N 
ATOM     82  C   UNL A   1      33.033  24.327  21.579  1.00  0.00     0.183 C 
ATOM     83  C   UNL A   1      33.727  23.753  22.830  1.00  0.00     0.146 C 
BRANCH  81  84
ATOM     84  C   UNL A   1      32.714  24.352  24.985  1.00  0.00     0.135 A 
ATOM     85  N   UNL A   1      31.512  24.957  25.049  1.00  0.00    -0.219 NA
ATOM     86  C   UNL A   1      33.111  23.495  25.983  1.00  0.00     0.016 A 
ATOM     87  C   UNL A   1      30.727  24.641  26.105  1.00  0.00     0.224 A 
ATOM     88  C   UNL A   1      32.245  23.272  27.028  1.00  0.00     0.049 A 
ATOM     89  C   UNL A   1      34.405  22.787  26.159  1.00  0.00     0.042 C 
ATOM     90  N   UNL A   1      31.030  23.819  27.123  1.00  0.00    -0.241 NA
ATOM     91  C   UNL A   1      32.838  22.357  28.054  1.00  0.00     0.057 C 
ATOM     92  C   UNL A   1      34.287  22.192  27.570  1.00  0.00     0.011 C 
ENDBRANCH  81  84
ENDBRANCH  75  78
ENDBRANCH  73  74
ENDBRANCH  72  73
ENDBRANCH   1  72
TORSDOF 12
ENDMDL
MODEL 3
REMARK VINA RESULT:     -12.6      5.219     10.696
REMARK SMILES O=C(NCCCCNC(=O)[C@@H]1CN(c2ncnc3c2CCC3)CCO1)c1ccc(-c2c3nc(c(-c4c(F)c(F)c(F)c(F)c4F)c4ccc([nH]4)c(-c4c(F)c(F)c(F)c(F)c4F)c4nc(c(-c5c(F)c(F)c(F)c(F)c5F)c5ccc2[nH]5)C=C4)C=C3)cc1
REMARK SMILES IDX 5 1 4 2 3 3 1 4 2 5 26 7 27 8 88 9 28 10 87 11 29 12 30 13
REMARK SMILES IDX 31 14 81 15 32 16 86 17 80 18 82 19 33 20 85 21 79 22 78 23
REMARK SMILES IDX 34 25 66 26 46 27 65 28 47 29 50 30 64 31 83 32 48 33 49 34
REMARK SMILES IDX 63 36 84 37 51 38 35 39 36 40 44 41 37 42 38 43 42 44 45 45
REMARK SMILES IDX 39 46 40 47 43 48 41 49 67 50 68 51 76 52 69 53 70 54 74 55
REMARK SMILES IDX 77 56 71 57 72 58 75 59 73 60 52 61 53 62 61 63 54 64 55 65
REMARK SMILES IDX 59 66 62 67 56 68 57 69 60 70 58 71 6 72 7 73 8 74 9 75
REMARK SMILES IDX 10 77 11 78 12 79 25 80 13 81 24 82 23 83 14 84 15 85 19 86
REMARK SMILES IDX 16 87 18 88 20 89 17 90 22 91 21 92
REMARK H PARENT 3 6 82 24 50 35 8 76
REMARK Flexibility Score: inf
ROOT
ATOM      1  C   UNL A   1      37.999  19.914  24.975  1.00  0.00     0.023 C 
ENDROOT
BRANCH   1   2
ATOM      2  C   UNL A   1      39.151  20.204  25.922  1.00  0.00     0.116 C 
BRANCH   2   3
ATOM      3  N   UNL A   1      40.194  19.189  25.879  1.00  0.00    -0.352 N 
ATOM      4  O   UNL A   1      42.319  18.417  25.850  1.00  0.00    -0.269 OA
ATOM      5  C   UNL A   1      41.548  19.355  26.030  1.00  0.00     0.251 C 
ATOM      6  H   UNL A   1      39.888  18.267  25.723  1.00  0.00     0.163 HD
BRANCH   5   7
ATOM      7  C   UNL A   1      42.070  20.689  26.380  1.00  0.00     0.039 A 
ATOM      8  C   UNL A   1      42.159  21.081  27.718  1.00  0.00     0.014 A 
ATOM      9  C   UNL A   1      42.439  21.566  25.357  1.00  0.00     0.014 A 
ATOM     10  C   UNL A   1      42.485  22.394  28.027  1.00  0.00     0.010 A 
ATOM     11  C   UNL A   1      42.843  22.864  25.675  1.00  0.00     0.010 A 
ATOM     12  C   UNL A   1      42.840  23.295  27.010  1.00  0.00    -0.014 A 
BRANCH  12  13
ATOM     13  C   UNL A   1      43.261  24.667  27.379  1.00  0.00     0.031 A 
ATOM     14  C   UNL A   1      44.656  25.149  27.113  1.00  0.00     0.074 A 
ATOM     15  C   UNL A   1      42.343  25.491  27.917  1.00  0.00     0.049 A 
ATOM     16  N   UNL A   1      45.176  26.328  27.345  1.00  0.00    -0.248 NA
ATOM     17  C   UNL A   1      45.593  24.188  26.510  1.00  0.00     0.031 C 
ATOM     18  C   UNL A   1      40.956  25.125  28.211  1.00  0.00     0.029 A 
ATOM     19  N   UNL A   1      42.424  26.808  28.287  1.00  0.00    -0.354 N 
ATOM     20  C   UNL A   1      46.497  26.250  26.924  1.00  0.00     0.074 A 
ATOM     21  C   UNL A   1      46.711  24.900  26.449  1.00  0.00     0.031 C 
ATOM     22  C   UNL A   1      40.303  26.203  28.665  1.00  0.00     0.029 A 
ATOM     23  C   UNL A   1      41.238  27.319  28.752  1.00  0.00     0.049 A 
ATOM     24  H   UNL A   1      43.252  27.336  28.226  1.00  0.00     0.167 HD
ATOM     25  C   UNL A   1      47.436  27.226  26.928  1.00  0.00     0.037 A 
ATOM     26  C   UNL A   1      40.937  28.548  29.207  1.00  0.00     0.037 A 
ATOM     27  C   UNL A   1      47.210  28.569  27.393  1.00  0.00     0.049 A 
ATOM     28  C   UNL A   1      42.014  29.594  29.242  1.00  0.00     0.074 A 
ATOM     29  C   UNL A   1      48.095  29.634  27.420  1.00  0.00     0.029 A 
ATOM     30  N   UNL A   1      46.010  29.034  27.913  1.00  0.00    -0.354 N 
ATOM     31  N   UNL A   1      43.256  29.511  28.831  1.00  0.00    -0.248 NA
ATOM     32  C   UNL A   1      41.651  30.897  29.812  1.00  0.00     0.031 C 
ATOM     33  C   UNL A   1      47.444  30.730  27.995  1.00  0.00     0.029 A 
ATOM     34  C   UNL A   1      46.140  30.364  28.285  1.00  0.00     0.049 A 
ATOM     35  H   UNL A   1      45.189  28.499  28.004  1.00  0.00     0.167 HD
ATOM     36  C   UNL A   1      43.822  30.751  29.084  1.00  0.00     0.074 A 
ATOM     37  C   UNL A   1      42.781  31.577  29.664  1.00  0.00     0.031 C 
ATOM     38  C   UNL A   1      45.093  31.166  28.864  1.00  0.00     0.037 A 
BRANCH  25  39
ATOM     39  C   UNL A   1      48.805  26.886  26.413  1.00  0.00     0.064 A 
ATOM     40  C   UNL A   1      49.775  26.306  27.243  1.00  0.00     0.173 A 
ATOM     41  C   UNL A   1      49.121  27.065  25.058  1.00  0.00     0.173 A 
ATOM     42  F   UNL A   1      49.526  26.122  28.548  1.00  0.00    -0.203 F 
ATOM     43  C   UNL A   1      51.015  25.925  26.735  1.00  0.00     0.198 A 
ATOM     44  C   UNL A   1      50.353  26.662  24.550  1.00  0.00     0.198 A 
ATOM     45  F   UNL A   1      48.225  27.611  24.221  1.00  0.00    -0.203 F 
ATOM     46  F   UNL A   1      51.937  25.393  27.552  1.00  0.00    -0.200 F 
ATOM     47  C   UNL A   1      51.300  26.094  25.388  1.00  0.00     0.200 A 
ATOM     48  F   UNL A   1      50.621  26.816  23.245  1.00  0.00    -0.200 F 
ATOM     49  F   UNL A   1      52.487  25.710  24.899  1.00  0.00    -0.200 F 
ENDBRANCH  25  39
BRANCH  26  50
ATOM     50  C   UNL A   1      39.554  28.845  29.656  1.00  0.00     0.064 A 
ATOM     51  C   UNL A   1      39.155  28.585  30.973  1.00  0.00     0.173 A 
ATOM     52  C   UNL A   1      38.617  29.432  28.791  1.00  0.00     0.173 A 
ATOM     53  F   UNL A   1      40.011  28.010  31.831  1.00  0.00    -0.203 F 
ATOM     54  C   UNL A   1      37.868  28.895  31.408  1.00  0.00     0.198 A 
ATOM     55  C   UNL A   1      37.341  29.766  29.235  1.00  0.00     0.198 A 
ATOM     56  F   UNL A   1      38.954  29.705  27.523  1.00  0.00    -0.203 F 
ATOM     57  F   UNL A   1      37.502  28.610  32.665  1.00  0.00    -0.200 F 
ATOM     58  C   UNL A   1      36.966  29.494  30.541  1.00  0.00     0.200 A 
ATOM     59  F   UNL A   1      36.479  30.361  28.400  1.00  0.00    -0.200 F 
ATOM     60  F   UNL A   1      35.734  29.807  30.966  1.00  0.00    -0.200 F 
ENDBRANCH  26  50
BRANCH  38  61
ATOM     61  C   UNL A   1      45.430  32.576  29.244  1.00  0.00     0.064 A 
ATOM     62  C   UNL A   1      45.978  32.881  30.498  1.00  0.00     0.173 A 
ATOM     63  C   UNL A   1      45.259  33.623  28.326  1.00  0.00     0.173 A 
ATOM     64  F   UNL A   1      46.144  31.915  31.415  1.00  0.00    -0.203 F 
ATOM     65  C   UNL A   1      46.330  34.187  30.825  1.00  0.00     0.198 A 
ATOM     66  C   UNL A   1      45.637  34.923  28.647  1.00  0.00     0.198 A 
ATOM     67  F   UNL A   1      44.744  33.380  27.111  1.00  0.00    -0.203 F 
ATOM     68  F   UNL A   1      46.819  34.462  32.041  1.00  0.00    -0.200 F 
ATOM     69  C   UNL A   1      46.168  35.205  29.896  1.00  0.00     0.200 A 
ATOM     70  F   UNL A   1      45.492  35.904  27.744  1.00  0.00    -0.200 F 
ATOM     71  F   UNL A   1      46.520  36.460  30.208  1.00  0.00    -0.200 F 
ENDBRANCH  38  61
ENDBRANCH  12  13
ENDBRANCH   5   7
ENDBRANCH   2   3
ENDBRANCH   1   2
BRANCH   1  72
ATOM     72  C   UNL A   1      37.135  21.124  24.629  1.00  0.00     0.023 C 
BRANCH  72  73
ATOM     73  C   UNL A   1      35.666  21.006  25.040  1.00  0.00     0.116 C 
BRANCH  73  74
ATOM     74  N   UNL A   1      35.442  21.476  26.394  1.00  0.00    -0.354 N 
ATOM     75  C   UNL A   1      34.421  22.251  26.883  1.00  0.00     0.250 C 
ATOM     76  H   UNL A   1      36.118  21.202  27.055  1.00  0.00     0.163 HD
ATOM     77  O   UNL A   1      34.457  22.543  28.080  1.00  0.00    -0.272 OA
BRANCH  75  78
ATOM     78  C   UNL A   1      33.295  22.708  25.936  1.00  0.00     0.226 C 
ATOM     79  C   UNL A   1      33.306  24.240  25.887  1.00  0.00     0.160 C 
ATOM     80  O   UNL A   1      31.997  22.260  26.375  1.00  0.00    -0.365 OA
ATOM     81  N   UNL A   1      32.243  24.758  25.028  1.00  0.00    -0.351 N 
ATOM     82  C   UNL A   1      30.985  22.665  25.437  1.00  0.00     0.183 C 
ATOM     83  C   UNL A   1      30.914  24.195  25.266  1.00  0.00     0.146 C 
BRANCH  81  84
ATOM     84  C   UNL A   1      32.585  25.182  23.761  1.00  0.00     0.135 A 
ATOM     85  N   UNL A   1      32.579  24.313  22.732  1.00  0.00    -0.219 NA
ATOM     86  C   UNL A   1      33.023  26.471  23.575  1.00  0.00     0.016 A 
ATOM     87  C   UNL A   1      32.978  24.789  21.529  1.00  0.00     0.224 A 
ATOM     88  C   UNL A   1      33.438  26.838  22.316  1.00  0.00     0.049 A 
ATOM     89  C   UNL A   1      33.190  27.563  24.567  1.00  0.00     0.042 C 
ATOM     90  N   UNL A   1      33.420  26.027  21.255  1.00  0.00    -0.241 NA
ATOM     91  C   UNL A   1      33.930  28.253  22.285  1.00  0.00     0.057 C 
ATOM     92  C   UNL A   1      33.926  28.650  23.770  1.00  0.00     0.011 C 
ENDBRANCH  81  84
ENDBRANCH  75  78
ENDBRANCH  73  74
ENDBRANCH  72  73
ENDBRANCH   1  72
TORSDOF 12
ENDMDL
