MODEL 1
REMARK VINA RESULT:     -13.0      0.000      0.000
REMARK SMILES O=C(C[C@H](C1CCCCC1)N1Cc2ccccc2C1=O)NCCCCNC(=O)c1ccc(-c2c3nc(c(-c4c(F)c(F)c(F)c(F)c4F)c4ccc([nH]4)c(-c4c(F)c(F)c(F)c(F)c4F)c4nc(c(-c5c(F)c(F)c(F)c(F)c5F)c5ccc2[nH]5)C=C4)C=C3)cc1
REMARK SMILES IDX 23 1 22 2 21 3 1 4 2 5 3 7 4 8 11 9 12 10 19 11 13 12 18 13
REMARK SMILES IDX 20 14 14 15 17 16 15 17 16 18 5 19 6 20 10 21 7 22 9 23 8 24
REMARK SMILES IDX 24 25 25 26 26 27 27 28 28 30 29 31 30 32 91 33 31 34 90 35
REMARK SMILES IDX 32 36 33 37 34 38 84 39 35 40 89 41 83 42 85 43 36 44 88 45
REMARK SMILES IDX 82 46 81 47 37 49 69 50 49 51 68 52 50 53 53 54 67 55 86 56
REMARK SMILES IDX 51 57 52 58 66 60 87 61 54 62 38 63 39 64 47 65 40 66 41 67
REMARK SMILES IDX 45 68 48 69 42 70 43 71 46 72 44 73 70 74 71 75 79 76 72 77
REMARK SMILES IDX 73 78 77 79 80 80 74 81 75 82 78 83 76 84 55 85 56 86 64 87
REMARK SMILES IDX 57 88 58 89 62 90 65 91 59 92 60 93 63 94 61 95
REMARK H PARENT 21 6 26 29 85 48 53 59
REMARK Flexibility Score: inf
ROOT
ATOM      1  C   UNL A   1      31.592  30.708  26.171  1.00  0.00     0.023 C 
ENDROOT
BRANCH   1   2
ATOM      2  C   UNL A   1      32.541  29.859  27.019  1.00  0.00     0.116 C 
BRANCH   2   3
ATOM      3  N   UNL A   1      32.793  28.566  26.412  1.00  0.00    -0.356 N 
ATOM      4  O   UNL A   1      31.079  27.469  27.474  1.00  0.00    -0.275 OA
ATOM      5  C   UNL A   1      32.043  27.452  26.715  1.00  0.00     0.222 C 
ATOM      6  H   UNL A   1      33.525  28.483  25.759  1.00  0.00     0.163 HD
BRANCH   5   7
ATOM      7  C   UNL A   1      32.562  26.158  26.123  1.00  0.00     0.125 C 
BRANCH   7   8
ATOM      8  C   UNL A   1      31.643  25.482  25.092  1.00  0.00     0.098 C 
BRANCH   8   9
ATOM      9  N   UNL A   1      30.903  26.498  24.314  1.00  0.00    -0.331 N 
ATOM     10  C   UNL A   1      29.446  26.613  24.284  1.00  0.00     0.156 C 
ATOM     11  C   UNL A   1      31.518  27.459  23.522  1.00  0.00     0.254 C 
ATOM     12  C   UNL A   1      29.230  27.832  23.454  1.00  0.00    -0.016 A 
ATOM     13  C   UNL A   1      30.450  28.313  22.984  1.00  0.00     0.045 A 
ATOM     14  O   UNL A   1      32.706  27.593  23.291  1.00  0.00    -0.269 OA
ATOM     15  C   UNL A   1      28.048  28.474  23.129  1.00  0.00     0.006 A 
ATOM     16  C   UNL A   1      30.545  29.423  22.166  1.00  0.00     0.014 A 
ATOM     17  C   UNL A   1      28.118  29.607  22.311  1.00  0.00     0.000 A 
ATOM     18  C   UNL A   1      29.355  30.074  21.829  1.00  0.00     0.001 A 
ENDBRANCH   8   9
BRANCH   8  19
ATOM     19  C   UNL A   1      32.307  24.417  24.148  1.00  0.00     0.012 C 
ATOM     20  C   UNL A   1      33.815  24.208  24.382  1.00  0.00     0.006 C 
ATOM     21  C   UNL A   1      31.556  23.071  24.183  1.00  0.00     0.006 C 
ATOM     22  C   UNL A   1      34.422  23.108  23.510  1.00  0.00     0.000 C 
ATOM     23  C   UNL A   1      32.184  22.022  23.269  1.00  0.00     0.000 C 
ATOM     24  C   UNL A   1      33.650  21.803  23.619  1.00  0.00     0.000 C 
ENDBRANCH   8  19
ENDBRANCH   7   8
ENDBRANCH   5   7
ENDBRANCH   2   3
ENDBRANCH   1   2
BRANCH   1  25
ATOM     25  C   UNL A   1      31.370  32.134  26.685  1.00  0.00     0.023 C 
BRANCH  25  26
ATOM     26  C   UNL A   1      32.600  32.811  27.281  1.00  0.00     0.116 C 
BRANCH  26  27
ATOM     27  N   UNL A   1      32.369  34.203  27.626  1.00  0.00    -0.352 N 
ATOM     28  C   UNL A   1      32.995  34.987  28.565  1.00  0.00     0.251 C 
ATOM     29  H   UNL A   1      31.659  34.652  27.111  1.00  0.00     0.163 HD
ATOM     30  O   UNL A   1      32.564  36.110  28.815  1.00  0.00    -0.269 OA
BRANCH  28  31
ATOM     31  C   UNL A   1      34.169  34.473  29.306  1.00  0.00     0.039 A 
ATOM     32  C   UNL A   1      33.970  33.891  30.562  1.00  0.00     0.014 A 
ATOM     33  C   UNL A   1      35.458  34.558  28.773  1.00  0.00     0.014 A 
ATOM     34  C   UNL A   1      35.051  33.331  31.247  1.00  0.00     0.010 A 
ATOM     35  C   UNL A   1      36.520  33.927  29.420  1.00  0.00     0.010 A 
ATOM     36  C   UNL A   1      36.328  33.305  30.663  1.00  0.00    -0.014 A 
BRANCH  36  37
ATOM     37  C   UNL A   1      37.467  32.621  31.332  1.00  0.00     0.031 A 
ATOM     38  C   UNL A   1      38.156  31.462  30.667  1.00  0.00     0.074 A 
ATOM     39  C   UNL A   1      37.842  33.005  32.568  1.00  0.00     0.049 A 
ATOM     40  N   UNL A   1      39.123  30.702  31.119  1.00  0.00    -0.248 NA
ATOM     41  C   UNL A   1      37.679  31.089  29.327  1.00  0.00     0.031 C 
ATOM     42  C   UNL A   1      37.227  34.084  33.341  1.00  0.00     0.029 A 
ATOM     43  N   UNL A   1      38.825  32.523  33.397  1.00  0.00    -0.354 N 
ATOM     44  C   UNL A   1      39.361  29.761  30.124  1.00  0.00     0.074 A 
ATOM     45  C   UNL A   1      38.398  30.008  29.073  1.00  0.00     0.031 C 
ATOM     46  C   UNL A   1      37.858  34.198  34.519  1.00  0.00     0.029 A 
ATOM     47  C   UNL A   1      38.892  33.172  34.607  1.00  0.00     0.049 A 
ATOM     48  H   UNL A   1      39.425  31.783  33.149  1.00  0.00     0.167 HD
ATOM     49  C   UNL A   1      40.313  28.798  30.081  1.00  0.00     0.037 A 
ATOM     50  C   UNL A   1      39.688  32.956  35.672  1.00  0.00     0.037 A 
ATOM     51  C   UNL A   1      41.275  28.560  31.126  1.00  0.00     0.049 A 
ATOM     52  C   UNL A   1      40.717  31.858  35.612  1.00  0.00     0.074 A 
ATOM     53  C   UNL A   1      42.308  27.640  31.154  1.00  0.00     0.029 A 
ATOM     54  N   UNL A   1      41.315  29.242  32.335  1.00  0.00    -0.354 N 
ATOM     55  N   UNL A   1      40.980  31.022  34.638  1.00  0.00    -0.248 NA
ATOM     56  C   UNL A   1      41.565  31.680  36.799  1.00  0.00     0.031 C 
ATOM     57  C   UNL A   1      42.934  27.723  32.403  1.00  0.00     0.029 A 
ATOM     58  C   UNL A   1      42.337  28.742  33.126  1.00  0.00     0.049 A 
ATOM     59  H   UNL A   1      40.706  29.973  32.591  1.00  0.00     0.167 HD
ATOM     60  C   UNL A   1      42.041  30.242  35.079  1.00  0.00     0.074 A 
ATOM     61  C   UNL A   1      42.383  30.716  36.403  1.00  0.00     0.031 C 
ATOM     62  C   UNL A   1      42.672  29.225  34.443  1.00  0.00     0.037 A 
BRANCH  49  63
ATOM     63  C   UNL A   1      40.356  27.920  28.861  1.00  0.00     0.064 A 
ATOM     64  C   UNL A   1      41.126  28.258  27.736  1.00  0.00     0.173 A 
ATOM     65  C   UNL A   1      39.647  26.709  28.827  1.00  0.00     0.173 A 
ATOM     66  F   UNL A   1      41.817  29.407  27.711  1.00  0.00    -0.203 F 
ATOM     67  C   UNL A   1      41.153  27.436  26.612  1.00  0.00     0.198 A 
ATOM     68  C   UNL A   1      39.707  25.872  27.715  1.00  0.00     0.198 A 
ATOM     69  F   UNL A   1      38.904  26.330  29.877  1.00  0.00    -0.203 F 
ATOM     70  F   UNL A   1      41.849  27.809  25.528  1.00  0.00    -0.200 F 
ATOM     71  C   UNL A   1      40.450  26.241  26.605  1.00  0.00     0.200 A 
ATOM     72  F   UNL A   1      39.042  24.709  27.718  1.00  0.00    -0.200 F 
ATOM     73  F   UNL A   1      40.484  25.447  25.525  1.00  0.00    -0.200 F 
ENDBRANCH  49  63
BRANCH  50  74
ATOM     74  C   UNL A   1      39.551  33.807  36.885  1.00  0.00     0.064 A 
ATOM     75  C   UNL A   1      38.749  33.404  37.963  1.00  0.00     0.173 A 
ATOM     76  C   UNL A   1      40.209  35.041  36.990  1.00  0.00     0.173 A 
ATOM     77  F   UNL A   1      38.082  32.242  37.904  1.00  0.00    -0.203 F 
ATOM     78  C   UNL A   1      38.595  34.212  39.088  1.00  0.00     0.198 A 
ATOM     79  C   UNL A   1      40.081  35.833  38.128  1.00  0.00     0.198 A 
ATOM     80  F   UNL A   1      40.991  35.472  35.989  1.00  0.00    -0.203 F 
ATOM     81  F   UNL A   1      37.782  33.826  40.080  1.00  0.00    -0.200 F 
ATOM     82  C   UNL A   1      39.266  35.423  39.172  1.00  0.00     0.200 A 
ATOM     83  F   UNL A   1      40.745  36.994  38.213  1.00  0.00    -0.200 F 
ATOM     84  F   UNL A   1      39.121  36.198  40.256  1.00  0.00    -0.200 F 
ENDBRANCH  50  74
BRANCH  62  85
ATOM     85  C   UNL A   1      43.830  28.578  35.152  1.00  0.00     0.064 A 
ATOM     86  C   UNL A   1      45.139  29.069  35.035  1.00  0.00     0.173 A 
ATOM     87  C   UNL A   1      43.618  27.472  35.990  1.00  0.00     0.173 A 
ATOM     88  F   UNL A   1      45.401  30.114  34.236  1.00  0.00    -0.203 F 
ATOM     89  C   UNL A   1      46.196  28.458  35.708  1.00  0.00     0.198 A 
ATOM     90  C   UNL A   1      44.670  26.888  36.690  1.00  0.00     0.198 A 
ATOM     91  F   UNL A   1      42.385  26.967  36.144  1.00  0.00    -0.203 F 
ATOM     92  F   UNL A   1      47.445  28.912  35.538  1.00  0.00    -0.200 F 
ATOM     93  C   UNL A   1      45.959  27.375  36.541  1.00  0.00     0.200 A 
ATOM     94  F   UNL A   1      44.436  25.852  37.507  1.00  0.00    -0.200 F 
ATOM     95  F   UNL A   1      46.975  26.796  37.194  1.00  0.00    -0.200 F 
ENDBRANCH  62  85
ENDBRANCH  36  37
ENDBRANCH  28  31
ENDBRANCH  26  27
ENDBRANCH  25  26
ENDBRANCH   1  25
TORSDOF 14
ENDMDL
MODEL 2
REMARK VINA RESULT:     -13.0      0.263      1.597
REMARK SMILES O=C(C[C@H](C1CCCCC1)N1Cc2ccccc2C1=O)NCCCCNC(=O)c1ccc(-c2c3nc(c(-c4c(F)c(F)c(F)c(F)c4F)c4ccc([nH]4)c(-c4c(F)c(F)c(F)c(F)c4F)c4nc(c(-c5c(F)c(F)c(F)c(F)c5F)c5ccc2[nH]5)C=C4)C=C3)cc1
REMARK SMILES IDX 23 1 22 2 21 3 1 4 2 5 3 7 4 8 11 9 12 10 19 11 13 12 18 13
REMARK SMILES IDX 20 14 14 15 17 16 15 17 16 18 5 19 6 20 10 21 7 22 9 23 8 24
REMARK SMILES IDX 24 25 25 26 26 27 27 28 28 30 29 31 30 32 91 33 31 34 90 35
REMARK SMILES IDX 32 36 33 37 34 38 84 39 35 40 89 41 83 42 85 43 36 44 88 45
REMARK SMILES IDX 82 46 81 47 37 49 69 50 49 51 68 52 50 53 53 54 67 55 86 56
REMARK SMILES IDX 51 57 52 58 66 60 87 61 54 62 38 63 39 64 47 65 40 66 41 67
REMARK SMILES IDX 45 68 48 69 42 70 43 71 46 72 44 73 70 74 71 75 79 76 72 77
REMARK SMILES IDX 73 78 77 79 80 80 74 81 75 82 78 83 76 84 55 85 56 86 64 87
REMARK SMILES IDX 57 88 58 89 62 90 65 91 59 92 60 93 63 94 61 95
REMARK H PARENT 21 6 26 29 85 48 53 59
REMARK Flexibility Score: inf
ROOT
ATOM      1  C   UNL A   1      31.597  30.740  26.156  1.00  0.00     0.023 C 
ENDROOT
BRANCH   1   2
ATOM      2  C   UNL A   1      32.502  29.943  27.097  1.00  0.00     0.116 C 
BRANCH   2   3
ATOM      3  N   UNL A   1      32.866  28.657  26.531  1.00  0.00    -0.356 N 
ATOM      4  O   UNL A   1      31.168  27.474  27.524  1.00  0.00    -0.275 OA
ATOM      5  C   UNL A   1      32.172  27.504  26.817  1.00  0.00     0.222 C 
ATOM      6  H   UNL A   1      33.637  28.609  25.920  1.00  0.00     0.163 HD
BRANCH   5   7
ATOM      7  C   UNL A   1      32.802  26.235  26.281  1.00  0.00     0.125 C 
BRANCH   7   8
ATOM      8  C   UNL A   1      32.010  25.513  25.179  1.00  0.00     0.098 C 
BRANCH   8   9
ATOM      9  N   UNL A   1      31.211  26.481  24.397  1.00  0.00    -0.331 N 
ATOM     10  C   UNL A   1      29.749  26.496  24.350  1.00  0.00     0.156 C 
ATOM     11  C   UNL A   1      31.768  27.486  23.618  1.00  0.00     0.254 C 
ATOM     12  C   UNL A   1      29.461  27.703  23.524  1.00  0.00    -0.016 A 
ATOM     13  C   UNL A   1      30.651  28.268  23.071  1.00  0.00     0.045 A 
ATOM     14  O   UNL A   1      32.947  27.702  23.402  1.00  0.00    -0.269 OA
ATOM     15  C   UNL A   1      28.242  28.264  23.187  1.00  0.00     0.006 A 
ATOM     16  C   UNL A   1      30.679  29.388  22.260  1.00  0.00     0.014 A 
ATOM     17  C   UNL A   1      28.244  29.404  22.377  1.00  0.00     0.000 A 
ATOM     18  C   UNL A   1      29.452  29.958  21.912  1.00  0.00     0.001 A 
ENDBRANCH   8   9
BRANCH   8  19
ATOM     19  C   UNL A   1      32.825  24.557  24.237  1.00  0.00     0.012 C 
ATOM     20  C   UNL A   1      34.349  24.591  24.456  1.00  0.00     0.006 C 
ATOM     21  C   UNL A   1      32.295  23.110  24.290  1.00  0.00     0.006 C 
ATOM     22  C   UNL A   1      35.113  23.593  23.587  1.00  0.00     0.000 C 
ATOM     23  C   UNL A   1      33.073  22.164  23.378  1.00  0.00     0.000 C 
ATOM     24  C   UNL A   1      34.558  22.184  23.714  1.00  0.00     0.000 C 
ENDBRANCH   8  19
ENDBRANCH   7   8
ENDBRANCH   5   7
ENDBRANCH   2   3
ENDBRANCH   1   2
BRANCH   1  25
ATOM     25  C   UNL A   1      31.399  32.209  26.543  1.00  0.00     0.023 C 
BRANCH  25  26
ATOM     26  C   UNL A   1      32.547  32.838  27.325  1.00  0.00     0.116 C 
BRANCH  26  27
ATOM     27  N   UNL A   1      32.316  34.236  27.645  1.00  0.00    -0.352 N 
ATOM     28  C   UNL A   1      32.947  35.039  28.565  1.00  0.00     0.251 C 
ATOM     29  H   UNL A   1      31.601  34.673  27.127  1.00  0.00     0.163 HD
ATOM     30  O   UNL A   1      32.515  36.165  28.797  1.00  0.00    -0.269 OA
BRANCH  28  31
ATOM     31  C   UNL A   1      34.126  34.540  29.307  1.00  0.00     0.039 A 
ATOM     32  C   UNL A   1      33.936  33.970  30.569  1.00  0.00     0.014 A 
ATOM     33  C   UNL A   1      35.413  34.629  28.769  1.00  0.00     0.014 A 
ATOM     34  C   UNL A   1      35.023  33.425  31.257  1.00  0.00     0.010 A 
ATOM     35  C   UNL A   1      36.482  34.012  29.418  1.00  0.00     0.010 A 
ATOM     36  C   UNL A   1      36.298  33.402  30.669  1.00  0.00    -0.014 A 
BRANCH  36  37
ATOM     37  C   UNL A   1      37.445  32.734  31.341  1.00  0.00     0.031 A 
ATOM     38  C   UNL A   1      38.143  31.575  30.684  1.00  0.00     0.074 A 
ATOM     39  C   UNL A   1      37.818  33.130  32.574  1.00  0.00     0.049 A 
ATOM     40  N   UNL A   1      39.117  30.827  31.140  1.00  0.00    -0.248 NA
ATOM     41  C   UNL A   1      37.666  31.188  29.347  1.00  0.00     0.031 C 
ATOM     42  C   UNL A   1      37.195  34.210  33.339  1.00  0.00     0.029 A 
ATOM     43  N   UNL A   1      38.807  32.663  33.405  1.00  0.00    -0.354 N 
ATOM     44  C   UNL A   1      39.362  29.881  30.152  1.00  0.00     0.074 A 
ATOM     45  C   UNL A   1      38.395  30.111  29.101  1.00  0.00     0.031 C 
ATOM     46  C   UNL A   1      37.827  34.339  34.515  1.00  0.00     0.029 A 
ATOM     47  C   UNL A   1      38.870  33.322  34.609  1.00  0.00     0.049 A 
ATOM     48  H   UNL A   1      39.413  31.926  33.161  1.00  0.00     0.167 HD
ATOM     49  C   UNL A   1      40.322  28.926  30.114  1.00  0.00     0.037 A 
ATOM     50  C   UNL A   1      39.670  33.121  35.675  1.00  0.00     0.037 A 
ATOM     51  C   UNL A   1      41.288  28.704  31.160  1.00  0.00     0.049 A 
ATOM     52  C   UNL A   1      40.708  32.032  35.621  1.00  0.00     0.074 A 
ATOM     53  C   UNL A   1      42.329  27.794  31.194  1.00  0.00     0.029 A 
ATOM     54  N   UNL A   1      41.323  29.396  32.363  1.00  0.00    -0.354 N 
ATOM     55  N   UNL A   1      40.977  31.191  34.653  1.00  0.00    -0.248 NA
ATOM     56  C   UNL A   1      41.560  31.871  36.808  1.00  0.00     0.031 C 
ATOM     57  C   UNL A   1      42.956  27.892  32.441  1.00  0.00     0.029 A 
ATOM     58  C   UNL A   1      42.351  28.911  33.157  1.00  0.00     0.049 A 
ATOM     59  H   UNL A   1      40.709  30.124  32.614  1.00  0.00     0.167 HD
ATOM     60  C   UNL A   1      42.045  30.424  35.099  1.00  0.00     0.074 A 
ATOM     61  C   UNL A   1      42.386  30.911  36.418  1.00  0.00     0.031 C 
ATOM     62  C   UNL A   1      42.685  29.407  34.469  1.00  0.00     0.037 A 
BRANCH  49  63
ATOM     63  C   UNL A   1      40.371  28.039  28.901  1.00  0.00     0.064 A 
ATOM     64  C   UNL A   1      41.122  28.382  27.766  1.00  0.00     0.173 A 
ATOM     65  C   UNL A   1      39.686  26.813  28.884  1.00  0.00     0.173 A 
ATOM     66  F   UNL A   1      41.790  29.545  27.725  1.00  0.00    -0.203 F 
ATOM     67  C   UNL A   1      41.155  27.552  26.648  1.00  0.00     0.198 A 
ATOM     68  C   UNL A   1      39.752  25.969  27.779  1.00  0.00     0.198 A 
ATOM     69  F   UNL A   1      38.961  26.428  29.945  1.00  0.00    -0.203 F 
ATOM     70  F   UNL A   1      41.832  27.931  25.554  1.00  0.00    -0.200 F 
ATOM     71  C   UNL A   1      40.476  26.343  26.659  1.00  0.00     0.200 A 
ATOM     72  F   UNL A   1      39.110  24.793  27.798  1.00  0.00    -0.200 F 
ATOM     73  F   UNL A   1      40.516  25.542  25.585  1.00  0.00    -0.200 F 
ENDBRANCH  49  63
BRANCH  50  74
ATOM     74  C   UNL A   1      39.527  33.980  36.881  1.00  0.00     0.064 A 
ATOM     75  C   UNL A   1      40.173  35.222  36.964  1.00  0.00     0.173 A 
ATOM     76  C   UNL A   1      38.751  33.576  37.978  1.00  0.00     0.173 A 
ATOM     77  F   UNL A   1      40.943  35.645  35.951  1.00  0.00    -0.203 F 
ATOM     78  C   UNL A   1      40.066  36.016  38.105  1.00  0.00     0.198 A 
ATOM     79  C   UNL A   1      38.618  34.384  39.104  1.00  0.00     0.198 A 
ATOM     80  F   UNL A   1      38.110  32.398  37.949  1.00  0.00    -0.203 F 
ATOM     81  F   UNL A   1      40.736  37.173  38.177  1.00  0.00    -0.200 F 
ATOM     82  C   UNL A   1      39.284  35.598  39.171  1.00  0.00     0.200 A 
ATOM     83  F   UNL A   1      37.848  33.985  40.126  1.00  0.00    -0.200 F 
ATOM     84  F   UNL A   1      39.177  36.364  40.267  1.00  0.00    -0.200 F 
ENDBRANCH  50  74
BRANCH  62  85
ATOM     85  C   UNL A   1      43.849  28.776  35.181  1.00  0.00     0.064 A 
ATOM     86  C   UNL A   1      43.690  27.665  36.022  1.00  0.00     0.173 A 
ATOM     87  C   UNL A   1      45.149  29.270  34.988  1.00  0.00     0.173 A 
ATOM     88  F   UNL A   1      42.468  27.162  36.254  1.00  0.00    -0.203 F 
ATOM     89  C   UNL A   1      44.784  27.090  36.666  1.00  0.00     0.198 A 
ATOM     90  C   UNL A   1      46.244  28.670  35.603  1.00  0.00     0.198 A 
ATOM     91  F   UNL A   1      45.360  30.326  34.188  1.00  0.00    -0.203 F 
ATOM     92  F   UNL A   1      44.599  26.064  37.508  1.00  0.00    -0.200 F 
ATOM     93  C   UNL A   1      46.060  27.587  36.450  1.00  0.00     0.200 A 
ATOM     94  F   UNL A   1      47.478  29.141  35.379  1.00  0.00    -0.200 F 
ATOM     95  F   UNL A   1      47.112  27.028  37.061  1.00  0.00    -0.200 F 
ENDBRANCH  62  85
ENDBRANCH  36  37
ENDBRANCH  28  31
ENDBRANCH  26  27
ENDBRANCH  25  26
ENDBRANCH   1  25
TORSDOF 14
ENDMDL
MODEL 3
REMARK VINA RESULT:     -12.9      0.491      7.245
REMARK SMILES O=C(C[C@H](C1CCCCC1)N1Cc2ccccc2C1=O)NCCCCNC(=O)c1ccc(-c2c3nc(c(-c4c(F)c(F)c(F)c(F)c4F)c4ccc([nH]4)c(-c4c(F)c(F)c(F)c(F)c4F)c4nc(c(-c5c(F)c(F)c(F)c(F)c5F)c5ccc2[nH]5)C=C4)C=C3)cc1
REMARK SMILES IDX 23 1 22 2 21 3 1 4 2 5 3 7 4 8 11 9 12 10 19 11 13 12 18 13
REMARK SMILES IDX 20 14 14 15 17 16 15 17 16 18 5 19 6 20 10 21 7 22 9 23 8 24
REMARK SMILES IDX 24 25 25 26 26 27 27 28 28 30 29 31 30 32 91 33 31 34 90 35
REMARK SMILES IDX 32 36 33 37 34 38 84 39 35 40 89 41 83 42 85 43 36 44 88 45
REMARK SMILES IDX 82 46 81 47 37 49 69 50 49 51 68 52 50 53 53 54 67 55 86 56
REMARK SMILES IDX 51 57 52 58 66 60 87 61 54 62 38 63 39 64 47 65 40 66 41 67
REMARK SMILES IDX 45 68 48 69 42 70 43 71 46 72 44 73 70 74 71 75 79 76 72 77
REMARK SMILES IDX 73 78 77 79 80 80 74 81 75 82 78 83 76 84 55 85 56 86 64 87
REMARK SMILES IDX 57 88 58 89 62 90 65 91 59 92 60 93 63 94 61 95
REMARK H PARENT 21 6 26 29 85 48 53 59
REMARK Flexibility Score: inf
ROOT
ATOM      1  C   UNL A   1      31.525  30.858  26.249  1.00  0.00     0.023 C 
ENDROOT
BRANCH   1   2
ATOM      2  C   UNL A   1      32.524  30.037  27.067  1.00  0.00     0.116 C 
BRANCH   2   3
ATOM      3  N   UNL A   1      32.818  28.765  26.434  1.00  0.00    -0.356 N 
ATOM      4  O   UNL A   1      31.233  27.561  27.578  1.00  0.00    -0.275 OA
ATOM      5  C   UNL A   1      32.153  27.606  26.767  1.00  0.00     0.222 C 
ATOM      6  H   UNL A   1      33.517  28.729  25.742  1.00  0.00     0.163 HD
BRANCH   5   7
ATOM      7  C   UNL A   1      32.715  26.349  26.135  1.00  0.00     0.125 C 
BRANCH   7   8
ATOM      8  C   UNL A   1      31.778  25.620  25.158  1.00  0.00     0.098 C 
BRANCH   8   9
ATOM      9  N   UNL A   1      31.017  26.594  24.348  1.00  0.00    -0.331 N 
ATOM     10  C   UNL A   1      29.557  26.662  24.298  1.00  0.00     0.156 C 
ATOM     11  C   UNL A   1      31.611  27.555  23.541  1.00  0.00     0.254 C 
ATOM     12  C   UNL A   1      29.313  27.855  23.438  1.00  0.00    -0.016 A 
ATOM     13  C   UNL A   1      30.523  28.362  22.970  1.00  0.00     0.045 A 
ATOM     14  O   UNL A   1      32.797  27.721  23.320  1.00  0.00    -0.269 OA
ATOM     15  C   UNL A   1      28.116  28.451  23.083  1.00  0.00     0.006 A 
ATOM     16  C   UNL A   1      30.593  29.457  22.128  1.00  0.00     0.014 A 
ATOM     17  C   UNL A   1      28.160  29.567  22.241  1.00  0.00     0.000 A 
ATOM     18  C   UNL A   1      29.388  30.062  21.763  1.00  0.00     0.001 A 
ENDBRANCH   8   9
BRANCH   8  19
ATOM     19  C   UNL A   1      32.428  24.514  24.253  1.00  0.00     0.012 C 
ATOM     20  C   UNL A   1      33.944  24.330  24.458  1.00  0.00     0.006 C 
ATOM     21  C   UNL A   1      31.691  23.166  24.375  1.00  0.00     0.006 C 
ATOM     22  C   UNL A   1      34.539  23.192  23.628  1.00  0.00     0.000 C 
ATOM     23  C   UNL A   1      32.306  22.076  23.500  1.00  0.00     0.000 C 
ATOM     24  C   UNL A   1      33.782  21.888  23.822  1.00  0.00     0.000 C 
ENDBRANCH   8  19
ENDBRANCH   7   8
ENDBRANCH   5   7
ENDBRANCH   2   3
ENDBRANCH   1   2
BRANCH   1  25
ATOM     25  C   UNL A   1      31.377  32.317  26.690  1.00  0.00     0.023 C 
BRANCH  25  26
ATOM     26  C   UNL A   1      32.649  32.971  27.221  1.00  0.00     0.116 C 
BRANCH  26  27
ATOM     27  N   UNL A   1      32.432  34.326  27.699  1.00  0.00    -0.352 N 
ATOM     28  C   UNL A   1      33.062  35.008  28.713  1.00  0.00     0.251 C 
ATOM     29  H   UNL A   1      31.731  34.832  27.226  1.00  0.00     0.163 HD
ATOM     30  O   UNL A   1      32.643  36.105  29.068  1.00  0.00    -0.269 OA
BRANCH  28  31
ATOM     31  C   UNL A   1      34.225  34.408  29.406  1.00  0.00     0.039 A 
ATOM     32  C   UNL A   1      34.002  33.631  30.546  1.00  0.00     0.014 A 
ATOM     33  C   UNL A   1      35.528  34.605  28.941  1.00  0.00     0.014 A 
ATOM     34  C   UNL A   1      35.074  32.994  31.173  1.00  0.00     0.010 A 
ATOM     35  C   UNL A   1      36.585  33.904  29.518  1.00  0.00     0.010 A 
ATOM     36  C   UNL A   1      36.370  33.089  30.640  1.00  0.00    -0.014 A 
BRANCH  36  37
ATOM     37  C   UNL A   1      37.505  32.334  31.235  1.00  0.00     0.031 A 
ATOM     38  C   UNL A   1      38.028  32.693  32.598  1.00  0.00     0.074 A 
ATOM     39  C   UNL A   1      38.108  31.363  30.520  1.00  0.00     0.049 A 
ATOM     40  N   UNL A   1      39.046  32.193  33.254  1.00  0.00    -0.248 NA
ATOM     41  C   UNL A   1      37.331  33.776  33.309  1.00  0.00     0.031 C 
ATOM     42  C   UNL A   1      37.727  30.948  29.170  1.00  0.00     0.029 A 
ATOM     43  N   UNL A   1      39.175  30.554  30.826  1.00  0.00    -0.354 N 
ATOM     44  C   UNL A   1      39.114  32.904  34.446  1.00  0.00     0.074 A 
ATOM     45  C   UNL A   1      38.075  33.910  34.396  1.00  0.00     0.031 C 
ATOM     46  C   UNL A   1      38.531  29.950  28.772  1.00  0.00     0.029 A 
ATOM     47  C   UNL A   1      39.514  29.684  29.818  1.00  0.00     0.049 A 
ATOM     48  H   UNL A   1      39.653  30.595  31.686  1.00  0.00     0.167 HD
ATOM     49  C   UNL A   1      39.950  32.718  35.496  1.00  0.00     0.037 A 
ATOM     50  C   UNL A   1      40.512  28.783  29.739  1.00  0.00     0.037 A 
ATOM     51  C   UNL A   1      40.979  31.712  35.546  1.00  0.00     0.049 A 
ATOM     52  C   UNL A   1      41.447  28.617  30.907  1.00  0.00     0.074 A 
ATOM     53  C   UNL A   1      41.844  31.413  36.583  1.00  0.00     0.029 A 
ATOM     54  N   UNL A   1      41.288  30.845  34.506  1.00  0.00    -0.354 N 
ATOM     55  N   UNL A   1      41.457  29.246  32.057  1.00  0.00    -0.248 NA
ATOM     56  C   UNL A   1      42.507  27.608  30.768  1.00  0.00     0.031 C 
ATOM     57  C   UNL A   1      42.716  30.408  36.150  1.00  0.00     0.029 A 
ATOM     58  C   UNL A   1      42.350  30.032  34.869  1.00  0.00     0.049 A 
ATOM     59  H   UNL A   1      40.821  30.813  33.640  1.00  0.00     0.167 HD
ATOM     60  C   UNL A   1      42.499  28.690  32.788  1.00  0.00     0.074 A 
ATOM     61  C   UNL A   1      43.087  27.661  31.958  1.00  0.00     0.031 C 
ATOM     62  C   UNL A   1      42.927  29.006  34.035  1.00  0.00     0.037 A 
BRANCH  49  63
ATOM     63  C   UNL A   1      39.790  33.631  36.680  1.00  0.00     0.064 A 
ATOM     64  C   UNL A   1      40.501  34.837  36.783  1.00  0.00     0.173 A 
ATOM     65  C   UNL A   1      38.889  33.315  37.709  1.00  0.00     0.173 A 
ATOM     66  F   UNL A   1      41.381  35.186  35.833  1.00  0.00    -0.203 F 
ATOM     67  C   UNL A   1      40.345  35.671  37.888  1.00  0.00     0.198 A 
ATOM     68  C   UNL A   1      38.708  34.169  38.794  1.00  0.00     0.198 A 
ATOM     69  F   UNL A   1      38.174  32.181  37.658  1.00  0.00    -0.203 F 
ATOM     70  F   UNL A   1      41.079  36.788  37.992  1.00  0.00    -0.200 F 
ATOM     71  C   UNL A   1      39.443  35.340  38.888  1.00  0.00     0.200 A 
ATOM     72  F   UNL A   1      37.823  33.857  39.750  1.00  0.00    -0.200 F 
ATOM     73  F   UNL A   1      39.288  36.148  39.947  1.00  0.00    -0.200 F 
ENDBRANCH  49  63
BRANCH  50  74
ATOM     74  C   UNL A   1      40.671  27.957  28.511  1.00  0.00     0.064 A 
ATOM     75  C   UNL A   1      40.050  26.705  28.398  1.00  0.00     0.173 A 
ATOM     76  C   UNL A   1      41.451  28.398  27.432  1.00  0.00     0.173 A 
ATOM     77  F   UNL A   1      39.311  26.230  29.411  1.00  0.00    -0.203 F 
ATOM     78  C   UNL A   1      40.221  25.916  27.262  1.00  0.00     0.198 A 
ATOM     79  C   UNL A   1      41.594  27.623  26.283  1.00  0.00     0.198 A 
ATOM     80  F   UNL A   1      42.063  29.590  27.487  1.00  0.00    -0.203 F 
ATOM     81  F   UNL A   1      39.659  24.702  27.202  1.00  0.00    -0.200 F 
ATOM     82  C   UNL A   1      40.988  26.379  26.203  1.00  0.00     0.200 A 
ATOM     83  F   UNL A   1      42.323  28.081  25.256  1.00  0.00    -0.200 F 
ATOM     84  F   UNL A   1      41.149  25.622  25.108  1.00  0.00    -0.200 F 
ENDBRANCH  50  74
BRANCH  62  85
ATOM     85  C   UNL A   1      44.065  28.201  34.601  1.00  0.00     0.064 A 
ATOM     86  C   UNL A   1      43.852  26.998  35.288  1.00  0.00     0.173 A 
ATOM     87  C   UNL A   1      45.391  28.626  34.418  1.00  0.00     0.173 A 
ATOM     88  F   UNL A   1      42.605  26.553  35.504  1.00  0.00    -0.203 F 
ATOM     89  C   UNL A   1      44.922  26.264  35.797  1.00  0.00     0.198 A 
ATOM     90  C   UNL A   1      46.458  27.871  34.894  1.00  0.00     0.198 A 
ATOM     91  F   UNL A   1      45.651  29.766  33.761  1.00  0.00    -0.203 F 
ATOM     92  F   UNL A   1      44.691  25.145  36.497  1.00  0.00    -0.200 F 
ATOM     93  C   UNL A   1      46.223  26.696  35.592  1.00  0.00     0.200 A 
ATOM     94  F   UNL A   1      47.716  28.283  34.680  1.00  0.00    -0.200 F 
ATOM     95  F   UNL A   1      47.252  25.985  36.073  1.00  0.00    -0.200 F 
ENDBRANCH  62  85
ENDBRANCH  36  37
ENDBRANCH  28  31
ENDBRANCH  26  27
ENDBRANCH  25  26
ENDBRANCH   1  25
TORSDOF 14
ENDMDL
