MODEL 1
REMARK VINA RESULT:     -12.8      0.000      0.000
REMARK SMILES O=C(C[C@H]1C(=O)NCC[N@H+]1[C@H]1CCO[C@@]2(CCSC2)C1)NCCCCNC(=O)c1ccc(-c2c3nc(c(-c4c(F)c(F)c(F)c(F)c4F)c4ccc([nH]4)c(-c4c(F)c(F)c(F)c(F)c4F)c4nc(c(-c5c(F)c(F)c(F)c(F)c5F)c5ccc2[nH]5)C=C4)C=C3)cc1
REMARK SMILES IDX 23 1 22 2 21 3 1 4 2 5 3 7 4 8 5 9 10 10 6 11 7 12 9 13 8 15
REMARK SMILES IDX 11 17 12 18 20 19 13 20 15 21 14 22 16 23 19 24 17 25 18 26
REMARK SMILES IDX 24 27 25 28 26 29 27 30 28 32 29 33 30 34 91 35 31 36 90 37
REMARK SMILES IDX 32 38 33 39 34 40 84 41 35 42 89 43 83 44 85 45 36 46 88 47
REMARK SMILES IDX 82 48 81 49 37 51 69 52 49 53 68 54 50 55 53 56 67 57 86 58
REMARK SMILES IDX 51 59 52 60 66 62 87 63 54 64 38 65 39 66 47 67 40 68 41 69
REMARK SMILES IDX 45 70 48 71 42 72 43 73 46 74 44 75 70 76 71 77 79 78 72 79
REMARK SMILES IDX 73 80 77 81 80 82 74 83 75 84 78 85 76 86 55 87 56 88 64 89
REMARK SMILES IDX 57 90 58 91 62 92 65 93 59 94 60 95 63 96 61 97
REMARK H PARENT 21 6 10 14 7 16 26 31 85 50 53 61
REMARK Flexibility Score: inf
ROOT
ATOM      1  C   UNL A   1      31.596  30.831  25.931  1.00  0.00     0.023 C 
ENDROOT
BRANCH   1   2
ATOM      2  C   UNL A   1      31.888  29.684  26.899  1.00  0.00     0.116 C 
BRANCH   2   3
ATOM      3  N   UNL A   1      32.184  28.470  26.173  1.00  0.00    -0.356 N 
ATOM      4  O   UNL A   1      34.472  28.573  26.386  1.00  0.00    -0.275 OA
ATOM      5  C   UNL A   1      33.467  28.037  25.934  1.00  0.00     0.226 C 
ATOM      6  H   UNL A   1      31.433  27.930  25.834  1.00  0.00     0.163 HD
BRANCH   5   7
ATOM      7  C   UNL A   1      33.533  26.938  24.899  1.00  0.00     0.175 C 
BRANCH   7   8
ATOM      8  C   UNL A   1      32.297  26.660  24.035  1.00  0.00     0.283 C 
ATOM      9  C   UNL A   1      32.179  27.633  22.836  1.00  0.00     0.279 C 
ATOM     10  N   UNL A   1      32.160  25.236  23.585  1.00  0.00    -0.320 N 
ATOM     11  O   UNL A   1      31.788  28.792  22.954  1.00  0.00    -0.268 OA
ATOM     12  N   UNL A   1      32.660  27.215  21.620  1.00  0.00    -0.345 N 
ATOM     13  C   UNL A   1      33.080  24.919  22.485  1.00  0.00     0.284 C 
ATOM     14  H   UNL A   1      31.204  25.218  23.230  1.00  0.00     0.349 HD
ATOM     15  C   UNL A   1      32.773  25.815  21.279  1.00  0.00     0.177 C 
ATOM     16  H   UNL A   1      32.935  27.891  20.960  1.00  0.00     0.163 HD
BRANCH  10  17
ATOM     17  C   UNL A   1      32.049  24.168  24.603  1.00  0.00     0.189 C 
ATOM     18  C   UNL A   1      30.633  23.764  25.048  1.00  0.00     0.093 C 
ATOM     19  C   UNL A   1      32.867  22.923  24.219  1.00  0.00     0.101 C 
ATOM     20  C   UNL A   1      30.680  22.643  26.075  1.00  0.00     0.167 C 
ATOM     21  C   UNL A   1      32.782  21.801  25.276  1.00  0.00     0.084 C 
ATOM     22  O   UNL A   1      31.402  21.525  25.563  1.00  0.00    -0.374 OA
ATOM     23  C   UNL A   1      33.388  20.499  24.724  1.00  0.00     0.047 C 
ATOM     24  C   UNL A   1      33.570  22.075  26.570  1.00  0.00     0.105 C 
ATOM     25  C   UNL A   1      34.901  20.629  24.750  1.00  0.00     0.072 C 
ATOM     26  S   UNL A   1      35.267  21.487  26.301  1.00  0.00    -0.159 SA
ENDBRANCH  10  17
ENDBRANCH   7   8
ENDBRANCH   5   7
ENDBRANCH   2   3
ENDBRANCH   1   2
BRANCH   1  27
ATOM     27  C   UNL A   1      31.351  32.191  26.595  1.00  0.00     0.023 C 
BRANCH  27  28
ATOM     28  C   UNL A   1      32.568  32.814  27.272  1.00  0.00     0.116 C 
BRANCH  28  29
ATOM     29  N   UNL A   1      32.352  34.204  27.637  1.00  0.00    -0.352 N 
ATOM     30  C   UNL A   1      32.983  34.970  28.581  1.00  0.00     0.251 C 
ATOM     31  H   UNL A   1      31.647  34.664  27.128  1.00  0.00     0.163 HD
ATOM     32  O   UNL A   1      32.550  36.091  28.850  1.00  0.00    -0.269 OA
BRANCH  30  33
ATOM     33  C   UNL A   1      34.163  34.451  29.304  1.00  0.00     0.039 A 
ATOM     34  C   UNL A   1      33.968  33.809  30.531  1.00  0.00     0.014 A 
ATOM     35  C   UNL A   1      35.454  34.604  28.792  1.00  0.00     0.014 A 
ATOM     36  C   UNL A   1      35.058  33.264  31.211  1.00  0.00     0.010 A 
ATOM     37  C   UNL A   1      36.532  33.997  29.435  1.00  0.00     0.010 A 
ATOM     38  C   UNL A   1      36.344  33.320  30.650  1.00  0.00    -0.014 A 
BRANCH  38  39
ATOM     39  C   UNL A   1      37.501  32.670  31.318  1.00  0.00     0.031 A 
ATOM     40  C   UNL A   1      38.227  31.537  30.647  1.00  0.00     0.074 A 
ATOM     41  C   UNL A   1      37.860  33.059  32.556  1.00  0.00     0.049 A 
ATOM     42  N   UNL A   1      39.206  30.796  31.101  1.00  0.00    -0.248 NA
ATOM     43  C   UNL A   1      37.771  31.167  29.298  1.00  0.00     0.031 C 
ATOM     44  C   UNL A   1      37.210  34.117  33.332  1.00  0.00     0.029 A 
ATOM     45  N   UNL A   1      38.853  32.602  33.387  1.00  0.00    -0.354 N 
ATOM     46  C   UNL A   1      39.477  29.873  30.100  1.00  0.00     0.074 A 
ATOM     47  C   UNL A   1      38.522  30.107  29.039  1.00  0.00     0.031 C 
ATOM     48  C   UNL A   1      37.831  34.241  34.515  1.00  0.00     0.029 A 
ATOM     49  C   UNL A   1      38.897  33.247  34.600  1.00  0.00     0.049 A 
ATOM     50  H   UNL A   1      39.475  31.881  33.138  1.00  0.00     0.167 HD
ATOM     51  C   UNL A   1      40.449  28.930  30.061  1.00  0.00     0.037 A 
ATOM     52  C   UNL A   1      39.699  33.052  35.664  1.00  0.00     0.037 A 
ATOM     53  C   UNL A   1      41.413  28.712  31.109  1.00  0.00     0.049 A 
ATOM     54  C   UNL A   1      40.764  31.992  35.598  1.00  0.00     0.074 A 
ATOM     55  C   UNL A   1      42.468  27.817  31.139  1.00  0.00     0.029 A 
ATOM     56  N   UNL A   1      41.436  29.397  32.314  1.00  0.00    -0.354 N 
ATOM     57  N   UNL A   1      41.049  31.165  34.622  1.00  0.00    -0.248 NA
ATOM     58  C   UNL A   1      41.624  31.841  36.781  1.00  0.00     0.031 C 
ATOM     59  C   UNL A   1      43.101  27.927  32.381  1.00  0.00     0.029 A 
ATOM     60  C   UNL A   1      42.474  28.929  33.105  1.00  0.00     0.049 A 
ATOM     61  H   UNL A   1      40.808  30.111  32.571  1.00  0.00     0.167 HD
ATOM     62  C   UNL A   1      42.135  30.418  35.059  1.00  0.00     0.074 A 
ATOM     63  C   UNL A   1      42.467  30.900  36.383  1.00  0.00     0.031 C 
ATOM     64  C   UNL A   1      42.798  29.422  34.420  1.00  0.00     0.037 A 
BRANCH  51  65
ATOM     65  C   UNL A   1      40.522  28.060  28.838  1.00  0.00     0.064 A 
ATOM     66  C   UNL A   1      39.816  26.849  28.754  1.00  0.00     0.173 A 
ATOM     67  C   UNL A   1      41.275  28.457  27.723  1.00  0.00     0.173 A 
ATOM     68  F   UNL A   1      39.089  26.418  29.796  1.00  0.00    -0.203 F 
ATOM     69  C   UNL A   1      39.888  26.055  27.612  1.00  0.00     0.198 A 
ATOM     70  C   UNL A   1      41.318  27.676  26.571  1.00  0.00     0.198 A 
ATOM     71  F   UNL A   1      41.963  29.609  27.747  1.00  0.00    -0.203 F 
ATOM     72  F   UNL A   1      39.247  24.878  27.576  1.00  0.00    -0.200 F 
ATOM     73  C   UNL A   1      40.633  26.472  26.520  1.00  0.00     0.200 A 
ATOM     74  F   UNL A   1      42.027  28.087  25.510  1.00  0.00    -0.200 F 
ATOM     75  F   UNL A   1      40.694  25.709  25.419  1.00  0.00    -0.200 F 
ENDBRANCH  51  65
BRANCH  52  76
ATOM     76  C   UNL A   1      39.536  33.893  36.878  1.00  0.00     0.064 A 
ATOM     77  C   UNL A   1      38.778  33.446  37.969  1.00  0.00     0.173 A 
ATOM     78  C   UNL A   1      40.130  35.160  36.972  1.00  0.00     0.173 A 
ATOM     79  F   UNL A   1      38.174  32.249  37.918  1.00  0.00    -0.203 F 
ATOM     80  C   UNL A   1      38.603  34.241  39.099  1.00  0.00     0.198 A 
ATOM     81  C   UNL A   1      39.978  35.943  38.115  1.00  0.00     0.198 A 
ATOM     82  F   UNL A   1      40.871  35.632  35.959  1.00  0.00    -0.203 F 
ATOM     83  F   UNL A   1      37.834  33.809  40.108  1.00  0.00    -0.200 F 
ATOM     84  C   UNL A   1      39.207  35.487  39.173  1.00  0.00     0.200 A 
ATOM     85  F   UNL A   1      40.578  37.138  38.189  1.00  0.00    -0.200 F 
ATOM     86  F   UNL A   1      39.042  36.251  40.262  1.00  0.00    -0.200 F 
ENDBRANCH  52  76
BRANCH  64  87
ATOM     87  C   UNL A   1      43.970  28.809  35.128  1.00  0.00     0.064 A 
ATOM     88  C   UNL A   1      45.271  29.313  34.974  1.00  0.00     0.173 A 
ATOM     89  C   UNL A   1      43.785  27.728  36.003  1.00  0.00     0.173 A 
ATOM     90  F   UNL A   1      45.504  30.336  34.136  1.00  0.00    -0.203 F 
ATOM     91  C   UNL A   1      46.345  28.740  35.650  1.00  0.00     0.198 A 
ATOM     92  C   UNL A   1      44.856  27.178  36.700  1.00  0.00     0.198 A 
ATOM     93  F   UNL A   1      42.561  27.212  36.191  1.00  0.00    -0.203 F 
ATOM     94  F   UNL A   1      47.586  29.206  35.449  1.00  0.00    -0.200 F 
ATOM     95  C   UNL A   1      46.137  27.679  36.518  1.00  0.00     0.200 A 
ATOM     96  F   UNL A   1      44.650  26.162  37.549  1.00  0.00    -0.200 F 
ATOM     97  F   UNL A   1      47.170  27.134  37.173  1.00  0.00    -0.200 F 
ENDBRANCH  64  87
ENDBRANCH  38  39
ENDBRANCH  30  33
ENDBRANCH  28  29
ENDBRANCH  27  28
ENDBRANCH   1  27
TORSDOF 13
ENDMDL
MODEL 2
REMARK VINA RESULT:     -12.6      0.477      7.327
REMARK SMILES O=C(C[C@H]1C(=O)NCC[N@H+]1[C@H]1CCO[C@@]2(CCSC2)C1)NCCCCNC(=O)c1ccc(-c2c3nc(c(-c4c(F)c(F)c(F)c(F)c4F)c4ccc([nH]4)c(-c4c(F)c(F)c(F)c(F)c4F)c4nc(c(-c5c(F)c(F)c(F)c(F)c5F)c5ccc2[nH]5)C=C4)C=C3)cc1
REMARK SMILES IDX 23 1 22 2 21 3 1 4 2 5 3 7 4 8 5 9 10 10 6 11 7 12 9 13 8 15
REMARK SMILES IDX 11 17 12 18 20 19 13 20 15 21 14 22 16 23 19 24 17 25 18 26
REMARK SMILES IDX 24 27 25 28 26 29 27 30 28 32 29 33 30 34 91 35 31 36 90 37
REMARK SMILES IDX 32 38 33 39 34 40 84 41 35 42 89 43 83 44 85 45 36 46 88 47
REMARK SMILES IDX 82 48 81 49 37 51 69 52 49 53 68 54 50 55 53 56 67 57 86 58
REMARK SMILES IDX 51 59 52 60 66 62 87 63 54 64 38 65 39 66 47 67 40 68 41 69
REMARK SMILES IDX 45 70 48 71 42 72 43 73 46 74 44 75 70 76 71 77 79 78 72 79
REMARK SMILES IDX 73 80 77 81 80 82 74 83 75 84 78 85 76 86 55 87 56 88 64 89
REMARK SMILES IDX 57 90 58 91 62 92 65 93 59 94 60 95 63 96 61 97
REMARK H PARENT 21 6 10 14 7 16 26 31 85 50 53 61
REMARK Flexibility Score: inf
ROOT
ATOM      1  C   UNL A   1      31.396  30.931  25.962  1.00  0.00     0.023 C 
ENDROOT
BRANCH   1   2
ATOM      2  C   UNL A   1      31.912  29.893  26.959  1.00  0.00     0.116 C 
BRANCH   2   3
ATOM      3  N   UNL A   1      32.235  28.657  26.284  1.00  0.00    -0.356 N 
ATOM      4  O   UNL A   1      34.518  28.939  26.269  1.00  0.00    -0.275 OA
ATOM      5  C   UNL A   1      33.521  28.301  25.950  1.00  0.00     0.226 C 
ATOM      6  H   UNL A   1      31.501  28.041  26.053  1.00  0.00     0.163 HD
BRANCH   5   7
ATOM      7  C   UNL A   1      33.577  27.142  24.983  1.00  0.00     0.175 C 
BRANCH   7   8
ATOM      8  C   UNL A   1      32.360  26.859  24.094  1.00  0.00     0.283 C 
ATOM      9  C   UNL A   1      32.283  27.810  22.874  1.00  0.00     0.279 C 
ATOM     10  N   UNL A   1      32.220  25.428  23.669  1.00  0.00    -0.320 N 
ATOM     11  O   UNL A   1      31.901  28.975  22.960  1.00  0.00    -0.268 OA
ATOM     12  N   UNL A   1      32.789  27.363  21.679  1.00  0.00    -0.345 N 
ATOM     13  C   UNL A   1      33.164  25.080  22.599  1.00  0.00     0.284 C 
ATOM     14  H   UNL A   1      31.273  25.413  23.291  1.00  0.00     0.349 HD
ATOM     15  C   UNL A   1      32.896  25.956  21.368  1.00  0.00     0.177 C 
ATOM     16  H   UNL A   1      33.088  28.023  21.013  1.00  0.00     0.163 HD
BRANCH  10  17
ATOM     17  C   UNL A   1      32.073  24.381  24.704  1.00  0.00     0.189 C 
ATOM     18  C   UNL A   1      30.653  24.101  25.226  1.00  0.00     0.093 C 
ATOM     19  C   UNL A   1      32.763  23.069  24.295  1.00  0.00     0.101 C 
ATOM     20  C   UNL A   1      30.659  22.989  26.262  1.00  0.00     0.167 C 
ATOM     21  C   UNL A   1      32.639  21.967  25.368  1.00  0.00     0.084 C 
ATOM     22  O   UNL A   1      31.258  21.810  25.728  1.00  0.00    -0.374 OA
ATOM     23  C   UNL A   1      33.105  20.613  24.802  1.00  0.00     0.047 C 
ATOM     24  C   UNL A   1      33.513  22.184  26.617  1.00  0.00     0.105 C 
ATOM     25  C   UNL A   1      34.623  20.616  24.750  1.00  0.00     0.072 C 
ATOM     26  S   UNL A   1      35.138  21.453  26.270  1.00  0.00    -0.159 SA
ENDBRANCH  10  17
ENDBRANCH   7   8
ENDBRANCH   5   7
ENDBRANCH   2   3
ENDBRANCH   1   2
BRANCH   1  27
ATOM     27  C   UNL A   1      31.272  32.355  26.516  1.00  0.00     0.023 C 
BRANCH  27  28
ATOM     28  C   UNL A   1      32.512  32.887  27.227  1.00  0.00     0.116 C 
BRANCH  28  29
ATOM     29  N   UNL A   1      32.350  34.258  27.680  1.00  0.00    -0.352 N 
ATOM     30  C   UNL A   1      33.020  34.942  28.660  1.00  0.00     0.251 C 
ATOM     31  H   UNL A   1      31.654  34.773  27.212  1.00  0.00     0.163 HD
ATOM     32  O   UNL A   1      32.630  36.058  29.004  1.00  0.00    -0.269 OA
BRANCH  30  33
ATOM     33  C   UNL A   1      34.191  34.340  29.330  1.00  0.00     0.039 A 
ATOM     34  C   UNL A   1      33.991  33.619  30.511  1.00  0.00     0.014 A 
ATOM     35  C   UNL A   1      35.482  34.492  28.814  1.00  0.00     0.014 A 
ATOM     36  C   UNL A   1      35.072  32.997  31.138  1.00  0.00     0.010 A 
ATOM     37  C   UNL A   1      36.548  33.811  29.399  1.00  0.00     0.010 A 
ATOM     38  C   UNL A   1      36.353  33.056  30.566  1.00  0.00    -0.014 A 
BRANCH  38  39
ATOM     39  C   UNL A   1      37.497  32.328  31.172  1.00  0.00     0.031 A 
ATOM     40  C   UNL A   1      38.006  32.708  32.534  1.00  0.00     0.074 A 
ATOM     41  C   UNL A   1      38.119  31.363  30.467  1.00  0.00     0.049 A 
ATOM     42  N   UNL A   1      39.036  32.242  33.194  1.00  0.00    -0.248 NA
ATOM     43  C   UNL A   1      37.276  33.775  33.237  1.00  0.00     0.031 C 
ATOM     44  C   UNL A   1      37.750  30.929  29.118  1.00  0.00     0.029 A 
ATOM     45  N   UNL A   1      39.201  30.579  30.782  1.00  0.00    -0.354 N 
ATOM     46  C   UNL A   1      39.082  32.962  34.380  1.00  0.00     0.074 A 
ATOM     47  C   UNL A   1      38.013  33.935  34.326  1.00  0.00     0.031 C 
ATOM     48  C   UNL A   1      38.577  29.947  28.729  1.00  0.00     0.029 A 
ATOM     49  C   UNL A   1      39.560  29.707  29.782  1.00  0.00     0.049 A 
ATOM     50  H   UNL A   1      39.675  30.636  31.643  1.00  0.00     0.167 HD
ATOM     51  C   UNL A   1      39.926  32.809  35.429  1.00  0.00     0.037 A 
ATOM     52  C   UNL A   1      40.572  28.821  29.717  1.00  0.00     0.037 A 
ATOM     53  C   UNL A   1      40.977  31.826  35.490  1.00  0.00     0.049 A 
ATOM     54  C   UNL A   1      41.501  28.678  30.892  1.00  0.00     0.074 A 
ATOM     55  C   UNL A   1      41.849  31.558  36.531  1.00  0.00     0.029 A 
ATOM     56  N   UNL A   1      41.297  30.949  34.465  1.00  0.00    -0.354 N 
ATOM     57  N   UNL A   1      41.497  29.322  32.033  1.00  0.00    -0.248 NA
ATOM     58  C   UNL A   1      42.572  27.679  30.772  1.00  0.00     0.031 C 
ATOM     59  C   UNL A   1      42.729  30.553  36.118  1.00  0.00     0.029 A 
ATOM     60  C   UNL A   1      42.370  30.154  34.840  1.00  0.00     0.049 A 
ATOM     61  H   UNL A   1      40.832  30.897  33.599  1.00  0.00     0.167 HD
ATOM     62  C   UNL A   1      42.542  28.790  32.776  1.00  0.00     0.074 A 
ATOM     63  C   UNL A   1      43.149  27.758  31.962  1.00  0.00     0.031 C 
ATOM     64  C   UNL A   1      42.960  29.126  34.022  1.00  0.00     0.037 A 
BRANCH  51  65
ATOM     65  C   UNL A   1      39.746  33.729  36.603  1.00  0.00     0.064 A 
ATOM     66  C   UNL A   1      40.387  34.977  36.666  1.00  0.00     0.173 A 
ATOM     67  C   UNL A   1      38.894  33.378  37.662  1.00  0.00     0.173 A 
ATOM     68  F   UNL A   1      41.219  35.357  35.685  1.00  0.00    -0.203 F 
ATOM     69  C   UNL A   1      40.206  35.822  37.758  1.00  0.00     0.198 A 
ATOM     70  C   UNL A   1      38.691  34.239  38.736  1.00  0.00     0.198 A 
ATOM     71  F   UNL A   1      38.251  32.200  37.650  1.00  0.00    -0.203 F 
ATOM     72  F   UNL A   1      40.870  36.985  37.818  1.00  0.00    -0.200 F 
ATOM     73  C   UNL A   1      39.354  35.456  38.788  1.00  0.00     0.200 A 
ATOM     74  F   UNL A   1      37.856  33.891  39.725  1.00  0.00    -0.200 F 
ATOM     75  F   UNL A   1      39.176  36.275  39.834  1.00  0.00    -0.200 F 
ENDBRANCH  51  65
BRANCH  52  76
ATOM     76  C   UNL A   1      40.749  27.986  28.501  1.00  0.00     0.064 A 
ATOM     77  C   UNL A   1      41.526  28.437  27.424  1.00  0.00     0.173 A 
ATOM     78  C   UNL A   1      40.144  26.726  28.387  1.00  0.00     0.173 A 
ATOM     79  F   UNL A   1      42.108  29.644  27.478  1.00  0.00    -0.203 F 
ATOM     80  C   UNL A   1      41.674  27.668  26.272  1.00  0.00     0.198 A 
ATOM     81  C   UNL A   1      40.318  25.945  27.245  1.00  0.00     0.198 A 
ATOM     82  F   UNL A   1      39.397  26.245  29.391  1.00  0.00    -0.203 F 
ATOM     83  F   UNL A   1      42.383  28.143  25.239  1.00  0.00    -0.200 F 
ATOM     84  C   UNL A   1      41.074  26.420  26.186  1.00  0.00     0.200 A 
ATOM     85  F   UNL A   1      39.751  24.733  27.174  1.00  0.00    -0.200 F 
ATOM     86  F   UNL A   1      41.221  25.679  25.079  1.00  0.00    -0.200 F 
ENDBRANCH  52  76
BRANCH  64  87
ATOM     87  C   UNL A   1      44.108  28.348  34.596  1.00  0.00     0.064 A 
ATOM     88  C   UNL A   1      45.435  28.787  34.467  1.00  0.00     0.173 A 
ATOM     89  C   UNL A   1      43.875  27.168  35.318  1.00  0.00     0.173 A 
ATOM     90  F   UNL A   1      45.712  29.901  33.771  1.00  0.00    -0.203 F 
ATOM     91  C   UNL A   1      46.487  28.059  35.018  1.00  0.00     0.198 A 
ATOM     92  C   UNL A   1      44.926  26.460  35.894  1.00  0.00     0.198 A 
ATOM     93  F   UNL A   1      42.625  26.708  35.477  1.00  0.00    -0.203 F 
ATOM     94  F   UNL A   1      47.749  28.472  34.840  1.00  0.00    -0.200 F 
ATOM     95  C   UNL A   1      46.231  26.901  35.737  1.00  0.00     0.200 A 
ATOM     96  F   UNL A   1      44.676  25.349  36.601  1.00  0.00    -0.200 F 
ATOM     97  F   UNL A   1      47.244  26.207  36.273  1.00  0.00    -0.200 F 
ENDBRANCH  64  87
ENDBRANCH  38  39
ENDBRANCH  30  33
ENDBRANCH  28  29
ENDBRANCH  27  28
ENDBRANCH   1  27
TORSDOF 13
ENDMDL
MODEL 3
REMARK VINA RESULT:     -12.6      5.536     11.090
REMARK SMILES O=C(C[C@H]1C(=O)NCC[N@H+]1[C@H]1CCO[C@@]2(CCSC2)C1)NCCCCNC(=O)c1ccc(-c2c3nc(c(-c4c(F)c(F)c(F)c(F)c4F)c4ccc([nH]4)c(-c4c(F)c(F)c(F)c(F)c4F)c4nc(c(-c5c(F)c(F)c(F)c(F)c5F)c5ccc2[nH]5)C=C4)C=C3)cc1
REMARK SMILES IDX 23 1 22 2 21 3 1 4 2 5 3 7 4 8 5 9 10 10 6 11 7 12 9 13 8 15
REMARK SMILES IDX 11 17 12 18 20 19 13 20 15 21 14 22 16 23 19 24 17 25 18 26
REMARK SMILES IDX 24 27 25 28 26 29 27 30 28 32 29 33 30 34 91 35 31 36 90 37
REMARK SMILES IDX 32 38 33 39 34 40 84 41 35 42 89 43 83 44 85 45 36 46 88 47
REMARK SMILES IDX 82 48 81 49 37 51 69 52 49 53 68 54 50 55 53 56 67 57 86 58
REMARK SMILES IDX 51 59 52 60 66 62 87 63 54 64 38 65 39 66 47 67 40 68 41 69
REMARK SMILES IDX 45 70 48 71 42 72 43 73 46 74 44 75 70 76 71 77 79 78 72 79
REMARK SMILES IDX 73 80 77 81 80 82 74 83 75 84 78 85 76 86 55 87 56 88 64 89
REMARK SMILES IDX 57 90 58 91 62 92 65 93 59 94 60 95 63 96 61 97
REMARK H PARENT 21 6 10 14 7 16 26 31 85 50 53 61
REMARK Flexibility Score: inf
ROOT
ATOM      1  C   UNL A   1      36.852  20.389  24.999  1.00  0.00     0.023 C 
ENDROOT
BRANCH   1   2
ATOM      2  C   UNL A   1      37.017  21.789  24.408  1.00  0.00     0.116 C 
BRANCH   2   3
ATOM      3  N   UNL A   1      35.824  22.575  24.624  1.00  0.00    -0.356 N 
ATOM      4  O   UNL A   1      36.699  23.961  26.240  1.00  0.00    -0.275 OA
ATOM      5  C   UNL A   1      35.750  23.576  25.566  1.00  0.00     0.226 C 
ATOM      6  H   UNL A   1      35.030  22.387  24.073  1.00  0.00     0.163 HD
BRANCH   5   7
ATOM      7  C   UNL A   1      34.334  24.031  25.828  1.00  0.00     0.175 C 
BRANCH   7   8
ATOM      8  C   UNL A   1      33.176  23.247  25.199  1.00  0.00     0.283 C 
ATOM      9  C   UNL A   1      32.801  21.986  26.015  1.00  0.00     0.279 C 
ATOM     10  N   UNL A   1      31.960  24.071  24.895  1.00  0.00    -0.320 N 
ATOM     11  O   UNL A   1      33.465  20.952  25.987  1.00  0.00    -0.268 OA
ATOM     12  N   UNL A   1      31.759  22.082  26.903  1.00  0.00    -0.345 N 
ATOM     13  C   UNL A   1      31.185  24.370  26.107  1.00  0.00     0.284 C 
ATOM     14  H   UNL A   1      31.419  23.438  24.306  1.00  0.00     0.349 HD
ATOM     15  C   UNL A   1      30.708  23.063  26.751  1.00  0.00     0.177 C 
ATOM     16  H   UNL A   1      31.726  21.463  27.667  1.00  0.00     0.163 HD
BRANCH  10  17
ATOM     17  C   UNL A   1      32.079  25.212  23.961  1.00  0.00     0.189 C 
ATOM     18  C   UNL A   1      31.580  24.999  22.522  1.00  0.00     0.093 C 
ATOM     19  C   UNL A   1      31.481  26.501  24.551  1.00  0.00     0.101 C 
ATOM     20  C   UNL A   1      31.745  26.262  21.691  1.00  0.00     0.167 C 
ATOM     21  C   UNL A   1      31.610  27.711  23.601  1.00  0.00     0.084 C 
ATOM     22  O   UNL A   1      31.081  27.360  22.313  1.00  0.00    -0.374 OA
ATOM     23  C   UNL A   1      30.769  28.890  24.119  1.00  0.00     0.047 C 
ATOM     24  C   UNL A   1      33.036  28.280  23.475  1.00  0.00     0.105 C 
ATOM     25  C   UNL A   1      31.505  29.524  25.287  1.00  0.00     0.072 C 
ATOM     26  S   UNL A   1      33.250  29.494  24.808  1.00  0.00    -0.159 SA
ENDBRANCH  10  17
ENDBRANCH   7   8
ENDBRANCH   5   7
ENDBRANCH   2   3
ENDBRANCH   1   2
BRANCH   1  27
ATOM     27  C   UNL A   1      38.098  19.499  24.915  1.00  0.00     0.023 C 
BRANCH  27  28
ATOM     28  C   UNL A   1      39.298  19.984  25.723  1.00  0.00     0.116 C 
BRANCH  28  29
ATOM     29  N   UNL A   1      40.333  18.971  25.844  1.00  0.00    -0.352 N 
ATOM     30  C   UNL A   1      41.676  19.113  26.077  1.00  0.00     0.251 C 
ATOM     31  H   UNL A   1      40.023  18.042  25.744  1.00  0.00     0.163 HD
ATOM     32  O   UNL A   1      42.420  18.136  25.991  1.00  0.00    -0.269 OA
BRANCH  30  33
ATOM     33  C   UNL A   1      42.245  20.438  26.402  1.00  0.00     0.039 A 
ATOM     34  C   UNL A   1      42.753  21.223  25.363  1.00  0.00     0.014 A 
ATOM     35  C   UNL A   1      42.296  20.904  27.719  1.00  0.00     0.014 A 
ATOM     36  C   UNL A   1      43.250  22.498  25.634  1.00  0.00     0.010 A 
ATOM     37  C   UNL A   1      42.725  22.204  27.980  1.00  0.00     0.010 A 
ATOM     38  C   UNL A   1      43.206  23.014  26.939  1.00  0.00    -0.014 A 
BRANCH  38  39
ATOM     39  C   UNL A   1      43.649  24.402  27.231  1.00  0.00     0.031 A 
ATOM     40  C   UNL A   1      42.673  25.418  27.753  1.00  0.00     0.074 A 
ATOM     41  C   UNL A   1      44.919  24.764  26.966  1.00  0.00     0.049 A 
ATOM     42  N   UNL A   1      42.852  26.693  27.995  1.00  0.00    -0.248 NA
ATOM     43  C   UNL A   1      41.303  24.946  28.011  1.00  0.00     0.031 C 
ATOM     44  C   UNL A   1      45.953  23.883  26.418  1.00  0.00     0.029 A 
ATOM     45  N   UNL A   1      45.557  25.971  27.112  1.00  0.00    -0.354 N 
ATOM     46  C   UNL A   1      41.623  27.173  28.423  1.00  0.00     0.074 A 
ATOM     47  C   UNL A   1      40.690  26.069  28.354  1.00  0.00     0.031 C 
ATOM     48  C   UNL A   1      47.097  24.573  26.290  1.00  0.00     0.029 A 
ATOM     49  C   UNL A   1      46.871  25.953  26.710  1.00  0.00     0.049 A 
ATOM     50  H   UNL A   1      45.114  26.774  27.469  1.00  0.00     0.167 HD
ATOM     51  C   UNL A   1      41.306  28.417  28.857  1.00  0.00     0.037 A 
ATOM     52  C   UNL A   1      47.787  26.939  26.674  1.00  0.00     0.037 A 
ATOM     53  C   UNL A   1      42.240  29.510  28.945  1.00  0.00     0.049 A 
ATOM     54  C   UNL A   1      47.406  28.314  27.152  1.00  0.00     0.074 A 
ATOM     55  C   UNL A   1      42.028  30.792  29.421  1.00  0.00     0.029 A 
ATOM     56  N   UNL A   1      43.567  29.447  28.546  1.00  0.00    -0.354 N 
ATOM     57  N   UNL A   1      46.256  28.741  27.612  1.00  0.00    -0.248 NA
ATOM     58  C   UNL A   1      48.455  29.344  27.111  1.00  0.00     0.031 C 
ATOM     59  C   UNL A   1      43.212  31.519  29.265  1.00  0.00     0.029 A 
ATOM     60  C   UNL A   1      44.179  30.675  28.743  1.00  0.00     0.049 A 
ATOM     61  H   UNL A   1      44.010  28.648  28.177  1.00  0.00     0.167 HD
ATOM     62  C   UNL A   1      46.448  30.076  27.941  1.00  0.00     0.074 A 
ATOM     63  C   UNL A   1      47.831  30.384  27.642  1.00  0.00     0.031 C 
ATOM     64  C   UNL A   1      45.559  30.967  28.447  1.00  0.00     0.037 A 
BRANCH  51  65
ATOM     65  C   UNL A   1      39.884  28.665  29.273  1.00  0.00     0.064 A 
ATOM     66  C   UNL A   1      39.454  28.443  30.592  1.00  0.00     0.173 A 
ATOM     67  C   UNL A   1      38.947  29.164  28.355  1.00  0.00     0.173 A 
ATOM     68  F   UNL A   1      40.307  27.957  31.506  1.00  0.00    -0.203 F 
ATOM     69  C   UNL A   1      38.134  28.682  30.966  1.00  0.00     0.198 A 
ATOM     70  C   UNL A   1      37.637  29.432  28.741  1.00  0.00     0.198 A 
ATOM     71  F   UNL A   1      39.306  29.400  27.084  1.00  0.00    -0.203 F 
ATOM     72  F   UNL A   1      37.736  28.414  32.217  1.00  0.00    -0.200 F 
ATOM     73  C   UNL A   1      37.229  29.183  30.043  1.00  0.00     0.200 A 
ATOM     74  F   UNL A   1      36.766  29.929  27.852  1.00  0.00    -0.200 F 
ATOM     75  F   UNL A   1      35.961  29.419  30.407  1.00  0.00    -0.200 F 
ENDBRANCH  51  65
BRANCH  52  76
ATOM     76  C   UNL A   1      49.161  26.657  26.183  1.00  0.00     0.064 A 
ATOM     77  C   UNL A   1      50.139  26.132  27.040  1.00  0.00     0.173 A 
ATOM     78  C   UNL A   1      49.526  26.907  24.852  1.00  0.00     0.173 A 
ATOM     79  F   UNL A   1      49.843  25.894  28.326  1.00  0.00    -0.203 F 
ATOM     80  C   UNL A   1      51.434  25.889  26.590  1.00  0.00     0.198 A 
ATOM     81  C   UNL A   1      50.814  26.636  24.396  1.00  0.00     0.198 A 
ATOM     82  F   UNL A   1      48.625  27.403  23.990  1.00  0.00    -0.203 F 
ATOM     83  F   UNL A   1      52.362  25.432  27.442  1.00  0.00    -0.200 F 
ATOM     84  C   UNL A   1      51.769  26.136  25.267  1.00  0.00     0.200 A 
ATOM     85  F   UNL A   1      51.128  26.860  23.113  1.00  0.00    -0.200 F 
ATOM     86  F   UNL A   1      53.015  25.898  24.833  1.00  0.00    -0.200 F 
ENDBRANCH  52  76
BRANCH  64  87
ATOM     87  C   UNL A   1      46.060  32.350  28.741  1.00  0.00     0.064 A 
ATOM     88  C   UNL A   1      45.973  33.384  27.796  1.00  0.00     0.173 A 
ATOM     89  C   UNL A   1      46.601  32.656  30.000  1.00  0.00     0.173 A 
ATOM     90  F   UNL A   1      45.479  33.138  26.572  1.00  0.00    -0.203 F 
ATOM     91  C   UNL A   1      46.431  34.665  28.091  1.00  0.00     0.198 A 
ATOM     92  C   UNL A   1      47.030  33.945  30.302  1.00  0.00     0.198 A 
ATOM     93  F   UNL A   1      46.702  31.706  30.942  1.00  0.00    -0.203 F 
ATOM     94  F   UNL A   1      46.383  35.623  27.156  1.00  0.00    -0.200 F 
ATOM     95  C   UNL A   1      46.952  34.947  29.346  1.00  0.00     0.200 A 
ATOM     96  F   UNL A   1      47.519  34.219  31.519  1.00  0.00    -0.200 F 
ATOM     97  F   UNL A   1      47.385  36.182  29.631  1.00  0.00    -0.200 F 
ENDBRANCH  64  87
ENDBRANCH  38  39
ENDBRANCH  30  33
ENDBRANCH  28  29
ENDBRANCH  27  28
ENDBRANCH   1  27
TORSDOF 13
ENDMDL
