MODEL 1
REMARK VINA RESULT:     -14.7      0.000      0.000
REMARK SMILES C[C@H]1[C@H](C)CC[C@@]2(C(=O)NCCCCNC(=O)c3ccc(-c4c5nc(c(-c6c(F)c(F)c(F)c(F)c6F)c6ccc([nH]6)c(-c6c(F)c(F)c(F)c(F)c6F)c6nc(c(-c7c(F)c(F)c(F)c(F)c7F)c7ccc4[nH]7)C=C6)C=C5)cc3)CC[C@@]3(C)C(=CC[C@@H]4[C@@]5(C)CC[C@H](O)C(C)(C)[C@@H]5CC[C@]43C)[C@H]12
REMARK SMILES IDX 13 1 12 2 11 3 10 4 8 5 9 6 7 8 1 9 2 10 3 11 103 12 4 13
REMARK SMILES IDX 5 14 85 15 6 16 81 17 83 18 86 19 82 20 84 21 101 22 87 23
REMARK SMILES IDX 88 24 100 25 102 26 89 27 99 28 90 29 91 30 98 31 92 32
REMARK SMILES IDX 95 33 93 34 96 35 97 36 94 37 14 39 15 40 16 41 17 43 18 44
REMARK SMILES IDX 19 45 80 46 20 47 79 48 21 49 22 50 23 51 73 52 24 53 78 54
REMARK SMILES IDX 72 55 74 56 25 57 77 58 71 59 70 60 26 62 58 63 38 64 57 65
REMARK SMILES IDX 39 66 42 67 56 68 75 69 40 70 41 71 55 73 76 74 43 75 27 76
REMARK SMILES IDX 28 77 36 78 29 79 30 80 34 81 37 82 31 83 32 84 35 85 33 86
REMARK SMILES IDX 59 87 60 88 68 89 61 90 62 91 66 92 69 93 63 94 64 95 67 96
REMARK SMILES IDX 65 97 44 98 45 99 53 100 46 101 47 102 51 103 54 104 48 105
REMARK SMILES IDX 49 106 52 107 50 108
REMARK H PARENT 10 7 94 38 15 42 74 61 42 72
REMARK Flexibility Score: inf
ROOT
ATOM      1  C   UNL A   1      33.659  31.479  28.001  1.00  0.00     0.023 C 
ENDROOT
BRANCH   1   2
ATOM      2  C   UNL A   1      34.759  30.478  27.629  1.00  0.00     0.023 C 
BRANCH   2   3
ATOM      3  C   UNL A   1      34.323  29.227  26.862  1.00  0.00     0.116 C 
BRANCH   3   4
ATOM      4  N   UNL A   1      33.995  29.443  25.468  1.00  0.00    -0.356 N 
ATOM      5  C   UNL A   1      32.858  29.185  24.754  1.00  0.00     0.226 C 
ATOM      6  O   UNL A   1      33.078  28.923  23.563  1.00  0.00    -0.274 OA
ATOM      7  H   UNL A   1      34.722  29.849  24.940  1.00  0.00     0.163 HD
BRANCH   5   8
ATOM      8  C   UNL A   1      31.377  29.260  25.303  1.00  0.00     0.056 C 
ATOM      9  C   UNL A   1      28.858  29.061  22.253  1.00  0.00     0.008 C 
ATOM     10  C   UNL A   1      29.924  29.663  23.190  1.00  0.00    -0.003 C 
ATOM     11  C   UNL A   1      29.414  31.005  23.795  1.00  0.00    -0.011 C 
ATOM     12  C   UNL A   1      30.319  28.686  24.318  1.00  0.00     0.034 C 
ATOM     13  C   UNL A   1      29.153  32.074  22.724  1.00  0.00     0.008 C 
ATOM     14  C   UNL A   1      30.316  31.627  24.872  1.00  0.00     0.005 C 
ATOM     15  C   UNL A   1      30.814  27.274  23.960  1.00  0.00    -0.063 C 
ATOM     16  C   UNL A   1      31.028  30.672  25.816  1.00  0.00     0.018 C 
ATOM     17  C   UNL A   1      31.279  28.326  26.579  1.00  0.00     0.018 C 
ATOM     18  C   UNL A   1      30.646  26.221  25.086  1.00  0.00    -0.006 C 
ATOM     19  C   UNL A   1      31.578  27.050  22.869  1.00  0.00    -0.027 C 
ATOM     20  C   UNL A   1      31.359  26.800  26.357  1.00  0.00     0.013 C 
ATOM     21  C   UNL A   1      29.139  26.043  25.421  1.00  0.00     0.017 C 
ATOM     22  C   UNL A   1      31.274  24.782  24.651  1.00  0.00    -0.020 C 
ATOM     23  C   UNL A   1      32.489  25.861  22.708  1.00  0.00     0.032 C 
ATOM     24  C   UNL A   1      32.692  25.095  24.041  1.00  0.00     0.006 C 
ATOM     25  C   UNL A   1      31.370  23.803  25.851  1.00  0.00     0.008 C 
ATOM     26  C   UNL A   1      30.353  24.078  23.605  1.00  0.00     0.012 C 
ATOM     27  C   UNL A   1      33.801  23.959  24.030  1.00  0.00    -0.025 C 
ATOM     28  C   UNL A   1      32.285  22.604  25.589  1.00  0.00     0.005 C 
ATOM     29  C   UNL A   1      33.703  23.128  22.735  1.00  0.00     0.012 C 
ATOM     30  C   UNL A   1      35.202  24.654  24.063  1.00  0.00     0.010 C 
ATOM     31  C   UNL A   1      33.712  23.111  25.352  1.00  0.00     0.003 C 
ATOM     32  C   UNL A   1      36.376  23.697  24.265  1.00  0.00     0.033 C 
ATOM     33  C   UNL A   1      34.854  22.049  25.578  1.00  0.00    -0.006 C 
ATOM     34  C   UNL A   1      36.218  22.799  25.493  1.00  0.00     0.120 C 
ATOM     35  C   UNL A   1      34.799  20.837  24.626  1.00  0.00     0.014 C 
ATOM     36  C   UNL A   1      34.749  21.453  27.011  1.00  0.00     0.014 C 
BRANCH  34  37
ATOM     37  O   UNL A   1      37.319  21.889  25.546  1.00  0.00    -0.393 OA
ATOM     38  H   UNL A   1      37.081  21.068  25.089  1.00  0.00     0.210 HD
ENDBRANCH  34  37
ENDBRANCH   5   8
ENDBRANCH   3   4
ENDBRANCH   2   3
ENDBRANCH   1   2
BRANCH   1  39
ATOM     39  C   UNL A   1      33.424  32.654  27.050  1.00  0.00     0.116 C 
BRANCH  39  40
ATOM     40  N   UNL A   1      32.820  33.827  27.664  1.00  0.00    -0.352 N 
ATOM     41  C   UNL A   1      33.216  34.616  28.719  1.00  0.00     0.251 C 
ATOM     42  H   UNL A   1      31.972  34.107  27.247  1.00  0.00     0.163 HD
ATOM     43  O   UNL A   1      32.528  35.577  29.045  1.00  0.00    -0.269 OA
BRANCH  41  44
ATOM     44  C   UNL A   1      34.414  34.280  29.520  1.00  0.00     0.039 A 
ATOM     45  C   UNL A   1      34.215  33.663  30.760  1.00  0.00     0.014 A 
ATOM     46  C   UNL A   1      35.711  34.538  29.074  1.00  0.00     0.014 A 
ATOM     47  C   UNL A   1      35.309  33.188  31.487  1.00  0.00     0.010 A 
ATOM     48  C   UNL A   1      36.800  34.002  29.765  1.00  0.00     0.010 A 
ATOM     49  C   UNL A   1      36.605  33.289  30.958  1.00  0.00    -0.014 A 
BRANCH  49  50
ATOM     50  C   UNL A   1      37.739  32.567  31.591  1.00  0.00     0.031 A 
ATOM     51  C   UNL A   1      38.392  31.397  30.915  1.00  0.00     0.074 A 
ATOM     52  C   UNL A   1      38.131  32.930  32.829  1.00  0.00     0.049 A 
ATOM     53  N   UNL A   1      39.357  30.625  31.351  1.00  0.00    -0.248 NA
ATOM     54  C   UNL A   1      37.880  31.029  29.587  1.00  0.00     0.031 C 
ATOM     55  C   UNL A   1      37.539  34.013  33.618  1.00  0.00     0.029 A 
ATOM     56  N   UNL A   1      39.112  32.425  33.647  1.00  0.00    -0.354 N 
ATOM     57  C   UNL A   1      39.558  29.674  30.361  1.00  0.00     0.074 A 
ATOM     58  C   UNL A   1      38.589  29.941  29.318  1.00  0.00     0.031 C 
ATOM     59  C   UNL A   1      38.187  34.112  34.789  1.00  0.00     0.029 A 
ATOM     60  C   UNL A   1      39.212  33.076  34.854  1.00  0.00     0.049 A 
ATOM     61  H   UNL A   1      39.689  31.669  33.393  1.00  0.00     0.167 HD
ATOM     62  C   UNL A   1      40.478  28.680  30.318  1.00  0.00     0.037 A 
ATOM     63  C   UNL A   1      40.033  32.859  35.898  1.00  0.00     0.037 A 
ATOM     64  C   UNL A   1      41.460  28.433  31.343  1.00  0.00     0.049 A 
ATOM     65  C   UNL A   1      41.043  31.749  35.824  1.00  0.00     0.074 A 
ATOM     66  C   UNL A   1      42.487  27.505  31.349  1.00  0.00     0.029 A 
ATOM     67  N   UNL A   1      41.531  29.113  32.550  1.00  0.00    -0.354 N 
ATOM     68  N   UNL A   1      41.277  30.908  34.847  1.00  0.00    -0.248 NA
ATOM     69  C   UNL A   1      41.903  31.557  37.001  1.00  0.00     0.031 C 
ATOM     70  C   UNL A   1      43.153  27.593  32.576  1.00  0.00     0.029 A 
ATOM     71  C   UNL A   1      42.567  28.605  33.319  1.00  0.00     0.049 A 
ATOM     72  H   UNL A   1      40.935  29.848  32.820  1.00  0.00     0.167 HD
ATOM     73  C   UNL A   1      42.321  30.104  35.278  1.00  0.00     0.074 A 
ATOM     74  C   UNL A   1      42.687  30.565  36.602  1.00  0.00     0.031 C 
ATOM     75  C   UNL A   1      42.920  29.072  34.636  1.00  0.00     0.037 A 
BRANCH  62  76
ATOM     76  C   UNL A   1      40.470  27.779  29.118  1.00  0.00     0.064 A 
ATOM     77  C   UNL A   1      39.660  26.634  29.064  1.00  0.00     0.173 A 
ATOM     78  C   UNL A   1      41.248  28.086  27.992  1.00  0.00     0.173 A 
ATOM     79  F   UNL A   1      38.903  26.293  30.119  1.00  0.00    -0.203 F 
ATOM     80  C   UNL A   1      39.653  25.814  27.940  1.00  0.00     0.198 A 
ATOM     81  C   UNL A   1      41.218  27.279  26.859  1.00  0.00     0.198 A 
ATOM     82  F   UNL A   1      42.033  29.174  27.990  1.00  0.00    -0.203 F 
ATOM     83  F   UNL A   1      38.906  24.701  27.928  1.00  0.00    -0.200 F 
ATOM     84  C   UNL A   1      40.427  26.141  26.836  1.00  0.00     0.200 A 
ATOM     85  F   UNL A   1      41.958  27.600  25.788  1.00  0.00    -0.200 F 
ATOM     86  F   UNL A   1      40.415  25.352  25.751  1.00  0.00    -0.200 F 
ENDBRANCH  62  76
BRANCH  63  87
ATOM     87  C   UNL A   1      39.952  33.733  37.096  1.00  0.00     0.064 A 
ATOM     88  C   UNL A   1      39.074  33.427  38.146  1.00  0.00     0.173 A 
ATOM     89  C   UNL A   1      40.743  34.884  37.220  1.00  0.00     0.173 A 
ATOM     90  F   UNL A   1      38.282  32.349  38.062  1.00  0.00    -0.203 F 
ATOM     91  C   UNL A   1      38.982  34.247  39.269  1.00  0.00     0.198 A 
ATOM     92  C   UNL A   1      40.668  35.689  38.354  1.00  0.00     0.198 A 
ATOM     93  F   UNL A   1      41.601  35.217  36.244  1.00  0.00    -0.203 F 
ATOM     94  F   UNL A   1      38.108  33.952  40.241  1.00  0.00    -0.200 F 
ATOM     95  C   UNL A   1      39.783  35.374  39.374  1.00  0.00     0.200 A 
ATOM     96  F   UNL A   1      41.452  36.770  38.458  1.00  0.00    -0.200 F 
ATOM     97  F   UNL A   1      39.697  36.159  40.456  1.00  0.00    -0.200 F 
ENDBRANCH  63  87
BRANCH  75  98
ATOM     98  C   UNL A   1      44.046  28.383  35.348  1.00  0.00     0.064 A 
ATOM     99  C   UNL A   1      45.371  28.826  35.221  1.00  0.00     0.173 A 
ATOM    100  C   UNL A   1      43.794  27.292  36.192  1.00  0.00     0.173 A 
ATOM    101  F   UNL A   1      45.664  29.854  34.411  1.00  0.00    -0.203 F 
ATOM    102  C   UNL A   1      46.406  28.187  35.898  1.00  0.00     0.198 A 
ATOM    103  C   UNL A   1      44.829  26.672  36.887  1.00  0.00     0.198 A 
ATOM    104  F   UNL A   1      42.544  26.832  36.348  1.00  0.00    -0.203 F 
ATOM    105  F   UNL A   1      47.670  28.600  35.729  1.00  0.00    -0.200 F 
ATOM    106  C   UNL A   1      46.133  27.116  36.736  1.00  0.00     0.200 A 
ATOM    107  F   UNL A   1      44.563  25.643  37.704  1.00  0.00    -0.200 F 
ATOM    108  F   UNL A   1      47.131  26.507  37.391  1.00  0.00    -0.200 F 
ENDBRANCH  75  98
ENDBRANCH  49  50
ENDBRANCH  41  44
ENDBRANCH  39  40
ENDBRANCH   1  39
TORSDOF 12
ENDMDL
MODEL 2
REMARK VINA RESULT:     -14.7      0.388      6.875
REMARK SMILES C[C@H]1[C@H](C)CC[C@@]2(C(=O)NCCCCNC(=O)c3ccc(-c4c5nc(c(-c6c(F)c(F)c(F)c(F)c6F)c6ccc([nH]6)c(-c6c(F)c(F)c(F)c(F)c6F)c6nc(c(-c7c(F)c(F)c(F)c(F)c7F)c7ccc4[nH]7)C=C6)C=C5)cc3)CC[C@@]3(C)C(=CC[C@@H]4[C@@]5(C)CC[C@H](O)C(C)(C)[C@@H]5CC[C@]43C)[C@H]12
REMARK SMILES IDX 13 1 12 2 11 3 10 4 8 5 9 6 7 8 1 9 2 10 3 11 103 12 4 13
REMARK SMILES IDX 5 14 85 15 6 16 81 17 83 18 86 19 82 20 84 21 101 22 87 23
REMARK SMILES IDX 88 24 100 25 102 26 89 27 99 28 90 29 91 30 98 31 92 32
REMARK SMILES IDX 95 33 93 34 96 35 97 36 94 37 14 39 15 40 16 41 17 43 18 44
REMARK SMILES IDX 19 45 80 46 20 47 79 48 21 49 22 50 23 51 73 52 24 53 78 54
REMARK SMILES IDX 72 55 74 56 25 57 77 58 71 59 70 60 26 62 58 63 38 64 57 65
REMARK SMILES IDX 39 66 42 67 56 68 75 69 40 70 41 71 55 73 76 74 43 75 27 76
REMARK SMILES IDX 28 77 36 78 29 79 30 80 34 81 37 82 31 83 32 84 35 85 33 86
REMARK SMILES IDX 59 87 60 88 68 89 61 90 62 91 66 92 69 93 63 94 64 95 67 96
REMARK SMILES IDX 65 97 44 98 45 99 53 100 46 101 47 102 51 103 54 104 48 105
REMARK SMILES IDX 49 106 52 107 50 108
REMARK H PARENT 10 7 94 38 15 42 74 61 42 72
REMARK Flexibility Score: inf
ROOT
ATOM      1  C   UNL A   1      33.470  31.603  27.994  1.00  0.00     0.023 C 
ENDROOT
BRANCH   1   2
ATOM      2  C   UNL A   1      34.611  30.639  27.649  1.00  0.00     0.023 C 
BRANCH   2   3
ATOM      3  C   UNL A   1      34.225  29.342  26.932  1.00  0.00     0.116 C 
BRANCH   3   4
ATOM      4  N   UNL A   1      33.948  29.481  25.517  1.00  0.00    -0.356 N 
ATOM      5  C   UNL A   1      32.845  29.163  24.775  1.00  0.00     0.226 C 
ATOM      6  O   UNL A   1      33.116  28.847  23.608  1.00  0.00    -0.274 OA
ATOM      7  H   UNL A   1      34.686  29.875  24.998  1.00  0.00     0.163 HD
BRANCH   5   8
ATOM      8  C   UNL A   1      31.343  29.233  25.262  1.00  0.00     0.056 C 
ATOM      9  C   UNL A   1      28.950  28.953  22.119  1.00  0.00     0.008 C 
ATOM     10  C   UNL A   1      29.972  29.583  23.086  1.00  0.00    -0.003 C 
ATOM     11  C   UNL A   1      29.425  30.931  23.645  1.00  0.00    -0.011 C 
ATOM     12  C   UNL A   1      30.330  28.631  24.247  1.00  0.00     0.034 C 
ATOM     13  C   UNL A   1      29.198  31.977  22.544  1.00  0.00     0.008 C 
ATOM     14  C   UNL A   1      30.278  31.582  24.745  1.00  0.00     0.005 C 
ATOM     15  C   UNL A   1      30.852  27.218  23.936  1.00  0.00    -0.063 C 
ATOM     16  C   UNL A   1      30.960  30.651  25.735  1.00  0.00     0.018 C 
ATOM     17  C   UNL A   1      31.202  28.322  26.551  1.00  0.00     0.018 C 
ATOM     18  C   UNL A   1      30.649  26.184  25.074  1.00  0.00    -0.006 C 
ATOM     19  C   UNL A   1      31.661  26.981  22.881  1.00  0.00    -0.027 C 
ATOM     20  C   UNL A   1      31.304  26.794  26.361  1.00  0.00     0.013 C 
ATOM     21  C   UNL A   1      29.131  25.997  25.352  1.00  0.00     0.017 C 
ATOM     22  C   UNL A   1      31.307  24.743  24.691  1.00  0.00    -0.020 C 
ATOM     23  C   UNL A   1      32.589  25.798  22.778  1.00  0.00     0.032 C 
ATOM     24  C   UNL A   1      32.745  25.060  24.132  1.00  0.00     0.006 C 
ATOM     25  C   UNL A   1      31.364  23.788  25.912  1.00  0.00     0.008 C 
ATOM     26  C   UNL A   1      30.435  24.011  23.623  1.00  0.00     0.012 C 
ATOM     27  C   UNL A   1      33.864  23.934  24.187  1.00  0.00    -0.025 C 
ATOM     28  C   UNL A   1      32.300  22.594  25.710  1.00  0.00     0.005 C 
ATOM     29  C   UNL A   1      33.826  23.079  22.905  1.00  0.00     0.012 C 
ATOM     30  C   UNL A   1      35.257  24.644  24.263  1.00  0.00     0.010 C 
ATOM     31  C   UNL A   1      33.730  23.110  25.520  1.00  0.00     0.003 C 
ATOM     32  C   UNL A   1      36.430  23.702  24.529  1.00  0.00     0.033 C 
ATOM     33  C   UNL A   1      34.872  22.064  25.811  1.00  0.00    -0.006 C 
ATOM     34  C   UNL A   1      36.231  22.825  25.767  1.00  0.00     0.120 C 
ATOM     35  C   UNL A   1      34.866  20.834  24.881  1.00  0.00     0.014 C 
ATOM     36  C   UNL A   1      34.715  21.493  27.250  1.00  0.00     0.014 C 
BRANCH  34  37
ATOM     37  O   UNL A   1      37.337  21.928  25.881  1.00  0.00    -0.393 OA
ATOM     38  H   UNL A   1      37.012  21.038  26.085  1.00  0.00     0.210 HD
ENDBRANCH  34  37
ENDBRANCH   5   8
ENDBRANCH   3   4
ENDBRANCH   2   3
ENDBRANCH   1   2
BRANCH   1  39
ATOM     39  C   UNL A   1      33.206  32.756  27.025  1.00  0.00     0.116 C 
BRANCH  39  40
ATOM     40  N   UNL A   1      32.684  33.967  27.642  1.00  0.00    -0.352 N 
ATOM     41  C   UNL A   1      33.153  34.744  28.677  1.00  0.00     0.251 C 
ATOM     42  H   UNL A   1      31.841  34.288  27.246  1.00  0.00     0.163 HD
ATOM     43  O   UNL A   1      32.528  35.744  29.010  1.00  0.00    -0.269 OA
BRANCH  41  44
ATOM     44  C   UNL A   1      34.353  34.350  29.447  1.00  0.00     0.039 A 
ATOM     45  C   UNL A   1      34.157  33.778  30.709  1.00  0.00     0.014 A 
ATOM     46  C   UNL A   1      35.648  34.512  28.954  1.00  0.00     0.014 A 
ATOM     47  C   UNL A   1      35.242  33.250  31.413  1.00  0.00     0.010 A 
ATOM     48  C   UNL A   1      36.723  33.924  29.623  1.00  0.00     0.010 A 
ATOM     49  C   UNL A   1      36.523  33.254  30.840  1.00  0.00    -0.014 A 
BRANCH  49  50
ATOM     50  C   UNL A   1      37.629  32.476  31.455  1.00  0.00     0.031 A 
ATOM     51  C   UNL A   1      38.169  32.824  32.811  1.00  0.00     0.074 A 
ATOM     52  C   UNL A   1      38.202  31.485  30.740  1.00  0.00     0.049 A 
ATOM     53  N   UNL A   1      39.163  32.281  33.469  1.00  0.00    -0.248 NA
ATOM     54  C   UNL A   1      37.525  33.945  33.510  1.00  0.00     0.031 C 
ATOM     55  C   UNL A   1      37.809  31.085  29.387  1.00  0.00     0.029 A 
ATOM     56  N   UNL A   1      39.242  30.641  31.045  1.00  0.00    -0.354 N 
ATOM     57  C   UNL A   1      39.273  33.000  34.650  1.00  0.00     0.074 A 
ATOM     58  C   UNL A   1      38.271  34.045  34.603  1.00  0.00     0.031 C 
ATOM     59  C   UNL A   1      38.574  30.055  28.991  1.00  0.00     0.029 A 
ATOM     60  C   UNL A   1      39.538  29.748  30.043  1.00  0.00     0.049 A 
ATOM     61  H   UNL A   1      39.728  30.672  31.900  1.00  0.00     0.167 HD
ATOM     62  C   UNL A   1      40.122  32.797  35.687  1.00  0.00     0.037 A 
ATOM     63  C   UNL A   1      40.483  28.792  29.975  1.00  0.00     0.037 A 
ATOM     64  C   UNL A   1      41.099  31.739  35.746  1.00  0.00     0.049 A 
ATOM     65  C   UNL A   1      41.411  28.589  31.139  1.00  0.00     0.074 A 
ATOM     66  C   UNL A   1      41.944  31.402  36.790  1.00  0.00     0.029 A 
ATOM     67  N   UNL A   1      41.369  30.854  34.713  1.00  0.00    -0.354 N 
ATOM     68  N   UNL A   1      41.451  29.224  32.285  1.00  0.00    -0.248 NA
ATOM     69  C   UNL A   1      42.427  27.536  30.999  1.00  0.00     0.031 C 
ATOM     70  C   UNL A   1      42.754  30.340  36.373  1.00  0.00     0.029 A 
ATOM     71  C   UNL A   1      42.387  29.989  35.085  1.00  0.00     0.049 A 
ATOM     72  H   UNL A   1      40.906  30.842  33.845  1.00  0.00     0.167 HD
ATOM     73  C   UNL A   1      42.478  28.637  33.009  1.00  0.00     0.074 A 
ATOM     74  C   UNL A   1      43.028  27.584  32.181  1.00  0.00     0.031 C 
ATOM     75  C   UNL A   1      42.927  28.946  34.250  1.00  0.00     0.037 A 
BRANCH  62  76
ATOM     76  C   UNL A   1      40.032  33.739  36.852  1.00  0.00     0.064 A 
ATOM     77  C   UNL A   1      40.799  34.912  36.908  1.00  0.00     0.173 A 
ATOM     78  C   UNL A   1      39.137  33.487  37.903  1.00  0.00     0.173 A 
ATOM     79  F   UNL A   1      41.674  35.194  35.931  1.00  0.00    -0.203 F 
ATOM     80  C   UNL A   1      40.696  35.784  37.989  1.00  0.00     0.198 A 
ATOM     81  C   UNL A   1      39.018  34.375  38.968  1.00  0.00     0.198 A 
ATOM     82  F   UNL A   1      38.375  32.383  37.892  1.00  0.00    -0.203 F 
ATOM     83  F   UNL A   1      41.471  36.876  38.043  1.00  0.00    -0.200 F 
ATOM     84  C   UNL A   1      39.801  35.517  39.014  1.00  0.00     0.200 A 
ATOM     85  F   UNL A   1      38.145  34.123  39.954  1.00  0.00    -0.200 F 
ATOM     86  F   UNL A   1      39.699  36.361  40.052  1.00  0.00    -0.200 F 
ENDBRANCH  62  76
BRANCH  63  87
ATOM     87  C   UNL A   1      40.579  27.932  28.768  1.00  0.00     0.064 A 
ATOM     88  C   UNL A   1      41.378  28.314  27.681  1.00  0.00     0.173 A 
ATOM     89  C   UNL A   1      39.884  26.718  28.674  1.00  0.00     0.173 A 
ATOM     90  F   UNL A   1      42.043  29.478  27.717  1.00  0.00    -0.203 F 
ATOM     91  C   UNL A   1      41.466  27.521  26.539  1.00  0.00     0.198 A 
ATOM     92  C   UNL A   1      39.993  25.914  27.542  1.00  0.00     0.198 A 
ATOM     93  F   UNL A   1      39.111  26.307  29.689  1.00  0.00    -0.203 F 
ATOM     94  F   UNL A   1      42.206  27.928  25.498  1.00  0.00    -0.200 F 
ATOM     95  C   UNL A   1      40.778  26.319  26.473  1.00  0.00     0.200 A 
ATOM     96  F   UNL A   1      39.337  24.747  27.486  1.00  0.00    -0.200 F 
ATOM     97  F   UNL A   1      40.867  25.554  25.376  1.00  0.00    -0.200 F 
ENDBRANCH  63  87
BRANCH  75  98
ATOM     98  C   UNL A   1      44.056  28.124  34.794  1.00  0.00     0.064 A 
ATOM     99  C   UNL A   1      45.392  28.527  34.646  1.00  0.00     0.173 A 
ATOM    100  C   UNL A   1      43.801  26.939  35.501  1.00  0.00     0.173 A 
ATOM    101  F   UNL A   1      45.688  29.642  33.962  1.00  0.00    -0.203 F 
ATOM    102  C   UNL A   1      46.432  27.761  35.168  1.00  0.00     0.198 A 
ATOM    103  C   UNL A   1      44.841  26.191  36.043  1.00  0.00     0.198 A 
ATOM    104  F   UNL A   1      42.540  26.513  35.672  1.00  0.00    -0.203 F 
ATOM    105  F   UNL A   1      47.702  28.143  34.977  1.00  0.00    -0.200 F 
ATOM    106  C   UNL A   1      46.155  26.599  35.872  1.00  0.00     0.200 A 
ATOM    107  F   UNL A   1      44.573  25.073  36.732  1.00  0.00    -0.200 F 
ATOM    108  F   UNL A   1      47.157  25.868  36.379  1.00  0.00    -0.200 F 
ENDBRANCH  75  98
ENDBRANCH  49  50
ENDBRANCH  41  44
ENDBRANCH  39  40
ENDBRANCH   1  39
TORSDOF 12
ENDMDL
MODEL 3
REMARK VINA RESULT:     -14.6      4.949      9.899
REMARK SMILES C[C@H]1[C@H](C)CC[C@@]2(C(=O)NCCCCNC(=O)c3ccc(-c4c5nc(c(-c6c(F)c(F)c(F)c(F)c6F)c6ccc([nH]6)c(-c6c(F)c(F)c(F)c(F)c6F)c6nc(c(-c7c(F)c(F)c(F)c(F)c7F)c7ccc4[nH]7)C=C6)C=C5)cc3)CC[C@@]3(C)C(=CC[C@@H]4[C@@]5(C)CC[C@H](O)C(C)(C)[C@@H]5CC[C@]43C)[C@H]12
REMARK SMILES IDX 13 1 12 2 11 3 10 4 8 5 9 6 7 8 1 9 2 10 3 11 103 12 4 13
REMARK SMILES IDX 5 14 85 15 6 16 81 17 83 18 86 19 82 20 84 21 101 22 87 23
REMARK SMILES IDX 88 24 100 25 102 26 89 27 99 28 90 29 91 30 98 31 92 32
REMARK SMILES IDX 95 33 93 34 96 35 97 36 94 37 14 39 15 40 16 41 17 43 18 44
REMARK SMILES IDX 19 45 80 46 20 47 79 48 21 49 22 50 23 51 73 52 24 53 78 54
REMARK SMILES IDX 72 55 74 56 25 57 77 58 71 59 70 60 26 62 58 63 38 64 57 65
REMARK SMILES IDX 39 66 42 67 56 68 75 69 40 70 41 71 55 73 76 74 43 75 27 76
REMARK SMILES IDX 28 77 36 78 29 79 30 80 34 81 37 82 31 83 32 84 35 85 33 86
REMARK SMILES IDX 59 87 60 88 68 89 61 90 62 91 66 92 69 93 63 94 64 95 67 96
REMARK SMILES IDX 65 97 44 98 45 99 53 100 46 101 47 102 51 103 54 104 48 105
REMARK SMILES IDX 49 106 52 107 50 108
REMARK H PARENT 10 7 94 38 15 42 74 61 42 72
REMARK Flexibility Score: inf
ROOT
ATOM      1  C   UNL A   1      39.216  21.735  25.576  1.00  0.00     0.023 C 
ENDROOT
BRANCH   1   2
ATOM      2  C   UNL A   1      38.737  23.009  26.281  1.00  0.00     0.023 C 
BRANCH   2   3
ATOM      3  C   UNL A   1      37.289  23.436  26.023  1.00  0.00     0.116 C 
BRANCH   3   4
ATOM      4  N   UNL A   1      36.282  22.586  26.623  1.00  0.00    -0.356 N 
ATOM      5  C   UNL A   1      35.266  21.856  26.069  1.00  0.00     0.226 C 
ATOM      6  O   UNL A   1      34.282  21.746  26.814  1.00  0.00    -0.274 OA
ATOM      7  H   UNL A   1      36.338  22.522  27.604  1.00  0.00     0.163 HD
BRANCH   5   8
ATOM      8  C   UNL A   1      35.296  21.138  24.661  1.00  0.00     0.056 C 
ATOM      9  C   UNL A   1      32.059  18.888  24.289  1.00  0.00     0.008 C 
ATOM     10  C   UNL A   1      33.438  19.333  24.815  1.00  0.00    -0.003 C 
ATOM     11  C   UNL A   1      34.496  18.219  24.562  1.00  0.00    -0.011 C 
ATOM     12  C   UNL A   1      33.897  20.661  24.177  1.00  0.00     0.034 C 
ATOM     13  C   UNL A   1      34.171  16.915  25.305  1.00  0.00     0.008 C 
ATOM     14  C   UNL A   1      35.947  18.601  24.894  1.00  0.00     0.005 C 
ATOM     15  C   UNL A   1      32.989  21.899  24.261  1.00  0.00    -0.063 C 
ATOM     16  C   UNL A   1      36.370  20.033  24.605  1.00  0.00     0.018 C 
ATOM     17  C   UNL A   1      35.749  22.202  23.578  1.00  0.00     0.018 C 
ATOM     18  C   UNL A   1      33.238  22.965  23.163  1.00  0.00    -0.006 C 
ATOM     19  C   UNL A   1      32.241  22.150  25.357  1.00  0.00    -0.027 C 
ATOM     20  C   UNL A   1      34.761  23.336  23.230  1.00  0.00     0.013 C 
ATOM     21  C   UNL A   1      32.954  22.357  21.762  1.00  0.00     0.017 C 
ATOM     22  C   UNL A   1      32.294  24.275  23.383  1.00  0.00    -0.020 C 
ATOM     23  C   UNL A   1      31.731  23.518  25.734  1.00  0.00     0.032 C 
ATOM     24  C   UNL A   1      32.411  24.642  24.910  1.00  0.00     0.006 C 
ATOM     25  C   UNL A   1      32.720  25.458  22.474  1.00  0.00     0.008 C 
ATOM     26  C   UNL A   1      30.816  23.953  22.991  1.00  0.00     0.012 C 
ATOM     27  C   UNL A   1      32.106  26.129  25.377  1.00  0.00    -0.025 C 
ATOM     28  C   UNL A   1      32.128  26.802  22.905  1.00  0.00     0.005 C 
ATOM     29  C   UNL A   1      30.609  26.290  25.708  1.00  0.00     0.012 C 
ATOM     30  C   UNL A   1      32.931  26.403  26.677  1.00  0.00     0.010 C 
ATOM     31  C   UNL A   1      32.646  27.147  24.306  1.00  0.00     0.003 C 
ATOM     32  C   UNL A   1      32.910  27.859  27.142  1.00  0.00     0.033 C 
ATOM     33  C   UNL A   1      32.577  28.672  24.696  1.00  0.00    -0.006 C 
ATOM     34  C   UNL A   1      33.328  28.846  26.051  1.00  0.00     0.120 C 
ATOM     35  C   UNL A   1      31.151  29.257  24.745  1.00  0.00     0.014 C 
ATOM     36  C   UNL A   1      33.336  29.526  23.640  1.00  0.00     0.014 C 
BRANCH  34  37
ATOM     37  O   UNL A   1      33.195  30.176  26.555  1.00  0.00    -0.393 OA
ATOM     38  H   UNL A   1      32.907  30.144  27.480  1.00  0.00     0.210 HD
ENDBRANCH  34  37
ENDBRANCH   5   8
ENDBRANCH   3   4
ENDBRANCH   2   3
ENDBRANCH   1   2
BRANCH   1  39
ATOM     39  C   UNL A   1      39.336  20.465  26.421  1.00  0.00     0.116 C 
BRANCH  39  40
ATOM     40  N   UNL A   1      40.379  19.543  25.997  1.00  0.00    -0.352 N 
ATOM     41  C   UNL A   1      41.752  19.631  26.037  1.00  0.00     0.251 C 
ATOM     42  H   UNL A   1      40.040  18.703  25.610  1.00  0.00     0.163 HD
ATOM     43  O   UNL A   1      42.428  18.697  25.623  1.00  0.00    -0.269 OA
BRANCH  41  44
ATOM     44  C   UNL A   1      42.427  20.865  26.496  1.00  0.00     0.039 A 
ATOM     45  C   UNL A   1      42.926  21.735  25.519  1.00  0.00     0.014 A 
ATOM     46  C   UNL A   1      42.561  21.189  27.846  1.00  0.00     0.014 A 
ATOM     47  C   UNL A   1      43.435  22.981  25.888  1.00  0.00     0.010 A 
ATOM     48  C   UNL A   1      43.005  22.462  28.212  1.00  0.00     0.010 A 
ATOM     49  C   UNL A   1      43.410  23.383  27.234  1.00  0.00    -0.014 A 
BRANCH  49  50
ATOM     50  C   UNL A   1      43.705  24.790  27.608  1.00  0.00     0.031 A 
ATOM     51  C   UNL A   1      45.116  25.282  27.743  1.00  0.00     0.074 A 
ATOM     52  C   UNL A   1      42.678  25.613  27.904  1.00  0.00     0.049 A 
ATOM     53  N   UNL A   1      45.548  26.463  28.111  1.00  0.00    -0.248 NA
ATOM     54  C   UNL A   1      46.184  24.315  27.451  1.00  0.00     0.031 C 
ATOM     55  C   UNL A   1      41.261  25.241  27.868  1.00  0.00     0.029 A 
ATOM     56  N   UNL A   1      42.663  26.928  28.301  1.00  0.00    -0.354 N 
ATOM     57  C   UNL A   1      46.932  26.378  28.108  1.00  0.00     0.074 A 
ATOM     58  C   UNL A   1      47.270  25.018  27.740  1.00  0.00     0.031 C 
ATOM     59  C   UNL A   1      40.516  26.308  28.197  1.00  0.00     0.029 A 
ATOM     60  C   UNL A   1      41.399  27.427  28.506  1.00  0.00     0.049 A 
ATOM     61  H   UNL A   1      43.481  27.462  28.427  1.00  0.00     0.167 HD
ATOM     62  C   UNL A   1      47.839  27.350  28.373  1.00  0.00     0.037 A 
ATOM     63  C   UNL A   1      40.996  28.648  28.905  1.00  0.00     0.037 A 
ATOM     64  C   UNL A   1      47.502  28.710  28.711  1.00  0.00     0.049 A 
ATOM     65  C   UNL A   1      42.023  29.706  29.192  1.00  0.00     0.074 A 
ATOM     66  C   UNL A   1      48.351  29.785  28.911  1.00  0.00     0.029 A 
ATOM     67  N   UNL A   1      46.211  29.178  28.908  1.00  0.00    -0.354 N 
ATOM     68  N   UNL A   1      43.328  29.636  29.106  1.00  0.00    -0.248 NA
ATOM     69  C   UNL A   1      41.519  31.015  29.633  1.00  0.00     0.031 C 
ATOM     70  C   UNL A   1      47.577  30.894  29.272  1.00  0.00     0.029 A 
ATOM     71  C   UNL A   1      46.243  30.520  29.256  1.00  0.00     0.049 A 
ATOM     72  H   UNL A   1      45.394  28.638  28.815  1.00  0.00     0.167 HD
ATOM     73  C   UNL A   1      43.801  30.891  29.460  1.00  0.00     0.074 A 
ATOM     74  C   UNL A   1      42.642  31.710  29.748  1.00  0.00     0.031 C 
ATOM     75  C   UNL A   1      45.082  31.324  29.542  1.00  0.00     0.037 A 
BRANCH  62  76
ATOM     76  C   UNL A   1      49.292  26.980  28.305  1.00  0.00     0.064 A 
ATOM     77  C   UNL A   1      49.993  26.546  29.440  1.00  0.00     0.173 A 
ATOM     78  C   UNL A   1      49.979  27.019  27.083  1.00  0.00     0.173 A 
ATOM     79  F   UNL A   1      49.382  26.499  30.633  1.00  0.00    -0.203 F 
ATOM     80  C   UNL A   1      51.338  26.194  29.360  1.00  0.00     0.198 A 
ATOM     81  C   UNL A   1      51.316  26.640  27.002  1.00  0.00     0.198 A 
ATOM     82  F   UNL A   1      49.352  27.419  25.967  1.00  0.00    -0.203 F 
ATOM     83  F   UNL A   1      52.000  25.826  30.466  1.00  0.00    -0.200 F 
ATOM     84  C   UNL A   1      51.996  26.236  28.140  1.00  0.00     0.200 A 
ATOM     85  F   UNL A   1      51.949  26.670  25.820  1.00  0.00    -0.200 F 
ATOM     86  F   UNL A   1      53.290  25.891  28.063  1.00  0.00    -0.200 F 
ENDBRANCH  62  76
BRANCH  63  87
ATOM     87  C   UNL A   1      39.546  28.943  29.029  1.00  0.00     0.064 A 
ATOM     88  C   UNL A   1      38.798  29.337  27.910  1.00  0.00     0.173 A 
ATOM     89  C   UNL A   1      38.878  28.839  30.257  1.00  0.00     0.173 A 
ATOM     90  F   UNL A   1      39.399  29.472  26.719  1.00  0.00    -0.203 F 
ATOM     91  C   UNL A   1      37.440  29.629  28.018  1.00  0.00     0.198 A 
ATOM     92  C   UNL A   1      37.515  29.106  30.359  1.00  0.00     0.198 A 
ATOM     93  F   UNL A   1      39.548  28.462  31.356  1.00  0.00    -0.203 F 
ATOM     94  F   UNL A   1      36.758  30.039  26.940  1.00  0.00    -0.200 F 
ATOM     95  C   UNL A   1      36.798  29.507  29.241  1.00  0.00     0.200 A 
ATOM     96  F   UNL A   1      36.895  28.976  31.539  1.00  0.00    -0.200 F 
ATOM     97  F   UNL A   1      35.491  29.783  29.343  1.00  0.00    -0.200 F 
ENDBRANCH  63  87
BRANCH  75  98
ATOM     98  C   UNL A   1      45.298  32.754  29.943  1.00  0.00     0.064 A 
ATOM     99  C   UNL A   1      45.505  33.114  31.282  1.00  0.00     0.173 A 
ATOM    100  C   UNL A   1      45.333  33.767  28.974  1.00  0.00     0.173 A 
ATOM    101  F   UNL A   1      45.461  32.183  32.246  1.00  0.00    -0.203 F 
ATOM    102  C   UNL A   1      45.717  34.443  31.640  1.00  0.00     0.198 A 
ATOM    103  C   UNL A   1      45.573  35.091  29.333  1.00  0.00     0.198 A 
ATOM    104  F   UNL A   1      45.144  33.473  27.679  1.00  0.00    -0.203 F 
ATOM    105  F   UNL A   1      45.870  34.771  32.930  1.00  0.00    -0.200 F 
ATOM    106  C   UNL A   1      45.759  35.428  30.665  1.00  0.00     0.200 A 
ATOM    107  F   UNL A   1      45.621  36.041  28.389  1.00  0.00    -0.200 F 
ATOM    108  F   UNL A   1      45.970  36.706  31.011  1.00  0.00    -0.200 F 
ENDBRANCH  75  98
ENDBRANCH  49  50
ENDBRANCH  41  44
ENDBRANCH  39  40
ENDBRANCH   1  39
TORSDOF 12
ENDMDL
