MODEL 1
REMARK VINA RESULT:      -9.9      0.000      0.000
REMARK SMILES CCCCCCCCNC(=O)Oc1cccc(-c2ccc([C@@H](C)C(=O)NCCCCNC(=O)c3ccc(-c4c5nc(c(-c6c(F)c(F)c(F)c(F)c6F)c6ccc([nH]6)c(-c6c(F)c(F)c(F)c(F)c6F)c6nc(c(-c7c(F)c(F)c(F)c(F)c7F)c7ccc4[nH]7)C=C6)C=C5)cc3)cc2F)c1
REMARK SMILES IDX 18 1 19 2 20 3 21 4 97 5 98 6 99 7 17 8 13 9 14 10 100 11
REMARK SMILES IDX 15 12 16 13 12 14 10 15 9 16 11 18 8 19 7 20 6 21 5 22 4 23
REMARK SMILES IDX 3 24 2 25 1 26 22 27 23 28 24 29 25 30 26 31 27 33 28 34
REMARK SMILES IDX 29 35 30 36 31 37 32 38 33 40 34 41 35 42 96 43 36 44 95 45
REMARK SMILES IDX 37 46 38 47 39 48 89 49 40 50 94 51 88 52 90 53 41 54 93 55
REMARK SMILES IDX 87 56 86 57 42 59 74 60 54 61 73 62 55 63 58 64 72 65 91 66
REMARK SMILES IDX 56 67 57 68 71 70 92 71 59 72 43 73 44 74 52 75 45 76 46 77
REMARK SMILES IDX 50 78 53 79 47 80 48 81 51 82 49 83 75 84 76 85 84 86 77 87
REMARK SMILES IDX 78 88 82 89 85 90 79 91 80 92 83 93 81 94 60 95 61 96 69 97
REMARK SMILES IDX 62 98 63 99 67 100 70 101 64 102 65 103 68 104 66 105
REMARK H PARENT 9 17 26 32 31 39 90 58 58 69
REMARK Flexibility Score: inf
ROOT
ATOM      1  C   UNL A   1      36.498  33.701  33.169  1.00  0.00     0.018 A 
ATOM      2  C   UNL A   1      36.090  34.999  33.517  1.00  0.00     0.012 A 
ATOM      3  C   UNL A   1      34.846  35.513  33.133  1.00  0.00     0.005 A 
ATOM      4  C   UNL A   1      33.986  34.784  32.309  1.00  0.00    -0.033 A 
ATOM      5  C   UNL A   1      34.368  33.477  31.976  1.00  0.00     0.044 A 
ATOM      6  C   UNL A   1      35.584  32.945  32.420  1.00  0.00     0.131 A 
ATOM      7  F   UNL A   1      35.852  31.669  32.097  1.00  0.00    -0.206 F 
ENDROOT
BRANCH   1   8
ATOM      8  C   UNL A   1      37.832  33.197  33.576  1.00  0.00    -0.012 A 
ATOM      9  C   UNL A   1      39.298  31.426  34.370  1.00  0.00     0.133 A 
ATOM     10  C   UNL A   1      40.413  32.250  34.279  1.00  0.00     0.047 A 
ATOM     11  C   UNL A   1      38.022  31.881  34.030  1.00  0.00     0.056 A 
ATOM     12  C   UNL A   1      40.252  33.554  33.831  1.00  0.00     0.004 A 
ATOM     13  C   UNL A   1      38.977  34.021  33.496  1.00  0.00     0.009 A 
BRANCH   9  14
ATOM     14  O   UNL A   1      39.491  30.167  34.949  1.00  0.00    -0.410 OA
BRANCH  14  15
ATOM     15  C   UNL A   1      40.665  29.947  35.649  1.00  0.00     0.412 C 
ATOM     16  N   UNL A   1      41.456  29.001  35.058  1.00  0.00    -0.321 N 
ATOM     17  H   UNL A   1      42.309  28.791  35.504  1.00  0.00     0.167 HD
ATOM     18  O   UNL A   1      41.001  30.494  36.692  1.00  0.00    -0.224 OA
BRANCH  16  19
ATOM     19  C   UNL A   1      41.161  28.275  33.837  1.00  0.00     0.119 C 
BRANCH  19  20
ATOM     20  C   UNL A   1      42.431  27.814  33.126  1.00  0.00     0.021 C 
BRANCH  20  21
ATOM     21  C   UNL A   1      43.648  27.637  34.043  1.00  0.00     0.002 C 
BRANCH  21  22
ATOM     22  C   UNL A   1      43.492  26.571  35.134  1.00  0.00     0.000 C 
BRANCH  22  23
ATOM     23  C   UNL A   1      43.285  25.143  34.618  1.00  0.00    -0.000 C 
BRANCH  23  24
ATOM     24  C   UNL A   1      44.420  24.600  33.743  1.00  0.00    -0.000 C 
BRANCH  24  25
ATOM     25  C   UNL A   1      44.322  23.112  33.395  1.00  0.00    -0.003 C 
ATOM     26  C   UNL A   1      45.376  22.260  34.085  1.00  0.00     0.004 C 
ENDBRANCH  24  25
ENDBRANCH  23  24
ENDBRANCH  22  23
ENDBRANCH  21  22
ENDBRANCH  20  21
ENDBRANCH  19  20
ENDBRANCH  16  19
ENDBRANCH  14  15
ENDBRANCH   9  14
ENDBRANCH   1   8
BRANCH   4  27
ATOM     27  C   UNL A   1      32.701  35.360  31.738  1.00  0.00     0.105 C 
ATOM     28  C   UNL A   1      31.640  35.767  32.761  1.00  0.00     0.023 C 
BRANCH  27  29
ATOM     29  C   UNL A   1      32.933  36.407  30.635  1.00  0.00     0.227 C 
ATOM     30  O   UNL A   1      32.869  37.612  30.908  1.00  0.00    -0.274 OA
ATOM     31  N   UNL A   1      33.228  36.097  29.342  1.00  0.00    -0.356 N 
ATOM     32  H   UNL A   1      33.417  36.878  28.773  1.00  0.00     0.163 HD
BRANCH  31  33
ATOM     33  C   UNL A   1      33.314  34.827  28.655  1.00  0.00     0.116 C 
BRANCH  33  34
ATOM     34  C   UNL A   1      34.623  34.682  27.875  1.00  0.00     0.023 C 
BRANCH  34  35
ATOM     35  C   UNL A   1      35.271  33.301  27.954  1.00  0.00     0.023 C 
BRANCH  35  36
ATOM     36  C   UNL A   1      34.588  32.319  28.897  1.00  0.00     0.116 C 
BRANCH  36  37
ATOM     37  N   UNL A   1      34.019  31.153  28.236  1.00  0.00    -0.352 N 
ATOM     38  C   UNL A   1      34.650  29.975  27.909  1.00  0.00     0.251 C 
ATOM     39  H   UNL A   1      33.067  31.215  27.993  1.00  0.00     0.163 HD
ATOM     40  O   UNL A   1      34.065  29.097  27.284  1.00  0.00    -0.269 OA
BRANCH  38  41
ATOM     41  C   UNL A   1      36.069  29.803  28.281  1.00  0.00     0.039 A 
ATOM     42  C   UNL A   1      36.383  29.327  29.556  1.00  0.00     0.014 A 
ATOM     43  C   UNL A   1      37.078  30.038  27.344  1.00  0.00     0.014 A 
ATOM     44  C   UNL A   1      37.708  29.013  29.866  1.00  0.00     0.010 A 
ATOM     45  C   UNL A   1      38.381  29.646  27.625  1.00  0.00     0.010 A 
ATOM     46  C   UNL A   1      38.709  29.131  28.889  1.00  0.00    -0.014 A 
BRANCH  46  47
ATOM     47  C   UNL A   1      40.114  28.742  29.169  1.00  0.00     0.031 A 
ATOM     48  C   UNL A   1      41.006  29.679  29.937  1.00  0.00     0.074 A 
ATOM     49  C   UNL A   1      40.604  27.588  28.677  1.00  0.00     0.049 A 
ATOM     50  N   UNL A   1      42.282  29.573  30.208  1.00  0.00    -0.248 NA
ATOM     51  C   UNL A   1      40.386  30.914  30.442  1.00  0.00     0.031 C 
ATOM     52  C   UNL A   1      39.853  26.619  27.879  1.00  0.00     0.029 A 
ATOM     53  N   UNL A   1      41.859  27.037  28.772  1.00  0.00    -0.354 N 
ATOM     54  C   UNL A   1      42.617  30.731  30.898  1.00  0.00     0.074 A 
ATOM     55  C   UNL A   1      41.428  31.554  30.949  1.00  0.00     0.031 C 
ATOM     56  C   UNL A   1      40.651  25.580  27.580  1.00  0.00     0.029 A 
ATOM     57  C   UNL A   1      41.979  25.827  28.133  1.00  0.00     0.049 A 
ATOM     58  H   UNL A   1      42.601  27.469  29.251  1.00  0.00     0.167 HD
ATOM     59  C   UNL A   1      43.798  31.063  31.470  1.00  0.00     0.037 A 
ATOM     60  C   UNL A   1      43.045  25.012  28.008  1.00  0.00     0.037 A 
ATOM     61  C   UNL A   1      44.969  30.229  31.444  1.00  0.00     0.049 A 
ATOM     62  C   UNL A   1      44.350  25.412  28.644  1.00  0.00     0.074 A 
ATOM     63  C   UNL A   1      46.207  30.458  32.020  1.00  0.00     0.029 A 
ATOM     64  N   UNL A   1      45.044  28.998  30.809  1.00  0.00    -0.354 N 
ATOM     65  N   UNL A   1      44.638  26.484  29.342  1.00  0.00    -0.248 NA
ATOM     66  C   UNL A   1      45.477  24.482  28.481  1.00  0.00     0.031 C 
ATOM     67  C   UNL A   1      47.040  29.380  31.707  1.00  0.00     0.029 A 
ATOM     68  C   UNL A   1      46.310  28.458  30.974  1.00  0.00     0.049 A 
ATOM     69  H   UNL A   1      44.308  28.571  30.314  1.00  0.00     0.167 HD
ATOM     70  C   UNL A   1      45.963  26.339  29.734  1.00  0.00     0.074 A 
ATOM     71  C   UNL A   1      46.418  25.071  29.204  1.00  0.00     0.031 C 
ATOM     72  C   UNL A   1      46.733  27.181  30.464  1.00  0.00     0.037 A 
BRANCH  59  73
ATOM     73  C   UNL A   1      43.872  32.378  32.189  1.00  0.00     0.064 A 
ATOM     74  C   UNL A   1      43.798  32.450  33.588  1.00  0.00     0.173 A 
ATOM     75  C   UNL A   1      44.050  33.574  31.479  1.00  0.00     0.173 A 
ATOM     76  F   UNL A   1      43.613  31.336  34.314  1.00  0.00    -0.203 F 
ATOM     77  C   UNL A   1      43.870  33.674  34.249  1.00  0.00     0.198 A 
ATOM     78  C   UNL A   1      44.153  34.793  32.144  1.00  0.00     0.198 A 
ATOM     79  F   UNL A   1      44.131  33.561  30.140  1.00  0.00    -0.203 F 
ATOM     80  F   UNL A   1      43.745  33.722  35.582  1.00  0.00    -0.200 F 
ATOM     81  C   UNL A   1      44.056  34.843  33.526  1.00  0.00     0.200 A 
ATOM     82  F   UNL A   1      44.345  35.922  31.447  1.00  0.00    -0.200 F 
ATOM     83  F   UNL A   1      44.133  36.020  34.164  1.00  0.00    -0.200 F 
ENDBRANCH  59  73
BRANCH  60  84
ATOM     84  C   UNL A   1      42.924  23.721  27.279  1.00  0.00     0.064 A 
ATOM     85  C   UNL A   1      42.439  22.577  27.929  1.00  0.00     0.173 A 
ATOM     86  C   UNL A   1      43.315  23.594  25.939  1.00  0.00     0.173 A 
ATOM     87  F   UNL A   1      42.072  22.643  29.216  1.00  0.00    -0.203 F 
ATOM     88  C   UNL A   1      42.380  21.348  27.275  1.00  0.00     0.198 A 
ATOM     89  C   UNL A   1      43.228  22.370  25.278  1.00  0.00     0.198 A 
ATOM     90  F   UNL A   1      43.782  24.659  25.271  1.00  0.00    -0.203 F 
ATOM     91  F   UNL A   1      41.968  20.258  27.937  1.00  0.00    -0.200 F 
ATOM     92  C   UNL A   1      42.771  21.245  25.949  1.00  0.00     0.200 A 
ATOM     93  F   UNL A   1      43.597  22.279  23.993  1.00  0.00    -0.200 F 
ATOM     94  F   UNL A   1      42.721  20.062  25.323  1.00  0.00    -0.200 F 
ENDBRANCH  60  84
BRANCH  72  95
ATOM     95  C   UNL A   1      48.129  26.734  30.784  1.00  0.00     0.064 A 
ATOM     96  C   UNL A   1      48.410  25.928  31.897  1.00  0.00     0.173 A 
ATOM     97  C   UNL A   1      49.194  27.085  29.939  1.00  0.00     0.173 A 
ATOM     98  F   UNL A   1      47.429  25.580  32.742  1.00  0.00    -0.203 F 
ATOM     99  C   UNL A   1      49.710  25.511  32.167  1.00  0.00     0.198 A 
ATOM    100  C   UNL A   1      50.487  26.640  30.195  1.00  0.00     0.198 A 
ATOM    101  F   UNL A   1      48.977  27.847  28.857  1.00  0.00    -0.203 F 
ATOM    102  F   UNL A   1      49.963  24.780  33.262  1.00  0.00    -0.200 F 
ATOM    103  C   UNL A   1      50.746  25.859  31.312  1.00  0.00     0.200 A 
ATOM    104  F   UNL A   1      51.484  26.966  29.361  1.00  0.00    -0.200 F 
ATOM    105  F   UNL A   1      51.995  25.450  31.569  1.00  0.00    -0.200 F 
ENDBRANCH  72  95
ENDBRANCH  46  47
ENDBRANCH  38  41
ENDBRANCH  36  37
ENDBRANCH  35  36
ENDBRANCH  34  35
ENDBRANCH  33  34
ENDBRANCH  31  33
ENDBRANCH  27  29
ENDBRANCH   4  27
TORSDOF 22
ENDMDL
MODEL 2
REMARK VINA RESULT:      -9.7      3.016      8.125
REMARK SMILES CCCCCCCCNC(=O)Oc1cccc(-c2ccc([C@@H](C)C(=O)NCCCCNC(=O)c3ccc(-c4c5nc(c(-c6c(F)c(F)c(F)c(F)c6F)c6ccc([nH]6)c(-c6c(F)c(F)c(F)c(F)c6F)c6nc(c(-c7c(F)c(F)c(F)c(F)c7F)c7ccc4[nH]7)C=C6)C=C5)cc3)cc2F)c1
REMARK SMILES IDX 18 1 19 2 20 3 21 4 97 5 98 6 99 7 17 8 13 9 14 10 100 11
REMARK SMILES IDX 15 12 16 13 12 14 10 15 9 16 11 18 8 19 7 20 6 21 5 22 4 23
REMARK SMILES IDX 3 24 2 25 1 26 22 27 23 28 24 29 25 30 26 31 27 33 28 34
REMARK SMILES IDX 29 35 30 36 31 37 32 38 33 40 34 41 35 42 96 43 36 44 95 45
REMARK SMILES IDX 37 46 38 47 39 48 89 49 40 50 94 51 88 52 90 53 41 54 93 55
REMARK SMILES IDX 87 56 86 57 42 59 74 60 54 61 73 62 55 63 58 64 72 65 91 66
REMARK SMILES IDX 56 67 57 68 71 70 92 71 59 72 43 73 44 74 52 75 45 76 46 77
REMARK SMILES IDX 50 78 53 79 47 80 48 81 51 82 49 83 75 84 76 85 84 86 77 87
REMARK SMILES IDX 78 88 82 89 85 90 79 91 80 92 83 93 81 94 60 95 61 96 69 97
REMARK SMILES IDX 62 98 63 99 67 100 70 101 64 102 65 103 68 104 66 105
REMARK H PARENT 9 17 26 32 31 39 90 58 58 69
REMARK Flexibility Score: inf
ROOT
ATOM      1  C   UNL A   1      39.148  29.264  28.639  1.00  0.00     0.018 A 
ATOM      2  C   UNL A   1      39.976  30.015  29.489  1.00  0.00     0.012 A 
ATOM      3  C   UNL A   1      39.584  31.259  29.997  1.00  0.00     0.005 A 
ATOM      4  C   UNL A   1      38.380  31.850  29.609  1.00  0.00    -0.033 A 
ATOM      5  C   UNL A   1      37.531  31.101  28.783  1.00  0.00     0.044 A 
ATOM      6  C   UNL A   1      37.901  29.829  28.332  1.00  0.00     0.131 A 
ATOM      7  F   UNL A   1      37.010  29.158  27.585  1.00  0.00    -0.206 F 
ENDROOT
BRANCH   1   8
ATOM      8  C   UNL A   1      39.606  27.959  28.103  1.00  0.00    -0.012 A 
ATOM      9  C   UNL A   1      40.849  26.628  26.491  1.00  0.00     0.133 A 
ATOM     10  C   UNL A   1      40.519  25.448  27.146  1.00  0.00     0.047 A 
ATOM     11  C   UNL A   1      40.403  27.870  26.949  1.00  0.00     0.056 A 
ATOM     12  C   UNL A   1      39.733  25.510  28.289  1.00  0.00     0.004 A 
ATOM     13  C   UNL A   1      39.276  26.749  28.751  1.00  0.00     0.009 A 
BRANCH   9  14
ATOM     14  O   UNL A   1      41.530  26.503  25.274  1.00  0.00    -0.410 OA
BRANCH  14  15
ATOM     15  C   UNL A   1      42.860  26.886  25.232  1.00  0.00     0.412 C 
ATOM     16  N   UNL A   1      43.705  25.819  25.099  1.00  0.00    -0.321 N 
ATOM     17  H   UNL A   1      44.670  26.017  25.064  1.00  0.00     0.167 HD
ATOM     18  O   UNL A   1      43.288  28.029  25.319  1.00  0.00    -0.224 OA
BRANCH  16  19
ATOM     19  C   UNL A   1      43.320  24.424  25.004  1.00  0.00     0.119 C 
BRANCH  19  20
ATOM     20  C   UNL A   1      43.895  23.594  26.150  1.00  0.00     0.021 C 
BRANCH  20  21
ATOM     21  C   UNL A   1      45.017  24.283  26.937  1.00  0.00     0.002 C 
BRANCH  21  22
ATOM     22  C   UNL A   1      45.280  23.709  28.334  1.00  0.00     0.000 C 
BRANCH  22  23
ATOM     23  C   UNL A   1      44.493  24.378  29.466  1.00  0.00    -0.000 C 
BRANCH  23  24
ATOM     24  C   UNL A   1      43.409  25.361  29.007  1.00  0.00    -0.000 C 
BRANCH  24  25
ATOM     25  C   UNL A   1      43.873  26.810  28.835  1.00  0.00    -0.003 C 
ATOM     26  C   UNL A   1      43.000  27.814  29.573  1.00  0.00     0.004 C 
ENDBRANCH  24  25
ENDBRANCH  23  24
ENDBRANCH  22  23
ENDBRANCH  21  22
ENDBRANCH  20  21
ENDBRANCH  19  20
ENDBRANCH  16  19
ENDBRANCH  14  15
ENDBRANCH   9  14
ENDBRANCH   1   8
BRANCH   4  27
ATOM     27  C   UNL A   1      37.986  33.263  30.007  1.00  0.00     0.105 C 
ATOM     28  C   UNL A   1      38.881  34.381  29.470  1.00  0.00     0.023 C 
BRANCH  27  29
ATOM     29  C   UNL A   1      36.482  33.548  29.857  1.00  0.00     0.227 C 
ATOM     30  O   UNL A   1      36.036  33.946  28.774  1.00  0.00    -0.274 OA
ATOM     31  N   UNL A   1      35.572  33.374  30.855  1.00  0.00    -0.356 N 
ATOM     32  H   UNL A   1      34.639  33.532  30.582  1.00  0.00     0.163 HD
BRANCH  31  33
ATOM     33  C   UNL A   1      35.729  32.999  32.243  1.00  0.00     0.116 C 
BRANCH  33  34
ATOM     34  C   UNL A   1      36.338  34.126  33.079  1.00  0.00     0.023 C 
BRANCH  34  35
ATOM     35  C   UNL A   1      36.068  34.034  34.580  1.00  0.00     0.023 C 
BRANCH  35  36
ATOM     36  C   UNL A   1      37.307  33.876  35.451  1.00  0.00     0.116 C 
BRANCH  36  37
ATOM     37  N   UNL A   1      37.198  32.835  36.463  1.00  0.00    -0.352 N 
ATOM     38  C   UNL A   1      37.954  31.690  36.583  1.00  0.00     0.251 C 
ATOM     39  H   UNL A   1      36.498  32.963  37.143  1.00  0.00     0.163 HD
ATOM     40  O   UNL A   1      37.704  30.857  37.447  1.00  0.00    -0.269 OA
BRANCH  38  41
ATOM     41  C   UNL A   1      39.046  31.456  35.616  1.00  0.00     0.039 A 
ATOM     42  C   UNL A   1      40.346  31.837  35.958  1.00  0.00     0.014 A 
ATOM     43  C   UNL A   1      38.793  30.794  34.413  1.00  0.00     0.014 A 
ATOM     44  C   UNL A   1      41.407  31.482  35.122  1.00  0.00     0.010 A 
ATOM     45  C   UNL A   1      39.857  30.368  33.628  1.00  0.00     0.010 A 
ATOM     46  C   UNL A   1      41.174  30.709  33.973  1.00  0.00    -0.014 A 
BRANCH  46  47
ATOM     47  C   UNL A   1      42.290  30.261  33.102  1.00  0.00     0.031 A 
ATOM     48  C   UNL A   1      42.986  28.960  33.396  1.00  0.00     0.074 A 
ATOM     49  C   UNL A   1      42.718  31.049  32.097  1.00  0.00     0.049 A 
ATOM     50  N   UNL A   1      44.036  28.433  32.819  1.00  0.00    -0.248 NA
ATOM     51  C   UNL A   1      42.447  28.161  34.508  1.00  0.00     0.031 C 
ATOM     52  C   UNL A   1      42.156  32.352  31.742  1.00  0.00     0.029 A 
ATOM     53  N   UNL A   1      43.736  30.870  31.192  1.00  0.00    -0.354 N 
ATOM     54  C   UNL A   1      44.289  27.253  33.506  1.00  0.00     0.074 A 
ATOM     55  C   UNL A   1      43.326  27.172  34.582  1.00  0.00     0.031 C 
ATOM     56  C   UNL A   1      42.815  32.842  30.679  1.00  0.00     0.029 A 
ATOM     57  C   UNL A   1      43.871  31.907  30.302  1.00  0.00     0.049 A 
ATOM     58  H   UNL A   1      44.314  30.074  31.183  1.00  0.00     0.167 HD
ATOM     59  C   UNL A   1      45.217  26.304  33.243  1.00  0.00     0.037 A 
ATOM     60  C   UNL A   1      44.750  32.080  29.296  1.00  0.00     0.037 A 
ATOM     61  C   UNL A   1      46.154  26.372  32.154  1.00  0.00     0.049 A 
ATOM     62  C   UNL A   1      45.780  31.013  29.033  1.00  0.00     0.074 A 
ATOM     63  C   UNL A   1      47.114  25.448  31.781  1.00  0.00     0.029 A 
ATOM     64  N   UNL A   1      46.242  27.426  31.257  1.00  0.00    -0.354 N 
ATOM     65  N   UNL A   1      45.973  29.876  29.656  1.00  0.00    -0.248 NA
ATOM     66  C   UNL A   1      46.709  31.253  27.919  1.00  0.00     0.031 C 
ATOM     67  C   UNL A   1      47.805  25.958  30.677  1.00  0.00     0.029 A 
ATOM     68  C   UNL A   1      47.246  27.178  30.334  1.00  0.00     0.049 A 
ATOM     69  H   UNL A   1      45.676  28.232  31.274  1.00  0.00     0.167 HD
ATOM     70  C   UNL A   1      47.016  29.248  28.987  1.00  0.00     0.074 A 
ATOM     71  C   UNL A   1      47.407  30.126  27.905  1.00  0.00     0.031 C 
ATOM     72  C   UNL A   1      47.599  28.053  29.248  1.00  0.00     0.037 A 
BRANCH  59  73
ATOM     73  C   UNL A   1      45.249  25.101  34.140  1.00  0.00     0.064 A 
ATOM     74  C   UNL A   1      45.979  25.102  35.338  1.00  0.00     0.173 A 
ATOM     75  C   UNL A   1      44.518  23.948  33.818  1.00  0.00     0.173 A 
ATOM     76  F   UNL A   1      46.706  26.175  35.684  1.00  0.00    -0.203 F 
ATOM     77  C   UNL A   1      46.001  23.983  36.166  1.00  0.00     0.198 A 
ATOM     78  C   UNL A   1      44.517  22.842  34.664  1.00  0.00     0.198 A 
ATOM     79  F   UNL A   1      43.799  23.895  32.687  1.00  0.00    -0.203 F 
ATOM     80  F   UNL A   1      46.747  23.990  37.278  1.00  0.00    -0.200 F 
ATOM     81  C   UNL A   1      45.263  22.858  35.832  1.00  0.00     0.200 A 
ATOM     82  F   UNL A   1      43.794  21.757  34.347  1.00  0.00    -0.200 F 
ATOM     83  F   UNL A   1      45.279  21.784  36.635  1.00  0.00    -0.200 F 
ENDBRANCH  59  73
BRANCH  60  84
ATOM     84  C   UNL A   1      44.683  33.293  28.438  1.00  0.00     0.064 A 
ATOM     85  C   UNL A   1      45.203  34.516  28.887  1.00  0.00     0.173 A 
ATOM     86  C   UNL A   1      44.076  33.267  27.175  1.00  0.00     0.173 A 
ATOM     87  F   UNL A   1      45.774  34.597  30.097  1.00  0.00    -0.203 F 
ATOM     88  C   UNL A   1      45.090  35.673  28.118  1.00  0.00     0.198 A 
ATOM     89  C   UNL A   1      43.991  34.419  26.394  1.00  0.00     0.198 A 
ATOM     90  F   UNL A   1      43.567  32.122  26.697  1.00  0.00    -0.203 F 
ATOM     91  F   UNL A   1      45.543  36.840  28.597  1.00  0.00    -0.200 F 
ATOM     92  C   UNL A   1      44.487  35.623  26.871  1.00  0.00     0.200 A 
ATOM     93  F   UNL A   1      43.416  34.363  25.185  1.00  0.00    -0.200 F 
ATOM     94  F   UNL A   1      44.372  36.736  26.135  1.00  0.00    -0.200 F 
ENDBRANCH  60  84
BRANCH  72  95
ATOM     95  C   UNL A   1      48.682  27.597  28.314  1.00  0.00     0.064 A 
ATOM     96  C   UNL A   1      48.392  26.906  27.128  1.00  0.00     0.173 A 
ATOM     97  C   UNL A   1      50.025  27.893  28.592  1.00  0.00     0.173 A 
ATOM     98  F   UNL A   1      47.125  26.586  26.826  1.00  0.00    -0.203 F 
ATOM     99  C   UNL A   1      49.410  26.507  26.268  1.00  0.00     0.198 A 
ATOM    100  C   UNL A   1      51.037  27.519  27.714  1.00  0.00     0.198 A 
ATOM    101  F   UNL A   1      50.354  28.558  29.709  1.00  0.00    -0.203 F 
ATOM    102  F   UNL A   1      49.114  25.806  25.163  1.00  0.00    -0.200 F 
ATOM    103  C   UNL A   1      50.730  26.820  26.556  1.00  0.00     0.200 A 
ATOM    104  F   UNL A   1      52.310  27.834  27.987  1.00  0.00    -0.200 F 
ATOM    105  F   UNL A   1      51.708  26.441  25.722  1.00  0.00    -0.200 F 
ENDBRANCH  72  95
ENDBRANCH  46  47
ENDBRANCH  38  41
ENDBRANCH  36  37
ENDBRANCH  35  36
ENDBRANCH  34  35
ENDBRANCH  33  34
ENDBRANCH  31  33
ENDBRANCH  27  29
ENDBRANCH   4  27
TORSDOF 22
ENDMDL
MODEL 3
REMARK VINA RESULT:      -9.2      2.997      8.065
REMARK SMILES CCCCCCCCNC(=O)Oc1cccc(-c2ccc([C@@H](C)C(=O)NCCCCNC(=O)c3ccc(-c4c5nc(c(-c6c(F)c(F)c(F)c(F)c6F)c6ccc([nH]6)c(-c6c(F)c(F)c(F)c(F)c6F)c6nc(c(-c7c(F)c(F)c(F)c(F)c7F)c7ccc4[nH]7)C=C6)C=C5)cc3)cc2F)c1
REMARK SMILES IDX 18 1 19 2 20 3 21 4 97 5 98 6 99 7 17 8 13 9 14 10 100 11
REMARK SMILES IDX 15 12 16 13 12 14 10 15 9 16 11 18 8 19 7 20 6 21 5 22 4 23
REMARK SMILES IDX 3 24 2 25 1 26 22 27 23 28 24 29 25 30 26 31 27 33 28 34
REMARK SMILES IDX 29 35 30 36 31 37 32 38 33 40 34 41 35 42 96 43 36 44 95 45
REMARK SMILES IDX 37 46 38 47 39 48 89 49 40 50 94 51 88 52 90 53 41 54 93 55
REMARK SMILES IDX 87 56 86 57 42 59 74 60 54 61 73 62 55 63 58 64 72 65 91 66
REMARK SMILES IDX 56 67 57 68 71 70 92 71 59 72 43 73 44 74 52 75 45 76 46 77
REMARK SMILES IDX 50 78 53 79 47 80 48 81 51 82 49 83 75 84 76 85 84 86 77 87
REMARK SMILES IDX 78 88 82 89 85 90 79 91 80 92 83 93 81 94 60 95 61 96 69 97
REMARK SMILES IDX 62 98 63 99 67 100 70 101 64 102 65 103 68 104 66 105
REMARK H PARENT 9 17 26 32 31 39 90 58 58 69
REMARK Flexibility Score: inf
ROOT
ATOM      1  C   UNL A   1      39.035  29.282  28.208  1.00  0.00     0.018 A 
ATOM      2  C   UNL A   1      37.836  29.734  27.632  1.00  0.00     0.012 A 
ATOM      3  C   UNL A   1      37.000  30.649  28.282  1.00  0.00     0.005 A 
ATOM      4  C   UNL A   1      37.279  31.089  29.577  1.00  0.00    -0.033 A 
ATOM      5  C   UNL A   1      38.485  30.668  30.155  1.00  0.00     0.044 A 
ATOM      6  C   UNL A   1      39.350  29.805  29.472  1.00  0.00     0.131 A 
ATOM      7  F   UNL A   1      40.506  29.488  30.075  1.00  0.00    -0.206 F 
ENDROOT
BRANCH   1   8
ATOM      8  C   UNL A   1      39.886  28.296  27.499  1.00  0.00    -0.012 A 
ATOM      9  C   UNL A   1      40.633  26.017  27.096  1.00  0.00     0.133 A 
ATOM     10  C   UNL A   1      41.480  26.431  26.074  1.00  0.00     0.047 A 
ATOM     11  C   UNL A   1      39.846  26.925  27.807  1.00  0.00     0.056 A 
ATOM     12  C   UNL A   1      41.535  27.779  25.750  1.00  0.00     0.004 A 
ATOM     13  C   UNL A   1      40.757  28.697  26.463  1.00  0.00     0.009 A 
BRANCH   9  14
ATOM     14  O   UNL A   1      40.710  24.671  27.471  1.00  0.00    -0.410 OA
BRANCH  14  15
ATOM     15  C   UNL A   1      39.952  23.755  26.761  1.00  0.00     0.412 C 
ATOM     16  N   UNL A   1      40.722  22.810  26.140  1.00  0.00    -0.321 N 
ATOM     17  H   UNL A   1      40.248  22.126  25.615  1.00  0.00     0.167 HD
ATOM     18  O   UNL A   1      38.733  23.752  26.653  1.00  0.00    -0.224 OA
BRANCH  16  19
ATOM     19  C   UNL A   1      42.169  22.719  26.181  1.00  0.00     0.119 C 
BRANCH  19  20
ATOM     20  C   UNL A   1      42.675  22.286  27.555  1.00  0.00     0.021 C 
BRANCH  20  21
ATOM     21  C   UNL A   1      43.984  22.956  27.993  1.00  0.00     0.002 C 
BRANCH  21  22
ATOM     22  C   UNL A   1      44.319  24.266  27.272  1.00  0.00     0.000 C 
BRANCH  22  23
ATOM     23  C   UNL A   1      44.468  25.487  28.186  1.00  0.00    -0.000 C 
BRANCH  23  24
ATOM     24  C   UNL A   1      43.688  25.407  29.503  1.00  0.00    -0.000 C 
BRANCH  24  25
ATOM     25  C   UNL A   1      42.954  26.689  29.906  1.00  0.00    -0.003 C 
ATOM     26  C   UNL A   1      43.319  27.889  29.044  1.00  0.00     0.004 C 
ENDBRANCH  24  25
ENDBRANCH  23  24
ENDBRANCH  22  23
ENDBRANCH  21  22
ENDBRANCH  20  21
ENDBRANCH  19  20
ENDBRANCH  16  19
ENDBRANCH  14  15
ENDBRANCH   9  14
ENDBRANCH   1   8
BRANCH   4  27
ATOM     27  C   UNL A   1      36.323  31.954  30.382  1.00  0.00     0.105 C 
ATOM     28  C   UNL A   1      35.976  31.441  31.780  1.00  0.00     0.023 C 
BRANCH  27  29
ATOM     29  C   UNL A   1      36.664  33.453  30.340  1.00  0.00     0.227 C 
ATOM     30  O   UNL A   1      36.120  34.185  29.504  1.00  0.00    -0.274 OA
ATOM     31  N   UNL A   1      37.538  34.058  31.192  1.00  0.00    -0.356 N 
ATOM     32  H   UNL A   1      37.596  35.035  31.083  1.00  0.00     0.163 HD
BRANCH  31  33
ATOM     33  C   UNL A   1      38.395  33.523  32.228  1.00  0.00     0.116 C 
BRANCH  33  34
ATOM     34  C   UNL A   1      38.800  34.590  33.247  1.00  0.00     0.023 C 
BRANCH  34  35
ATOM     35  C   UNL A   1      37.997  34.579  34.547  1.00  0.00     0.023 C 
BRANCH  35  36
ATOM     36  C   UNL A   1      36.945  33.483  34.647  1.00  0.00     0.116 C 
BRANCH  36  37
ATOM     37  N   UNL A   1      37.024  32.687  35.864  1.00  0.00    -0.352 N 
ATOM     38  C   UNL A   1      37.952  31.721  36.183  1.00  0.00     0.251 C 
ATOM     39  H   UNL A   1      36.331  32.860  36.541  1.00  0.00     0.163 HD
ATOM     40  O   UNL A   1      37.857  31.073  37.220  1.00  0.00    -0.269 OA
BRANCH  38  41
ATOM     41  C   UNL A   1      39.042  31.440  35.227  1.00  0.00     0.039 A 
ATOM     42  C   UNL A   1      40.307  31.983  35.465  1.00  0.00     0.014 A 
ATOM     43  C   UNL A   1      38.830  30.582  34.146  1.00  0.00     0.014 A 
ATOM     44  C   UNL A   1      41.381  31.601  34.658  1.00  0.00     0.010 A 
ATOM     45  C   UNL A   1      39.914  30.138  33.399  1.00  0.00     0.010 A 
ATOM     46  C   UNL A   1      41.200  30.644  33.646  1.00  0.00    -0.014 A 
BRANCH  46  47
ATOM     47  C   UNL A   1      42.336  30.169  32.816  1.00  0.00     0.031 A 
ATOM     48  C   UNL A   1      43.019  28.874  33.161  1.00  0.00     0.074 A 
ATOM     49  C   UNL A   1      42.793  30.929  31.803  1.00  0.00     0.049 A 
ATOM     50  N   UNL A   1      44.081  28.329  32.626  1.00  0.00    -0.248 NA
ATOM     51  C   UNL A   1      42.448  28.106  34.279  1.00  0.00     0.031 C 
ATOM     52  C   UNL A   1      42.246  32.225  31.399  1.00  0.00     0.029 A 
ATOM     53  N   UNL A   1      43.833  30.723  30.930  1.00  0.00    -0.354 N 
ATOM     54  C   UNL A   1      44.311  27.166  33.350  1.00  0.00     0.074 A 
ATOM     55  C   UNL A   1      43.320  27.117  34.402  1.00  0.00     0.031 C 
ATOM     56  C   UNL A   1      42.935  32.685  30.342  1.00  0.00     0.029 A 
ATOM     57  C   UNL A   1      43.995  31.737  30.016  1.00  0.00     0.049 A 
ATOM     58  H   UNL A   1      44.408  29.926  30.957  1.00  0.00     0.167 HD
ATOM     59  C   UNL A   1      45.242  26.207  33.135  1.00  0.00     0.037 A 
ATOM     60  C   UNL A   1      44.901  31.881  29.030  1.00  0.00     0.037 A 
ATOM     61  C   UNL A   1      46.207  26.243  32.070  1.00  0.00     0.049 A 
ATOM     62  C   UNL A   1      45.933  30.804  28.822  1.00  0.00     0.074 A 
ATOM     63  C   UNL A   1      47.173  25.307  31.746  1.00  0.00     0.029 A 
ATOM     64  N   UNL A   1      46.322  27.274  31.149  1.00  0.00    -0.354 N 
ATOM     65  N   UNL A   1      46.106  29.682  29.478  1.00  0.00    -0.248 NA
ATOM     66  C   UNL A   1      46.892  31.011  27.726  1.00  0.00     0.031 C 
ATOM     67  C   UNL A   1      47.894  25.786  30.647  1.00  0.00     0.029 A 
ATOM     68  C   UNL A   1      47.349  26.999  30.259  1.00  0.00     0.049 A 
ATOM     69  H   UNL A   1      45.760  28.082  31.130  1.00  0.00     0.167 HD
ATOM     70  C   UNL A   1      47.163  29.033  28.853  1.00  0.00     0.074 A 
ATOM     71  C   UNL A   1      47.585  29.882  27.759  1.00  0.00     0.031 C 
ATOM     72  C   UNL A   1      47.734  27.843  29.160  1.00  0.00     0.037 A 
BRANCH  59  73
ATOM     73  C   UNL A   1      45.245  25.028  34.064  1.00  0.00     0.064 A 
ATOM     74  C   UNL A   1      44.603  23.828  33.722  1.00  0.00     0.173 A 
ATOM     75  C   UNL A   1      45.922  25.084  35.290  1.00  0.00     0.173 A 
ATOM     76  F   UNL A   1      43.929  23.727  32.566  1.00  0.00    -0.203 F 
ATOM     77  C   UNL A   1      44.613  22.737  34.587  1.00  0.00     0.198 A 
ATOM     78  C   UNL A   1      45.957  23.980  36.140  1.00  0.00     0.198 A 
ATOM     79  F   UNL A   1      46.556  26.205  35.664  1.00  0.00    -0.203 F 
ATOM     80  F   UNL A   1      43.949  21.620  34.262  1.00  0.00    -0.200 F 
ATOM     81  C   UNL A   1      45.296  22.812  35.791  1.00  0.00     0.200 A 
ATOM     82  F   UNL A   1      46.627  24.049  37.299  1.00  0.00    -0.200 F 
ATOM     83  F   UNL A   1      45.312  21.758  36.620  1.00  0.00    -0.200 F 
ENDBRANCH  59  73
BRANCH  60  84
ATOM     84  C   UNL A   1      44.862  33.071  28.139  1.00  0.00     0.064 A 
ATOM     85  C   UNL A   1      45.502  34.263  28.509  1.00  0.00     0.173 A 
ATOM     86  C   UNL A   1      44.163  33.057  26.924  1.00  0.00     0.173 A 
ATOM     87  F   UNL A   1      46.166  34.332  29.672  1.00  0.00    -0.203 F 
ATOM     88  C   UNL A   1      45.419  35.403  27.713  1.00  0.00     0.198 A 
ATOM     89  C   UNL A   1      44.106  34.190  26.114  1.00  0.00     0.198 A 
ATOM     90  F   UNL A   1      43.536  31.941  26.522  1.00  0.00    -0.203 F 
ATOM     91  F   UNL A   1      45.992  36.545  28.119  1.00  0.00    -0.200 F 
ATOM     92  C   UNL A   1      44.724  35.365  26.514  1.00  0.00     0.200 A 
ATOM     93  F   UNL A   1      43.442  34.145  24.951  1.00  0.00    -0.200 F 
ATOM     94  F   UNL A   1      44.638  36.463  25.752  1.00  0.00    -0.200 F 
ENDBRANCH  60  84
BRANCH  72  95
ATOM     95  C   UNL A   1      48.838  27.360  28.266  1.00  0.00     0.064 A 
ATOM     96  C   UNL A   1      50.189  27.517  28.609  1.00  0.00     0.173 A 
ATOM     97  C   UNL A   1      48.536  26.693  27.069  1.00  0.00     0.173 A 
ATOM     98  F   UNL A   1      50.528  28.161  29.736  1.00  0.00    -0.203 F 
ATOM     99  C   UNL A   1      51.197  27.046  27.774  1.00  0.00     0.198 A 
ATOM    100  C   UNL A   1      49.546  26.196  26.251  1.00  0.00     0.198 A 
ATOM    101  F   UNL A   1      47.259  26.510  26.699  1.00  0.00    -0.203 F 
ATOM    102  F   UNL A   1      52.482  27.248  28.098  1.00  0.00    -0.200 F 
ATOM    103  C   UNL A   1      50.876  26.379  26.600  1.00  0.00     0.200 A 
ATOM    104  F   UNL A   1      49.234  25.541  25.125  1.00  0.00    -0.200 F 
ATOM    105  F   UNL A   1      51.848  25.920  25.801  1.00  0.00    -0.200 F 
ENDBRANCH  72  95
ENDBRANCH  46  47
ENDBRANCH  38  41
ENDBRANCH  36  37
ENDBRANCH  35  36
ENDBRANCH  34  35
ENDBRANCH  33  34
ENDBRANCH  31  33
ENDBRANCH  27  29
ENDBRANCH   4  27
TORSDOF 22
ENDMDL
