MODEL 1
REMARK VINA RESULT:     -11.6      0.000      0.000
REMARK SMILES CC[C@@](C)(C(=O)NCCCCNC(=O)c1ccc(-c2c3nc(c(-c4c(F)c(F)c(F)c(F)c4F)c4ccc([nH]4)c(-c4c(F)c(F)c(F)c(F)c4F)c4nc(c(-c5c(F)c(F)c(F)c(F)c5F)c5ccc2[nH]5)C=C4)C=C3)cc1)n1nnnc1Cc1cccs1
REMARK SMILES IDX 9 1 8 2 7 3 5 4 6 5 3 7 4 8 2 9 1 10 78 11 79 12 82 13 80 14
REMARK SMILES IDX 81 15 83 16 84 17 85 18 88 19 86 20 87 21 10 22 11 23 12 24
REMARK SMILES IDX 13 25 14 27 15 28 16 29 77 30 17 31 76 32 18 33 19 34 20 35
REMARK SMILES IDX 70 36 21 37 75 38 69 39 71 40 22 41 74 42 68 43 67 44 23 46
REMARK SMILES IDX 55 47 35 48 54 49 36 50 39 51 53 52 72 53 37 54 38 55 52 57
REMARK SMILES IDX 73 58 40 59 24 60 25 61 33 62 26 63 27 64 31 65 34 66 28 67
REMARK SMILES IDX 29 68 32 69 30 70 56 71 57 72 65 73 58 74 59 75 63 76 66 77
REMARK SMILES IDX 60 78 61 79 64 80 62 81 41 82 42 83 50 84 43 85 44 86 48 87
REMARK SMILES IDX 51 88 45 89 46 90 49 91 47 92
REMARK H PARENT 7 6 12 26 71 45 39 56
REMARK Flexibility Score: inf
ROOT
ATOM      1  C   UNL A   1      31.190  30.657  25.757  1.00  0.00     0.023 C 
ENDROOT
BRANCH   1   2
ATOM      2  C   UNL A   1      32.581  30.026  25.756  1.00  0.00     0.116 C 
BRANCH   2   3
ATOM      3  N   UNL A   1      33.015  29.699  24.409  1.00  0.00    -0.354 N 
ATOM      4  C   UNL A   1      33.394  28.534  23.810  1.00  0.00     0.247 C 
ATOM      5  O   UNL A   1      33.714  28.650  22.621  1.00  0.00    -0.272 OA
ATOM      6  H   UNL A   1      33.039  30.476  23.805  1.00  0.00     0.163 HD
BRANCH   4   7
ATOM      7  C   UNL A   1      33.405  27.161  24.533  1.00  0.00     0.142 C 
ATOM      8  C   UNL A   1      34.376  27.311  25.737  1.00  0.00     0.048 C 
BRANCH   7   9
ATOM      9  C   UNL A   1      33.847  26.015  23.585  1.00  0.00     0.037 C 
ATOM     10  C   UNL A   1      33.962  24.634  24.218  1.00  0.00     0.007 C 
ENDBRANCH   7   9
BRANCH   7  11
ATOM     11  N   UNL A   1      32.037  26.872  25.030  1.00  0.00    -0.214 N 
ATOM     12  N   UNL A   1      31.860  26.512  26.323  1.00  0.00    -0.044 NA
ATOM     13  C   UNL A   1      30.815  26.806  24.389  1.00  0.00     0.157 A 
ATOM     14  N   UNL A   1      30.567  26.289  26.469  1.00  0.00    -0.024 NA
ATOM     15  N   UNL A   1      29.907  26.472  25.291  1.00  0.00    -0.113 NA
BRANCH  13  16
ATOM     16  C   UNL A   1      30.522  27.069  22.949  1.00  0.00     0.125 C 
BRANCH  16  17
ATOM     17  C   UNL A   1      29.579  28.232  22.769  1.00  0.00     0.012 A 
ATOM     18  C   UNL A   1      28.246  28.314  23.127  1.00  0.00     0.016 A 
ATOM     19  S   UNL A   1      30.119  29.702  22.065  1.00  0.00    -0.148 S 
ATOM     20  C   UNL A   1      27.654  29.554  22.754  1.00  0.00     0.012 A 
ATOM     21  C   UNL A   1      28.559  30.394  22.148  1.00  0.00     0.065 A 
ENDBRANCH  16  17
ENDBRANCH  13  16
ENDBRANCH   7  11
ENDBRANCH   4   7
ENDBRANCH   2   3
ENDBRANCH   1   2
BRANCH   1  22
ATOM     22  C   UNL A   1      31.103  31.992  26.498  1.00  0.00     0.023 C 
BRANCH  22  23
ATOM     23  C   UNL A   1      32.441  32.572  26.942  1.00  0.00     0.116 C 
BRANCH  23  24
ATOM     24  N   UNL A   1      32.332  33.924  27.464  1.00  0.00    -0.352 N 
ATOM     25  C   UNL A   1      33.070  34.532  28.447  1.00  0.00     0.251 C 
ATOM     26  H   UNL A   1      31.632  34.481  27.053  1.00  0.00     0.163 HD
ATOM     27  O   UNL A   1      32.749  35.646  28.855  1.00  0.00    -0.269 OA
BRANCH  25  28
ATOM     28  C   UNL A   1      34.234  33.837  29.035  1.00  0.00     0.039 A 
ATOM     29  C   UNL A   1      35.517  34.293  28.724  1.00  0.00     0.014 A 
ATOM     30  C   UNL A   1      34.065  32.739  29.883  1.00  0.00     0.014 A 
ATOM     31  C   UNL A   1      36.628  33.671  29.294  1.00  0.00     0.010 A 
ATOM     32  C   UNL A   1      35.166  32.179  30.521  1.00  0.00     0.010 A 
ATOM     33  C   UNL A   1      36.462  32.623  30.215  1.00  0.00    -0.014 A 
BRANCH  33  34
ATOM     34  C   UNL A   1      37.635  31.956  30.831  1.00  0.00     0.031 A 
ATOM     35  C   UNL A   1      38.069  32.331  32.223  1.00  0.00     0.074 A 
ATOM     36  C   UNL A   1      38.329  31.040  30.130  1.00  0.00     0.049 A 
ATOM     37  N   UNL A   1      39.067  31.866  32.934  1.00  0.00    -0.248 NA
ATOM     38  C   UNL A   1      37.300  33.389  32.896  1.00  0.00     0.031 C 
ATOM     39  C   UNL A   1      38.038  30.630  28.754  1.00  0.00     0.029 A 
ATOM     40  N   UNL A   1      39.420  30.284  30.478  1.00  0.00    -0.354 N 
ATOM     41  C   UNL A   1      39.051  32.585  34.122  1.00  0.00     0.074 A 
ATOM     42  C   UNL A   1      37.989  33.560  34.013  1.00  0.00     0.031 C 
ATOM     43  C   UNL A   1      38.902  29.668  28.392  1.00  0.00     0.029 A 
ATOM     44  C   UNL A   1      39.829  29.420  29.492  1.00  0.00     0.049 A 
ATOM     45  H   UNL A   1      39.868  30.355  31.352  1.00  0.00     0.167 HD
ATOM     46  C   UNL A   1      39.833  32.428  35.217  1.00  0.00     0.037 A 
ATOM     47  C   UNL A   1      40.834  28.525  29.482  1.00  0.00     0.037 A 
ATOM     48  C   UNL A   1      40.869  31.436  35.331  1.00  0.00     0.049 A 
ATOM     49  C   UNL A   1      41.687  28.370  30.713  1.00  0.00     0.074 A 
ATOM     50  C   UNL A   1      41.672  31.148  36.420  1.00  0.00     0.029 A 
ATOM     51  N   UNL A   1      41.249  30.572  34.314  1.00  0.00    -0.354 N 
ATOM     52  N   UNL A   1      41.609  28.995  31.863  1.00  0.00    -0.248 NA
ATOM     53  C   UNL A   1      42.762  27.370  30.648  1.00  0.00     0.031 C 
ATOM     54  C   UNL A   1      42.578  30.150  36.042  1.00  0.00     0.029 A 
ATOM     55  C   UNL A   1      42.295  29.769  34.741  1.00  0.00     0.049 A 
ATOM     56  H   UNL A   1      40.837  30.536  33.420  1.00  0.00     0.167 HD
ATOM     57  C   UNL A   1      42.594  28.439  32.668  1.00  0.00     0.074 A 
ATOM     58  C   UNL A   1      43.247  27.416  31.879  1.00  0.00     0.031 C 
ATOM     59  C   UNL A   1      42.926  28.745  33.947  1.00  0.00     0.037 A 
BRANCH  46  60
ATOM     60  C   UNL A   1      39.598  33.355  36.378  1.00  0.00     0.064 A 
ATOM     61  C   UNL A   1      40.210  34.615  36.456  1.00  0.00     0.173 A 
ATOM     62  C   UNL A   1      38.728  32.986  37.414  1.00  0.00     0.173 A 
ATOM     63  F   UNL A   1      41.062  35.014  35.499  1.00  0.00    -0.203 F 
ATOM     64  C   UNL A   1      39.991  35.454  37.546  1.00  0.00     0.198 A 
ATOM     65  C   UNL A   1      38.481  33.843  38.484  1.00  0.00     0.198 A 
ATOM     66  F   UNL A   1      38.111  31.795  37.389  1.00  0.00    -0.203 F 
ATOM     67  F   UNL A   1      40.635  36.627  37.628  1.00  0.00    -0.200 F 
ATOM     68  C   UNL A   1      39.120  35.071  38.554  1.00  0.00     0.200 A 
ATOM     69  F   UNL A   1      37.628  33.476  39.451  1.00  0.00    -0.200 F 
ATOM     70  F   UNL A   1      38.904  35.882  39.600  1.00  0.00    -0.200 F 
ENDBRANCH  46  60
BRANCH  47  71
ATOM     71  C   UNL A   1      41.064  27.673  28.285  1.00  0.00     0.064 A 
ATOM     72  C   UNL A   1      40.443  26.421  28.164  1.00  0.00     0.173 A 
ATOM     73  C   UNL A   1      41.916  28.079  27.248  1.00  0.00     0.173 A 
ATOM     74  F   UNL A   1      39.632  25.979  29.138  1.00  0.00    -0.203 F 
ATOM     75  C   UNL A   1      40.687  25.598  27.067  1.00  0.00     0.198 A 
ATOM     76  C   UNL A   1      42.135  27.269  26.137  1.00  0.00     0.198 A 
ATOM     77  F   UNL A   1      42.530  29.270  27.311  1.00  0.00    -0.203 F 
ATOM     78  F   UNL A   1      40.121  24.385  27.004  1.00  0.00    -0.200 F 
ATOM     79  C   UNL A   1      41.528  26.024  26.052  1.00  0.00     0.200 A 
ATOM     80  F   UNL A   1      42.936  27.692  25.149  1.00  0.00    -0.200 F 
ATOM     81  F   UNL A   1      41.762  25.233  24.995  1.00  0.00    -0.200 F 
ENDBRANCH  47  71
BRANCH  59  82
ATOM     82  C   UNL A   1      44.008  27.927  34.592  1.00  0.00     0.064 A 
ATOM     83  C   UNL A   1      45.351  28.333  34.587  1.00  0.00     0.173 A 
ATOM     84  C   UNL A   1      43.691  26.726  35.246  1.00  0.00     0.173 A 
ATOM     85  F   UNL A   1      45.712  29.466  33.965  1.00  0.00    -0.203 F 
ATOM     86  C   UNL A   1      46.340  27.548  35.176  1.00  0.00     0.198 A 
ATOM     87  C   UNL A   1      44.676  25.962  35.867  1.00  0.00     0.198 A 
ATOM     88  F   UNL A   1      42.420  26.295  35.290  1.00  0.00    -0.203 F 
ATOM     89  F   UNL A   1      47.623  27.924  35.102  1.00  0.00    -0.200 F 
ATOM     90  C   UNL A   1      46.000  26.368  35.820  1.00  0.00     0.200 A 
ATOM     91  F   UNL A   1      44.342  24.832  36.506  1.00  0.00    -0.200 F 
ATOM     92  F   UNL A   1      46.952  25.616  36.390  1.00  0.00    -0.200 F 
ENDBRANCH  59  82
ENDBRANCH  33  34
ENDBRANCH  25  28
ENDBRANCH  23  24
ENDBRANCH  22  23
ENDBRANCH   1  22
TORSDOF 15
ENDMDL
MODEL 2
REMARK VINA RESULT:     -11.5      1.414      3.052
REMARK SMILES CC[C@@](C)(C(=O)NCCCCNC(=O)c1ccc(-c2c3nc(c(-c4c(F)c(F)c(F)c(F)c4F)c4ccc([nH]4)c(-c4c(F)c(F)c(F)c(F)c4F)c4nc(c(-c5c(F)c(F)c(F)c(F)c5F)c5ccc2[nH]5)C=C4)C=C3)cc1)n1nnnc1Cc1cccs1
REMARK SMILES IDX 9 1 8 2 7 3 5 4 6 5 3 7 4 8 2 9 1 10 78 11 79 12 82 13 80 14
REMARK SMILES IDX 81 15 83 16 84 17 85 18 88 19 86 20 87 21 10 22 11 23 12 24
REMARK SMILES IDX 13 25 14 27 15 28 16 29 77 30 17 31 76 32 18 33 19 34 20 35
REMARK SMILES IDX 70 36 21 37 75 38 69 39 71 40 22 41 74 42 68 43 67 44 23 46
REMARK SMILES IDX 55 47 35 48 54 49 36 50 39 51 53 52 72 53 37 54 38 55 52 57
REMARK SMILES IDX 73 58 40 59 24 60 25 61 33 62 26 63 27 64 31 65 34 66 28 67
REMARK SMILES IDX 29 68 32 69 30 70 56 71 57 72 65 73 58 74 59 75 63 76 66 77
REMARK SMILES IDX 60 78 61 79 64 80 62 81 41 82 42 83 50 84 43 85 44 86 48 87
REMARK SMILES IDX 51 88 45 89 46 90 49 91 47 92
REMARK H PARENT 7 6 12 26 71 45 39 56
REMARK Flexibility Score: inf
ROOT
ATOM      1  C   UNL A   1      31.818  30.521  26.872  1.00  0.00     0.023 C 
ENDROOT
BRANCH   1   2
ATOM      2  C   UNL A   1      32.311  29.973  25.536  1.00  0.00     0.116 C 
BRANCH   2   3
ATOM      3  N   UNL A   1      31.262  29.995  24.532  1.00  0.00    -0.354 N 
ATOM      4  C   UNL A   1      30.666  29.021  23.787  1.00  0.00     0.247 C 
ATOM      5  O   UNL A   1      29.795  29.431  23.009  1.00  0.00    -0.272 OA
ATOM      6  H   UNL A   1      30.909  30.896  24.353  1.00  0.00     0.163 HD
BRANCH   4   7
ATOM      7  C   UNL A   1      31.014  27.513  23.907  1.00  0.00     0.142 C 
ATOM      8  C   UNL A   1      29.788  26.739  23.350  1.00  0.00     0.048 C 
BRANCH   7   9
ATOM      9  C   UNL A   1      31.324  27.110  25.373  1.00  0.00     0.037 C 
ATOM     10  C   UNL A   1      30.449  26.009  25.960  1.00  0.00     0.007 C 
ENDBRANCH   7   9
BRANCH   7  11
ATOM     11  N   UNL A   1      32.205  27.230  23.069  1.00  0.00    -0.214 N 
ATOM     12  N   UNL A   1      32.870  28.255  22.486  1.00  0.00    -0.044 NA
ATOM     13  C   UNL A   1      32.783  26.045  22.653  1.00  0.00     0.157 A 
ATOM     14  N   UNL A   1      33.847  27.710  21.787  1.00  0.00    -0.024 NA
ATOM     15  N   UNL A   1      33.814  26.351  21.883  1.00  0.00    -0.113 NA
BRANCH  13  16
ATOM     16  C   UNL A   1      32.364  24.654  22.995  1.00  0.00     0.125 C 
BRANCH  16  17
ATOM     17  C   UNL A   1      33.465  23.888  23.686  1.00  0.00     0.012 A 
ATOM     18  C   UNL A   1      34.376  23.011  23.127  1.00  0.00     0.016 A 
ATOM     19  S   UNL A   1      33.733  24.062  25.373  1.00  0.00    -0.148 S 
ATOM     20  C   UNL A   1      35.242  22.429  24.096  1.00  0.00     0.012 A 
ATOM     21  C   UNL A   1      34.985  22.900  25.363  1.00  0.00     0.065 A 
ENDBRANCH  16  17
ENDBRANCH  13  16
ENDBRANCH   7  11
ENDBRANCH   4   7
ENDBRANCH   2   3
ENDBRANCH   1   2
BRANCH   1  22
ATOM     22  C   UNL A   1      31.536  32.024  26.874  1.00  0.00     0.023 C 
BRANCH  22  23
ATOM     23  C   UNL A   1      32.771  32.911  26.990  1.00  0.00     0.116 C 
BRANCH  23  24
ATOM     24  N   UNL A   1      32.494  34.195  27.613  1.00  0.00    -0.352 N 
ATOM     25  C   UNL A   1      33.098  34.775  28.700  1.00  0.00     0.251 C 
ATOM     26  H   UNL A   1      31.774  34.721  27.197  1.00  0.00     0.163 HD
ATOM     27  O   UNL A   1      32.642  35.813  29.173  1.00  0.00    -0.269 OA
BRANCH  25  28
ATOM     28  C   UNL A   1      34.278  34.136  29.318  1.00  0.00     0.039 A 
ATOM     29  C   UNL A   1      34.078  33.111  30.246  1.00  0.00     0.014 A 
ATOM     30  C   UNL A   1      35.574  34.546  28.992  1.00  0.00     0.014 A 
ATOM     31  C   UNL A   1      35.180  32.472  30.817  1.00  0.00     0.010 A 
ATOM     32  C   UNL A   1      36.668  33.850  29.493  1.00  0.00     0.010 A 
ATOM     33  C   UNL A   1      36.484  32.821  30.429  1.00  0.00    -0.014 A 
BRANCH  33  34
ATOM     34  C   UNL A   1      37.663  32.146  31.026  1.00  0.00     0.031 A 
ATOM     35  C   UNL A   1      38.120  32.515  32.412  1.00  0.00     0.074 A 
ATOM     36  C   UNL A   1      38.342  31.228  30.313  1.00  0.00     0.049 A 
ATOM     37  N   UNL A   1      39.125  32.044  33.108  1.00  0.00    -0.248 NA
ATOM     38  C   UNL A   1      37.366  33.576  33.099  1.00  0.00     0.031 C 
ATOM     39  C   UNL A   1      38.029  30.823  28.941  1.00  0.00     0.029 A 
ATOM     40  N   UNL A   1      39.434  30.466  30.643  1.00  0.00    -0.354 N 
ATOM     41  C   UNL A   1      39.131  32.760  34.297  1.00  0.00     0.074 A 
ATOM     42  C   UNL A   1      38.073  33.741  34.206  1.00  0.00     0.031 C 
ATOM     43  C   UNL A   1      38.882  29.857  28.563  1.00  0.00     0.029 A 
ATOM     44  C   UNL A   1      39.824  29.602  29.649  1.00  0.00     0.049 A 
ATOM     45  H   UNL A   1      39.894  30.532  31.511  1.00  0.00     0.167 HD
ATOM     46  C   UNL A   1      39.928  32.597  35.380  1.00  0.00     0.037 A 
ATOM     47  C   UNL A   1      40.823  28.701  29.622  1.00  0.00     0.037 A 
ATOM     48  C   UNL A   1      40.960  31.598  35.477  1.00  0.00     0.049 A 
ATOM     49  C   UNL A   1      41.693  28.538  30.841  1.00  0.00     0.074 A 
ATOM     50  C   UNL A   1      41.777  31.303  36.553  1.00  0.00     0.029 A 
ATOM     51  N   UNL A   1      41.320  30.735  34.452  1.00  0.00    -0.354 N 
ATOM     52  N   UNL A   1      41.635  29.162  31.992  1.00  0.00    -0.248 NA
ATOM     53  C   UNL A   1      42.762  27.533  30.757  1.00  0.00     0.031 C 
ATOM     54  C   UNL A   1      42.672  30.302  36.160  1.00  0.00     0.029 A 
ATOM     55  C   UNL A   1      42.368  29.925  34.862  1.00  0.00     0.049 A 
ATOM     56  H   UNL A   1      40.895  30.703  33.564  1.00  0.00     0.167 HD
ATOM     57  C   UNL A   1      42.629  28.599  32.782  1.00  0.00     0.074 A 
ATOM     58  C   UNL A   1      43.265  27.573  31.981  1.00  0.00     0.031 C 
ATOM     59  C   UNL A   1      42.982  28.900  34.056  1.00  0.00     0.037 A 
BRANCH  46  60
ATOM     60  C   UNL A   1      39.715  33.521  36.546  1.00  0.00     0.064 A 
ATOM     61  C   UNL A   1      38.873  33.184  37.617  1.00  0.00     0.173 A 
ATOM     62  C   UNL A   1      40.385  34.753  36.606  1.00  0.00     0.173 A 
ATOM     63  F   UNL A   1      38.197  32.024  37.606  1.00  0.00    -0.203 F 
ATOM     64  C   UNL A   1      38.679  34.060  38.683  1.00  0.00     0.198 A 
ATOM     65  C   UNL A   1      40.218  35.609  37.691  1.00  0.00     0.198 A 
ATOM     66  F   UNL A   1      41.207  35.125  35.614  1.00  0.00    -0.203 F 
ATOM     67  F   UNL A   1      37.822  33.740  39.663  1.00  0.00    -0.200 F 
ATOM     68  C   UNL A   1      39.358  35.267  38.723  1.00  0.00     0.200 A 
ATOM     69  F   UNL A   1      40.886  36.771  37.734  1.00  0.00    -0.200 F 
ATOM     70  F   UNL A   1      39.175  36.107  39.752  1.00  0.00    -0.200 F 
ENDBRANCH  46  60
BRANCH  47  71
ATOM     71  C   UNL A   1      41.031  27.851  28.421  1.00  0.00     0.064 A 
ATOM     72  C   UNL A   1      41.874  28.270  27.380  1.00  0.00     0.173 A 
ATOM     73  C   UNL A   1      40.388  26.613  28.277  1.00  0.00     0.173 A 
ATOM     74  F   UNL A   1      42.499  29.454  27.461  1.00  0.00    -0.203 F 
ATOM     75  C   UNL A   1      42.041  27.499  26.232  1.00  0.00     0.198 A 
ATOM     76  C   UNL A   1      40.580  25.828  27.143  1.00  0.00     0.198 A 
ATOM     77  F   UNL A   1      39.577  26.162  29.246  1.00  0.00    -0.203 F 
ATOM     78  F   UNL A   1      42.809  27.950  25.231  1.00  0.00    -0.200 F 
ATOM     79  C   UNL A   1      41.398  26.276  26.116  1.00  0.00     0.200 A 
ATOM     80  F   UNL A   1      39.970  24.639  27.042  1.00  0.00    -0.200 F 
ATOM     81  F   UNL A   1      41.560  25.534  25.012  1.00  0.00    -0.200 F 
ENDBRANCH  47  71
BRANCH  59  82
ATOM     82  C   UNL A   1      44.069  28.074  34.684  1.00  0.00     0.064 A 
ATOM     83  C   UNL A   1      45.416  28.465  34.646  1.00  0.00     0.173 A 
ATOM     84  C   UNL A   1      43.753  26.882  35.353  1.00  0.00     0.173 A 
ATOM     85  F   UNL A   1      45.775  29.590  34.008  1.00  0.00    -0.203 F 
ATOM     86  C   UNL A   1      46.409  27.673  35.219  1.00  0.00     0.198 A 
ATOM     87  C   UNL A   1      44.743  26.112  35.958  1.00  0.00     0.198 A 
ATOM     88  F   UNL A   1      42.479  26.465  35.429  1.00  0.00    -0.203 F 
ATOM     89  F   UNL A   1      47.694  28.035  35.114  1.00  0.00    -0.200 F 
ATOM     90  C   UNL A   1      46.070  26.502  35.879  1.00  0.00     0.200 A 
ATOM     91  F   UNL A   1      44.411  24.990  36.613  1.00  0.00    -0.200 F 
ATOM     92  F   UNL A   1      47.026  25.744  36.433  1.00  0.00    -0.200 F 
ENDBRANCH  59  82
ENDBRANCH  33  34
ENDBRANCH  25  28
ENDBRANCH  23  24
ENDBRANCH  22  23
ENDBRANCH   1  22
TORSDOF 15
ENDMDL
MODEL 3
REMARK VINA RESULT:     -11.5      1.480      2.861
REMARK SMILES CC[C@@](C)(C(=O)NCCCCNC(=O)c1ccc(-c2c3nc(c(-c4c(F)c(F)c(F)c(F)c4F)c4ccc([nH]4)c(-c4c(F)c(F)c(F)c(F)c4F)c4nc(c(-c5c(F)c(F)c(F)c(F)c5F)c5ccc2[nH]5)C=C4)C=C3)cc1)n1nnnc1Cc1cccs1
REMARK SMILES IDX 9 1 8 2 7 3 5 4 6 5 3 7 4 8 2 9 1 10 78 11 79 12 82 13 80 14
REMARK SMILES IDX 81 15 83 16 84 17 85 18 88 19 86 20 87 21 10 22 11 23 12 24
REMARK SMILES IDX 13 25 14 27 15 28 16 29 77 30 17 31 76 32 18 33 19 34 20 35
REMARK SMILES IDX 70 36 21 37 75 38 69 39 71 40 22 41 74 42 68 43 67 44 23 46
REMARK SMILES IDX 55 47 35 48 54 49 36 50 39 51 53 52 72 53 37 54 38 55 52 57
REMARK SMILES IDX 73 58 40 59 24 60 25 61 33 62 26 63 27 64 31 65 34 66 28 67
REMARK SMILES IDX 29 68 32 69 30 70 56 71 57 72 65 73 58 74 59 75 63 76 66 77
REMARK SMILES IDX 60 78 61 79 64 80 62 81 41 82 42 83 50 84 43 85 44 86 48 87
REMARK SMILES IDX 51 88 45 89 46 90 49 91 47 92
REMARK H PARENT 7 6 12 26 71 45 39 56
REMARK Flexibility Score: inf
ROOT
ATOM      1  C   UNL A   1      31.762  30.527  26.596  1.00  0.00     0.023 C 
ENDROOT
BRANCH   1   2
ATOM      2  C   UNL A   1      31.448  30.068  25.174  1.00  0.00     0.116 C 
BRANCH   2   3
ATOM      3  N   UNL A   1      32.651  29.664  24.468  1.00  0.00    -0.354 N 
ATOM      4  C   UNL A   1      33.005  28.526  23.807  1.00  0.00     0.247 C 
ATOM      5  O   UNL A   1      34.146  28.545  23.327  1.00  0.00    -0.272 OA
ATOM      6  H   UNL A   1      33.354  30.354  24.465  1.00  0.00     0.163 HD
BRANCH   4   7
ATOM      7  C   UNL A   1      32.062  27.305  23.632  1.00  0.00     0.142 C 
ATOM      8  C   UNL A   1      31.015  27.716  22.560  1.00  0.00     0.048 C 
BRANCH   7   9
ATOM      9  C   UNL A   1      31.383  26.907  24.969  1.00  0.00     0.037 C 
ATOM     10  C   UNL A   1      30.146  26.025  24.851  1.00  0.00     0.007 C 
ENDBRANCH   7   9
BRANCH   7  11
ATOM     11  N   UNL A   1      32.857  26.155  23.136  1.00  0.00    -0.214 N 
ATOM     12  N   UNL A   1      32.643  25.686  21.885  1.00  0.00    -0.044 NA
ATOM     13  C   UNL A   1      33.786  25.339  23.753  1.00  0.00     0.157 A 
ATOM     14  N   UNL A   1      33.454  24.657  21.733  1.00  0.00    -0.024 NA
ATOM     15  N   UNL A   1      34.171  24.432  22.870  1.00  0.00    -0.113 NA
BRANCH  13  16
ATOM     16  C   UNL A   1      34.303  25.433  25.150  1.00  0.00     0.125 C 
BRANCH  16  17
ATOM     17  C   UNL A   1      33.966  24.205  25.959  1.00  0.00     0.012 A 
ATOM     18  C   UNL A   1      32.778  23.905  26.600  1.00  0.00     0.016 A 
ATOM     19  S   UNL A   1      35.113  22.945  26.165  1.00  0.00    -0.148 S 
ATOM     20  C   UNL A   1      32.838  22.676  27.316  1.00  0.00     0.012 A 
ATOM     21  C   UNL A   1      34.061  22.061  27.180  1.00  0.00     0.065 A 
ENDBRANCH  16  17
ENDBRANCH  13  16
ENDBRANCH   7  11
ENDBRANCH   4   7
ENDBRANCH   2   3
ENDBRANCH   1   2
BRANCH   1  22
ATOM     22  C   UNL A   1      31.486  32.008  26.857  1.00  0.00     0.023 C 
BRANCH  22  23
ATOM     23  C   UNL A   1      32.729  32.884  26.972  1.00  0.00     0.116 C 
BRANCH  23  24
ATOM     24  N   UNL A   1      32.462  34.177  27.580  1.00  0.00    -0.352 N 
ATOM     25  C   UNL A   1      33.077  34.770  28.653  1.00  0.00     0.251 C 
ATOM     26  H   UNL A   1      31.739  34.699  27.164  1.00  0.00     0.163 HD
ATOM     27  O   UNL A   1      32.629  35.815  29.117  1.00  0.00    -0.269 OA
BRANCH  25  28
ATOM     28  C   UNL A   1      34.262  34.136  29.269  1.00  0.00     0.039 A 
ATOM     29  C   UNL A   1      34.071  33.218  30.304  1.00  0.00     0.014 A 
ATOM     30  C   UNL A   1      35.553  34.447  28.835  1.00  0.00     0.014 A 
ATOM     31  C   UNL A   1      35.174  32.584  30.877  1.00  0.00     0.010 A 
ATOM     32  C   UNL A   1      36.643  33.749  29.344  1.00  0.00     0.010 A 
ATOM     33  C   UNL A   1      36.468  32.827  30.387  1.00  0.00    -0.014 A 
BRANCH  33  34
ATOM     34  C   UNL A   1      37.649  32.156  30.985  1.00  0.00     0.031 A 
ATOM     35  C   UNL A   1      38.109  32.533  32.367  1.00  0.00     0.074 A 
ATOM     36  C   UNL A   1      38.325  31.233  30.275  1.00  0.00     0.049 A 
ATOM     37  N   UNL A   1      39.116  32.066  33.063  1.00  0.00    -0.248 NA
ATOM     38  C   UNL A   1      37.357  33.599  33.050  1.00  0.00     0.031 C 
ATOM     39  C   UNL A   1      38.008  30.820  28.906  1.00  0.00     0.029 A 
ATOM     40  N   UNL A   1      39.418  30.473  30.607  1.00  0.00    -0.354 N 
ATOM     41  C   UNL A   1      39.125  32.790  34.248  1.00  0.00     0.074 A 
ATOM     42  C   UNL A   1      38.067  33.770  34.153  1.00  0.00     0.031 C 
ATOM     43  C   UNL A   1      38.860  29.852  28.532  1.00  0.00     0.029 A 
ATOM     44  C   UNL A   1      39.805  29.603  29.617  1.00  0.00     0.049 A 
ATOM     45  H   UNL A   1      39.881  30.545  31.473  1.00  0.00     0.167 HD
ATOM     46  C   UNL A   1      39.925  32.633  35.330  1.00  0.00     0.037 A 
ATOM     47  C   UNL A   1      40.804  28.702  29.593  1.00  0.00     0.037 A 
ATOM     48  C   UNL A   1      40.957  31.635  35.429  1.00  0.00     0.049 A 
ATOM     49  C   UNL A   1      41.678  28.547  30.810  1.00  0.00     0.074 A 
ATOM     50  C   UNL A   1      41.778  31.346  36.505  1.00  0.00     0.029 A 
ATOM     51  N   UNL A   1      41.315  30.765  34.409  1.00  0.00    -0.354 N 
ATOM     52  N   UNL A   1      41.623  29.177  31.958  1.00  0.00    -0.248 NA
ATOM     53  C   UNL A   1      42.746  27.541  30.729  1.00  0.00     0.031 C 
ATOM     54  C   UNL A   1      42.671  30.343  36.116  1.00  0.00     0.029 A 
ATOM     55  C   UNL A   1      42.363  29.958  34.821  1.00  0.00     0.049 A 
ATOM     56  H   UNL A   1      40.887  30.728  33.523  1.00  0.00     0.167 HD
ATOM     57  C   UNL A   1      42.619  28.618  32.749  1.00  0.00     0.074 A 
ATOM     58  C   UNL A   1      43.252  27.588  31.952  1.00  0.00     0.031 C 
ATOM     59  C   UNL A   1      42.975  28.928  34.020  1.00  0.00     0.037 A 
BRANCH  46  60
ATOM     60  C   UNL A   1      39.716  33.564  36.491  1.00  0.00     0.064 A 
ATOM     61  C   UNL A   1      40.338  34.821  36.555  1.00  0.00     0.173 A 
ATOM     62  C   UNL A   1      38.859  33.206  37.542  1.00  0.00     0.173 A 
ATOM     63  F   UNL A   1      41.178  35.210  35.583  1.00  0.00    -0.203 F 
ATOM     64  C   UNL A   1      40.142  35.665  37.645  1.00  0.00     0.198 A 
ATOM     65  C   UNL A   1      38.636  34.068  38.613  1.00  0.00     0.198 A 
ATOM     66  F   UNL A   1      38.234  32.019  37.531  1.00  0.00    -0.203 F 
ATOM     67  F   UNL A   1      40.796  36.834  37.712  1.00  0.00    -0.200 F 
ATOM     68  C   UNL A   1      39.285  35.292  38.668  1.00  0.00     0.200 A 
ATOM     69  F   UNL A   1      37.796  33.711  39.595  1.00  0.00    -0.200 F 
ATOM     70  F   UNL A   1      39.092  36.108  39.715  1.00  0.00    -0.200 F 
ENDBRANCH  46  60
BRANCH  47  71
ATOM     71  C   UNL A   1      41.009  27.844  28.396  1.00  0.00     0.064 A 
ATOM     72  C   UNL A   1      41.824  28.270  27.337  1.00  0.00     0.173 A 
ATOM     73  C   UNL A   1      40.389  26.593  28.276  1.00  0.00     0.173 A 
ATOM     74  F   UNL A   1      42.426  29.468  27.395  1.00  0.00    -0.203 F 
ATOM     75  C   UNL A   1      41.987  27.492  26.193  1.00  0.00     0.198 A 
ATOM     76  C   UNL A   1      40.578  25.800  27.146  1.00  0.00     0.198 A 
ATOM     77  F   UNL A   1      39.606  26.134  29.263  1.00  0.00    -0.203 F 
ATOM     78  F   UNL A   1      42.727  27.949  25.174  1.00  0.00    -0.200 F 
ATOM     79  C   UNL A   1      41.368  26.255  26.101  1.00  0.00     0.200 A 
ATOM     80  F   UNL A   1      39.991  24.598  27.067  1.00  0.00    -0.200 F 
ATOM     81  F   UNL A   1      41.526  25.505  25.001  1.00  0.00    -0.200 F 
ENDBRANCH  47  71
BRANCH  59  82
ATOM     82  C   UNL A   1      44.064  28.106  34.650  1.00  0.00     0.064 A 
ATOM     83  C   UNL A   1      45.409  28.503  34.617  1.00  0.00     0.173 A 
ATOM     84  C   UNL A   1      43.751  26.910  35.315  1.00  0.00     0.173 A 
ATOM     85  F   UNL A   1      45.766  29.631  33.984  1.00  0.00    -0.203 F 
ATOM     86  C   UNL A   1      46.403  27.715  35.192  1.00  0.00     0.198 A 
ATOM     87  C   UNL A   1      44.743  26.143  35.921  1.00  0.00     0.198 A 
ATOM     88  F   UNL A   1      42.479  26.487  35.385  1.00  0.00    -0.203 F 
ATOM     89  F   UNL A   1      47.688  28.083  35.093  1.00  0.00    -0.200 F 
ATOM     90  C   UNL A   1      46.068  26.540  35.849  1.00  0.00     0.200 A 
ATOM     91  F   UNL A   1      44.414  25.018  36.572  1.00  0.00    -0.200 F 
ATOM     92  F   UNL A   1      47.026  25.785  36.404  1.00  0.00    -0.200 F 
ENDBRANCH  59  82
ENDBRANCH  33  34
ENDBRANCH  25  28
ENDBRANCH  23  24
ENDBRANCH  22  23
ENDBRANCH   1  22
TORSDOF 15
ENDMDL
