MODEL 1
REMARK VINA RESULT:     -10.3      0.000      0.000
REMARK SMILES O=C(NCCCCNC(=O)c1cn(C[C@@H]2CCS(=O)(=O)C2)c(=O)[nH]c1=O)c1ccc(-c2c3nc(c(-c4c(F)c(F)c(F)c(F)c4F)c4ccc([nH]4)c(-c4c(F)c(F)c(F)c(F)c4F)c4nc(c(-c5c(F)c(F)c(F)c(F)c5F)c5ccc2[nH]5)C=C4)C=C3)cc1
REMARK SMILES IDX 5 1 4 2 3 3 1 4 2 5 27 7 28 8 89 9 29 10 88 11 30 12 31 13
REMARK SMILES IDX 32 14 82 15 33 16 87 17 81 18 83 19 34 20 86 21 80 22 79 23
REMARK SMILES IDX 35 25 67 26 47 27 66 28 48 29 51 30 65 31 84 32 49 33 50 34
REMARK SMILES IDX 64 36 85 37 52 38 36 39 37 40 45 41 38 42 39 43 43 44 46 45
REMARK SMILES IDX 40 46 41 47 44 48 42 49 68 50 69 51 77 52 70 53 71 54 75 55
REMARK SMILES IDX 78 56 72 57 73 58 76 59 74 60 53 61 54 62 62 63 55 64 56 65
REMARK SMILES IDX 60 66 63 67 57 68 58 69 61 70 59 71 6 72 7 73 8 74 9 75
REMARK SMILES IDX 10 77 11 78 12 79 25 80 13 81 24 82 26 83 22 84 23 86 14 87
REMARK SMILES IDX 15 88 16 89 21 90 17 91 18 92 19 93 20 94
REMARK H PARENT 3 6 83 24 51 35 8 76 24 85
REMARK Flexibility Score: inf
ROOT
ATOM      1  C   UNL A   1      41.296  21.932  27.866  1.00  0.00     0.023 C 
ENDROOT
BRANCH   1   2
ATOM      2  C   UNL A   1      41.235  22.455  26.438  1.00  0.00     0.116 C 
BRANCH   2   3
ATOM      3  N   UNL A   1      39.875  22.589  25.935  1.00  0.00    -0.352 N 
ATOM      4  O   UNL A   1      37.791  23.434  25.793  1.00  0.00    -0.269 OA
ATOM      5  C   UNL A   1      38.938  23.554  26.211  1.00  0.00     0.251 C 
ATOM      6  H   UNL A   1      39.587  21.888  25.308  1.00  0.00     0.163 HD
BRANCH   5   7
ATOM      7  C   UNL A   1      39.307  24.728  27.030  1.00  0.00     0.039 A 
ATOM      8  C   UNL A   1      38.915  24.769  28.370  1.00  0.00     0.014 A 
ATOM      9  C   UNL A   1      40.025  25.792  26.477  1.00  0.00     0.014 A 
ATOM     10  C   UNL A   1      39.271  25.861  29.163  1.00  0.00     0.010 A 
ATOM     11  C   UNL A   1      40.465  26.829  27.292  1.00  0.00     0.010 A 
ATOM     12  C   UNL A   1      40.062  26.893  28.633  1.00  0.00    -0.014 A 
BRANCH  12  13
ATOM     13  C   UNL A   1      40.404  28.094  29.437  1.00  0.00     0.031 A 
ATOM     14  C   UNL A   1      41.757  28.179  30.094  1.00  0.00     0.074 A 
ATOM     15  C   UNL A   1      39.506  29.083  29.603  1.00  0.00     0.049 A 
ATOM     16  N   UNL A   1      42.233  29.099  30.895  1.00  0.00    -0.248 NA
ATOM     17  C   UNL A   1      42.690  27.068  29.841  1.00  0.00     0.031 C 
ATOM     18  C   UNL A   1      38.156  29.103  29.039  1.00  0.00     0.029 A 
ATOM     19  N   UNL A   1      39.595  30.265  30.296  1.00  0.00    -0.354 N 
ATOM     20  C   UNL A   1      43.503  28.667  31.249  1.00  0.00     0.074 A 
ATOM     21  C   UNL A   1      43.704  27.375  30.635  1.00  0.00     0.031 C 
ATOM     22  C   UNL A   1      37.554  30.254  29.383  1.00  0.00     0.029 A 
ATOM     23  C   UNL A   1      38.458  31.033  30.226  1.00  0.00     0.049 A 
ATOM     24  H   UNL A   1      40.398  30.535  30.797  1.00  0.00     0.167 HD
ATOM     25  C   UNL A   1      44.436  29.307  31.992  1.00  0.00     0.037 A 
ATOM     26  C   UNL A   1      38.178  32.227  30.784  1.00  0.00     0.037 A 
ATOM     27  C   UNL A   1      44.251  30.614  32.562  1.00  0.00     0.049 A 
ATOM     28  C   UNL A   1      39.225  32.910  31.623  1.00  0.00     0.074 A 
ATOM     29  C   UNL A   1      45.157  31.372  33.280  1.00  0.00     0.029 A 
ATOM     30  N   UNL A   1      43.084  31.358  32.470  1.00  0.00    -0.354 N 
ATOM     31  N   UNL A   1      40.443  32.515  31.907  1.00  0.00    -0.248 NA
ATOM     32  C   UNL A   1      38.862  34.205  32.217  1.00  0.00     0.031 C 
ATOM     33  C   UNL A   1      44.521  32.554  33.669  1.00  0.00     0.029 A 
ATOM     34  C   UNL A   1      43.239  32.557  33.144  1.00  0.00     0.049 A 
ATOM     35  H   UNL A   1      42.268  31.075  31.998  1.00  0.00     0.167 HD
ATOM     36  C   UNL A   1      40.998  33.519  32.690  1.00  0.00     0.074 A 
ATOM     37  C   UNL A   1      39.991  34.551  32.821  1.00  0.00     0.031 C 
ATOM     38  C   UNL A   1      42.228  33.578  33.255  1.00  0.00     0.037 A 
BRANCH  25  39
ATOM     39  C   UNL A   1      45.751  28.621  32.217  1.00  0.00     0.064 A 
ATOM     40  C   UNL A   1      45.924  27.687  33.249  1.00  0.00     0.173 A 
ATOM     41  C   UNL A   1      46.827  28.841  31.344  1.00  0.00     0.173 A 
ATOM     42  F   UNL A   1      44.932  27.450  34.120  1.00  0.00    -0.203 F 
ATOM     43  C   UNL A   1      47.130  27.009  33.408  1.00  0.00     0.198 A 
ATOM     44  C   UNL A   1      48.021  28.139  31.486  1.00  0.00     0.198 A 
ATOM     45  F   UNL A   1      46.714  29.722  30.338  1.00  0.00    -0.203 F 
ATOM     46  F   UNL A   1      47.284  26.148  34.424  1.00  0.00    -0.200 F 
ATOM     47  C   UNL A   1      48.172  27.226  32.519  1.00  0.00     0.200 A 
ATOM     48  F   UNL A   1      49.021  28.338  30.617  1.00  0.00    -0.200 F 
ATOM     49  F   UNL A   1      49.324  26.556  32.660  1.00  0.00    -0.200 F 
ENDBRANCH  25  39
BRANCH  26  50
ATOM     50  C   UNL A   1      36.855  32.862  30.544  1.00  0.00     0.064 A 
ATOM     51  C   UNL A   1      35.849  32.822  31.521  1.00  0.00     0.173 A 
ATOM     52  C   UNL A   1      36.570  33.532  29.345  1.00  0.00     0.173 A 
ATOM     53  F   UNL A   1      36.065  32.175  32.676  1.00  0.00    -0.203 F 
ATOM     54  C   UNL A   1      34.607  33.415  31.303  1.00  0.00     0.198 A 
ATOM     55  C   UNL A   1      35.338  34.151  29.140  1.00  0.00     0.198 A 
ATOM     56  F   UNL A   1      37.496  33.603  28.378  1.00  0.00    -0.203 F 
ATOM     57  F   UNL A   1      33.651  33.326  32.237  1.00  0.00    -0.200 F 
ATOM     58  C   UNL A   1      34.355  34.087  30.116  1.00  0.00     0.200 A 
ATOM     59  F   UNL A   1      35.105  34.813  27.998  1.00  0.00    -0.200 F 
ATOM     60  F   UNL A   1      33.165  34.667  29.911  1.00  0.00    -0.200 F 
ENDBRANCH  26  50
BRANCH  38  61
ATOM     61  C   UNL A   1      42.575  34.801  34.054  1.00  0.00     0.064 A 
ATOM     62  C   UNL A   1      42.444  34.826  35.449  1.00  0.00     0.173 A 
ATOM     63  C   UNL A   1      43.134  35.925  33.425  1.00  0.00     0.173 A 
ATOM     64  F   UNL A   1      41.908  33.779  36.096  1.00  0.00    -0.203 F 
ATOM     65  C   UNL A   1      42.847  35.935  36.186  1.00  0.00     0.198 A 
ATOM     66  C   UNL A   1      43.565  37.020  34.167  1.00  0.00     0.198 A 
ATOM     67  F   UNL A   1      43.291  35.948  32.093  1.00  0.00    -0.203 F 
ATOM     68  F   UNL A   1      42.683  35.949  37.516  1.00  0.00    -0.200 F 
ATOM     69  C   UNL A   1      43.419  37.027  35.546  1.00  0.00     0.200 A 
ATOM     70  F   UNL A   1      44.137  38.064  33.551  1.00  0.00    -0.200 F 
ATOM     71  F   UNL A   1      43.828  38.084  36.260  1.00  0.00    -0.200 F 
ENDBRANCH  38  61
ENDBRANCH  12  13
ENDBRANCH   5   7
ENDBRANCH   2   3
ENDBRANCH   1   2
BRANCH   1  72
ATOM     72  C   UNL A   1      42.231  22.695  28.794  1.00  0.00     0.023 C 
BRANCH  72  73
ATOM     73  C   UNL A   1      42.877  23.930  28.179  1.00  0.00     0.116 C 
BRANCH  73  74
ATOM     74  N   UNL A   1      44.331  23.933  28.262  1.00  0.00    -0.352 N 
ATOM     75  C   UNL A   1      45.242  24.730  27.610  1.00  0.00     0.258 C 
ATOM     76  H   UNL A   1      44.719  23.268  28.875  1.00  0.00     0.163 HD
ATOM     77  O   UNL A   1      46.440  24.607  27.834  1.00  0.00    -0.269 OA
BRANCH  75  78
ATOM     78  C   UNL A   1      44.710  25.711  26.647  1.00  0.00     0.121 A 
ATOM     79  C   UNL A   1      44.595  26.991  27.028  1.00  0.00     0.110 A 
ATOM     80  C   UNL A   1      44.156  25.307  25.345  1.00  0.00     0.266 A 
ATOM     81  N   UNL A   1      43.803  27.894  26.339  1.00  0.00    -0.299 N 
ATOM     82  N   UNL A   1      43.411  26.264  24.709  1.00  0.00    -0.273 N 
ATOM     83  O   UNL A   1      44.270  24.179  24.883  1.00  0.00    -0.268 OA
ATOM     84  C   UNL A   1      43.111  27.507  25.192  1.00  0.00     0.328 A 
ATOM     85  H   UNL A   1      43.058  26.035  23.819  1.00  0.00     0.175 HD
ATOM     86  O   UNL A   1      42.281  28.212  24.626  1.00  0.00    -0.248 OA
BRANCH  81  87
ATOM     87  C   UNL A   1      43.523  29.198  26.936  1.00  0.00     0.131 C 
BRANCH  87  88
ATOM     88  C   UNL A   1      44.685  29.896  27.668  1.00  0.00     0.025 C 
ATOM     89  C   UNL A   1      44.288  31.044  28.607  1.00  0.00     0.022 C 
ATOM     90  C   UNL A   1      45.777  30.444  26.750  1.00  0.00     0.142 C 
ATOM     91  C   UNL A   1      44.238  32.349  27.819  1.00  0.00     0.137 C 
ATOM     92  S   UNL A   1      45.423  32.175  26.501  1.00  0.00     0.150 S 
ATOM     93  O   UNL A   1      44.738  32.329  25.233  1.00  0.00    -0.229 OA
ATOM     94  O   UNL A   1      46.606  32.935  26.832  1.00  0.00    -0.229 OA
ENDBRANCH  87  88
ENDBRANCH  81  87
ENDBRANCH  75  78
ENDBRANCH  73  74
ENDBRANCH  72  73
ENDBRANCH   1  72
TORSDOF 13
ENDMDL
MODEL 2
REMARK VINA RESULT:     -10.1      4.792      9.608
REMARK SMILES O=C(NCCCCNC(=O)c1cn(C[C@@H]2CCS(=O)(=O)C2)c(=O)[nH]c1=O)c1ccc(-c2c3nc(c(-c4c(F)c(F)c(F)c(F)c4F)c4ccc([nH]4)c(-c4c(F)c(F)c(F)c(F)c4F)c4nc(c(-c5c(F)c(F)c(F)c(F)c5F)c5ccc2[nH]5)C=C4)C=C3)cc1
REMARK SMILES IDX 5 1 4 2 3 3 1 4 2 5 27 7 28 8 89 9 29 10 88 11 30 12 31 13
REMARK SMILES IDX 32 14 82 15 33 16 87 17 81 18 83 19 34 20 86 21 80 22 79 23
REMARK SMILES IDX 35 25 67 26 47 27 66 28 48 29 51 30 65 31 84 32 49 33 50 34
REMARK SMILES IDX 64 36 85 37 52 38 36 39 37 40 45 41 38 42 39 43 43 44 46 45
REMARK SMILES IDX 40 46 41 47 44 48 42 49 68 50 69 51 77 52 70 53 71 54 75 55
REMARK SMILES IDX 78 56 72 57 73 58 76 59 74 60 53 61 54 62 62 63 55 64 56 65
REMARK SMILES IDX 60 66 63 67 57 68 58 69 61 70 59 71 6 72 7 73 8 74 9 75
REMARK SMILES IDX 10 77 11 78 12 79 25 80 13 81 24 82 26 83 22 84 23 86 14 87
REMARK SMILES IDX 15 88 16 89 21 90 17 91 18 92 19 93 20 94
REMARK H PARENT 3 6 83 24 51 35 8 76 24 85
REMARK Flexibility Score: inf
ROOT
ATOM      1  C   UNL A   1      31.298  32.107  26.865  1.00  0.00     0.023 C 
ENDROOT
BRANCH   1   2
ATOM      2  C   UNL A   1      32.593  32.847  27.168  1.00  0.00     0.116 C 
BRANCH   2   3
ATOM      3  N   UNL A   1      32.380  34.219  27.605  1.00  0.00    -0.352 N 
ATOM      4  O   UNL A   1      32.600  36.032  28.923  1.00  0.00    -0.269 OA
ATOM      5  C   UNL A   1      33.003  34.917  28.609  1.00  0.00     0.251 C 
ATOM      6  H   UNL A   1      31.691  34.717  27.109  1.00  0.00     0.163 HD
BRANCH   5   7
ATOM      7  C   UNL A   1      34.146  34.315  29.327  1.00  0.00     0.039 A 
ATOM      8  C   UNL A   1      35.442  34.571  28.872  1.00  0.00     0.014 A 
ATOM      9  C   UNL A   1      33.943  33.490  30.437  1.00  0.00     0.014 A 
ATOM     10  C   UNL A   1      36.534  34.026  29.550  1.00  0.00     0.010 A 
ATOM     11  C   UNL A   1      35.032  33.032  31.169  1.00  0.00     0.010 A 
ATOM     12  C   UNL A   1      36.338  33.264  30.713  1.00  0.00    -0.014 A 
BRANCH  12  13
ATOM     13  C   UNL A   1      37.477  32.624  31.418  1.00  0.00     0.031 A 
ATOM     14  C   UNL A   1      38.218  31.498  30.745  1.00  0.00     0.074 A 
ATOM     15  C   UNL A   1      37.826  33.022  32.655  1.00  0.00     0.049 A 
ATOM     16  N   UNL A   1      39.191  30.754  31.208  1.00  0.00    -0.248 NA
ATOM     17  C   UNL A   1      37.791  31.140  29.382  1.00  0.00     0.031 C 
ATOM     18  C   UNL A   1      37.168  34.082  33.419  1.00  0.00     0.029 A 
ATOM     19  N   UNL A   1      38.823  32.580  33.489  1.00  0.00    -0.354 N 
ATOM     20  C   UNL A   1      39.473  29.839  30.203  1.00  0.00     0.074 A 
ATOM     21  C   UNL A   1      38.531  30.072  29.133  1.00  0.00     0.031 C 
ATOM     22  C   UNL A   1      37.798  34.229  34.597  1.00  0.00     0.029 A 
ATOM     23  C   UNL A   1      38.875  33.246  34.689  1.00  0.00     0.049 A 
ATOM     24  H   UNL A   1      39.441  31.852  33.249  1.00  0.00     0.167 HD
ATOM     25  C   UNL A   1      40.455  28.909  30.159  1.00  0.00     0.037 A 
ATOM     26  C   UNL A   1      39.697  33.079  35.744  1.00  0.00     0.037 A 
ATOM     27  C   UNL A   1      41.423  28.712  31.205  1.00  0.00     0.049 A 
ATOM     28  C   UNL A   1      40.770  32.024  35.679  1.00  0.00     0.074 A 
ATOM     29  C   UNL A   1      42.492  27.836  31.230  1.00  0.00     0.029 A 
ATOM     30  N   UNL A   1      41.440  29.406  32.406  1.00  0.00    -0.354 N 
ATOM     31  N   UNL A   1      41.060  31.200  34.701  1.00  0.00    -0.248 NA
ATOM     32  C   UNL A   1      41.630  31.876  36.862  1.00  0.00     0.031 C 
ATOM     33  C   UNL A   1      43.127  27.962  32.469  1.00  0.00     0.029 A 
ATOM     34  C   UNL A   1      42.488  28.957  33.191  1.00  0.00     0.049 A 
ATOM     35  H   UNL A   1      40.802  30.111  32.662  1.00  0.00     0.167 HD
ATOM     36  C   UNL A   1      42.147  30.454  35.140  1.00  0.00     0.074 A 
ATOM     37  C   UNL A   1      42.477  30.937  36.464  1.00  0.00     0.031 C 
ATOM     38  C   UNL A   1      42.809  29.457  34.504  1.00  0.00     0.037 A 
BRANCH  25  39
ATOM     39  C   UNL A   1      40.556  28.045  28.937  1.00  0.00     0.064 A 
ATOM     40  C   UNL A   1      39.829  26.851  28.821  1.00  0.00     0.173 A 
ATOM     41  C   UNL A   1      41.327  28.454  27.838  1.00  0.00     0.173 A 
ATOM     42  F   UNL A   1      39.088  26.407  29.847  1.00  0.00    -0.203 F 
ATOM     43  C   UNL A   1      39.880  26.091  27.655  1.00  0.00     0.198 A 
ATOM     44  C   UNL A   1      41.351  27.708  26.663  1.00  0.00     0.198 A 
ATOM     45  F   UNL A   1      42.039  29.589  27.896  1.00  0.00    -0.203 F 
ATOM     46  F   UNL A   1      39.206  24.935  27.581  1.00  0.00    -0.200 F 
ATOM     47  C   UNL A   1      40.630  26.526  26.573  1.00  0.00     0.200 A 
ATOM     48  F   UNL A   1      42.063  28.139  25.613  1.00  0.00    -0.200 F 
ATOM     49  F   UNL A   1      40.660  25.806  25.444  1.00  0.00    -0.200 F 
ENDBRANCH  25  39
BRANCH  26  50
ATOM     50  C   UNL A   1      39.551  33.950  36.941  1.00  0.00     0.064 A 
ATOM     51  C   UNL A   1      38.802  33.530  38.050  1.00  0.00     0.173 A 
ATOM     52  C   UNL A   1      40.163  35.210  37.009  1.00  0.00     0.173 A 
ATOM     53  F   UNL A   1      38.179  32.342  38.025  1.00  0.00    -0.203 F 
ATOM     54  C   UNL A   1      38.660  34.341  39.174  1.00  0.00     0.198 A 
ATOM     55  C   UNL A   1      40.046  36.008  38.146  1.00  0.00     0.198 A 
ATOM     56  F   UNL A   1      40.892  35.660  35.977  1.00  0.00    -0.203 F 
ATOM     57  F   UNL A   1      37.906  33.931  40.202  1.00  0.00    -0.200 F 
ATOM     58  C   UNL A   1      39.290  35.575  39.225  1.00  0.00     0.200 A 
ATOM     59  F   UNL A   1      40.669  37.193  38.197  1.00  0.00    -0.200 F 
ATOM     60  F   UNL A   1      39.164  36.350  40.311  1.00  0.00    -0.200 F 
ENDBRANCH  26  50
BRANCH  38  61
ATOM     61  C   UNL A   1      43.969  28.822  35.214  1.00  0.00     0.064 A 
ATOM     62  C   UNL A   1      43.793  27.732  36.077  1.00  0.00     0.173 A 
ATOM     63  C   UNL A   1      45.281  29.249  34.953  1.00  0.00     0.173 A 
ATOM     64  F   UNL A   1      42.558  27.292  36.365  1.00  0.00    -0.203 F 
ATOM     65  C   UNL A   1      44.885  27.100  36.664  1.00  0.00     0.198 A 
ATOM     66  C   UNL A   1      46.372  28.595  35.516  1.00  0.00     0.198 A 
ATOM     67  F   UNL A   1      45.505  30.281  34.125  1.00  0.00    -0.203 F 
ATOM     68  F   UNL A   1      44.691  26.079  37.511  1.00  0.00    -0.200 F 
ATOM     69  C   UNL A   1      46.174  27.524  36.373  1.00  0.00     0.200 A 
ATOM     70  F   UNL A   1      47.618  28.992  35.217  1.00  0.00    -0.200 F 
ATOM     71  F   UNL A   1      47.225  26.898  36.920  1.00  0.00    -0.200 F 
ENDBRANCH  38  61
ENDBRANCH  12  13
ENDBRANCH   5   7
ENDBRANCH   2   3
ENDBRANCH   1   2
BRANCH   1  72
ATOM     72  C   UNL A   1      31.451  30.863  26.000  1.00  0.00     0.023 C 
BRANCH  72  73
ATOM     73  C   UNL A   1      31.805  29.593  26.763  1.00  0.00     0.116 C 
BRANCH  73  74
ATOM     74  N   UNL A   1      33.207  29.513  27.149  1.00  0.00    -0.352 N 
ATOM     75  C   UNL A   1      34.208  28.716  26.647  1.00  0.00     0.258 C 
ATOM     76  H   UNL A   1      33.477  30.118  27.877  1.00  0.00     0.163 HD
ATOM     77  O   UNL A   1      35.349  28.812  27.082  1.00  0.00    -0.269 OA
BRANCH  75  78
ATOM     78  C   UNL A   1      33.839  27.762  25.587  1.00  0.00     0.121 A 
ATOM     79  C   UNL A   1      33.839  26.451  25.870  1.00  0.00     0.110 A 
ATOM     80  C   UNL A   1      33.626  28.185  24.193  1.00  0.00     0.266 A 
ATOM     81  N   UNL A   1      33.848  25.485  24.877  1.00  0.00    -0.299 N 
ATOM     82  N   UNL A   1      33.615  27.170  23.274  1.00  0.00    -0.273 N 
ATOM     83  O   UNL A   1      33.543  29.357  23.848  1.00  0.00    -0.268 OA
ATOM     84  C   UNL A   1      33.828  25.844  23.531  1.00  0.00     0.328 A 
ATOM     85  H   UNL A   1      33.438  27.420  22.338  1.00  0.00     0.175 HD
ATOM     86  O   UNL A   1      33.985  25.048  22.610  1.00  0.00    -0.248 OA
BRANCH  81  87
ATOM     87  C   UNL A   1      34.094  24.092  25.242  1.00  0.00     0.131 C 
BRANCH  87  88
ATOM     88  C   UNL A   1      32.866  23.232  25.591  1.00  0.00     0.025 C 
ATOM     89  C   UNL A   1      32.841  22.648  27.011  1.00  0.00     0.022 C 
ATOM     90  C   UNL A   1      32.617  22.062  24.638  1.00  0.00     0.142 C 
ATOM     91  C   UNL A   1      33.561  21.304  27.020  1.00  0.00     0.137 C 
ATOM     92  S   UNL A   1      33.343  20.618  25.391  1.00  0.00     0.150 S 
ATOM     93  O   UNL A   1      34.648  20.393  24.800  1.00  0.00    -0.229 OA
ATOM     94  O   UNL A   1      32.339  19.581  25.451  1.00  0.00    -0.229 OA
ENDBRANCH  87  88
ENDBRANCH  81  87
ENDBRANCH  75  78
ENDBRANCH  73  74
ENDBRANCH  72  73
ENDBRANCH   1  72
TORSDOF 13
ENDMDL
MODEL 3
REMARK VINA RESULT:     -10.1      5.862     10.197
REMARK SMILES O=C(NCCCCNC(=O)c1cn(C[C@@H]2CCS(=O)(=O)C2)c(=O)[nH]c1=O)c1ccc(-c2c3nc(c(-c4c(F)c(F)c(F)c(F)c4F)c4ccc([nH]4)c(-c4c(F)c(F)c(F)c(F)c4F)c4nc(c(-c5c(F)c(F)c(F)c(F)c5F)c5ccc2[nH]5)C=C4)C=C3)cc1
REMARK SMILES IDX 5 1 4 2 3 3 1 4 2 5 27 7 28 8 89 9 29 10 88 11 30 12 31 13
REMARK SMILES IDX 32 14 82 15 33 16 87 17 81 18 83 19 34 20 86 21 80 22 79 23
REMARK SMILES IDX 35 25 67 26 47 27 66 28 48 29 51 30 65 31 84 32 49 33 50 34
REMARK SMILES IDX 64 36 85 37 52 38 36 39 37 40 45 41 38 42 39 43 43 44 46 45
REMARK SMILES IDX 40 46 41 47 44 48 42 49 68 50 69 51 77 52 70 53 71 54 75 55
REMARK SMILES IDX 78 56 72 57 73 58 76 59 74 60 53 61 54 62 62 63 55 64 56 65
REMARK SMILES IDX 60 66 63 67 57 68 58 69 61 70 59 71 6 72 7 73 8 74 9 75
REMARK SMILES IDX 10 77 11 78 12 79 25 80 13 81 24 82 26 83 22 84 23 86 14 87
REMARK SMILES IDX 15 88 16 89 21 90 17 91 18 92 19 93 20 94
REMARK H PARENT 3 6 83 24 51 35 8 76 24 85
REMARK Flexibility Score: inf
ROOT
ATOM      1  C   UNL A   1      31.421  31.734  26.649  1.00  0.00     0.023 C 
ENDROOT
BRANCH   1   2
ATOM      2  C   UNL A   1      32.685  32.496  27.020  1.00  0.00     0.116 C 
BRANCH   2   3
ATOM      3  N   UNL A   1      32.423  33.854  27.471  1.00  0.00    -0.352 N 
ATOM      4  O   UNL A   1      32.580  35.662  28.807  1.00  0.00    -0.269 OA
ATOM      5  C   UNL A   1      33.023  34.565  28.481  1.00  0.00     0.251 C 
ATOM      6  H   UNL A   1      31.716  34.332  26.981  1.00  0.00     0.163 HD
BRANCH   5   7
ATOM      7  C   UNL A   1      34.189  33.998  29.191  1.00  0.00     0.039 A 
ATOM      8  C   UNL A   1      35.472  34.396  28.811  1.00  0.00     0.014 A 
ATOM      9  C   UNL A   1      34.020  33.066  30.219  1.00  0.00     0.014 A 
ATOM     10  C   UNL A   1      36.584  33.885  29.483  1.00  0.00     0.010 A 
ATOM     11  C   UNL A   1      35.119  32.637  30.953  1.00  0.00     0.010 A 
ATOM     12  C   UNL A   1      36.415  33.012  30.570  1.00  0.00    -0.014 A 
BRANCH  12  13
ATOM     13  C   UNL A   1      37.581  32.407  31.263  1.00  0.00     0.031 A 
ATOM     14  C   UNL A   1      38.354  31.309  30.581  1.00  0.00     0.074 A 
ATOM     15  C   UNL A   1      37.926  32.813  32.499  1.00  0.00     0.049 A 
ATOM     16  N   UNL A   1      39.354  30.596  31.032  1.00  0.00    -0.248 NA
ATOM     17  C   UNL A   1      37.928  30.942  29.219  1.00  0.00     0.031 C 
ATOM     18  C   UNL A   1      37.239  33.848  33.273  1.00  0.00     0.029 A 
ATOM     19  N   UNL A   1      38.944  32.401  33.323  1.00  0.00    -0.354 N 
ATOM     20  C   UNL A   1      39.659  29.695  30.022  1.00  0.00     0.074 A 
ATOM     21  C   UNL A   1      38.701  29.900  28.961  1.00  0.00     0.031 C 
ATOM     22  C   UNL A   1      37.873  34.011  34.446  1.00  0.00     0.029 A 
ATOM     23  C   UNL A   1      38.984  33.065  34.525  1.00  0.00     0.049 A 
ATOM     24  H   UNL A   1      39.584  31.695  33.076  1.00  0.00     0.167 HD
ATOM     25  C   UNL A   1      40.671  28.798  29.967  1.00  0.00     0.037 A 
ATOM     26  C   UNL A   1      39.819  32.922  35.573  1.00  0.00     0.037 A 
ATOM     27  C   UNL A   1      41.652  28.630  31.005  1.00  0.00     0.049 A 
ATOM     28  C   UNL A   1      40.926  31.903  35.496  1.00  0.00     0.074 A 
ATOM     29  C   UNL A   1      42.751  27.791  31.018  1.00  0.00     0.029 A 
ATOM     30  N   UNL A   1      41.656  29.320  32.207  1.00  0.00    -0.354 N 
ATOM     31  N   UNL A   1      41.236  31.093  34.513  1.00  0.00    -0.248 NA
ATOM     32  C   UNL A   1      41.800  31.780  36.671  1.00  0.00     0.031 C 
ATOM     33  C   UNL A   1      43.391  27.934  32.251  1.00  0.00     0.029 A 
ATOM     34  C   UNL A   1      42.725  28.904  32.983  1.00  0.00     0.049 A 
ATOM     35  H   UNL A   1      40.998  30.002  32.471  1.00  0.00     0.167 HD
ATOM     36  C   UNL A   1      42.351  30.382  34.940  1.00  0.00     0.074 A 
ATOM     37  C   UNL A   1      42.675  30.871  36.263  1.00  0.00     0.031 C 
ATOM     38  C   UNL A   1      43.040  29.409  34.295  1.00  0.00     0.037 A 
BRANCH  25  39
ATOM     39  C   UNL A   1      40.790  27.942  28.741  1.00  0.00     0.064 A 
ATOM     40  C   UNL A   1      40.091  26.733  28.620  1.00  0.00     0.173 A 
ATOM     41  C   UNL A   1      41.550  28.374  27.643  1.00  0.00     0.173 A 
ATOM     42  F   UNL A   1      39.361  26.267  29.645  1.00  0.00    -0.203 F 
ATOM     43  C   UNL A   1      40.159  25.980  27.451  1.00  0.00     0.198 A 
ATOM     44  C   UNL A   1      41.591  27.635  26.464  1.00  0.00     0.198 A 
ATOM     45  F   UNL A   1      42.237  29.525  27.705  1.00  0.00    -0.203 F 
ATOM     46  F   UNL A   1      39.511  24.808  27.371  1.00  0.00    -0.200 F 
ATOM     47  C   UNL A   1      40.898  26.437  26.370  1.00  0.00     0.200 A 
ATOM     48  F   UNL A   1      42.292  28.086  25.416  1.00  0.00    -0.200 F 
ATOM     49  F   UNL A   1      40.943  25.722  25.237  1.00  0.00    -0.200 F 
ENDBRANCH  25  39
BRANCH  26  50
ATOM     50  C   UNL A   1      39.653  33.783  36.774  1.00  0.00     0.064 A 
ATOM     51  C   UNL A   1      40.273  35.039  36.851  1.00  0.00     0.173 A 
ATOM     52  C   UNL A   1      38.866  33.379  37.863  1.00  0.00     0.173 A 
ATOM     53  F   UNL A   1      41.054  35.461  35.845  1.00  0.00    -0.203 F 
ATOM     54  C   UNL A   1      40.123  35.850  37.974  1.00  0.00     0.198 A 
ATOM     55  C   UNL A   1      38.692  34.204  38.972  1.00  0.00     0.198 A 
ATOM     56  F   UNL A   1      38.249  32.189  37.840  1.00  0.00    -0.203 F 
ATOM     57  F   UNL A   1      40.760  37.027  38.037  1.00  0.00    -0.200 F 
ATOM     58  C   UNL A   1      39.325  35.437  39.030  1.00  0.00     0.200 A 
ATOM     59  F   UNL A   1      37.907  33.807  39.983  1.00  0.00    -0.200 F 
ATOM     60  F   UNL A   1      39.172  36.222  40.104  1.00  0.00    -0.200 F 
ENDBRANCH  26  50
BRANCH  38  61
ATOM     61  C   UNL A   1      44.226  28.811  34.993  1.00  0.00     0.064 A 
ATOM     62  C   UNL A   1      45.498  29.394  34.905  1.00  0.00     0.173 A 
ATOM     63  C   UNL A   1      44.069  27.699  35.835  1.00  0.00     0.173 A 
ATOM     64  F   UNL A   1      45.701  30.454  34.106  1.00  0.00    -0.203 F 
ATOM     65  C   UNL A   1      46.572  28.878  35.623  1.00  0.00     0.198 A 
ATOM     66  C   UNL A   1      45.138  27.206  36.577  1.00  0.00     0.198 A 
ATOM     67  F   UNL A   1      42.870  27.111  35.964  1.00  0.00    -0.203 F 
ATOM     68  F   UNL A   1      47.787  29.433  35.499  1.00  0.00    -0.200 F 
ATOM     69  C   UNL A   1      46.389  27.793  36.468  1.00  0.00     0.200 A 
ATOM     70  F   UNL A   1      44.955  26.171  37.409  1.00  0.00    -0.200 F 
ATOM     71  F   UNL A   1      47.420  27.313  37.177  1.00  0.00    -0.200 F 
ENDBRANCH  38  61
ENDBRANCH  12  13
ENDBRANCH   5   7
ENDBRANCH   2   3
ENDBRANCH   1   2
BRANCH   1  72
ATOM     72  C   UNL A   1      31.652  30.370  26.013  1.00  0.00     0.023 C 
BRANCH  72  73
ATOM     73  C   UNL A   1      31.792  29.218  26.999  1.00  0.00     0.116 C 
BRANCH  73  74
ATOM     74  N   UNL A   1      32.933  28.353  26.732  1.00  0.00    -0.352 N 
ATOM     75  C   UNL A   1      33.010  27.224  25.952  1.00  0.00     0.258 C 
ATOM     76  H   UNL A   1      33.772  28.615  27.176  1.00  0.00     0.163 HD
ATOM     77  O   UNL A   1      34.078  26.639  25.820  1.00  0.00    -0.269 OA
BRANCH  75  78
ATOM     78  C   UNL A   1      31.768  26.769  25.304  1.00  0.00     0.121 A 
ATOM     79  C   UNL A   1      31.362  27.381  24.183  1.00  0.00     0.110 A 
ATOM     80  C   UNL A   1      30.878  25.775  25.928  1.00  0.00     0.266 A 
ATOM     81  N   UNL A   1      30.066  27.265  23.709  1.00  0.00    -0.299 N 
ATOM     82  N   UNL A   1      29.625  25.695  25.385  1.00  0.00    -0.273 N 
ATOM     83  O   UNL A   1      31.188  25.117  26.913  1.00  0.00    -0.268 OA
ATOM     84  C   UNL A   1      29.132  26.472  24.373  1.00  0.00     0.328 A 
ATOM     85  H   UNL A   1      29.020  25.014  25.758  1.00  0.00     0.175 HD
ATOM     86  O   UNL A   1      27.937  26.446  24.092  1.00  0.00    -0.248 OA
BRANCH  81  87
ATOM     87  C   UNL A   1      29.620  28.144  22.631  1.00  0.00     0.131 C 
BRANCH  87  88
ATOM     88  C   UNL A   1      29.875  29.653  22.807  1.00  0.00     0.025 C 
ATOM     89  C   UNL A   1      28.893  30.393  23.725  1.00  0.00     0.022 C 
ATOM     90  C   UNL A   1      29.928  30.445  21.501  1.00  0.00     0.142 C 
ATOM     91  C   UNL A   1      27.698  30.873  22.909  1.00  0.00     0.137 C 
ATOM     92  S   UNL A   1      28.309  31.154  21.260  1.00  0.00     0.150 S 
ATOM     93  O   UNL A   1      27.569  30.316  20.337  1.00  0.00    -0.229 OA
ATOM     94  O   UNL A   1      28.460  32.576  21.053  1.00  0.00    -0.229 OA
ENDBRANCH  87  88
ENDBRANCH  81  87
ENDBRANCH  75  78
ENDBRANCH  73  74
ENDBRANCH  72  73
ENDBRANCH   1  72
TORSDOF 13
ENDMDL
