MODEL 1
REMARK VINA RESULT:     -12.1      0.000      0.000
REMARK SMILES C[C@@H](NS(=O)(=O)c1ccccc1)C(=O)NCCCCNC(=O)c1ccc(-c2c3nc(c(-c4c(F)c(F)c(F)c(F)c4F)c4ccc([nH]4)c(-c4c(F)c(F)c(F)c(F)c4F)c4nc(c(-c5c(F)c(F)c(F)c(F)c5F)c5ccc2[nH]5)C=C4)C=C3)cc1
REMARK SMILES IDX 17 1 16 2 15 3 13 4 14 5 2 7 1 8 3 9 4 11 5 12 6 13 7 14
REMARK SMILES IDX 8 15 12 16 9 17 11 18 10 19 18 20 19 21 20 22 21 23 22 25
REMARK SMILES IDX 23 26 24 27 85 28 25 29 84 30 26 31 27 32 28 33 78 34 29 35
REMARK SMILES IDX 83 36 77 37 79 38 30 39 82 40 76 41 75 42 31 44 63 45 43 46
REMARK SMILES IDX 62 47 44 48 47 49 61 50 80 51 45 52 46 53 60 55 81 56 48 57
REMARK SMILES IDX 32 58 33 59 41 60 34 61 35 62 39 63 42 64 36 65 37 66 40 67
REMARK SMILES IDX 38 68 64 69 65 70 73 71 66 72 67 73 71 74 74 75 68 76 69 77
REMARK SMILES IDX 72 78 70 79 49 80 50 81 58 82 51 83 52 84 56 85 59 86 53 87
REMARK SMILES IDX 54 88 57 89 55 90
REMARK H PARENT 15 6 3 10 20 24 79 43 47 54
REMARK Flexibility Score: inf
ROOT
ATOM      1  C   UNL A   1      31.766  30.656  26.308  1.00  0.00     0.023 C 
ENDROOT
BRANCH   1   2
ATOM      2  C   UNL A   1      32.616  29.807  27.250  1.00  0.00     0.116 C 
BRANCH   2   3
ATOM      3  N   UNL A   1      32.011  28.512  27.498  1.00  0.00    -0.355 N 
ATOM      4  C   UNL A   1      31.896  27.416  26.691  1.00  0.00     0.237 C 
ATOM      5  O   UNL A   1      31.368  26.410  27.173  1.00  0.00    -0.273 OA
ATOM      6  H   UNL A   1      31.618  28.404  28.394  1.00  0.00     0.163 HD
BRANCH   4   7
ATOM      7  C   UNL A   1      32.386  27.426  25.242  1.00  0.00     0.155 C 
ATOM      8  C   UNL A   1      33.536  26.446  25.029  1.00  0.00     0.036 C 
BRANCH   7   9
ATOM      9  N   UNL A   1      31.281  27.156  24.300  1.00  0.00    -0.199 NA
ATOM     10  H   UNL A   1      30.410  27.269  24.819  1.00  0.00     0.142 HD
BRANCH   9  11
ATOM     11  S   UNL A   1      31.156  28.101  22.907  1.00  0.00     0.241 S 
ATOM     12  O   UNL A   1      32.308  28.973  22.870  1.00  0.00    -0.207 OA
ATOM     13  O   UNL A   1      30.880  27.169  21.836  1.00  0.00    -0.207 OA
BRANCH  11  14
ATOM     14  C   UNL A   1      29.695  29.076  23.132  1.00  0.00     0.082 A 
ATOM     15  C   UNL A   1      29.805  30.414  23.517  1.00  0.00     0.022 A 
ATOM     16  C   UNL A   1      28.440  28.501  22.917  1.00  0.00     0.022 A 
ATOM     17  C   UNL A   1      28.656  31.199  23.623  1.00  0.00     0.001 A 
ATOM     18  C   UNL A   1      27.293  29.282  23.059  1.00  0.00     0.001 A 
ATOM     19  C   UNL A   1      27.402  30.633  23.392  1.00  0.00     0.000 A 
ENDBRANCH  11  14
ENDBRANCH   9  11
ENDBRANCH   7   9
ENDBRANCH   4   7
ENDBRANCH   2   3
ENDBRANCH   1   2
BRANCH   1  20
ATOM     20  C   UNL A   1      31.495  32.080  26.805  1.00  0.00     0.023 C 
BRANCH  20  21
ATOM     21  C   UNL A   1      32.725  32.851  27.277  1.00  0.00     0.116 C 
BRANCH  21  22
ATOM     22  N   UNL A   1      32.425  34.229  27.631  1.00  0.00    -0.352 N 
ATOM     23  C   UNL A   1      32.990  35.017  28.607  1.00  0.00     0.251 C 
ATOM     24  H   UNL A   1      31.719  34.659  27.098  1.00  0.00     0.163 HD
ATOM     25  O   UNL A   1      32.507  36.112  28.875  1.00  0.00    -0.269 OA
BRANCH  23  26
ATOM     26  C   UNL A   1      34.166  34.526  29.355  1.00  0.00     0.039 A 
ATOM     27  C   UNL A   1      33.974  33.951  30.614  1.00  0.00     0.014 A 
ATOM     28  C   UNL A   1      35.450  34.619  28.812  1.00  0.00     0.014 A 
ATOM     29  C   UNL A   1      35.062  33.406  31.298  1.00  0.00     0.010 A 
ATOM     30  C   UNL A   1      36.522  34.014  29.462  1.00  0.00     0.010 A 
ATOM     31  C   UNL A   1      36.338  33.399  30.710  1.00  0.00    -0.014 A 
BRANCH  31  32
ATOM     32  C   UNL A   1      37.489  32.744  31.382  1.00  0.00     0.031 A 
ATOM     33  C   UNL A   1      38.195  31.593  30.724  1.00  0.00     0.074 A 
ATOM     34  C   UNL A   1      37.853  33.140  32.618  1.00  0.00     0.049 A 
ATOM     35  N   UNL A   1      39.169  30.846  31.182  1.00  0.00    -0.248 NA
ATOM     36  C   UNL A   1      37.729  31.214  29.381  1.00  0.00     0.031 C 
ATOM     37  C   UNL A   1      37.214  34.211  33.384  1.00  0.00     0.029 A 
ATOM     38  N   UNL A   1      38.841  32.678  33.452  1.00  0.00    -0.354 N 
ATOM     39  C   UNL A   1      39.420  29.905  30.193  1.00  0.00     0.074 A 
ATOM     40  C   UNL A   1      38.463  30.140  29.133  1.00  0.00     0.031 C 
ATOM     41  C   UNL A   1      37.837  34.336  34.567  1.00  0.00     0.029 A 
ATOM     42  C   UNL A   1      38.893  33.332  34.658  1.00  0.00     0.049 A 
ATOM     43  H   UNL A   1      39.455  31.948  33.208  1.00  0.00     0.167 HD
ATOM     44  C   UNL A   1      40.380  28.950  30.159  1.00  0.00     0.037 A 
ATOM     45  C   UNL A   1      39.695  33.138  35.723  1.00  0.00     0.037 A 
ATOM     46  C   UNL A   1      41.344  28.732  31.206  1.00  0.00     0.049 A 
ATOM     47  C   UNL A   1      40.749  32.067  35.663  1.00  0.00     0.074 A 
ATOM     48  C   UNL A   1      42.389  27.824  31.242  1.00  0.00     0.029 A 
ATOM     49  N   UNL A   1      41.380  29.429  32.403  1.00  0.00    -0.354 N 
ATOM     50  N   UNL A   1      41.022  31.227  34.694  1.00  0.00    -0.248 NA
ATOM     51  C   UNL A   1      41.614  31.921  36.843  1.00  0.00     0.031 C 
ATOM     52  C   UNL A   1      43.029  27.943  32.480  1.00  0.00     0.029 A 
ATOM     53  C   UNL A   1      42.416  28.959  33.194  1.00  0.00     0.049 A 
ATOM     54  H   UNL A   1      40.761  30.152  32.655  1.00  0.00     0.167 HD
ATOM     55  C   UNL A   1      42.102  30.474  35.133  1.00  0.00     0.074 A 
ATOM     56  C   UNL A   1      42.446  30.966  36.451  1.00  0.00     0.031 C 
ATOM     57  C   UNL A   1      42.751  29.464  34.502  1.00  0.00     0.037 A 
BRANCH  44  58
ATOM     58  C   UNL A   1      40.435  28.067  28.945  1.00  0.00     0.064 A 
ATOM     59  C   UNL A   1      39.714  26.865  28.877  1.00  0.00     0.173 A 
ATOM     60  C   UNL A   1      41.193  28.441  27.824  1.00  0.00     0.173 A 
ATOM     61  F   UNL A   1      38.984  26.457  29.926  1.00  0.00    -0.203 F 
ATOM     62  C   UNL A   1      39.774  26.056  27.746  1.00  0.00     0.198 A 
ATOM     63  C   UNL A   1      41.224  27.644  26.683  1.00  0.00     0.198 A 
ATOM     64  F   UNL A   1      41.896  29.583  27.833  1.00  0.00    -0.203 F 
ATOM     65  F   UNL A   1      39.117  24.887  27.726  1.00  0.00    -0.200 F 
ATOM     66  C   UNL A   1      40.522  26.448  26.648  1.00  0.00     0.200 A 
ATOM     67  F   UNL A   1      41.938  28.032  25.616  1.00  0.00    -0.200 F 
ATOM     68  F   UNL A   1      40.574  25.671  25.557  1.00  0.00    -0.200 F 
ENDBRANCH  44  58
BRANCH  45  69
ATOM     69  C   UNL A   1      39.546  33.993  36.928  1.00  0.00     0.064 A 
ATOM     70  C   UNL A   1      40.156  35.253  36.998  1.00  0.00     0.173 A 
ATOM     71  C   UNL A   1      38.793  33.571  38.034  1.00  0.00     0.173 A 
ATOM     72  F   UNL A   1      40.904  35.692  35.974  1.00  0.00    -0.203 F 
ATOM     73  C   UNL A   1      40.036  36.050  38.135  1.00  0.00     0.198 A 
ATOM     74  C   UNL A   1      38.649  34.381  39.159  1.00  0.00     0.198 A 
ATOM     75  F   UNL A   1      38.184  32.377  38.016  1.00  0.00    -0.203 F 
ATOM     76  F   UNL A   1      40.666  37.231  38.191  1.00  0.00    -0.200 F 
ATOM     77  C   UNL A   1      39.278  35.617  39.212  1.00  0.00     0.200 A 
ATOM     78  F   UNL A   1      37.904  33.964  40.190  1.00  0.00    -0.200 F 
ATOM     79  F   UNL A   1      39.158  36.386  40.302  1.00  0.00    -0.200 F 
ENDBRANCH  45  69
BRANCH  57  80
ATOM     80  C   UNL A   1      43.919  28.846  35.212  1.00  0.00     0.064 A 
ATOM     81  C   UNL A   1      45.226  29.326  35.038  1.00  0.00     0.173 A 
ATOM     82  C   UNL A   1      43.724  27.783  36.108  1.00  0.00     0.173 A 
ATOM     83  F   UNL A   1      45.467  30.329  34.181  1.00  0.00    -0.203 F 
ATOM     84  C   UNL A   1      46.297  28.750  35.717  1.00  0.00     0.198 A 
ATOM     85  C   UNL A   1      44.792  27.229  36.807  1.00  0.00     0.198 A 
ATOM     86  F   UNL A   1      42.493  27.290  36.315  1.00  0.00    -0.203 F 
ATOM     87  F   UNL A   1      47.541  29.194  35.500  1.00  0.00    -0.200 F 
ATOM     88  C   UNL A   1      46.078  27.708  36.605  1.00  0.00     0.200 A 
ATOM     89  F   UNL A   1      44.578  26.231  37.676  1.00  0.00    -0.200 F 
ATOM     90  F   UNL A   1      47.109  27.160  37.264  1.00  0.00    -0.200 F 
ENDBRANCH  57  80
ENDBRANCH  31  32
ENDBRANCH  23  26
ENDBRANCH  21  22
ENDBRANCH  20  21
ENDBRANCH   1  20
TORSDOF 14
ENDMDL
MODEL 2
REMARK VINA RESULT:     -12.0      1.224      2.527
REMARK SMILES C[C@@H](NS(=O)(=O)c1ccccc1)C(=O)NCCCCNC(=O)c1ccc(-c2c3nc(c(-c4c(F)c(F)c(F)c(F)c4F)c4ccc([nH]4)c(-c4c(F)c(F)c(F)c(F)c4F)c4nc(c(-c5c(F)c(F)c(F)c(F)c5F)c5ccc2[nH]5)C=C4)C=C3)cc1
REMARK SMILES IDX 17 1 16 2 15 3 13 4 14 5 2 7 1 8 3 9 4 11 5 12 6 13 7 14
REMARK SMILES IDX 8 15 12 16 9 17 11 18 10 19 18 20 19 21 20 22 21 23 22 25
REMARK SMILES IDX 23 26 24 27 85 28 25 29 84 30 26 31 27 32 28 33 78 34 29 35
REMARK SMILES IDX 83 36 77 37 79 38 30 39 82 40 76 41 75 42 31 44 63 45 43 46
REMARK SMILES IDX 62 47 44 48 47 49 61 50 80 51 45 52 46 53 60 55 81 56 48 57
REMARK SMILES IDX 32 58 33 59 41 60 34 61 35 62 39 63 42 64 36 65 37 66 40 67
REMARK SMILES IDX 38 68 64 69 65 70 73 71 66 72 67 73 71 74 74 75 68 76 69 77
REMARK SMILES IDX 72 78 70 79 49 80 50 81 58 82 51 83 52 84 56 85 59 86 53 87
REMARK SMILES IDX 54 88 57 89 55 90
REMARK H PARENT 15 6 3 10 20 24 79 43 47 54
REMARK Flexibility Score: inf
ROOT
ATOM      1  C   UNL A   1      31.602  30.462  26.595  1.00  0.00     0.023 C 
ENDROOT
BRANCH   1   2
ATOM      2  C   UNL A   1      32.068  29.853  25.275  1.00  0.00     0.116 C 
BRANCH   2   3
ATOM      3  N   UNL A   1      31.097  30.059  24.216  1.00  0.00    -0.355 N 
ATOM      4  C   UNL A   1      30.556  29.179  23.323  1.00  0.00     0.237 C 
ATOM      5  O   UNL A   1      29.703  29.614  22.545  1.00  0.00    -0.273 OA
ATOM      6  H   UNL A   1      30.776  30.985  24.125  1.00  0.00     0.163 HD
BRANCH   4   7
ATOM      7  C   UNL A   1      30.988  27.712  23.272  1.00  0.00     0.155 C 
ATOM      8  C   UNL A   1      29.837  26.772  23.619  1.00  0.00     0.036 C 
BRANCH   7   9
ATOM      9  N   UNL A   1      31.571  27.371  21.958  1.00  0.00    -0.199 NA
ATOM     10  H   UNL A   1      31.583  28.228  21.404  1.00  0.00     0.142 HD
BRANCH   9  11
ATOM     11  S   UNL A   1      33.129  26.724  21.908  1.00  0.00     0.241 S 
ATOM     12  O   UNL A   1      33.160  25.755  20.836  1.00  0.00    -0.207 OA
ATOM     13  O   UNL A   1      34.018  27.865  21.919  1.00  0.00    -0.207 OA
BRANCH  11  14
ATOM     14  C   UNL A   1      33.340  25.889  23.454  1.00  0.00     0.082 A 
ATOM     15  C   UNL A   1      33.903  26.565  24.539  1.00  0.00     0.022 A 
ATOM     16  C   UNL A   1      32.935  24.558  23.582  1.00  0.00     0.022 A 
ATOM     17  C   UNL A   1      34.000  25.927  25.776  1.00  0.00     0.001 A 
ATOM     18  C   UNL A   1      33.067  23.914  24.813  1.00  0.00     0.001 A 
ATOM     19  C   UNL A   1      33.582  24.603  25.912  1.00  0.00     0.000 A 
ENDBRANCH  11  14
ENDBRANCH   9  11
ENDBRANCH   7   9
ENDBRANCH   4   7
ENDBRANCH   2   3
ENDBRANCH   1   2
BRANCH   1  20
ATOM     20  C   UNL A   1      31.505  31.991  26.590  1.00  0.00     0.023 C 
BRANCH  20  21
ATOM     21  C   UNL A   1      32.689  32.721  27.217  1.00  0.00     0.116 C 
BRANCH  21  22
ATOM     22  N   UNL A   1      32.382  34.098  27.568  1.00  0.00    -0.352 N 
ATOM     23  C   UNL A   1      32.946  34.893  28.538  1.00  0.00     0.251 C 
ATOM     24  H   UNL A   1      31.669  34.521  27.037  1.00  0.00     0.163 HD
ATOM     25  O   UNL A   1      32.458  35.986  28.804  1.00  0.00    -0.269 OA
BRANCH  23  26
ATOM     26  C   UNL A   1      34.130  34.414  29.281  1.00  0.00     0.039 A 
ATOM     27  C   UNL A   1      33.945  33.800  30.523  1.00  0.00     0.014 A 
ATOM     28  C   UNL A   1      35.415  34.555  28.750  1.00  0.00     0.014 A 
ATOM     29  C   UNL A   1      35.042  33.266  31.200  1.00  0.00     0.010 A 
ATOM     30  C   UNL A   1      36.498  33.961  29.391  1.00  0.00     0.010 A 
ATOM     31  C   UNL A   1      36.322  33.308  30.621  1.00  0.00    -0.014 A 
BRANCH  31  32
ATOM     32  C   UNL A   1      37.486  32.666  31.284  1.00  0.00     0.031 A 
ATOM     33  C   UNL A   1      38.205  31.529  30.616  1.00  0.00     0.074 A 
ATOM     34  C   UNL A   1      37.850  33.061  32.520  1.00  0.00     0.049 A 
ATOM     35  N   UNL A   1      39.191  30.794  31.065  1.00  0.00    -0.248 NA
ATOM     36  C   UNL A   1      37.738  31.151  29.273  1.00  0.00     0.031 C 
ATOM     37  C   UNL A   1      37.200  34.118  33.296  1.00  0.00     0.029 A 
ATOM     38  N   UNL A   1      38.849  32.608  33.347  1.00  0.00    -0.354 N 
ATOM     39  C   UNL A   1      39.452  29.862  30.069  1.00  0.00     0.074 A 
ATOM     40  C   UNL A   1      38.486  30.089  29.015  1.00  0.00     0.031 C 
ATOM     41  C   UNL A   1      37.827  34.244  34.476  1.00  0.00     0.029 A 
ATOM     42  C   UNL A   1      38.897  33.255  34.557  1.00  0.00     0.049 A 
ATOM     43  H   UNL A   1      39.472  31.888  33.096  1.00  0.00     0.167 HD
ATOM     44  C   UNL A   1      40.425  28.921  30.025  1.00  0.00     0.037 A 
ATOM     45  C   UNL A   1      39.707  33.067  35.616  1.00  0.00     0.037 A 
ATOM     46  C   UNL A   1      41.397  28.711  31.066  1.00  0.00     0.049 A 
ATOM     47  C   UNL A   1      40.776  32.011  35.545  1.00  0.00     0.074 A 
ATOM     48  C   UNL A   1      42.455  27.818  31.092  1.00  0.00     0.029 A 
ATOM     49  N   UNL A   1      41.429  29.402  32.267  1.00  0.00    -0.354 N 
ATOM     50  N   UNL A   1      41.056  31.181  34.570  1.00  0.00    -0.248 NA
ATOM     51  C   UNL A   1      41.649  31.871  36.720  1.00  0.00     0.031 C 
ATOM     52  C   UNL A   1      43.100  27.939  32.328  1.00  0.00     0.029 A 
ATOM     53  C   UNL A   1      42.476  28.942  33.050  1.00  0.00     0.049 A 
ATOM     54  H   UNL A   1      40.801  30.115  32.526  1.00  0.00     0.167 HD
ATOM     55  C   UNL A   1      42.149  30.441  35.000  1.00  0.00     0.074 A 
ATOM     56  C   UNL A   1      42.492  30.930  36.319  1.00  0.00     0.031 C 
ATOM     57  C   UNL A   1      42.809  29.444  34.360  1.00  0.00     0.037 A 
BRANCH  44  58
ATOM     58  C   UNL A   1      40.487  28.046  28.805  1.00  0.00     0.064 A 
ATOM     59  C   UNL A   1      41.261  28.398  27.689  1.00  0.00     0.173 A 
ATOM     60  C   UNL A   1      39.793  26.828  28.763  1.00  0.00     0.173 A 
ATOM     61  F   UNL A   1      41.935  29.558  27.674  1.00  0.00    -0.203 F 
ATOM     62  C   UNL A   1      41.311  27.579  26.564  1.00  0.00     0.198 A 
ATOM     63  C   UNL A   1      39.871  25.997  27.650  1.00  0.00     0.198 A 
ATOM     64  F   UNL A   1      39.043  26.440  29.807  1.00  0.00    -0.203 F 
ATOM     65  F   UNL A   1      42.015  27.962  25.490  1.00  0.00    -0.200 F 
ATOM     66  C   UNL A   1      40.623  26.377  26.548  1.00  0.00     0.200 A 
ATOM     67  F   UNL A   1      39.215  24.827  27.641  1.00  0.00    -0.200 F 
ATOM     68  F   UNL A   1      40.677  25.586  25.467  1.00  0.00    -0.200 F 
ENDBRANCH  44  58
BRANCH  45  69
ATOM     69  C   UNL A   1      39.551  33.913  36.827  1.00  0.00     0.064 A 
ATOM     70  C   UNL A   1      40.171  35.167  36.915  1.00  0.00     0.173 A 
ATOM     71  C   UNL A   1      38.783  33.487  37.921  1.00  0.00     0.173 A 
ATOM     72  F   UNL A   1      40.933  35.608  35.903  1.00  0.00    -0.203 F 
ATOM     73  C   UNL A   1      40.045  35.955  38.057  1.00  0.00     0.198 A 
ATOM     74  C   UNL A   1      38.633  34.289  39.051  1.00  0.00     0.198 A 
ATOM     75  F   UNL A   1      38.164  32.299  37.886  1.00  0.00    -0.203 F 
ATOM     76  F   UNL A   1      40.684  37.130  38.131  1.00  0.00    -0.200 F 
ATOM     77  C   UNL A   1      39.271  35.519  39.122  1.00  0.00     0.200 A 
ATOM     78  F   UNL A   1      37.873  33.869  40.071  1.00  0.00    -0.200 F 
ATOM     79  F   UNL A   1      39.145  36.279  40.218  1.00  0.00    -0.200 F 
ENDBRANCH  45  69
BRANCH  57  80
ATOM     80  C   UNL A   1      43.990  28.838  35.061  1.00  0.00     0.064 A 
ATOM     81  C   UNL A   1      45.285  29.355  34.904  1.00  0.00     0.173 A 
ATOM     82  C   UNL A   1      43.817  27.750  35.930  1.00  0.00     0.173 A 
ATOM     83  F   UNL A   1      45.504  30.384  34.072  1.00  0.00    -0.203 F 
ATOM     84  C   UNL A   1      46.367  28.790  35.574  1.00  0.00     0.198 A 
ATOM     85  C   UNL A   1      44.896  27.207  36.622  1.00  0.00     0.198 A 
ATOM     86  F   UNL A   1      42.598  27.222  36.119  1.00  0.00    -0.203 F 
ATOM     87  F   UNL A   1      47.601  29.271  35.374  1.00  0.00    -0.200 F 
ATOM     88  C   UNL A   1      46.171  27.722  36.437  1.00  0.00     0.200 A 
ATOM     89  F   UNL A   1      44.703  26.184  37.465  1.00  0.00    -0.200 F 
ATOM     90  F   UNL A   1      47.212  27.185  37.087  1.00  0.00    -0.200 F 
ENDBRANCH  57  80
ENDBRANCH  31  32
ENDBRANCH  23  26
ENDBRANCH  21  22
ENDBRANCH  20  21
ENDBRANCH   1  20
TORSDOF 14
ENDMDL
MODEL 3
REMARK VINA RESULT:     -12.0      6.569     11.787
REMARK SMILES C[C@@H](NS(=O)(=O)c1ccccc1)C(=O)NCCCCNC(=O)c1ccc(-c2c3nc(c(-c4c(F)c(F)c(F)c(F)c4F)c4ccc([nH]4)c(-c4c(F)c(F)c(F)c(F)c4F)c4nc(c(-c5c(F)c(F)c(F)c(F)c5F)c5ccc2[nH]5)C=C4)C=C3)cc1
REMARK SMILES IDX 17 1 16 2 15 3 13 4 14 5 2 7 1 8 3 9 4 11 5 12 6 13 7 14
REMARK SMILES IDX 8 15 12 16 9 17 11 18 10 19 18 20 19 21 20 22 21 23 22 25
REMARK SMILES IDX 23 26 24 27 85 28 25 29 84 30 26 31 27 32 28 33 78 34 29 35
REMARK SMILES IDX 83 36 77 37 79 38 30 39 82 40 76 41 75 42 31 44 63 45 43 46
REMARK SMILES IDX 62 47 44 48 47 49 61 50 80 51 45 52 46 53 60 55 81 56 48 57
REMARK SMILES IDX 32 58 33 59 41 60 34 61 35 62 39 63 42 64 36 65 37 66 40 67
REMARK SMILES IDX 38 68 64 69 65 70 73 71 66 72 67 73 71 74 74 75 68 76 69 77
REMARK SMILES IDX 72 78 70 79 49 80 50 81 58 82 51 83 52 84 56 85 59 86 53 87
REMARK SMILES IDX 54 88 57 89 55 90
REMARK H PARENT 15 6 3 10 20 24 79 43 47 54
REMARK Flexibility Score: inf
ROOT
ATOM      1  C   UNL A   1      37.230  21.074  24.445  1.00  0.00     0.023 C 
ENDROOT
BRANCH   1   2
ATOM      2  C   UNL A   1      36.995  22.197  25.453  1.00  0.00     0.116 C 
BRANCH   2   3
ATOM      3  N   UNL A   1      36.076  21.794  26.501  1.00  0.00    -0.355 N 
ATOM      4  C   UNL A   1      34.732  21.997  26.630  1.00  0.00     0.237 C 
ATOM      5  O   UNL A   1      34.176  21.500  27.613  1.00  0.00    -0.273 OA
ATOM      6  H   UNL A   1      36.488  21.292  27.240  1.00  0.00     0.163 HD
BRANCH   4   7
ATOM      7  C   UNL A   1      33.938  22.816  25.611  1.00  0.00     0.155 C 
ATOM      8  C   UNL A   1      34.562  24.189  25.381  1.00  0.00     0.036 C 
BRANCH   7   9
ATOM      9  N   UNL A   1      33.787  22.085  24.336  1.00  0.00    -0.199 NA
ATOM     10  H   UNL A   1      34.611  21.493  24.231  1.00  0.00     0.142 HD
BRANCH   9  11
ATOM     11  S   UNL A   1      32.434  21.098  24.125  1.00  0.00     0.241 S 
ATOM     12  O   UNL A   1      31.679  21.128  25.357  1.00  0.00    -0.207 OA
ATOM     13  O   UNL A   1      31.848  21.515  22.870  1.00  0.00    -0.207 OA
BRANCH  11  14
ATOM     14  C   UNL A   1      33.079  19.468  23.877  1.00  0.00     0.082 A 
ATOM     15  C   UNL A   1      34.176  19.033  24.624  1.00  0.00     0.022 A 
ATOM     16  C   UNL A   1      32.481  18.622  22.939  1.00  0.00     0.022 A 
ATOM     17  C   UNL A   1      34.636  17.723  24.478  1.00  0.00     0.001 A 
ATOM     18  C   UNL A   1      32.967  17.326  22.773  1.00  0.00     0.001 A 
ATOM     19  C   UNL A   1      34.030  16.870  23.554  1.00  0.00     0.000 A 
ENDBRANCH  11  14
ENDBRANCH   9  11
ENDBRANCH   7   9
ENDBRANCH   4   7
ENDBRANCH   2   3
ENDBRANCH   1   2
BRANCH   1  20
ATOM     20  C   UNL A   1      38.027  19.885  24.992  1.00  0.00     0.023 C 
BRANCH  20  21
ATOM     21  C   UNL A   1      39.215  20.249  25.877  1.00  0.00     0.116 C 
BRANCH  21  22
ATOM     22  N   UNL A   1      40.206  19.188  25.955  1.00  0.00    -0.352 N 
ATOM     23  C   UNL A   1      41.568  19.283  26.126  1.00  0.00     0.251 C 
ATOM     24  H   UNL A   1      39.854  18.273  25.874  1.00  0.00     0.163 HD
ATOM     25  O   UNL A   1      42.276  18.289  26.013  1.00  0.00    -0.269 OA
BRANCH  23  26
ATOM     26  C   UNL A   1      42.179  20.595  26.420  1.00  0.00     0.039 A 
ATOM     27  C   UNL A   1      42.647  21.375  25.359  1.00  0.00     0.014 A 
ATOM     28  C   UNL A   1      42.278  21.062  27.733  1.00  0.00     0.014 A 
ATOM     29  C   UNL A   1      43.150  22.653  25.609  1.00  0.00     0.010 A 
ATOM     30  C   UNL A   1      42.714  22.362  27.975  1.00  0.00     0.010 A 
ATOM     31  C   UNL A   1      43.152  23.171  26.915  1.00  0.00    -0.014 A 
BRANCH  31  32
ATOM     32  C   UNL A   1      43.600  24.560  27.189  1.00  0.00     0.031 A 
ATOM     33  C   UNL A   1      42.624  25.584  27.696  1.00  0.00     0.074 A 
ATOM     34  C   UNL A   1      44.869  24.918  26.913  1.00  0.00     0.049 A 
ATOM     35  N   UNL A   1      42.805  26.861  27.923  1.00  0.00    -0.248 NA
ATOM     36  C   UNL A   1      41.254  25.115  27.960  1.00  0.00     0.031 C 
ATOM     37  C   UNL A   1      45.898  24.031  26.370  1.00  0.00     0.029 A 
ATOM     38  N   UNL A   1      45.507  26.128  27.039  1.00  0.00    -0.354 N 
ATOM     39  C   UNL A   1      41.574  27.348  28.342  1.00  0.00     0.074 A 
ATOM     40  C   UNL A   1      40.640  26.243  28.286  1.00  0.00     0.031 C 
ATOM     41  C   UNL A   1      47.041  24.721  26.226  1.00  0.00     0.029 A 
ATOM     42  C   UNL A   1      46.817  26.105  26.631  1.00  0.00     0.049 A 
ATOM     43  H   UNL A   1      45.065  26.936  27.390  1.00  0.00     0.167 HD
ATOM     44  C   UNL A   1      41.256  28.596  28.760  1.00  0.00     0.037 A 
ATOM     45  C   UNL A   1      47.734  27.091  26.581  1.00  0.00     0.037 A 
ATOM     46  C   UNL A   1      42.191  29.689  28.833  1.00  0.00     0.049 A 
ATOM     47  C   UNL A   1      47.355  28.470  27.046  1.00  0.00     0.074 A 
ATOM     48  C   UNL A   1      41.980  30.977  29.294  1.00  0.00     0.029 A 
ATOM     49  N   UNL A   1      43.517  29.622  28.433  1.00  0.00    -0.354 N 
ATOM     50  N   UNL A   1      46.205  28.903  27.504  1.00  0.00    -0.248 NA
ATOM     51  C   UNL A   1      48.405  29.499  26.994  1.00  0.00     0.031 C 
ATOM     52  C   UNL A   1      43.166  31.701  29.131  1.00  0.00     0.029 A 
ATOM     53  C   UNL A   1      44.130  30.850  28.617  1.00  0.00     0.049 A 
ATOM     54  H   UNL A   1      43.958  28.819  28.072  1.00  0.00     0.167 HD
ATOM     55  C   UNL A   1      46.398  30.241  27.819  1.00  0.00     0.074 A 
ATOM     56  C   UNL A   1      47.781  30.546  27.515  1.00  0.00     0.031 C 
ATOM     57  C   UNL A   1      45.511  31.137  28.316  1.00  0.00     0.037 A 
BRANCH  44  58
ATOM     58  C   UNL A   1      39.835  28.847  29.175  1.00  0.00     0.064 A 
ATOM     59  C   UNL A   1      39.415  28.667  30.503  1.00  0.00     0.173 A 
ATOM     60  C   UNL A   1      38.888  29.302  28.245  1.00  0.00     0.173 A 
ATOM     61  F   UNL A   1      40.279  28.223  31.428  1.00  0.00    -0.203 F 
ATOM     62  C   UNL A   1      38.095  28.903  30.876  1.00  0.00     0.198 A 
ATOM     63  C   UNL A   1      37.577  29.567  28.629  1.00  0.00     0.198 A 
ATOM     64  F   UNL A   1      39.237  29.497  26.964  1.00  0.00    -0.203 F 
ATOM     65  F   UNL A   1      37.707  28.674  32.138  1.00  0.00    -0.200 F 
ATOM     66  C   UNL A   1      37.179  29.359  29.941  1.00  0.00     0.200 A 
ATOM     67  F   UNL A   1      36.695  30.022  27.727  1.00  0.00    -0.200 F 
ATOM     68  F   UNL A   1      35.909  29.592  30.303  1.00  0.00    -0.200 F 
ENDBRANCH  44  58
BRANCH  45  69
ATOM     69  C   UNL A   1      49.105  26.802  26.089  1.00  0.00     0.064 A 
ATOM     70  C   UNL A   1      49.446  27.002  24.744  1.00  0.00     0.173 A 
ATOM     71  C   UNL A   1      50.103  26.321  26.950  1.00  0.00     0.173 A 
ATOM     72  F   UNL A   1      48.519  27.441  23.878  1.00  0.00    -0.203 F 
ATOM     73  C   UNL A   1      50.725  26.714  24.274  1.00  0.00     0.198 A 
ATOM     74  C   UNL A   1      51.391  26.061  26.484  1.00  0.00     0.198 A 
ATOM     75  F   UNL A   1      49.831  26.119  28.247  1.00  0.00    -0.203 F 
ATOM     76  F   UNL A   1      51.009  26.873  22.974  1.00  0.00    -0.200 F 
ATOM     77  C   UNL A   1      51.698  26.249  25.145  1.00  0.00     0.200 A 
ATOM     78  F   UNL A   1      52.331  25.626  27.333  1.00  0.00    -0.200 F 
ATOM     79  F   UNL A   1      52.930  25.978  24.693  1.00  0.00    -0.200 F 
ENDBRANCH  45  69
BRANCH  57  80
ATOM     80  C   UNL A   1      46.013  32.523  28.594  1.00  0.00     0.064 A 
ATOM     81  C   UNL A   1      46.555  32.875  29.840  1.00  0.00     0.173 A 
ATOM     82  C   UNL A   1      45.986  33.503  27.590  1.00  0.00     0.173 A 
ATOM     83  F   UNL A   1      46.589  31.979  30.838  1.00  0.00    -0.203 F 
ATOM     84  C   UNL A   1      47.031  34.162  30.076  1.00  0.00     0.198 A 
ATOM     85  C   UNL A   1      46.489  34.780  27.819  1.00  0.00     0.198 A 
ATOM     86  F   UNL A   1      45.482  33.217  26.379  1.00  0.00    -0.203 F 
ATOM     87  F   UNL A   1      47.502  34.488  31.287  1.00  0.00    -0.200 F 
ATOM     88  C   UNL A   1      47.004  35.111  29.064  1.00  0.00     0.200 A 
ATOM     89  F   UNL A   1      46.475  35.692  26.837  1.00  0.00    -0.200 F 
ATOM     90  F   UNL A   1      47.470  36.347  29.291  1.00  0.00    -0.200 F 
ENDBRANCH  57  80
ENDBRANCH  31  32
ENDBRANCH  23  26
ENDBRANCH  21  22
ENDBRANCH  20  21
ENDBRANCH   1  20
TORSDOF 14
ENDMDL
