MODEL 1
REMARK VINA RESULT:     -11.3      0.000      0.000
REMARK SMILES C=CCN(CC(=O)NCCCCNC(=O)c1ccc(-c2c3nc(c(-c4c(F)c(F)c(F)c(F)c4F)c4ccc([nH]4)c(-c4c(F)c(F)c(F)c(F)c4F)c4nc(c(-c5c(F)c(F)c(F)c(F)c5F)c5ccc2[nH]5)C=C4)C=C3)cc1)c1ccc([N+](=O)[O-])cc1Br
REMARK SMILES IDX 10 1 9 2 8 3 6 4 7 5 5 7 4 8 3 9 2 10 1 11 79 12 80 13 87 14
REMARK SMILES IDX 81 15 86 16 88 17 82 18 83 19 84 20 85 21 11 22 12 23 13 24
REMARK SMILES IDX 14 25 15 27 16 28 17 29 78 30 18 31 77 32 19 33 20 34 21 35
REMARK SMILES IDX 71 36 22 37 76 38 70 39 72 40 23 41 75 42 69 43 68 44 24 46
REMARK SMILES IDX 56 47 36 48 55 49 37 50 40 51 54 52 73 53 38 54 39 55 53 57
REMARK SMILES IDX 74 58 41 59 25 60 26 61 34 62 27 63 28 64 32 65 35 66 29 67
REMARK SMILES IDX 30 68 33 69 31 70 57 71 58 72 66 73 59 74 60 75 64 76 67 77
REMARK SMILES IDX 61 78 62 79 65 80 63 81 42 82 43 83 51 84 44 85 45 86 49 87
REMARK SMILES IDX 52 88 46 89 47 90 50 91 48 92
REMARK H PARENT 8 6 13 26 72 45 40 56
REMARK Flexibility Score: inf
ROOT
ATOM      1  C   UNL A   1      37.175  21.161  24.631  1.00  0.00     0.023 C 
ENDROOT
BRANCH   1   2
ATOM      2  C   UNL A   1      37.422  22.385  25.516  1.00  0.00     0.116 C 
BRANCH   2   3
ATOM      3  N   UNL A   1      36.545  23.485  25.186  1.00  0.00    -0.355 N 
ATOM      4  C   UNL A   1      35.271  23.762  25.593  1.00  0.00     0.239 C 
ATOM      5  O   UNL A   1      34.780  24.813  25.163  1.00  0.00    -0.273 OA
ATOM      6  H   UNL A   1      36.930  24.144  24.565  1.00  0.00     0.163 HD
BRANCH   4   7
ATOM      7  C   UNL A   1      34.477  22.856  26.557  1.00  0.00     0.216 C 
BRANCH   7   8
ATOM      8  N   UNL A   1      33.144  22.383  26.106  1.00  0.00    -0.358 N 
BRANCH   8   9
ATOM      9  C   UNL A   1      31.967  22.836  26.851  1.00  0.00     0.144 C 
BRANCH   9  10
ATOM     10  C   UNL A   1      31.146  23.856  26.138  1.00  0.00    -0.014 C 
ATOM     11  C   UNL A   1      31.338  25.178  26.254  1.00  0.00     0.006 C 
ENDBRANCH   9  10
ENDBRANCH   8   9
BRANCH   8  12
ATOM     12  C   UNL A   1      33.049  21.275  25.259  1.00  0.00     0.052 A 
ATOM     13  C   UNL A   1      33.312  19.983  25.762  1.00  0.00     0.034 A 
ATOM     14  C   UNL A   1      32.700  21.343  23.888  1.00  0.00     0.048 A 
ATOM     15  C   UNL A   1      33.230  18.828  24.973  1.00  0.00     0.088 A 
ATOM     16  C   UNL A   1      32.539  20.186  23.104  1.00  0.00     0.103 A 
ATOM     17  Br  UNL A   1      32.606  22.969  22.901  1.00  0.00    -0.048 Br
ATOM     18  C   UNL A   1      32.819  18.935  23.650  1.00  0.00     0.270 A 
BRANCH  18  19
ATOM     19  N   UNL A   1      32.713  17.735  22.818  1.00  0.00     0.062 N 
ATOM     20  O   UNL A   1      33.349  16.732  23.171  1.00  0.00    -0.258 OA
ATOM     21  O   UNL A   1      31.988  17.793  21.815  1.00  0.00    -0.258 OA
ENDBRANCH  18  19
ENDBRANCH   8  12
ENDBRANCH   7   8
ENDBRANCH   4   7
ENDBRANCH   2   3
ENDBRANCH   1   2
BRANCH   1  22
ATOM     22  C   UNL A   1      38.023  19.934  24.967  1.00  0.00     0.023 C 
BRANCH  22  23
ATOM     23  C   UNL A   1      39.205  20.189  25.896  1.00  0.00     0.116 C 
BRANCH  23  24
ATOM     24  N   UNL A   1      40.184  19.115  25.894  1.00  0.00    -0.352 N 
ATOM     25  C   UNL A   1      41.546  19.182  26.087  1.00  0.00     0.251 C 
ATOM     26  H   UNL A   1      39.824  18.213  25.731  1.00  0.00     0.163 HD
ATOM     27  O   UNL A   1      42.238  18.186  25.945  1.00  0.00    -0.269 OA
BRANCH  25  28
ATOM     28  C   UNL A   1      42.172  20.479  26.429  1.00  0.00     0.039 A 
ATOM     29  C   UNL A   1      42.592  21.313  25.390  1.00  0.00     0.014 A 
ATOM     30  C   UNL A   1      42.323  20.882  27.758  1.00  0.00     0.014 A 
ATOM     31  C   UNL A   1      43.098  22.583  25.683  1.00  0.00     0.010 A 
ATOM     32  C   UNL A   1      42.755  22.174  28.045  1.00  0.00     0.010 A 
ATOM     33  C   UNL A   1      43.144  23.039  27.010  1.00  0.00    -0.014 A 
BRANCH  33  34
ATOM     34  C   UNL A   1      43.578  24.424  27.332  1.00  0.00     0.031 A 
ATOM     35  C   UNL A   1      42.572  25.454  27.767  1.00  0.00     0.074 A 
ATOM     36  C   UNL A   1      44.870  24.772  27.162  1.00  0.00     0.049 A 
ATOM     37  N   UNL A   1      42.748  26.726  28.023  1.00  0.00    -0.248 NA
ATOM     38  C   UNL A   1      41.177  25.004  27.904  1.00  0.00     0.031 C 
ATOM     39  C   UNL A   1      45.930  23.881  26.687  1.00  0.00     0.029 A 
ATOM     40  N   UNL A   1      45.508  25.973  27.353  1.00  0.00    -0.354 N 
ATOM     41  C   UNL A   1      41.490  27.228  28.331  1.00  0.00     0.074 A 
ATOM     42  C   UNL A   1      40.552  26.137  28.187  1.00  0.00     0.031 C 
ATOM     43  C   UNL A   1      47.087  24.561  26.636  1.00  0.00     0.029 A 
ATOM     44  C   UNL A   1      46.845  25.944  27.035  1.00  0.00     0.049 A 
ATOM     45  H   UNL A   1      45.051  26.779  27.685  1.00  0.00     0.167 HD
ATOM     46  C   UNL A   1      41.154  28.482  28.715  1.00  0.00     0.037 A 
ATOM     47  C   UNL A   1      47.769  26.925  27.048  1.00  0.00     0.037 A 
ATOM     48  C   UNL A   1      42.097  29.555  28.895  1.00  0.00     0.049 A 
ATOM     49  C   UNL A   1      47.366  28.304  27.498  1.00  0.00     0.074 A 
ATOM     50  C   UNL A   1      41.865  30.833  29.372  1.00  0.00     0.029 A 
ATOM     51  N   UNL A   1      43.449  29.477  28.599  1.00  0.00    -0.354 N 
ATOM     52  N   UNL A   1      46.191  28.741  27.880  1.00  0.00    -0.248 NA
ATOM     53  C   UNL A   1      48.422  29.327  27.528  1.00  0.00     0.031 C 
ATOM     54  C   UNL A   1      43.064  31.547  29.310  1.00  0.00     0.029 A 
ATOM     55  C   UNL A   1      44.057  30.697  28.853  1.00  0.00     0.049 A 
ATOM     56  H   UNL A   1      43.909  28.676  28.259  1.00  0.00     0.167 HD
ATOM     57  C   UNL A   1      46.371  30.075  28.222  1.00  0.00     0.074 A 
ATOM     58  C   UNL A   1      47.773  30.371  28.022  1.00  0.00     0.031 C 
ATOM     59  C   UNL A   1      45.457  30.975  28.659  1.00  0.00     0.037 A 
BRANCH  46  60
ATOM     60  C   UNL A   1      39.705  28.776  28.975  1.00  0.00     0.064 A 
ATOM     61  C   UNL A   1      39.139  28.627  30.250  1.00  0.00     0.173 A 
ATOM     62  C   UNL A   1      38.894  29.290  27.952  1.00  0.00     0.173 A 
ATOM     63  F   UNL A   1      39.868  28.130  31.260  1.00  0.00    -0.203 F 
ATOM     64  C   UNL A   1      37.808  28.967  30.487  1.00  0.00     0.198 A 
ATOM     65  C   UNL A   1      37.574  29.657  28.199  1.00  0.00     0.198 A 
ATOM     66  F   UNL A   1      39.388  29.457  26.716  1.00  0.00    -0.203 F 
ATOM     67  F   UNL A   1      37.279  28.785  31.704  1.00  0.00    -0.200 F 
ATOM     68  C   UNL A   1      37.032  29.492  29.464  1.00  0.00     0.200 A 
ATOM     69  F   UNL A   1      36.829  30.177  27.214  1.00  0.00    -0.200 F 
ATOM     70  F   UNL A   1      35.757  29.837  29.699  1.00  0.00    -0.200 F 
ENDBRANCH  46  60
BRANCH  47  71
ATOM     71  C   UNL A   1      49.166  26.645  26.623  1.00  0.00     0.064 A 
ATOM     72  C   UNL A   1      50.145  26.261  27.552  1.00  0.00     0.173 A 
ATOM     73  C   UNL A   1      49.563  26.790  25.286  1.00  0.00     0.173 A 
ATOM     74  F   UNL A   1      49.820  26.127  28.847  1.00  0.00    -0.203 F 
ATOM     75  C   UNL A   1      51.469  26.069  27.167  1.00  0.00     0.198 A 
ATOM     76  C   UNL A   1      50.881  26.564  24.895  1.00  0.00     0.198 A 
ATOM     77  F   UNL A   1      48.666  27.148  24.354  1.00  0.00    -0.203 F 
ATOM     78  F   UNL A   1      52.395  25.767  28.087  1.00  0.00    -0.200 F 
ATOM     79  C   UNL A   1      51.836  26.218  25.838  1.00  0.00     0.200 A 
ATOM     80  F   UNL A   1      51.227  26.693  23.607  1.00  0.00    -0.200 F 
ATOM     81  F   UNL A   1      53.111  26.037  25.468  1.00  0.00    -0.200 F 
ENDBRANCH  47  71
BRANCH  59  82
ATOM     82  C   UNL A   1      45.949  32.354  28.989  1.00  0.00     0.064 A 
ATOM     83  C   UNL A   1      45.933  33.390  28.043  1.00  0.00     0.173 A 
ATOM     84  C   UNL A   1      46.406  32.654  30.282  1.00  0.00     0.173 A 
ATOM     85  F   UNL A   1      45.518  33.153  26.789  1.00  0.00    -0.203 F 
ATOM     86  C   UNL A   1      46.385  34.665  28.371  1.00  0.00     0.198 A 
ATOM     87  C   UNL A   1      46.824  33.939  30.616  1.00  0.00     0.198 A 
ATOM     88  F   UNL A   1      46.434  31.701  31.227  1.00  0.00    -0.203 F 
ATOM     89  F   UNL A   1      46.411  35.626  27.436  1.00  0.00    -0.200 F 
ATOM     90  C   UNL A   1      46.822  34.941  29.658  1.00  0.00     0.200 A 
ATOM     91  F   UNL A   1      47.231  34.206  31.864  1.00  0.00    -0.200 F 
ATOM     92  F   UNL A   1      47.248  36.171  29.973  1.00  0.00    -0.200 F 
ENDBRANCH  59  82
ENDBRANCH  33  34
ENDBRANCH  25  28
ENDBRANCH  23  24
ENDBRANCH  22  23
ENDBRANCH   1  22
TORSDOF 16
ENDMDL
MODEL 2
REMARK VINA RESULT:     -11.1      5.937     10.484
REMARK SMILES C=CCN(CC(=O)NCCCCNC(=O)c1ccc(-c2c3nc(c(-c4c(F)c(F)c(F)c(F)c4F)c4ccc([nH]4)c(-c4c(F)c(F)c(F)c(F)c4F)c4nc(c(-c5c(F)c(F)c(F)c(F)c5F)c5ccc2[nH]5)C=C4)C=C3)cc1)c1ccc([N+](=O)[O-])cc1Br
REMARK SMILES IDX 10 1 9 2 8 3 6 4 7 5 5 7 4 8 3 9 2 10 1 11 79 12 80 13 87 14
REMARK SMILES IDX 81 15 86 16 88 17 82 18 83 19 84 20 85 21 11 22 12 23 13 24
REMARK SMILES IDX 14 25 15 27 16 28 17 29 78 30 18 31 77 32 19 33 20 34 21 35
REMARK SMILES IDX 71 36 22 37 76 38 70 39 72 40 23 41 75 42 69 43 68 44 24 46
REMARK SMILES IDX 56 47 36 48 55 49 37 50 40 51 54 52 73 53 38 54 39 55 53 57
REMARK SMILES IDX 74 58 41 59 25 60 26 61 34 62 27 63 28 64 32 65 35 66 29 67
REMARK SMILES IDX 30 68 33 69 31 70 57 71 58 72 66 73 59 74 60 75 64 76 67 77
REMARK SMILES IDX 61 78 62 79 65 80 63 81 42 82 43 83 51 84 44 85 45 86 49 87
REMARK SMILES IDX 52 88 46 89 47 90 50 91 48 92
REMARK H PARENT 8 6 13 26 72 45 40 56
REMARK Flexibility Score: inf
ROOT
ATOM      1  C   UNL A   1      34.112  35.256  29.000  1.00  0.00     0.023 C 
ENDROOT
BRANCH   1   2
ATOM      2  C   UNL A   1      33.511  34.778  30.324  1.00  0.00     0.116 C 
BRANCH   2   3
ATOM      3  N   UNL A   1      33.953  35.574  31.445  1.00  0.00    -0.355 N 
ATOM      4  C   UNL A   1      34.820  35.282  32.460  1.00  0.00     0.239 C 
ATOM      5  O   UNL A   1      35.033  36.191  33.271  1.00  0.00    -0.273 OA
ATOM      6  H   UNL A   1      33.566  36.479  31.484  1.00  0.00     0.163 HD
BRANCH   4   7
ATOM      7  C   UNL A   1      35.530  33.920  32.596  1.00  0.00     0.216 C 
BRANCH   7   8
ATOM      8  N   UNL A   1      37.011  33.909  32.490  1.00  0.00    -0.358 N 
BRANCH   8   9
ATOM      9  C   UNL A   1      37.630  34.721  31.439  1.00  0.00     0.144 C 
BRANCH   9  10
ATOM     10  C   UNL A   1      38.163  33.933  30.291  1.00  0.00    -0.014 C 
ATOM     11  C   UNL A   1      38.970  34.443  29.350  1.00  0.00     0.006 C 
ENDBRANCH   9  10
ENDBRANCH   8   9
BRANCH   8  12
ATOM     12  C   UNL A   1      37.746  32.896  33.112  1.00  0.00     0.052 A 
ATOM     13  C   UNL A   1      37.369  31.547  32.935  1.00  0.00     0.034 A 
ATOM     14  C   UNL A   1      38.878  33.116  33.935  1.00  0.00     0.048 A 
ATOM     15  C   UNL A   1      38.062  30.480  33.521  1.00  0.00     0.088 A 
ATOM     16  C   UNL A   1      39.628  32.052  34.467  1.00  0.00     0.103 A 
ATOM     17  Br  UNL A   1      39.396  34.831  34.581  1.00  0.00    -0.048 Br
ATOM     18  C   UNL A   1      39.205  30.739  34.267  1.00  0.00     0.270 A 
BRANCH  18  19
ATOM     19  N   UNL A   1      39.949  29.632  34.872  1.00  0.00     0.062 N 
ATOM     20  O   UNL A   1      40.110  29.650  36.100  1.00  0.00    -0.258 OA
ATOM     21  O   UNL A   1      40.369  28.742  34.119  1.00  0.00    -0.258 OA
ENDBRANCH  18  19
ENDBRANCH   8  12
ENDBRANCH   7   8
ENDBRANCH   4   7
ENDBRANCH   2   3
ENDBRANCH   1   2
BRANCH   1  22
ATOM     22  C   UNL A   1      35.024  34.249  28.298  1.00  0.00     0.023 C 
BRANCH  22  23
ATOM     23  C   UNL A   1      35.139  32.888  28.975  1.00  0.00     0.116 C 
BRANCH  23  24
ATOM     24  N   UNL A   1      34.265  31.880  28.399  1.00  0.00    -0.352 N 
ATOM     25  C   UNL A   1      34.552  30.577  28.054  1.00  0.00     0.251 C 
ATOM     26  H   UNL A   1      33.338  32.168  28.231  1.00  0.00     0.163 HD
ATOM     27  O   UNL A   1      33.720  29.896  27.478  1.00  0.00    -0.269 OA
BRANCH  25  28
ATOM     28  C   UNL A   1      35.891  30.022  28.351  1.00  0.00     0.039 A 
ATOM     29  C   UNL A   1      36.889  30.124  27.378  1.00  0.00     0.014 A 
ATOM     30  C   UNL A   1      36.171  29.426  29.583  1.00  0.00     0.014 A 
ATOM     31  C   UNL A   1      38.186  29.694  27.670  1.00  0.00     0.010 A 
ATOM     32  C   UNL A   1      37.478  29.068  29.899  1.00  0.00     0.010 A 
ATOM     33  C   UNL A   1      38.501  29.201  28.946  1.00  0.00    -0.014 A 
BRANCH  33  34
ATOM     34  C   UNL A   1      39.896  28.839  29.308  1.00  0.00     0.031 A 
ATOM     35  C   UNL A   1      40.744  29.788  30.111  1.00  0.00     0.074 A 
ATOM     36  C   UNL A   1      40.423  27.686  28.850  1.00  0.00     0.049 A 
ATOM     37  N   UNL A   1      42.000  29.679  30.464  1.00  0.00    -0.248 NA
ATOM     38  C   UNL A   1      40.105  31.039  30.552  1.00  0.00     0.031 C 
ATOM     39  C   UNL A   1      39.725  26.710  28.012  1.00  0.00     0.029 A 
ATOM     40  N   UNL A   1      41.676  27.146  29.011  1.00  0.00    -0.354 N 
ATOM     41  C   UNL A   1      42.304  30.850  31.147  1.00  0.00     0.074 A 
ATOM     42  C   UNL A   1      41.117  31.675  31.122  1.00  0.00     0.031 C 
ATOM     43  C   UNL A   1      40.551  25.687  27.742  1.00  0.00     0.029 A 
ATOM     44  C   UNL A   1      41.850  25.950  28.354  1.00  0.00     0.049 A 
ATOM     45  H   UNL A   1      42.383  27.574  29.546  1.00  0.00     0.167 HD
ATOM     46  C   UNL A   1      43.465  31.194  31.754  1.00  0.00     0.037 A 
ATOM     47  C   UNL A   1      42.938  25.163  28.244  1.00  0.00     0.037 A 
ATOM     48  C   UNL A   1      44.631  30.351  31.809  1.00  0.00     0.049 A 
ATOM     49  C   UNL A   1      44.207  25.566  28.946  1.00  0.00     0.074 A 
ATOM     50  C   UNL A   1      45.821  30.573  32.481  1.00  0.00     0.029 A 
ATOM     51  N   UNL A   1      44.757  29.132  31.164  1.00  0.00    -0.354 N 
ATOM     52  N   UNL A   1      44.451  26.630  29.671  1.00  0.00    -0.248 NA
ATOM     53  C   UNL A   1      45.352  24.652  28.823  1.00  0.00     0.031 C 
ATOM     54  C   UNL A   1      46.688  29.516  32.194  1.00  0.00     0.029 A 
ATOM     55  C   UNL A   1      46.019  28.604  31.395  1.00  0.00     0.049 A 
ATOM     56  H   UNL A   1      44.056  28.703  30.621  1.00  0.00     0.167 HD
ATOM     57  C   UNL A   1      45.762  26.501  30.112  1.00  0.00     0.074 A 
ATOM     58  C   UNL A   1      46.255  25.244  29.591  1.00  0.00     0.031 C 
ATOM     59  C   UNL A   1      46.493  27.347  30.878  1.00  0.00     0.037 A 
BRANCH  46  60
ATOM     60  C   UNL A   1      43.543  32.538  32.416  1.00  0.00     0.064 A 
ATOM     61  C   UNL A   1      43.898  33.693  31.704  1.00  0.00     0.173 A 
ATOM     62  C   UNL A   1      43.177  32.685  33.763  1.00  0.00     0.173 A 
ATOM     63  F   UNL A   1      44.266  33.606  30.416  1.00  0.00    -0.203 F 
ATOM     64  C   UNL A   1      43.902  34.942  32.320  1.00  0.00     0.198 A 
ATOM     65  C   UNL A   1      43.153  33.938  34.368  1.00  0.00     0.198 A 
ATOM     66  F   UNL A   1      42.824  31.613  34.489  1.00  0.00    -0.203 F 
ATOM     67  F   UNL A   1      44.278  36.027  31.629  1.00  0.00    -0.200 F 
ATOM     68  C   UNL A   1      43.518  35.065  33.647  1.00  0.00     0.200 A 
ATOM     69  F   UNL A   1      42.769  34.057  35.646  1.00  0.00    -0.200 F 
ATOM     70  F   UNL A   1      43.504  36.270  34.233  1.00  0.00    -0.200 F 
ENDBRANCH  46  60
BRANCH  47  71
ATOM     71  C   UNL A   1      42.881  23.914  27.439  1.00  0.00     0.064 A 
ATOM     72  C   UNL A   1      42.476  22.699  28.011  1.00  0.00     0.173 A 
ATOM     73  C   UNL A   1      43.265  23.900  26.090  1.00  0.00     0.173 A 
ATOM     74  F   UNL A   1      42.118  22.656  29.303  1.00  0.00    -0.203 F 
ATOM     75  C   UNL A   1      42.492  21.516  27.277  1.00  0.00     0.198 A 
ATOM     76  C   UNL A   1      43.248  22.722  25.347  1.00  0.00     0.198 A 
ATOM     77  F   UNL A   1      43.654  25.035  25.490  1.00  0.00    -0.203 F 
ATOM     78  F   UNL A   1      42.163  20.359  27.868  1.00  0.00    -0.200 F 
ATOM     79  C   UNL A   1      42.875  21.528  25.944  1.00  0.00     0.200 A 
ATOM     80  F   UNL A   1      43.603  22.742  24.055  1.00  0.00    -0.200 F 
ATOM     81  F   UNL A   1      42.894  20.389  25.240  1.00  0.00    -0.200 F 
ENDBRANCH  47  71
BRANCH  59  82
ATOM     82  C   UNL A   1      47.890  26.927  31.231  1.00  0.00     0.064 A 
ATOM     83  C   UNL A   1      48.158  26.111  32.341  1.00  0.00     0.173 A 
ATOM     84  C   UNL A   1      48.972  27.314  30.425  1.00  0.00     0.173 A 
ATOM     85  F   UNL A   1      47.160  25.725  33.152  1.00  0.00    -0.203 F 
ATOM     86  C   UNL A   1      49.460  25.724  32.647  1.00  0.00     0.198 A 
ATOM     87  C   UNL A   1      50.268  26.896  30.715  1.00  0.00     0.198 A 
ATOM     88  F   UNL A   1      48.770  28.087  29.347  1.00  0.00    -0.203 F 
ATOM     89  F   UNL A   1      49.698  24.989  33.743  1.00  0.00    -0.200 F 
ATOM     90  C   UNL A   1      50.512  26.110  31.830  1.00  0.00     0.200 A 
ATOM     91  F   UNL A   1      51.281  27.256  29.914  1.00  0.00    -0.200 F 
ATOM     92  F   UNL A   1      51.762  25.729  32.121  1.00  0.00    -0.200 F 
ENDBRANCH  59  82
ENDBRANCH  33  34
ENDBRANCH  25  28
ENDBRANCH  23  24
ENDBRANCH  22  23
ENDBRANCH   1  22
TORSDOF 16
ENDMDL
MODEL 3
REMARK VINA RESULT:     -11.0      3.401      7.639
REMARK SMILES C=CCN(CC(=O)NCCCCNC(=O)c1ccc(-c2c3nc(c(-c4c(F)c(F)c(F)c(F)c4F)c4ccc([nH]4)c(-c4c(F)c(F)c(F)c(F)c4F)c4nc(c(-c5c(F)c(F)c(F)c(F)c5F)c5ccc2[nH]5)C=C4)C=C3)cc1)c1ccc([N+](=O)[O-])cc1Br
REMARK SMILES IDX 10 1 9 2 8 3 6 4 7 5 5 7 4 8 3 9 2 10 1 11 79 12 80 13 87 14
REMARK SMILES IDX 81 15 86 16 88 17 82 18 83 19 84 20 85 21 11 22 12 23 13 24
REMARK SMILES IDX 14 25 15 27 16 28 17 29 78 30 18 31 77 32 19 33 20 34 21 35
REMARK SMILES IDX 71 36 22 37 76 38 70 39 72 40 23 41 75 42 69 43 68 44 24 46
REMARK SMILES IDX 56 47 36 48 55 49 37 50 40 51 54 52 73 53 38 54 39 55 53 57
REMARK SMILES IDX 74 58 41 59 25 60 26 61 34 62 27 63 28 64 32 65 35 66 29 67
REMARK SMILES IDX 30 68 33 69 31 70 57 71 58 72 66 73 59 74 60 75 64 76 67 77
REMARK SMILES IDX 61 78 62 79 65 80 63 81 42 82 43 83 51 84 44 85 45 86 49 87
REMARK SMILES IDX 52 88 46 89 47 90 50 91 48 92
REMARK H PARENT 8 6 13 26 72 45 40 56
REMARK Flexibility Score: inf
ROOT
ATOM      1  C   UNL A   1      31.452  27.496  26.680  1.00  0.00     0.023 C 
ENDROOT
BRANCH   1   2
ATOM      2  C   UNL A   1      31.077  26.249  25.875  1.00  0.00     0.116 C 
BRANCH   2   3
ATOM      3  N   UNL A   1      30.945  25.078  26.711  1.00  0.00    -0.355 N 
ATOM      4  C   UNL A   1      30.915  23.751  26.388  1.00  0.00     0.239 C 
ATOM      5  O   UNL A   1      30.825  22.963  27.336  1.00  0.00    -0.273 OA
ATOM      6  H   UNL A   1      30.863  25.267  27.673  1.00  0.00     0.163 HD
BRANCH   4   7
ATOM      7  C   UNL A   1      31.017  23.233  24.938  1.00  0.00     0.216 C 
BRANCH   7   8
ATOM      8  N   UNL A   1      32.356  22.806  24.459  1.00  0.00    -0.358 N 
BRANCH   8   9
ATOM      9  C   UNL A   1      33.184  23.794  23.764  1.00  0.00     0.144 C 
BRANCH   9  10
ATOM     10  C   UNL A   1      34.641  23.478  23.759  1.00  0.00    -0.014 C 
ATOM     11  C   UNL A   1      35.524  24.029  24.606  1.00  0.00     0.006 C 
ENDBRANCH   9  10
ENDBRANCH   8   9
BRANCH   8  12
ATOM     12  C   UNL A   1      32.652  21.444  24.346  1.00  0.00     0.052 A 
ATOM     13  C   UNL A   1      32.131  20.701  23.266  1.00  0.00     0.034 A 
ATOM     14  C   UNL A   1      33.461  20.722  25.257  1.00  0.00     0.048 A 
ATOM     15  C   UNL A   1      32.391  19.336  23.085  1.00  0.00     0.088 A 
ATOM     16  C   UNL A   1      33.793  19.371  25.047  1.00  0.00     0.103 A 
ATOM     17  Br  UNL A   1      34.019  21.405  26.945  1.00  0.00    -0.048 Br
ATOM     18  C   UNL A   1      33.243  18.683  23.967  1.00  0.00     0.270 A 
BRANCH  18  19
ATOM     19  N   UNL A   1      33.537  17.261  23.781  1.00  0.00     0.062 N 
ATOM     20  O   UNL A   1      33.400  16.512  24.758  1.00  0.00    -0.258 OA
ATOM     21  O   UNL A   1      33.900  16.892  22.655  1.00  0.00    -0.258 OA
ENDBRANCH  18  19
ENDBRANCH   8  12
ENDBRANCH   7   8
ENDBRANCH   4   7
ENDBRANCH   2   3
ENDBRANCH   1   2
BRANCH   1  22
ATOM     22  C   UNL A   1      32.681  28.252  26.173  1.00  0.00     0.023 C 
BRANCH  22  23
ATOM     23  C   UNL A   1      33.714  28.610  27.236  1.00  0.00     0.116 C 
BRANCH  23  24
ATOM     24  N   UNL A   1      33.662  30.003  27.646  1.00  0.00    -0.352 N 
ATOM     25  C   UNL A   1      34.629  30.762  28.268  1.00  0.00     0.251 C 
ATOM     26  H   UNL A   1      32.817  30.471  27.452  1.00  0.00     0.163 HD
ATOM     27  O   UNL A   1      34.376  31.896  28.639  1.00  0.00    -0.269 OA
BRANCH  25  28
ATOM     28  C   UNL A   1      35.964  30.177  28.520  1.00  0.00     0.039 A 
ATOM     29  C   UNL A   1      36.922  30.234  27.505  1.00  0.00     0.014 A 
ATOM     30  C   UNL A   1      36.280  29.598  29.752  1.00  0.00     0.014 A 
ATOM     31  C   UNL A   1      38.219  29.775  27.751  1.00  0.00     0.010 A 
ATOM     32  C   UNL A   1      37.590  29.211  30.020  1.00  0.00     0.010 A 
ATOM     33  C   UNL A   1      38.575  29.299  29.023  1.00  0.00    -0.014 A 
BRANCH  33  34
ATOM     34  C   UNL A   1      39.974  28.907  29.334  1.00  0.00     0.031 A 
ATOM     35  C   UNL A   1      40.878  29.847  30.083  1.00  0.00     0.074 A 
ATOM     36  C   UNL A   1      40.452  27.732  28.877  1.00  0.00     0.049 A 
ATOM     37  N   UNL A   1      42.145  29.712  30.386  1.00  0.00    -0.248 NA
ATOM     38  C   UNL A   1      40.290  31.122  30.527  1.00  0.00     0.031 C 
ATOM     39  C   UNL A   1      39.695  26.761  28.086  1.00  0.00     0.029 A 
ATOM     40  N   UNL A   1      41.697  27.163  28.996  1.00  0.00    -0.354 N 
ATOM     41  C   UNL A   1      42.507  30.886  31.034  1.00  0.00     0.074 A 
ATOM     42  C   UNL A   1      41.341  31.742  31.043  1.00  0.00     0.031 C 
ATOM     43  C   UNL A   1      40.483  25.712  27.802  1.00  0.00     0.029 A 
ATOM     44  C   UNL A   1      41.812  25.952  28.355  1.00  0.00     0.049 A 
ATOM     45  H   UNL A   1      42.436  27.582  29.493  1.00  0.00     0.167 HD
ATOM     46  C   UNL A   1      43.700  31.210  31.587  1.00  0.00     0.037 A 
ATOM     47  C   UNL A   1      42.875  25.135  28.215  1.00  0.00     0.037 A 
ATOM     48  C   UNL A   1      44.846  30.339  31.610  1.00  0.00     0.049 A 
ATOM     49  C   UNL A   1      44.182  25.517  28.857  1.00  0.00     0.074 A 
ATOM     50  C   UNL A   1      46.068  30.541  32.227  1.00  0.00     0.029 A 
ATOM     51  N   UNL A   1      44.914  29.105  30.983  1.00  0.00    -0.354 N 
ATOM     52  N   UNL A   1      44.483  26.587  29.551  1.00  0.00    -0.248 NA
ATOM     53  C   UNL A   1      45.297  24.571  28.703  1.00  0.00     0.031 C 
ATOM     54  C   UNL A   1      46.895  29.457  31.925  1.00  0.00     0.029 A 
ATOM     55  C   UNL A   1      46.170  28.549  31.171  1.00  0.00     0.049 A 
ATOM     56  H   UNL A   1      44.180  28.685  30.478  1.00  0.00     0.167 HD
ATOM     57  C   UNL A   1      45.807  26.431  29.940  1.00  0.00     0.074 A 
ATOM     58  C   UNL A   1      46.246  25.152  29.422  1.00  0.00     0.031 C 
ATOM     59  C   UNL A   1      46.590  27.271  30.659  1.00  0.00     0.037 A 
BRANCH  46  60
ATOM     60  C   UNL A   1      43.840  32.564  32.220  1.00  0.00     0.064 A 
ATOM     61  C   UNL A   1      44.224  33.690  31.478  1.00  0.00     0.173 A 
ATOM     62  C   UNL A   1      43.504  32.750  33.570  1.00  0.00     0.173 A 
ATOM     63  F   UNL A   1      44.565  33.565  30.187  1.00  0.00    -0.203 F 
ATOM     64  C   UNL A   1      44.285  34.951  32.069  1.00  0.00     0.198 A 
ATOM     65  C   UNL A   1      43.537  34.015  34.149  1.00  0.00     0.198 A 
ATOM     66  F   UNL A   1      43.125  31.707  34.323  1.00  0.00    -0.203 F 
ATOM     67  F   UNL A   1      44.688  36.006  31.350  1.00  0.00    -0.200 F 
ATOM     68  C   UNL A   1      43.930  35.113  33.400  1.00  0.00     0.200 A 
ATOM     69  F   UNL A   1      43.181  34.174  35.431  1.00  0.00    -0.200 F 
ATOM     70  F   UNL A   1      43.971  36.330  33.961  1.00  0.00    -0.200 F 
ENDBRANCH  46  60
BRANCH  47  71
ATOM     71  C   UNL A   1      42.753  23.873  27.436  1.00  0.00     0.064 A 
ATOM     72  C   UNL A   1      42.296  22.691  28.036  1.00  0.00     0.173 A 
ATOM     73  C   UNL A   1      43.124  23.814  26.085  1.00  0.00     0.173 A 
ATOM     74  F   UNL A   1      41.947  22.691  29.332  1.00  0.00    -0.203 F 
ATOM     75  C   UNL A   1      42.251  21.493  27.327  1.00  0.00     0.198 A 
ATOM     76  C   UNL A   1      43.046  22.623  25.367  1.00  0.00     0.198 A 
ATOM     77  F   UNL A   1      43.561  24.917  25.459  1.00  0.00    -0.203 F 
ATOM     78  F   UNL A   1      41.873  20.365  27.945  1.00  0.00    -0.200 F 
ATOM     79  C   UNL A   1      42.623  21.460  25.992  1.00  0.00     0.200 A 
ATOM     80  F   UNL A   1      43.391  22.600  24.072  1.00  0.00    -0.200 F 
ATOM     81  F   UNL A   1      42.583  20.307  25.311  1.00  0.00    -0.200 F 
ENDBRANCH  47  71
BRANCH  59  82
ATOM     82  C   UNL A   1      47.990  26.820  30.963  1.00  0.00     0.064 A 
ATOM     83  C   UNL A   1      48.281  26.010  32.070  1.00  0.00     0.173 A 
ATOM     84  C   UNL A   1      49.049  27.174  30.111  1.00  0.00     0.173 A 
ATOM     85  F   UNL A   1      47.307  25.655  32.923  1.00  0.00    -0.203 F 
ATOM     86  C   UNL A   1      49.585  25.594  32.329  1.00  0.00     0.198 A 
ATOM     87  C   UNL A   1      50.345  26.728  30.355  1.00  0.00     0.198 A 
ATOM     88  F   UNL A   1      48.823  27.941  29.034  1.00  0.00    -0.203 F 
ATOM     89  F   UNL A   1      49.848  24.864  33.423  1.00  0.00    -0.200 F 
ATOM     90  C   UNL A   1      50.613  25.946  31.468  1.00  0.00     0.200 A 
ATOM     91  F   UNL A   1      51.333  27.056  29.512  1.00  0.00    -0.200 F 
ATOM     92  F   UNL A   1      51.865  25.539  31.715  1.00  0.00    -0.200 F 
ENDBRANCH  59  82
ENDBRANCH  33  34
ENDBRANCH  25  28
ENDBRANCH  23  24
ENDBRANCH  22  23
ENDBRANCH   1  22
TORSDOF 16
ENDMDL
