MODEL 1
REMARK VINA RESULT:     -13.1      0.000      0.000
REMARK SMILES Cc1nnc(/[NH+]=C2/S/C(=C/c3cccc(O[C@@H](C)C(=O)NCCCCNC(=O)c4ccc(-c5c6nc(c(-c7c(F)c(F)c(F)c(F)c7F)c7ccc([nH]7)c(-c7c(F)c(F)c(F)c(F)c7F)c7nc(c(-c8c(F)c(F)c(F)c(F)c8F)c8ccc5[nH]8)C=C7)C=C6)cc4)c3)C(=O)N2C)s1
REMARK SMILES IDX 22 1 21 2 19 3 20 4 17 6 18 7 16 8 15 9 11 10 12 11 92 12
REMARK SMILES IDX 13 13 14 14 10 15 6 16 7 17 8 19 95 20 9 21 93 22 96 23
REMARK SMILES IDX 94 24 5 25 1 26 2 27 3 28 97 29 4 30 23 31 24 32 25 33 26 34
REMARK SMILES IDX 27 35 28 37 29 38 30 39 91 40 31 41 90 42 32 43 33 44 34 45
REMARK SMILES IDX 84 46 35 47 89 48 83 49 85 50 36 51 88 52 82 53 81 54 37 56
REMARK SMILES IDX 69 57 49 58 68 59 50 60 53 61 67 62 86 63 51 64 52 65 66 67
REMARK SMILES IDX 87 68 54 69 38 70 39 71 47 72 40 73 41 74 45 75 48 76 42 77
REMARK SMILES IDX 43 78 46 79 44 80 70 81 71 82 79 83 72 84 73 85 77 86 80 87
REMARK SMILES IDX 74 88 75 89 78 90 76 91 55 92 56 93 64 94 57 95 58 96 62 97
REMARK SMILES IDX 65 98 59 99 60 100 63 101 61 102
REMARK H PARENT 21 5 6 18 26 36 85 55 53 66
REMARK Flexibility Score: inf
ROOT
ATOM      1  C   UNL A   1      31.403  29.789  25.523  1.00  0.00     0.116 C 
ENDROOT
BRANCH   1   2
ATOM      2  N   UNL A   1      32.398  29.703  24.479  1.00  0.00    -0.353 N 
ATOM      3  C   UNL A   1      32.387  29.102  23.260  1.00  0.00     0.260 C 
ATOM      4  O   UNL A   1      33.467  29.112  22.653  1.00  0.00    -0.271 OA
ATOM      5  H   UNL A   1      33.241  30.166  24.690  1.00  0.00     0.163 HD
BRANCH   3   6
ATOM      6  C   UNL A   1      31.125  28.496  22.584  1.00  0.00     0.258 C 
ATOM      7  C   UNL A   1      30.169  29.565  22.054  1.00  0.00     0.064 C 
BRANCH   6   8
ATOM      8  O   UNL A   1      30.561  27.281  23.068  1.00  0.00    -0.481 OA
BRANCH   8   9
ATOM      9  C   UNL A   1      31.103  26.478  24.017  1.00  0.00     0.121 A 
ATOM     10  C   UNL A   1      32.805  25.016  24.984  1.00  0.00    -0.021 A 
ATOM     11  C   UNL A   1      31.941  24.731  26.047  1.00  0.00     0.008 A 
ATOM     12  C   UNL A   1      32.384  25.938  24.009  1.00  0.00     0.054 A 
ATOM     13  C   UNL A   1      30.686  25.341  26.119  1.00  0.00     0.004 A 
ATOM     14  C   UNL A   1      30.269  26.201  25.101  1.00  0.00     0.046 A 
BRANCH  10  15
ATOM     15  C   UNL A   1      33.951  24.119  24.731  1.00  0.00     0.031 C 
ATOM     16  N   UNL A   1      34.700  19.295  25.114  1.00  0.00    -0.226 N 
ATOM     17  C   UNL A   1      34.276  20.369  24.539  1.00  0.00     0.271 C 
ATOM     18  H   UNL A   1      35.635  19.234  25.416  1.00  0.00     0.268 HD
ATOM     19  S   UNL A   1      35.307  21.797  24.618  1.00  0.00    -0.012 SA
ATOM     20  N   UNL A   1      33.130  20.687  23.854  1.00  0.00    -0.222 N 
ATOM     21  C   UNL A   1      33.960  22.844  24.313  1.00  0.00     0.100 C 
ATOM     22  C   UNL A   1      32.866  22.038  23.709  1.00  0.00     0.321 C 
ATOM     23  C   UNL A   1      32.238  19.748  23.201  1.00  0.00     0.252 C 
ATOM     24  O   UNL A   1      31.892  22.516  23.145  1.00  0.00    -0.250 OA
BRANCH  16  25
ATOM     25  C   UNL A   1      33.859  18.254  25.304  1.00  0.00     0.345 A 
ATOM     26  C   UNL A   1      32.527  14.634  25.376  1.00  0.00     0.083 C 
ATOM     27  C   UNL A   1      32.869  16.078  25.432  1.00  0.00     0.135 A 
ATOM     28  N   UNL A   1      32.054  17.020  25.854  1.00  0.00    -0.067 NA
ATOM     29  S   UNL A   1      34.407  16.655  24.940  1.00  0.00    -0.044 S 
ATOM     30  N   UNL A   1      32.644  18.266  25.821  1.00  0.00     0.023 NA
ENDBRANCH  16  25
ENDBRANCH  10  15
ENDBRANCH   8   9
ENDBRANCH   6   8
ENDBRANCH   3   6
ENDBRANCH   1   2
BRANCH   1  31
ATOM     31  C   UNL A   1      31.941  30.555  26.734  1.00  0.00     0.023 C 
BRANCH  31  32
ATOM     32  C   UNL A   1      31.403  31.981  26.877  1.00  0.00     0.023 C 
BRANCH  32  33
ATOM     33  C   UNL A   1      32.440  33.080  26.652  1.00  0.00     0.116 C 
BRANCH  33  34
ATOM     34  N   UNL A   1      32.374  34.163  27.623  1.00  0.00    -0.352 N 
ATOM     35  C   UNL A   1      33.270  34.486  28.618  1.00  0.00     0.251 C 
ATOM     36  H   UNL A   1      31.583  34.745  27.559  1.00  0.00     0.163 HD
ATOM     37  O   UNL A   1      33.045  35.430  29.370  1.00  0.00    -0.269 OA
BRANCH  35  38
ATOM     38  C   UNL A   1      34.454  33.624  28.839  1.00  0.00     0.039 A 
ATOM     39  C   UNL A   1      35.720  34.206  28.737  1.00  0.00     0.014 A 
ATOM     40  C   UNL A   1      34.321  32.296  29.251  1.00  0.00     0.014 A 
ATOM     41  C   UNL A   1      36.842  33.503  29.181  1.00  0.00     0.010 A 
ATOM     42  C   UNL A   1      35.429  31.622  29.758  1.00  0.00     0.010 A 
ATOM     43  C   UNL A   1      36.691  32.236  29.767  1.00  0.00    -0.014 A 
BRANCH  43  44
ATOM     44  C   UNL A   1      37.816  31.590  30.490  1.00  0.00     0.031 A 
ATOM     45  C   UNL A   1      38.690  30.578  29.809  1.00  0.00     0.074 A 
ATOM     46  C   UNL A   1      37.975  31.844  31.805  1.00  0.00     0.049 A 
ATOM     47  N   UNL A   1      39.662  29.860  30.310  1.00  0.00    -0.248 NA
ATOM     48  C   UNL A   1      38.416  30.316  28.388  1.00  0.00     0.031 C 
ATOM     49  C   UNL A   1      37.136  32.745  32.600  1.00  0.00     0.029 A 
ATOM     50  N   UNL A   1      38.884  31.356  32.710  1.00  0.00    -0.354 N 
ATOM     51  C   UNL A   1      40.098  29.042  29.277  1.00  0.00     0.074 A 
ATOM     52  C   UNL A   1      39.267  29.334  28.127  1.00  0.00     0.031 C 
ATOM     53  C   UNL A   1      37.580  32.758  33.868  1.00  0.00     0.029 A 
ATOM     54  C   UNL A   1      38.714  31.848  33.982  1.00  0.00     0.049 A 
ATOM     55  H   UNL A   1      39.590  30.714  32.472  1.00  0.00     0.167 HD
ATOM     56  C   UNL A   1      41.108  28.141  29.287  1.00  0.00     0.037 A 
ATOM     57  C   UNL A   1      39.395  31.593  35.115  1.00  0.00     0.037 A 
ATOM     58  C   UNL A   1      41.964  27.887  30.415  1.00  0.00     0.049 A 
ATOM     59  C   UNL A   1      40.553  30.637  35.076  1.00  0.00     0.074 A 
ATOM     60  C   UNL A   1      43.076  27.066  30.487  1.00  0.00     0.029 A 
ATOM     61  N   UNL A   1      41.804  28.457  31.668  1.00  0.00    -0.354 N 
ATOM     62  N   UNL A   1      41.016  29.942  34.066  1.00  0.00    -0.248 NA
ATOM     63  C   UNL A   1      41.289  30.434  36.333  1.00  0.00     0.031 C 
ATOM     64  C   UNL A   1      43.574  27.118  31.793  1.00  0.00     0.029 A 
ATOM     65  C   UNL A   1      42.789  27.993  32.526  1.00  0.00     0.049 A 
ATOM     66  H   UNL A   1      41.096  29.096  31.912  1.00  0.00     0.167 HD
ATOM     67  C   UNL A   1      42.109  29.242  34.556  1.00  0.00     0.074 A 
ATOM     68  C   UNL A   1      42.248  29.603  35.952  1.00  0.00     0.031 C 
ATOM     69  C   UNL A   1      42.922  28.377  33.906  1.00  0.00     0.037 A 
BRANCH  56  70
ATOM     70  C   UNL A   1      41.354  27.362  28.030  1.00  0.00     0.064 A 
ATOM     71  C   UNL A   1      42.236  27.826  27.043  1.00  0.00     0.173 A 
ATOM     72  C   UNL A   1      40.742  26.116  27.836  1.00  0.00     0.173 A 
ATOM     73  F   UNL A   1      42.836  29.017  27.181  1.00  0.00    -0.203 F 
ATOM     74  C   UNL A   1      42.482  27.076  25.896  1.00  0.00     0.198 A 
ATOM     75  C   UNL A   1      41.006  25.360  26.697  1.00  0.00     0.198 A 
ATOM     76  F   UNL A   1      39.894  25.629  28.754  1.00  0.00    -0.203 F 
ATOM     77  F   UNL A   1      43.303  27.553  24.950  1.00  0.00    -0.200 F 
ATOM     78  C   UNL A   1      41.872  25.842  25.727  1.00  0.00     0.200 A 
ATOM     79  F   UNL A   1      40.423  24.164  26.538  1.00  0.00    -0.200 F 
ATOM     80  F   UNL A   1      42.116  25.119  24.626  1.00  0.00    -0.200 F 
ENDBRANCH  56  70
BRANCH  57  81
ATOM     81  C   UNL A   1      39.021  32.277  36.379  1.00  0.00     0.064 A 
ATOM     82  C   UNL A   1      39.559  33.531  36.699  1.00  0.00     0.173 A 
ATOM     83  C   UNL A   1      38.136  31.691  37.293  1.00  0.00     0.173 A 
ATOM     84  F   UNL A   1      40.425  34.121  35.863  1.00  0.00    -0.203 F 
ATOM     85  C   UNL A   1      39.242  34.164  37.899  1.00  0.00     0.198 A 
ATOM     86  C   UNL A   1      37.802  32.334  38.483  1.00  0.00     0.198 A 
ATOM     87  F   UNL A   1      37.591  30.494  37.028  1.00  0.00    -0.203 F 
ATOM     88  F   UNL A   1      39.804  35.342  38.202  1.00  0.00    -0.200 F 
ATOM     89  C   UNL A   1      38.362  33.566  38.789  1.00  0.00     0.200 A 
ATOM     90  F   UNL A   1      36.944  31.758  39.336  1.00  0.00    -0.200 F 
ATOM     91  F   UNL A   1      38.060  34.173  39.944  1.00  0.00    -0.200 F 
ENDBRANCH  57  81
BRANCH  69  92
ATOM     92  C   UNL A   1      44.055  27.786  34.688  1.00  0.00     0.064 A 
ATOM     93  C   UNL A   1      45.286  28.448  34.802  1.00  0.00     0.173 A 
ATOM     94  C   UNL A   1      43.894  26.567  35.360  1.00  0.00     0.173 A 
ATOM     95  F   UNL A   1      45.490  29.608  34.160  1.00  0.00    -0.203 F 
ATOM     96  C   UNL A   1      46.322  27.899  35.551  1.00  0.00     0.198 A 
ATOM     97  C   UNL A   1      44.925  26.032  36.126  1.00  0.00     0.198 A 
ATOM     98  F   UNL A   1      42.733  25.899  35.281  1.00  0.00    -0.203 F 
ATOM     99  F   UNL A   1      47.502  28.531  35.621  1.00  0.00    -0.200 F 
ATOM    100  C   UNL A   1      46.139  26.697  36.218  1.00  0.00     0.200 A 
ATOM    101  F   UNL A   1      44.745  24.873  36.774  1.00  0.00    -0.200 F 
ATOM    102  F   UNL A   1      47.137  26.173  36.943  1.00  0.00    -0.200 F 
ENDBRANCH  69  92
ENDBRANCH  43  44
ENDBRANCH  35  38
ENDBRANCH  33  34
ENDBRANCH  32  33
ENDBRANCH  31  32
ENDBRANCH   1  31
TORSDOF 15
ENDMDL
MODEL 2
REMARK VINA RESULT:     -13.1      0.384      7.078
REMARK SMILES Cc1nnc(/[NH+]=C2/S/C(=C/c3cccc(O[C@@H](C)C(=O)NCCCCNC(=O)c4ccc(-c5c6nc(c(-c7c(F)c(F)c(F)c(F)c7F)c7ccc([nH]7)c(-c7c(F)c(F)c(F)c(F)c7F)c7nc(c(-c8c(F)c(F)c(F)c(F)c8F)c8ccc5[nH]8)C=C7)C=C6)cc4)c3)C(=O)N2C)s1
REMARK SMILES IDX 22 1 21 2 19 3 20 4 17 6 18 7 16 8 15 9 11 10 12 11 92 12
REMARK SMILES IDX 13 13 14 14 10 15 6 16 7 17 8 19 95 20 9 21 93 22 96 23
REMARK SMILES IDX 94 24 5 25 1 26 2 27 3 28 97 29 4 30 23 31 24 32 25 33 26 34
REMARK SMILES IDX 27 35 28 37 29 38 30 39 91 40 31 41 90 42 32 43 33 44 34 45
REMARK SMILES IDX 84 46 35 47 89 48 83 49 85 50 36 51 88 52 82 53 81 54 37 56
REMARK SMILES IDX 69 57 49 58 68 59 50 60 53 61 67 62 86 63 51 64 52 65 66 67
REMARK SMILES IDX 87 68 54 69 38 70 39 71 47 72 40 73 41 74 45 75 48 76 42 77
REMARK SMILES IDX 43 78 46 79 44 80 70 81 71 82 79 83 72 84 73 85 77 86 80 87
REMARK SMILES IDX 74 88 75 89 78 90 76 91 55 92 56 93 64 94 57 95 58 96 62 97
REMARK SMILES IDX 65 98 59 99 60 100 63 101 61 102
REMARK H PARENT 21 5 6 18 26 36 85 55 53 66
REMARK Flexibility Score: inf
ROOT
ATOM      1  C   UNL A   1      31.395  29.882  25.405  1.00  0.00     0.116 C 
ENDROOT
BRANCH   1   2
ATOM      2  N   UNL A   1      32.376  29.702  24.359  1.00  0.00    -0.353 N 
ATOM      3  C   UNL A   1      32.322  29.056  23.164  1.00  0.00     0.260 C 
ATOM      4  O   UNL A   1      33.396  28.982  22.550  1.00  0.00    -0.271 OA
ATOM      5  H   UNL A   1      33.245  30.125  24.547  1.00  0.00     0.163 HD
BRANCH   3   6
ATOM      6  C   UNL A   1      31.022  28.496  22.519  1.00  0.00     0.258 C 
ATOM      7  C   UNL A   1      30.089  29.598  22.021  1.00  0.00     0.064 C 
BRANCH   6   8
ATOM      8  O   UNL A   1      30.432  27.297  23.012  1.00  0.00    -0.481 OA
BRANCH   8   9
ATOM      9  C   UNL A   1      30.959  26.487  23.963  1.00  0.00     0.121 A 
ATOM     10  C   UNL A   1      32.652  25.030  24.952  1.00  0.00    -0.021 A 
ATOM     11  C   UNL A   1      31.765  24.719  25.989  1.00  0.00     0.008 A 
ATOM     12  C   UNL A   1      32.245  25.961  23.980  1.00  0.00     0.054 A 
ATOM     13  C   UNL A   1      30.502  25.316  26.038  1.00  0.00     0.004 A 
ATOM     14  C   UNL A   1      30.101  26.186  25.022  1.00  0.00     0.046 A 
BRANCH  10  15
ATOM     15  C   UNL A   1      33.814  24.148  24.716  1.00  0.00     0.031 C 
ATOM     16  N   UNL A   1      34.623  19.334  25.105  1.00  0.00    -0.226 N 
ATOM     17  C   UNL A   1      34.193  20.403  24.524  1.00  0.00     0.271 C 
ATOM     18  H   UNL A   1      35.554  19.285  25.420  1.00  0.00     0.268 HD
ATOM     19  S   UNL A   1      35.203  21.846  24.621  1.00  0.00    -0.012 SA
ATOM     20  N   UNL A   1      33.053  20.706  23.822  1.00  0.00    -0.222 N 
ATOM     21  C   UNL A   1      33.847  22.874  24.297  1.00  0.00     0.100 C 
ATOM     22  C   UNL A   1      32.773  22.054  23.675  1.00  0.00     0.321 C 
ATOM     23  C   UNL A   1      32.184  19.756  23.155  1.00  0.00     0.252 C 
ATOM     24  O   UNL A   1      31.801  22.519  23.097  1.00  0.00    -0.250 OA
BRANCH  16  25
ATOM     25  C   UNL A   1      33.793  18.281  25.280  1.00  0.00     0.345 A 
ATOM     26  C   UNL A   1      32.527  14.638  25.378  1.00  0.00     0.083 C 
ATOM     27  C   UNL A   1      32.839  16.090  25.415  1.00  0.00     0.135 A 
ATOM     28  N   UNL A   1      31.988  17.026  25.776  1.00  0.00    -0.067 NA
ATOM     29  S   UNL A   1      34.387  16.686  24.981  1.00  0.00    -0.044 S 
ATOM     30  N   UNL A   1      32.556  18.282  25.740  1.00  0.00     0.023 NA
ENDBRANCH  16  25
ENDBRANCH  10  15
ENDBRANCH   8   9
ENDBRANCH   6   8
ENDBRANCH   3   6
ENDBRANCH   1   2
BRANCH   1  31
ATOM     31  C   UNL A   1      32.009  30.584  26.618  1.00  0.00     0.023 C 
BRANCH  31  32
ATOM     32  C   UNL A   1      31.447  31.979  26.900  1.00  0.00     0.023 C 
BRANCH  32  33
ATOM     33  C   UNL A   1      32.412  33.128  26.608  1.00  0.00     0.116 C 
BRANCH  33  34
ATOM     34  N   UNL A   1      32.369  34.201  27.591  1.00  0.00    -0.352 N 
ATOM     35  C   UNL A   1      33.268  34.489  28.594  1.00  0.00     0.251 C 
ATOM     36  H   UNL A   1      31.592  34.803  27.530  1.00  0.00     0.163 HD
ATOM     37  O   UNL A   1      33.062  35.431  29.356  1.00  0.00    -0.269 OA
BRANCH  35  38
ATOM     38  C   UNL A   1      34.427  33.595  28.811  1.00  0.00     0.039 A 
ATOM     39  C   UNL A   1      35.707  34.157  28.781  1.00  0.00     0.014 A 
ATOM     40  C   UNL A   1      34.257  32.252  29.152  1.00  0.00     0.014 A 
ATOM     41  C   UNL A   1      36.800  33.412  29.228  1.00  0.00     0.010 A 
ATOM     42  C   UNL A   1      35.335  31.532  29.661  1.00  0.00     0.010 A 
ATOM     43  C   UNL A   1      36.606  32.120  29.743  1.00  0.00    -0.014 A 
BRANCH  43  44
ATOM     44  C   UNL A   1      37.694  31.417  30.470  1.00  0.00     0.031 A 
ATOM     45  C   UNL A   1      38.014  31.756  31.895  1.00  0.00     0.074 A 
ATOM     46  C   UNL A   1      38.467  30.543  29.793  1.00  0.00     0.049 A 
ATOM     47  N   UNL A   1      38.978  31.301  32.654  1.00  0.00    -0.248 NA
ATOM     48  C   UNL A   1      37.158  32.760  32.545  1.00  0.00     0.031 C 
ATOM     49  C   UNL A   1      38.310  30.192  28.379  1.00  0.00     0.029 A 
ATOM     50  N   UNL A   1      39.552  29.804  30.197  1.00  0.00    -0.354 N 
ATOM     51  C   UNL A   1      38.864  31.981  33.858  1.00  0.00     0.074 A 
ATOM     52  C   UNL A   1      37.753  32.899  33.722  1.00  0.00     0.031 C 
ATOM     53  C   UNL A   1      39.250  29.294  28.039  1.00  0.00     0.029 A 
ATOM     54  C   UNL A   1      40.092  29.027  29.200  1.00  0.00     0.049 A 
ATOM     55  H   UNL A   1      39.909  29.828  31.113  1.00  0.00     0.167 HD
ATOM     56  C   UNL A   1      39.612  31.839  34.978  1.00  0.00     0.037 A 
ATOM     57  C   UNL A   1      41.149  28.194  29.218  1.00  0.00     0.037 A 
ATOM     58  C   UNL A   1      40.684  30.892  35.129  1.00  0.00     0.049 A 
ATOM     59  C   UNL A   1      41.917  28.010  30.497  1.00  0.00     0.074 A 
ATOM     60  C   UNL A   1      41.432  30.608  36.258  1.00  0.00     0.029 A 
ATOM     61  N   UNL A   1      41.159  30.073  34.116  1.00  0.00    -0.354 N 
ATOM     62  N   UNL A   1      41.736  28.590  31.658  1.00  0.00    -0.248 NA
ATOM     63  C   UNL A   1      43.031  27.052  30.470  1.00  0.00     0.031 C 
ATOM     64  C   UNL A   1      42.377  29.633  35.923  1.00  0.00     0.029 A 
ATOM     65  C   UNL A   1      42.200  29.291  34.592  1.00  0.00     0.049 A 
ATOM     66  H   UNL A   1      40.808  30.049  33.197  1.00  0.00     0.167 HD
ATOM     67  C   UNL A   1      42.693  28.050  32.504  1.00  0.00     0.074 A 
ATOM     68  C   UNL A   1      43.448  27.088  31.727  1.00  0.00     0.031 C 
ATOM     69  C   UNL A   1      42.926  28.328  33.809  1.00  0.00     0.037 A 
BRANCH  56  70
ATOM     70  C   UNL A   1      39.291  32.727  36.142  1.00  0.00     0.064 A 
ATOM     71  C   UNL A   1      38.424  32.309  37.162  1.00  0.00     0.173 A 
ATOM     72  C   UNL A   1      39.896  33.985  36.264  1.00  0.00     0.173 A 
ATOM     73  F   UNL A   1      37.813  31.118  37.083  1.00  0.00    -0.203 F 
ATOM     74  C   UNL A   1      38.161  33.130  38.256  1.00  0.00     0.198 A 
ATOM     75  C   UNL A   1      39.647  34.794  37.369  1.00  0.00     0.198 A 
ATOM     76  F   UNL A   1      40.736  34.426  35.315  1.00  0.00    -0.203 F 
ATOM     77  F   UNL A   1      37.303  32.726  39.203  1.00  0.00    -0.200 F 
ATOM     78  C   UNL A   1      38.776  34.368  38.361  1.00  0.00     0.200 A 
ATOM     79  F   UNL A   1      40.248  35.988  37.474  1.00  0.00    -0.200 F 
ATOM     80  F   UNL A   1      38.527  35.153  39.418  1.00  0.00    -0.200 F 
ENDBRANCH  56  70
BRANCH  57  81
ATOM     81  C   UNL A   1      41.526  27.443  27.995  1.00  0.00     0.064 A 
ATOM     82  C   UNL A   1      40.997  26.170  27.745  1.00  0.00     0.173 A 
ATOM     83  C   UNL A   1      42.429  27.972  27.063  1.00  0.00     0.173 A 
ATOM     84  F   UNL A   1      40.145  25.616  28.620  1.00  0.00    -0.203 F 
ATOM     85  C   UNL A   1      41.374  25.443  26.618  1.00  0.00     0.198 A 
ATOM     86  C   UNL A   1      42.788  27.253  25.924  1.00  0.00     0.198 A 
ATOM     87  F   UNL A   1      42.958  29.189  27.255  1.00  0.00    -0.203 F 
ATOM     88  F   UNL A   1      40.887  24.209  26.425  1.00  0.00    -0.200 F 
ATOM     89  C   UNL A   1      42.267  25.986  25.707  1.00  0.00     0.200 A 
ATOM     90  F   UNL A   1      43.645  27.785  25.040  1.00  0.00    -0.200 F 
ATOM     91  F   UNL A   1      42.632  25.285  24.625  1.00  0.00    -0.200 F 
ENDBRANCH  57  81
BRANCH  69  92
ATOM     92  C   UNL A   1      44.019  27.560  34.487  1.00  0.00     0.064 A 
ATOM     93  C   UNL A   1      45.321  28.070  34.578  1.00  0.00     0.173 A 
ATOM     94  C   UNL A   1      43.750  26.320  35.083  1.00  0.00     0.173 A 
ATOM     95  F   UNL A   1      45.628  29.245  34.007  1.00  0.00    -0.203 F 
ATOM     96  C   UNL A   1      46.322  27.356  35.232  1.00  0.00     0.198 A 
ATOM     97  C   UNL A   1      44.747  25.619  35.753  1.00  0.00     0.198 A 
ATOM     98  F   UNL A   1      42.518  25.793  35.021  1.00  0.00    -0.203 F 
ATOM     99  F   UNL A   1      47.568  27.846  35.280  1.00  0.00    -0.200 F 
ATOM    100  C   UNL A   1      46.032  26.136  35.824  1.00  0.00     0.200 A 
ATOM    101  F   UNL A   1      44.466  24.442  36.329  1.00  0.00    -0.200 F 
ATOM    102  F   UNL A   1      46.997  25.452  36.456  1.00  0.00    -0.200 F 
ENDBRANCH  69  92
ENDBRANCH  43  44
ENDBRANCH  35  38
ENDBRANCH  33  34
ENDBRANCH  32  33
ENDBRANCH  31  32
ENDBRANCH   1  31
TORSDOF 15
ENDMDL
MODEL 3
REMARK VINA RESULT:     -13.0      3.620      8.500
REMARK SMILES Cc1nnc(/[NH+]=C2/S/C(=C/c3cccc(O[C@@H](C)C(=O)NCCCCNC(=O)c4ccc(-c5c6nc(c(-c7c(F)c(F)c(F)c(F)c7F)c7ccc([nH]7)c(-c7c(F)c(F)c(F)c(F)c7F)c7nc(c(-c8c(F)c(F)c(F)c(F)c8F)c8ccc5[nH]8)C=C7)C=C6)cc4)c3)C(=O)N2C)s1
REMARK SMILES IDX 22 1 21 2 19 3 20 4 17 6 18 7 16 8 15 9 11 10 12 11 92 12
REMARK SMILES IDX 13 13 14 14 10 15 6 16 7 17 8 19 95 20 9 21 93 22 96 23
REMARK SMILES IDX 94 24 5 25 1 26 2 27 3 28 97 29 4 30 23 31 24 32 25 33 26 34
REMARK SMILES IDX 27 35 28 37 29 38 30 39 91 40 31 41 90 42 32 43 33 44 34 45
REMARK SMILES IDX 84 46 35 47 89 48 83 49 85 50 36 51 88 52 82 53 81 54 37 56
REMARK SMILES IDX 69 57 49 58 68 59 50 60 53 61 67 62 86 63 51 64 52 65 66 67
REMARK SMILES IDX 87 68 54 69 38 70 39 71 47 72 40 73 41 74 45 75 48 76 42 77
REMARK SMILES IDX 43 78 46 79 44 80 70 81 71 82 79 83 72 84 73 85 77 86 80 87
REMARK SMILES IDX 74 88 75 89 78 90 76 91 55 92 56 93 64 94 57 95 58 96 62 97
REMARK SMILES IDX 65 98 59 99 60 100 63 101 61 102
REMARK H PARENT 21 5 6 18 26 36 85 55 53 66
REMARK Flexibility Score: inf
ROOT
ATOM      1  C   UNL A   1      35.959  20.326  25.368  1.00  0.00     0.116 C 
ENDROOT
BRANCH   1   2
ATOM      2  N   UNL A   1      35.530  19.208  24.558  1.00  0.00    -0.353 N 
ATOM      3  C   UNL A   1      34.383  18.477  24.554  1.00  0.00     0.260 C 
ATOM      4  O   UNL A   1      34.386  17.490  23.804  1.00  0.00    -0.271 OA
ATOM      5  H   UNL A   1      36.190  18.923  23.886  1.00  0.00     0.163 HD
BRANCH   3   6
ATOM      6  C   UNL A   1      33.097  18.843  25.348  1.00  0.00     0.258 C 
ATOM      7  C   UNL A   1      32.528  17.657  26.126  1.00  0.00     0.064 C 
BRANCH   6   8
ATOM      8  O   UNL A   1      32.180  19.802  24.832  1.00  0.00    -0.481 OA
BRANCH   8   9
ATOM      9  C   UNL A   1      32.499  21.042  24.383  1.00  0.00     0.121 A 
ATOM     10  C   UNL A   1      32.935  23.436  24.592  1.00  0.00    -0.021 A 
ATOM     11  C   UNL A   1      33.011  23.533  23.198  1.00  0.00     0.008 A 
ATOM     12  C   UNL A   1      32.733  22.167  25.164  1.00  0.00     0.054 A 
ATOM     13  C   UNL A   1      32.873  22.393  22.404  1.00  0.00     0.004 A 
ATOM     14  C   UNL A   1      32.607  21.157  22.997  1.00  0.00     0.046 A 
BRANCH  10  15
ATOM     15  C   UNL A   1      32.728  24.665  25.386  1.00  0.00     0.031 C 
ATOM     16  N   UNL A   1      30.996  29.142  24.419  1.00  0.00    -0.226 N 
ATOM     17  C   UNL A   1      30.897  27.886  24.694  1.00  0.00     0.271 C 
ATOM     18  H   UNL A   1      31.554  29.727  24.982  1.00  0.00     0.268 HD
ATOM     19  S   UNL A   1      32.027  27.217  25.871  1.00  0.00    -0.012 SA
ATOM     20  N   UNL A   1      30.079  26.879  24.244  1.00  0.00    -0.222 N 
ATOM     21  C   UNL A   1      31.788  25.614  25.261  1.00  0.00     0.100 C 
ATOM     22  C   UNL A   1      30.514  25.589  24.492  1.00  0.00     0.321 C 
ATOM     23  C   UNL A   1      28.779  27.049  23.624  1.00  0.00     0.252 C 
ATOM     24  O   UNL A   1      29.934  24.566  24.157  1.00  0.00    -0.250 OA
BRANCH  16  25
ATOM     25  C   UNL A   1      30.336  29.654  23.357  1.00  0.00     0.345 A 
ATOM     26  C   UNL A   1      27.887  31.821  21.309  1.00  0.00     0.083 C 
ATOM     27  C   UNL A   1      28.894  30.919  21.924  1.00  0.00     0.135 A 
ATOM     28  N   UNL A   1      29.651  30.080  21.251  1.00  0.00    -0.067 NA
ATOM     29  S   UNL A   1      29.164  30.898  23.617  1.00  0.00    -0.044 S 
ATOM     30  N   UNL A   1      30.512  29.386  22.076  1.00  0.00     0.023 NA
ENDBRANCH  16  25
ENDBRANCH  10  15
ENDBRANCH   8   9
ENDBRANCH   6   8
ENDBRANCH   3   6
ENDBRANCH   1   2
BRANCH   1  31
ATOM     31  C   UNL A   1      36.830  21.289  24.557  1.00  0.00     0.023 C 
BRANCH  31  32
ATOM     32  C   UNL A   1      36.439  22.763  24.682  1.00  0.00     0.023 C 
BRANCH  32  33
ATOM     33  C   UNL A   1      37.426  23.620  25.472  1.00  0.00     0.116 C 
BRANCH  33  34
ATOM     34  N   UNL A   1      38.700  22.965  25.736  1.00  0.00    -0.352 N 
ATOM     35  C   UNL A   1      39.757  23.410  26.499  1.00  0.00     0.251 C 
ATOM     36  H   UNL A   1      38.822  22.085  25.313  1.00  0.00     0.163 HD
ATOM     37  O   UNL A   1      40.776  22.732  26.598  1.00  0.00    -0.269 OA
BRANCH  35  38
ATOM     38  C   UNL A   1      39.696  24.756  27.114  1.00  0.00     0.039 A 
ATOM     39  C   UNL A   1      39.118  24.875  28.381  1.00  0.00     0.014 A 
ATOM     40  C   UNL A   1      40.297  25.861  26.508  1.00  0.00     0.014 A 
ATOM     41  C   UNL A   1      39.266  26.063  29.099  1.00  0.00     0.010 A 
ATOM     42  C   UNL A   1      40.503  27.021  27.250  1.00  0.00     0.010 A 
ATOM     43  C   UNL A   1      40.028  27.116  28.566  1.00  0.00    -0.014 A 
BRANCH  43  44
ATOM     44  C   UNL A   1      40.428  28.271  29.410  1.00  0.00     0.031 A 
ATOM     45  C   UNL A   1      41.755  28.293  30.107  1.00  0.00     0.074 A 
ATOM     46  C   UNL A   1      39.531  29.256  29.629  1.00  0.00     0.049 A 
ATOM     47  N   UNL A   1      42.231  29.181  30.943  1.00  0.00    -0.248 NA
ATOM     48  C   UNL A   1      42.653  27.156  29.859  1.00  0.00     0.031 C 
ATOM     49  C   UNL A   1      38.177  29.306  29.075  1.00  0.00     0.029 A 
ATOM     50  N   UNL A   1      39.618  30.394  30.392  1.00  0.00    -0.354 N 
ATOM     51  C   UNL A   1      43.469  28.698  31.342  1.00  0.00     0.074 A 
ATOM     52  C   UNL A   1      43.661  27.425  30.677  1.00  0.00     0.031 C 
ATOM     53  C   UNL A   1      37.565  30.424  29.500  1.00  0.00     0.029 A 
ATOM     54  C   UNL A   1      38.473  31.155  30.378  1.00  0.00     0.049 A 
ATOM     55  H   UNL A   1      40.422  30.642  30.901  1.00  0.00     0.167 HD
ATOM     56  C   UNL A   1      44.368  29.272  32.176  1.00  0.00     0.037 A 
ATOM     57  C   UNL A   1      38.186  32.312  31.004  1.00  0.00     0.037 A 
ATOM     58  C   UNL A   1      44.198  30.558  32.797  1.00  0.00     0.049 A 
ATOM     59  C   UNL A   1      39.230  32.956  31.871  1.00  0.00     0.074 A 
ATOM     60  C   UNL A   1      45.096  31.265  33.577  1.00  0.00     0.029 A 
ATOM     61  N   UNL A   1      43.051  31.332  32.705  1.00  0.00    -0.354 N 
ATOM     62  N   UNL A   1      40.436  32.533  32.162  1.00  0.00    -0.248 NA
ATOM     63  C   UNL A   1      38.877  34.241  32.491  1.00  0.00     0.031 C 
ATOM     64  C   UNL A   1      44.483  32.457  33.979  1.00  0.00     0.029 A 
ATOM     65  C   UNL A   1      43.214  32.504  33.426  1.00  0.00     0.049 A 
ATOM     66  H   UNL A   1      42.242  31.086  32.201  1.00  0.00     0.167 HD
ATOM     67  C   UNL A   1      40.994  33.509  32.975  1.00  0.00     0.074 A 
ATOM     68  C   UNL A   1      40.000  34.552  33.124  1.00  0.00     0.031 C 
ATOM     69  C   UNL A   1      42.221  33.537  33.548  1.00  0.00     0.037 A 
BRANCH  56  70
ATOM     70  C   UNL A   1      45.629  28.516  32.463  1.00  0.00     0.064 A 
ATOM     71  C   UNL A   1      46.776  28.681  31.673  1.00  0.00     0.173 A 
ATOM     72  C   UNL A   1      45.707  27.658  33.569  1.00  0.00     0.173 A 
ATOM     73  F   UNL A   1      46.745  29.482  30.598  1.00  0.00    -0.203 F 
ATOM     74  C   UNL A   1      47.952  27.997  31.970  1.00  0.00     0.198 A 
ATOM     75  C   UNL A   1      46.891  26.993  33.876  1.00  0.00     0.198 A 
ATOM     76  F   UNL A   1      44.637  27.471  34.357  1.00  0.00    -0.203 F 
ATOM     77  F   UNL A   1      49.027  28.144  31.183  1.00  0.00    -0.200 F 
ATOM     78  C   UNL A   1      48.011  27.160  33.074  1.00  0.00     0.200 A 
ATOM     79  F   UNL A   1      46.949  26.189  34.947  1.00  0.00    -0.200 F 
ATOM     80  F   UNL A   1      49.146  26.509  33.363  1.00  0.00    -0.200 F 
ENDBRANCH  56  70
BRANCH  57  81
ATOM     81  C   UNL A   1      36.862  32.954  30.810  1.00  0.00     0.064 A 
ATOM     82  C   UNL A   1      36.587  33.689  29.649  1.00  0.00     0.173 A 
ATOM     83  C   UNL A   1      35.856  32.861  31.780  1.00  0.00     0.173 A 
ATOM     84  F   UNL A   1      37.528  33.821  28.702  1.00  0.00    -0.203 F 
ATOM     85  C   UNL A   1      35.360  34.326  29.475  1.00  0.00     0.198 A 
ATOM     86  C   UNL A   1      34.621  33.480  31.596  1.00  0.00     0.198 A 
ATOM     87  F   UNL A   1      36.069  32.164  32.907  1.00  0.00    -0.203 F 
ATOM     88  F   UNL A   1      35.138  35.059  28.375  1.00  0.00    -0.200 F 
ATOM     89  C   UNL A   1      34.377  34.219  30.447  1.00  0.00     0.200 A 
ATOM     90  F   UNL A   1      33.669  33.366  32.533  1.00  0.00    -0.200 F 
ATOM     91  F   UNL A   1      33.199  34.834  30.281  1.00  0.00    -0.200 F 
ENDBRANCH  57  81
BRANCH  69  92
ATOM     92  C   UNL A   1      42.568  34.747  34.360  1.00  0.00     0.064 A 
ATOM     93  C   UNL A   1      43.055  35.914  33.757  1.00  0.00     0.173 A 
ATOM     94  C   UNL A   1      42.374  34.750  35.748  1.00  0.00     0.173 A 
ATOM     95  F   UNL A   1      43.273  35.950  32.434  1.00  0.00    -0.203 F 
ATOM     96  C   UNL A   1      43.352  37.040  34.520  1.00  0.00     0.198 A 
ATOM     97  C   UNL A   1      42.651  35.883  36.505  1.00  0.00     0.198 A 
ATOM     98  F   UNL A   1      41.908  33.655  36.368  1.00  0.00    -0.203 F 
ATOM     99  F   UNL A   1      43.848  38.136  33.930  1.00  0.00    -0.200 F 
ATOM    100  C   UNL A   1      43.143  37.025  35.891  1.00  0.00     0.200 A 
ATOM    101  F   UNL A   1      42.444  35.870  37.829  1.00  0.00    -0.200 F 
ATOM    102  F   UNL A   1      43.425  38.113  36.624  1.00  0.00    -0.200 F 
ENDBRANCH  69  92
ENDBRANCH  43  44
ENDBRANCH  35  38
ENDBRANCH  33  34
ENDBRANCH  32  33
ENDBRANCH  31  32
ENDBRANCH   1  31
TORSDOF 15
ENDMDL
