MODEL 1
REMARK VINA RESULT:     -13.3      0.000      0.000
REMARK SMILES O=C(NCCCCNC(=O)c1cccn(Cc2ccc3c(c2)OC(F)(F)O3)c1=O)c1ccc(-c2c3nc(c(-c4c(F)c(F)c(F)c(F)c4F)c4ccc([nH]4)c(-c4c(F)c(F)c(F)c(F)c4F)c4nc(c(-c5c(F)c(F)c(F)c(F)c5F)c5ccc2[nH]5)C=C4)C=C3)cc1
REMARK SMILES IDX 5 1 4 2 3 3 1 4 2 5 30 7 31 8 92 9 32 10 91 11 33 12 34 13
REMARK SMILES IDX 35 14 85 15 36 16 90 17 84 18 86 19 37 20 89 21 83 22 82 23
REMARK SMILES IDX 38 25 70 26 50 27 69 28 51 29 54 30 68 31 87 32 52 33 53 34
REMARK SMILES IDX 67 36 88 37 55 38 39 39 40 40 48 41 41 42 42 43 46 44 49 45
REMARK SMILES IDX 43 46 44 47 47 48 45 49 71 50 72 51 80 52 73 53 74 54 78 55
REMARK SMILES IDX 81 56 75 57 76 58 79 59 77 60 56 61 57 62 65 63 58 64 59 65
REMARK SMILES IDX 63 66 66 67 60 68 61 69 64 70 62 71 6 72 7 73 8 74 9 75
REMARK SMILES IDX 10 77 11 78 12 79 28 80 13 81 15 82 29 83 14 84 16 85 17 86
REMARK SMILES IDX 18 87 22 88 19 89 21 90 20 91 23 92 27 93 24 94 25 95 26 96
REMARK H PARENT 3 6 86 24 54 35 8 76
REMARK Flexibility Score: inf
ROOT
ATOM      1  C   UNL A   1      38.229  19.220  25.158  1.00  0.00     0.023 C 
ENDROOT
BRANCH   1   2
ATOM      2  C   UNL A   1      39.477  19.818  25.791  1.00  0.00     0.116 C 
BRANCH   2   3
ATOM      3  N   UNL A   1      40.571  18.867  25.904  1.00  0.00    -0.352 N 
ATOM      4  O   UNL A   1      42.709  18.169  26.034  1.00  0.00    -0.269 OA
ATOM      5  C   UNL A   1      41.914  19.096  26.096  1.00  0.00     0.251 C 
ATOM      6  H   UNL A   1      40.313  17.920  25.834  1.00  0.00     0.163 HD
BRANCH   5   7
ATOM      7  C   UNL A   1      42.402  20.472  26.348  1.00  0.00     0.039 A 
ATOM      8  C   UNL A   1      42.756  21.268  25.255  1.00  0.00     0.014 A 
ATOM      9  C   UNL A   1      42.523  20.973  27.646  1.00  0.00     0.014 A 
ATOM     10  C   UNL A   1      43.184  22.581  25.464  1.00  0.00     0.010 A 
ATOM     11  C   UNL A   1      42.859  22.309  27.847  1.00  0.00     0.010 A 
ATOM     12  C   UNL A   1      43.216  23.121  26.761  1.00  0.00    -0.014 A 
BRANCH  12  13
ATOM     13  C   UNL A   1      43.679  24.512  27.002  1.00  0.00     0.031 A 
ATOM     14  C   UNL A   1      42.720  25.532  27.556  1.00  0.00     0.074 A 
ATOM     15  C   UNL A   1      44.942  24.867  26.698  1.00  0.00     0.049 A 
ATOM     16  N   UNL A   1      42.914  26.804  27.800  1.00  0.00    -0.248 NA
ATOM     17  C   UNL A   1      41.352  25.071  27.851  1.00  0.00     0.031 C 
ATOM     18  C   UNL A   1      45.953  23.985  26.113  1.00  0.00     0.029 A 
ATOM     19  N   UNL A   1      45.595  26.067  26.845  1.00  0.00    -0.354 N 
ATOM     20  C   UNL A   1      41.696  27.290  28.256  1.00  0.00     0.074 A 
ATOM     21  C   UNL A   1      40.750  26.200  28.198  1.00  0.00     0.031 C 
ATOM     22  C   UNL A   1      47.108  24.660  25.990  1.00  0.00     0.029 A 
ATOM     23  C   UNL A   1      46.913  26.030  26.454  1.00  0.00     0.049 A 
ATOM     24  H   UNL A   1      45.160  26.878  27.195  1.00  0.00     0.167 HD
ATOM     25  C   UNL A   1      41.401  28.526  28.718  1.00  0.00     0.037 A 
ATOM     26  C   UNL A   1      47.857  26.992  26.478  1.00  0.00     0.037 A 
ATOM     27  C   UNL A   1      42.356  29.593  28.834  1.00  0.00     0.049 A 
ATOM     28  C   UNL A   1      47.504  28.357  27.008  1.00  0.00     0.074 A 
ATOM     29  C   UNL A   1      42.167  30.862  29.352  1.00  0.00     0.029 A 
ATOM     30  N   UNL A   1      43.682  29.510  28.440  1.00  0.00    -0.354 N 
ATOM     31  N   UNL A   1      46.364  28.785  27.491  1.00  0.00    -0.248 NA
ATOM     32  C   UNL A   1      48.569  29.372  26.999  1.00  0.00     0.031 C 
ATOM     33  C   UNL A   1      43.373  31.559  29.243  1.00  0.00     0.029 A 
ATOM     34  C   UNL A   1      44.321  30.711  28.693  1.00  0.00     0.049 A 
ATOM     35  H   UNL A   1      44.105  28.716  28.040  1.00  0.00     0.167 HD
ATOM     36  C   UNL A   1      46.579  30.103  27.867  1.00  0.00     0.074 A 
ATOM     37  C   UNL A   1      47.962  30.406  27.566  1.00  0.00     0.031 C 
ATOM     38  C   UNL A   1      45.705  30.984  28.411  1.00  0.00     0.037 A 
BRANCH  25  39
ATOM     39  C   UNL A   1      39.999  28.791  29.175  1.00  0.00     0.064 A 
ATOM     40  C   UNL A   1      39.017  29.252  28.285  1.00  0.00     0.173 A 
ATOM     41  C   UNL A   1      39.608  28.501  30.491  1.00  0.00     0.173 A 
ATOM     42  F   UNL A   1      39.344  29.554  27.019  1.00  0.00    -0.203 F 
ATOM     43  C   UNL A   1      37.700  29.425  28.698  1.00  0.00     0.198 A 
ATOM     44  C   UNL A   1      38.284  28.648  30.893  1.00  0.00     0.198 A 
ATOM     45  F   UNL A   1      40.507  28.050  31.379  1.00  0.00    -0.203 F 
ATOM     46  F   UNL A   1      36.786  29.893  27.837  1.00  0.00    -0.200 F 
ATOM     47  C   UNL A   1      37.332  29.112  29.997  1.00  0.00     0.200 A 
ATOM     48  F   UNL A   1      37.926  28.332  32.146  1.00  0.00    -0.200 F 
ATOM     49  F   UNL A   1      36.058  29.258  30.387  1.00  0.00    -0.200 F 
ENDBRANCH  25  39
BRANCH  26  50
ATOM     50  C   UNL A   1      49.240  26.684  26.031  1.00  0.00     0.064 A 
ATOM     51  C   UNL A   1      49.646  26.962  24.718  1.00  0.00     0.173 A 
ATOM     52  C   UNL A   1      50.184  26.116  26.899  1.00  0.00     0.173 A 
ATOM     53  F   UNL A   1      48.773  27.487  23.845  1.00  0.00    -0.203 F 
ATOM     54  C   UNL A   1      50.939  26.671  24.286  1.00  0.00     0.198 A 
ATOM     55  C   UNL A   1      51.484  25.849  26.473  1.00  0.00     0.198 A 
ATOM     56  F   UNL A   1      49.848  25.835  28.166  1.00  0.00    -0.203 F 
ATOM     57  F   UNL A   1      51.289  26.912  23.015  1.00  0.00    -0.200 F 
ATOM     58  C   UNL A   1      51.858  26.120  25.166  1.00  0.00     0.200 A 
ATOM     59  F   UNL A   1      52.374  25.328  27.329  1.00  0.00    -0.200 F 
ATOM     60  F   UNL A   1      53.103  25.846  24.751  1.00  0.00    -0.200 F 
ENDBRANCH  26  50
BRANCH  38  61
ATOM     61  C   UNL A   1      46.206  32.355  28.752  1.00  0.00     0.064 A 
ATOM     62  C   UNL A   1      46.120  33.408  27.833  1.00  0.00     0.173 A 
ATOM     63  C   UNL A   1      46.653  32.642  30.050  1.00  0.00     0.173 A 
ATOM     64  F   UNL A   1      45.706  33.177  26.578  1.00  0.00    -0.203 F 
ATOM     65  C   UNL A   1      46.460  34.706  28.203  1.00  0.00     0.198 A 
ATOM     66  C   UNL A   1      46.970  33.944  30.424  1.00  0.00     0.198 A 
ATOM     67  F   UNL A   1      46.741  31.666  30.967  1.00  0.00    -0.203 F 
ATOM     68  F   UNL A   1      46.380  35.699  27.307  1.00  0.00    -0.200 F 
ATOM     69  C   UNL A   1      46.872  34.975  29.501  1.00  0.00     0.200 A 
ATOM     70  F   UNL A   1      47.350  34.205  31.682  1.00  0.00    -0.200 F 
ATOM     71  F   UNL A   1      47.168  36.230  29.863  1.00  0.00    -0.200 F 
ENDBRANCH  38  61
ENDBRANCH  12  13
ENDBRANCH   5   7
ENDBRANCH   2   3
ENDBRANCH   1   2
BRANCH   1  72
ATOM     72  C   UNL A   1      37.067  20.191  24.974  1.00  0.00     0.023 C 
BRANCH  72  73
ATOM     73  C   UNL A   1      37.397  21.443  24.170  1.00  0.00     0.116 C 
BRANCH  73  74
ATOM     74  N   UNL A   1      37.408  22.644  24.990  1.00  0.00    -0.352 N 
ATOM     75  C   UNL A   1      36.391  23.529  25.214  1.00  0.00     0.256 C 
ATOM     76  H   UNL A   1      38.258  22.844  25.443  1.00  0.00     0.163 HD
ATOM     77  O   UNL A   1      36.592  24.539  25.886  1.00  0.00    -0.269 OA
BRANCH  75  78
ATOM     78  C   UNL A   1      35.093  23.287  24.554  1.00  0.00     0.105 A 
ATOM     79  C   UNL A   1      34.867  23.905  23.383  1.00  0.00     0.021 A 
ATOM     80  C   UNL A   1      34.082  22.342  25.107  1.00  0.00     0.263 A 
ATOM     81  C   UNL A   1      33.677  23.622  22.624  1.00  0.00     0.019 A 
ATOM     82  N   UNL A   1      32.982  22.076  24.285  1.00  0.00    -0.310 N 
ATOM     83  O   UNL A   1      34.254  21.808  26.202  1.00  0.00    -0.268 OA
ATOM     84  C   UNL A   1      32.795  22.723  23.074  1.00  0.00     0.089 A 
BRANCH  82  85
ATOM     85  C   UNL A   1      31.989  21.116  24.755  1.00  0.00     0.161 C 
BRANCH  85  86
ATOM     86  C   UNL A   1      32.401  19.692  24.461  1.00  0.00    -0.024 A 
ATOM     87  C   UNL A   1      32.422  19.214  23.130  1.00  0.00     0.010 A 
ATOM     88  C   UNL A   1      32.728  18.824  25.517  1.00  0.00     0.056 A 
ATOM     89  C   UNL A   1      32.775  17.892  22.849  1.00  0.00     0.051 A 
ATOM     90  C   UNL A   1      33.081  17.529  25.208  1.00  0.00     0.173 A 
ATOM     91  C   UNL A   1      33.105  17.077  23.909  1.00  0.00     0.172 A 
ATOM     92  O   UNL A   1      33.439  16.571  26.102  1.00  0.00    -0.395 OA
ATOM     93  O   UNL A   1      33.487  15.774  23.821  1.00  0.00    -0.395 OA
ATOM     94  C   UNL A   1      33.795  15.517  25.199  1.00  0.00     0.586 C 
ATOM     95  F   UNL A   1      35.131  15.299  25.303  1.00  0.00    -0.125 F 
ATOM     96  F   UNL A   1      33.163  14.381  25.581  1.00  0.00    -0.125 F 
ENDBRANCH  85  86
ENDBRANCH  82  85
ENDBRANCH  75  78
ENDBRANCH  73  74
ENDBRANCH  72  73
ENDBRANCH   1  72
TORSDOF 13
ENDMDL
MODEL 2
REMARK VINA RESULT:     -13.3      0.574      7.376
REMARK SMILES O=C(NCCCCNC(=O)c1cccn(Cc2ccc3c(c2)OC(F)(F)O3)c1=O)c1ccc(-c2c3nc(c(-c4c(F)c(F)c(F)c(F)c4F)c4ccc([nH]4)c(-c4c(F)c(F)c(F)c(F)c4F)c4nc(c(-c5c(F)c(F)c(F)c(F)c5F)c5ccc2[nH]5)C=C4)C=C3)cc1
REMARK SMILES IDX 5 1 4 2 3 3 1 4 2 5 30 7 31 8 92 9 32 10 91 11 33 12 34 13
REMARK SMILES IDX 35 14 85 15 36 16 90 17 84 18 86 19 37 20 89 21 83 22 82 23
REMARK SMILES IDX 38 25 70 26 50 27 69 28 51 29 54 30 68 31 87 32 52 33 53 34
REMARK SMILES IDX 67 36 88 37 55 38 39 39 40 40 48 41 41 42 42 43 46 44 49 45
REMARK SMILES IDX 43 46 44 47 47 48 45 49 71 50 72 51 80 52 73 53 74 54 78 55
REMARK SMILES IDX 81 56 75 57 76 58 79 59 77 60 56 61 57 62 65 63 58 64 59 65
REMARK SMILES IDX 63 66 66 67 60 68 61 69 64 70 62 71 6 72 7 73 8 74 9 75
REMARK SMILES IDX 10 77 11 78 12 79 28 80 13 81 15 82 29 83 14 84 16 85 17 86
REMARK SMILES IDX 18 87 22 88 19 89 21 90 20 91 23 92 27 93 24 94 25 95 26 96
REMARK H PARENT 3 6 86 24 54 35 8 76
REMARK Flexibility Score: inf
ROOT
ATOM      1  C   UNL A   1      38.279  19.255  25.075  1.00  0.00     0.023 C 
ENDROOT
BRANCH   1   2
ATOM      2  C   UNL A   1      39.417  19.781  25.939  1.00  0.00     0.116 C 
BRANCH   2   3
ATOM      3  N   UNL A   1      40.593  18.927  25.914  1.00  0.00    -0.352 N 
ATOM      4  O   UNL A   1      42.787  18.417  25.873  1.00  0.00    -0.269 OA
ATOM      5  C   UNL A   1      41.920  19.260  26.054  1.00  0.00     0.251 C 
ATOM      6  H   UNL A   1      40.414  17.969  25.777  1.00  0.00     0.163 HD
BRANCH   5   7
ATOM      7  C   UNL A   1      42.302  20.650  26.397  1.00  0.00     0.039 A 
ATOM      8  C   UNL A   1      42.468  21.574  25.362  1.00  0.00     0.014 A 
ATOM      9  C   UNL A   1      42.508  21.042  27.722  1.00  0.00     0.014 A 
ATOM     10  C   UNL A   1      42.792  22.900  25.660  1.00  0.00     0.010 A 
ATOM     11  C   UNL A   1      42.737  22.380  28.024  1.00  0.00     0.010 A 
ATOM     12  C   UNL A   1      42.906  23.320  26.997  1.00  0.00    -0.014 A 
BRANCH  12  13
ATOM     13  C   UNL A   1      43.261  24.723  27.332  1.00  0.00     0.031 A 
ATOM     14  C   UNL A   1      44.657  25.221  27.070  1.00  0.00     0.074 A 
ATOM     15  C   UNL A   1      42.347  25.538  27.893  1.00  0.00     0.049 A 
ATOM     16  N   UNL A   1      45.179  26.395  27.326  1.00  0.00    -0.248 NA
ATOM     17  C   UNL A   1      45.605  24.268  26.466  1.00  0.00     0.031 C 
ATOM     18  C   UNL A   1      40.975  25.162  28.239  1.00  0.00     0.029 A 
ATOM     19  N   UNL A   1      42.433  26.857  28.269  1.00  0.00    -0.354 N 
ATOM     20  C   UNL A   1      46.508  26.310  26.933  1.00  0.00     0.074 A 
ATOM     21  C   UNL A   1      46.736  24.957  26.479  1.00  0.00     0.031 C 
ATOM     22  C   UNL A   1      40.337  26.234  28.735  1.00  0.00     0.029 A 
ATOM     23  C   UNL A   1      41.260  27.364  28.776  1.00  0.00     0.049 A 
ATOM     24  H   UNL A   1      43.257  27.388  28.185  1.00  0.00     0.167 HD
ATOM     25  C   UNL A   1      47.446  27.284  26.914  1.00  0.00     0.037 A 
ATOM     26  C   UNL A   1      40.964  28.604  29.214  1.00  0.00     0.037 A 
ATOM     27  C   UNL A   1      47.204  28.644  27.308  1.00  0.00     0.049 A 
ATOM     28  C   UNL A   1      42.025  29.672  29.173  1.00  0.00     0.074 A 
ATOM     29  C   UNL A   1      48.074  29.719  27.263  1.00  0.00     0.029 A 
ATOM     30  N   UNL A   1      45.999  29.119  27.802  1.00  0.00    -0.354 N 
ATOM     31  N   UNL A   1      43.260  29.593  28.744  1.00  0.00    -0.248 NA
ATOM     32  C   UNL A   1      41.651  31.003  29.676  1.00  0.00     0.031 C 
ATOM     33  C   UNL A   1      47.406  30.840  27.761  1.00  0.00     0.029 A 
ATOM     34  C   UNL A   1      46.108  30.471  28.078  1.00  0.00     0.049 A 
ATOM     35  H   UNL A   1      45.190  28.576  27.937  1.00  0.00     0.167 HD
ATOM     36  C   UNL A   1      43.800  30.862  28.896  1.00  0.00     0.074 A 
ATOM     37  C   UNL A   1      42.757  31.699  29.450  1.00  0.00     0.031 C 
ATOM     38  C   UNL A   1      45.051  31.292  28.605  1.00  0.00     0.037 A 
BRANCH  25  39
ATOM     39  C   UNL A   1      48.816  26.933  26.417  1.00  0.00     0.064 A 
ATOM     40  C   UNL A   1      49.786  26.394  27.275  1.00  0.00     0.173 A 
ATOM     41  C   UNL A   1      49.136  27.056  25.057  1.00  0.00     0.173 A 
ATOM     42  F   UNL A   1      49.531  26.267  28.586  1.00  0.00    -0.203 F 
ATOM     43  C   UNL A   1      51.030  26.002  26.793  1.00  0.00     0.198 A 
ATOM     44  C   UNL A   1      50.372  26.636  24.573  1.00  0.00     0.198 A 
ATOM     45  F   UNL A   1      48.241  27.559  24.194  1.00  0.00    -0.203 F 
ATOM     46  F   UNL A   1      51.951  25.514  27.636  1.00  0.00    -0.200 F 
ATOM     47  C   UNL A   1      51.318  26.112  25.441  1.00  0.00     0.200 A 
ATOM     48  F   UNL A   1      50.644  26.731  23.264  1.00  0.00    -0.200 F 
ATOM     49  F   UNL A   1      52.509  25.712  24.974  1.00  0.00    -0.200 F 
ENDBRANCH  25  39
BRANCH  26  50
ATOM     50  C   UNL A   1      39.589  28.915  29.685  1.00  0.00     0.064 A 
ATOM     51  C   UNL A   1      39.219  28.681  31.017  1.00  0.00     0.173 A 
ATOM     52  C   UNL A   1      38.622  29.454  28.824  1.00  0.00     0.173 A 
ATOM     53  F   UNL A   1      40.102  28.148  31.873  1.00  0.00    -0.203 F 
ATOM     54  C   UNL A   1      37.930  28.963  31.466  1.00  0.00     0.198 A 
ATOM     55  C   UNL A   1      37.342  29.759  29.281  1.00  0.00     0.198 A 
ATOM     56  F   UNL A   1      38.927  29.700  27.542  1.00  0.00    -0.203 F 
ATOM     57  F   UNL A   1      37.591  28.695  32.735  1.00  0.00    -0.200 F 
ATOM     58  C   UNL A   1      36.994  29.507  30.600  1.00  0.00     0.200 A 
ATOM     59  F   UNL A   1      36.443  30.297  28.444  1.00  0.00    -0.200 F 
ATOM     60  F   UNL A   1      35.757  29.783  31.034  1.00  0.00    -0.200 F 
ENDBRANCH  26  50
BRANCH  38  61
ATOM     61  C   UNL A   1      45.373  32.736  28.844  1.00  0.00     0.064 A 
ATOM     62  C   UNL A   1      46.016  33.152  30.017  1.00  0.00     0.173 A 
ATOM     63  C   UNL A   1      45.154  33.686  27.835  1.00  0.00     0.173 A 
ATOM     64  F   UNL A   1      46.238  32.279  31.011  1.00  0.00    -0.203 F 
ATOM     65  C   UNL A   1      46.434  34.471  30.171  1.00  0.00     0.198 A 
ATOM     66  C   UNL A   1      45.594  34.998  27.983  1.00  0.00     0.198 A 
ATOM     67  F   UNL A   1      44.552  33.331  26.690  1.00  0.00    -0.203 F 
ATOM     68  F   UNL A   1      47.039  34.851  31.304  1.00  0.00    -0.200 F 
ATOM     69  C   UNL A   1      46.234  35.388  29.149  1.00  0.00     0.200 A 
ATOM     70  F   UNL A   1      45.416  35.879  26.989  1.00  0.00    -0.200 F 
ATOM     71  F   UNL A   1      46.665  36.649  29.288  1.00  0.00    -0.200 F 
ENDBRANCH  38  61
ENDBRANCH  12  13
ENDBRANCH   5   7
ENDBRANCH   2   3
ENDBRANCH   1   2
BRANCH   1  72
ATOM     72  C   UNL A   1      37.095  20.204  24.917  1.00  0.00     0.023 C 
BRANCH  72  73
ATOM     73  C   UNL A   1      37.399  21.490  24.157  1.00  0.00     0.116 C 
BRANCH  73  74
ATOM     74  N   UNL A   1      37.426  22.655  25.025  1.00  0.00    -0.352 N 
ATOM     75  C   UNL A   1      36.415  23.531  25.306  1.00  0.00     0.256 C 
ATOM     76  H   UNL A   1      38.285  22.838  25.470  1.00  0.00     0.163 HD
ATOM     77  O   UNL A   1      36.629  24.512  26.015  1.00  0.00    -0.269 OA
BRANCH  75  78
ATOM     78  C   UNL A   1      35.104  23.316  24.661  1.00  0.00     0.105 A 
ATOM     79  C   UNL A   1      34.860  23.976  23.516  1.00  0.00     0.021 A 
ATOM     80  C   UNL A   1      34.099  22.355  25.199  1.00  0.00     0.263 A 
ATOM     81  C   UNL A   1      33.655  23.722  22.770  1.00  0.00     0.019 A 
ATOM     82  N   UNL A   1      32.984  22.122  24.388  1.00  0.00    -0.310 N 
ATOM     83  O   UNL A   1      34.290  21.783  26.270  1.00  0.00    -0.268 OA
ATOM     84  C   UNL A   1      32.778  22.811  23.204  1.00  0.00     0.089 A 
BRANCH  82  85
ATOM     85  C   UNL A   1      31.996  21.149  24.841  1.00  0.00     0.161 C 
BRANCH  85  86
ATOM     86  C   UNL A   1      32.412  19.733  24.518  1.00  0.00    -0.024 A 
ATOM     87  C   UNL A   1      32.461  19.290  23.176  1.00  0.00     0.010 A 
ATOM     88  C   UNL A   1      32.716  18.836  25.557  1.00  0.00     0.056 A 
ATOM     89  C   UNL A   1      32.818  17.975  22.867  1.00  0.00     0.051 A 
ATOM     90  C   UNL A   1      33.074  17.549  25.221  1.00  0.00     0.173 A 
ATOM     91  C   UNL A   1      33.125  17.131  23.912  1.00  0.00     0.172 A 
ATOM     92  O   UNL A   1      33.412  16.567  26.097  1.00  0.00    -0.395 OA
ATOM     93  O   UNL A   1      33.507  15.831  23.797  1.00  0.00    -0.395 OA
ATOM     94  C   UNL A   1      33.786  15.537  25.173  1.00  0.00     0.586 C 
ATOM     95  F   UNL A   1      35.119  15.314  25.300  1.00  0.00    -0.125 F 
ATOM     96  F   UNL A   1      33.145  14.392  25.512  1.00  0.00    -0.125 F 
ENDBRANCH  85  86
ENDBRANCH  82  85
ENDBRANCH  75  78
ENDBRANCH  73  74
ENDBRANCH  72  73
ENDBRANCH   1  72
TORSDOF 13
ENDMDL
MODEL 3
REMARK VINA RESULT:     -13.3      0.973      7.120
REMARK SMILES O=C(NCCCCNC(=O)c1cccn(Cc2ccc3c(c2)OC(F)(F)O3)c1=O)c1ccc(-c2c3nc(c(-c4c(F)c(F)c(F)c(F)c4F)c4ccc([nH]4)c(-c4c(F)c(F)c(F)c(F)c4F)c4nc(c(-c5c(F)c(F)c(F)c(F)c5F)c5ccc2[nH]5)C=C4)C=C3)cc1
REMARK SMILES IDX 5 1 4 2 3 3 1 4 2 5 30 7 31 8 92 9 32 10 91 11 33 12 34 13
REMARK SMILES IDX 35 14 85 15 36 16 90 17 84 18 86 19 37 20 89 21 83 22 82 23
REMARK SMILES IDX 38 25 70 26 50 27 69 28 51 29 54 30 68 31 87 32 52 33 53 34
REMARK SMILES IDX 67 36 88 37 55 38 39 39 40 40 48 41 41 42 42 43 46 44 49 45
REMARK SMILES IDX 43 46 44 47 47 48 45 49 71 50 72 51 80 52 73 53 74 54 78 55
REMARK SMILES IDX 81 56 75 57 76 58 79 59 77 60 56 61 57 62 65 63 58 64 59 65
REMARK SMILES IDX 63 66 66 67 60 68 61 69 64 70 62 71 6 72 7 73 8 74 9 75
REMARK SMILES IDX 10 77 11 78 12 79 28 80 13 81 15 82 29 83 14 84 16 85 17 86
REMARK SMILES IDX 18 87 22 88 19 89 21 90 20 91 23 92 27 93 24 94 25 95 26 96
REMARK H PARENT 3 6 86 24 54 35 8 76
REMARK Flexibility Score: inf
ROOT
ATOM      1  C   UNL A   1      38.250  19.287  24.999  1.00  0.00     0.023 C 
ENDROOT
BRANCH   1   2
ATOM      2  C   UNL A   1      39.363  19.727  25.941  1.00  0.00     0.116 C 
BRANCH   2   3
ATOM      3  N   UNL A   1      40.537  18.873  25.874  1.00  0.00    -0.352 N 
ATOM      4  O   UNL A   1      42.730  18.361  25.813  1.00  0.00    -0.269 OA
ATOM      5  C   UNL A   1      41.865  19.195  26.037  1.00  0.00     0.251 C 
ATOM      6  H   UNL A   1      40.357  17.924  25.684  1.00  0.00     0.163 HD
BRANCH   5   7
ATOM      7  C   UNL A   1      42.248  20.563  26.456  1.00  0.00     0.039 A 
ATOM      8  C   UNL A   1      42.560  21.504  25.471  1.00  0.00     0.014 A 
ATOM      9  C   UNL A   1      42.313  20.918  27.806  1.00  0.00     0.014 A 
ATOM     10  C   UNL A   1      42.889  22.811  25.838  1.00  0.00     0.010 A 
ATOM     11  C   UNL A   1      42.548  22.242  28.166  1.00  0.00     0.010 A 
ATOM     12  C   UNL A   1      42.862  23.198  27.189  1.00  0.00    -0.014 A 
BRANCH  12  13
ATOM     13  C   UNL A   1      43.220  24.580  27.598  1.00  0.00     0.031 A 
ATOM     14  C   UNL A   1      44.667  24.994  27.638  1.00  0.00     0.074 A 
ATOM     15  C   UNL A   1      42.258  25.450  27.960  1.00  0.00     0.049 A 
ATOM     16  N   UNL A   1      45.191  26.137  28.003  1.00  0.00    -0.248 NA
ATOM     17  C   UNL A   1      45.663  23.983  27.241  1.00  0.00     0.031 C 
ATOM     18  C   UNL A   1      40.825  25.157  28.008  1.00  0.00     0.029 A 
ATOM     19  N   UNL A   1      42.340  26.765  28.351  1.00  0.00    -0.354 N 
ATOM     20  C   UNL A   1      46.566  25.973  27.897  1.00  0.00     0.074 A 
ATOM     21  C   UNL A   1      46.804  24.606  27.494  1.00  0.00     0.031 C 
ATOM     22  C   UNL A   1      40.160  26.268  28.364  1.00  0.00     0.029 A 
ATOM     23  C   UNL A   1      41.119  27.343  28.604  1.00  0.00     0.049 A 
ATOM     24  H   UNL A   1      43.193  27.247  28.444  1.00  0.00     0.167 HD
ATOM     25  C   UNL A   1      47.542  26.891  28.081  1.00  0.00     0.037 A 
ATOM     26  C   UNL A   1      40.810  28.601  28.976  1.00  0.00     0.037 A 
ATOM     27  C   UNL A   1      47.303  28.265  28.421  1.00  0.00     0.049 A 
ATOM     28  C   UNL A   1      41.916  29.606  29.164  1.00  0.00     0.074 A 
ATOM     29  C   UNL A   1      48.224  29.288  28.565  1.00  0.00     0.029 A 
ATOM     30  N   UNL A   1      46.051  28.813  28.654  1.00  0.00    -0.354 N 
ATOM     31  N   UNL A   1      43.207  29.452  29.002  1.00  0.00    -0.248 NA
ATOM     32  C   UNL A   1      41.523  30.960  29.584  1.00  0.00     0.031 C 
ATOM     33  C   UNL A   1      47.532  30.449  28.917  1.00  0.00     0.029 A 
ATOM     34  C   UNL A   1      46.178  30.158  28.954  1.00  0.00     0.049 A 
ATOM     35  H   UNL A   1      45.201  28.319  28.614  1.00  0.00     0.167 HD
ATOM     36  C   UNL A   1      43.776  30.688  29.271  1.00  0.00     0.074 A 
ATOM     37  C   UNL A   1      42.691  31.588  29.599  1.00  0.00     0.031 C 
ATOM     38  C   UNL A   1      45.083  31.043  29.251  1.00  0.00     0.037 A 
BRANCH  25  39
ATOM     39  C   UNL A   1      48.962  26.457  27.880  1.00  0.00     0.064 A 
ATOM     40  C   UNL A   1      49.524  26.374  26.597  1.00  0.00     0.173 A 
ATOM     41  C   UNL A   1      49.796  26.204  28.980  1.00  0.00     0.173 A 
ATOM     42  F   UNL A   1      48.765  26.596  25.514  1.00  0.00    -0.203 F 
ATOM     43  C   UNL A   1      50.864  26.043  26.422  1.00  0.00     0.198 A 
ATOM     44  C   UNL A   1      51.142  25.900  28.802  1.00  0.00     0.198 A 
ATOM     45  F   UNL A   1      49.309  26.277  30.228  1.00  0.00    -0.203 F 
ATOM     46  F   UNL A   1      51.371  25.943  25.186  1.00  0.00    -0.200 F 
ATOM     47  C   UNL A   1      51.674  25.817  27.524  1.00  0.00     0.200 A 
ATOM     48  F   UNL A   1      51.928  25.696  29.869  1.00  0.00    -0.200 F 
ATOM     49  F   UNL A   1      52.970  25.521  27.354  1.00  0.00    -0.200 F 
ENDBRANCH  25  39
BRANCH  26  50
ATOM     50  C   UNL A   1      39.388  28.995  29.149  1.00  0.00     0.064 A 
ATOM     51  C   UNL A   1      38.632  29.446  28.057  1.00  0.00     0.173 A 
ATOM     52  C   UNL A   1      38.752  28.924  30.397  1.00  0.00     0.173 A 
ATOM     53  F   UNL A   1      39.201  29.550  26.847  1.00  0.00    -0.203 F 
ATOM     54  C   UNL A   1      37.299  29.824  28.210  1.00  0.00     0.198 A 
ATOM     55  C   UNL A   1      37.412  29.278  30.544  1.00  0.00     0.198 A 
ATOM     56  F   UNL A   1      39.429  28.495  31.472  1.00  0.00    -0.203 F 
ATOM     57  F   UNL A   1      36.612  30.288  27.158  1.00  0.00    -0.200 F 
ATOM     58  C   UNL A   1      36.689  29.734  29.452  1.00  0.00     0.200 A 
ATOM     59  F   UNL A   1      36.821  29.178  31.743  1.00  0.00    -0.200 F 
ATOM     60  F   UNL A   1      35.405  30.092  29.597  1.00  0.00    -0.200 F 
ENDBRANCH  26  50
BRANCH  38  61
ATOM     61  C   UNL A   1      45.432  32.468  29.559  1.00  0.00     0.064 A 
ATOM     62  C   UNL A   1      45.424  33.450  28.561  1.00  0.00     0.173 A 
ATOM     63  C   UNL A   1      45.646  32.872  30.886  1.00  0.00     0.173 A 
ATOM     64  F   UNL A   1      45.231  33.107  27.279  1.00  0.00    -0.203 F 
ATOM     65  C   UNL A   1      45.614  34.792  28.880  1.00  0.00     0.198 A 
ATOM     66  C   UNL A   1      45.813  34.216  31.204  1.00  0.00     0.198 A 
ATOM     67  F   UNL A   1      45.652  31.967  31.876  1.00  0.00    -0.203 F 
ATOM     68  F   UNL A   1      45.612  35.715  27.910  1.00  0.00    -0.200 F 
ATOM     69  C   UNL A   1      45.796  35.174  30.202  1.00  0.00     0.200 A 
ATOM     70  F   UNL A   1      45.971  34.586  32.482  1.00  0.00    -0.200 F 
ATOM     71  F   UNL A   1      45.947  36.469  30.509  1.00  0.00    -0.200 F 
ENDBRANCH  38  61
ENDBRANCH  12  13
ENDBRANCH   5   7
ENDBRANCH   2   3
ENDBRANCH   1   2
BRANCH   1  72
ATOM     72  C   UNL A   1      37.088  20.266  24.869  1.00  0.00     0.023 C 
BRANCH  72  73
ATOM     73  C   UNL A   1      37.411  21.552  24.117  1.00  0.00     0.116 C 
BRANCH  73  74
ATOM     74  N   UNL A   1      37.405  22.720  24.982  1.00  0.00    -0.352 N 
ATOM     75  C   UNL A   1      36.369  23.569  25.256  1.00  0.00     0.256 C 
ATOM     76  H   UNL A   1      38.257  22.925  25.430  1.00  0.00     0.163 HD
ATOM     77  O   UNL A   1      36.554  24.557  25.964  1.00  0.00    -0.269 OA
BRANCH  75  78
ATOM     78  C   UNL A   1      35.068  23.319  24.607  1.00  0.00     0.105 A 
ATOM     79  C   UNL A   1      34.826  23.940  23.441  1.00  0.00     0.021 A 
ATOM     80  C   UNL A   1      34.069  22.362  25.165  1.00  0.00     0.263 A 
ATOM     81  C   UNL A   1      33.631  23.650  22.692  1.00  0.00     0.019 A 
ATOM     82  N   UNL A   1      32.965  22.090  24.351  1.00  0.00    -0.310 N 
ATOM     83  O   UNL A   1      34.257  21.824  26.255  1.00  0.00    -0.268 OA
ATOM     84  C   UNL A   1      32.761  22.741  23.145  1.00  0.00     0.089 A 
BRANCH  82  85
ATOM     85  C   UNL A   1      31.984  21.120  24.825  1.00  0.00     0.161 C 
BRANCH  85  86
ATOM     86  C   UNL A   1      32.400  19.701  24.510  1.00  0.00    -0.024 A 
ATOM     87  C   UNL A   1      32.420  19.242  23.172  1.00  0.00     0.010 A 
ATOM     88  C   UNL A   1      32.732  18.818  25.552  1.00  0.00     0.056 A 
ATOM     89  C   UNL A   1      32.777  17.926  22.871  1.00  0.00     0.051 A 
ATOM     90  C   UNL A   1      33.088  17.529  25.224  1.00  0.00     0.173 A 
ATOM     91  C   UNL A   1      33.111  17.096  23.919  1.00  0.00     0.172 A 
ATOM     92  O   UNL A   1      33.450  16.559  26.103  1.00  0.00    -0.395 OA
ATOM     93  O   UNL A   1      33.497  15.796  23.810  1.00  0.00    -0.395 OA
ATOM     94  C   UNL A   1      33.808  15.520  25.184  1.00  0.00     0.586 C 
ATOM     95  F   UNL A   1      35.145  15.304  25.283  1.00  0.00    -0.125 F 
ATOM     96  F   UNL A   1      33.180  14.377  25.551  1.00  0.00    -0.125 F 
ENDBRANCH  85  86
ENDBRANCH  82  85
ENDBRANCH  75  78
ENDBRANCH  73  74
ENDBRANCH  72  73
ENDBRANCH   1  72
TORSDOF 13
ENDMDL
