MODEL 1
REMARK VINA RESULT:     -11.7      0.000      0.000
REMARK SMILES CCc1ccc(C(=O)[C@@H](Br)CC(=O)NCCCCNC(=O)c2ccc(-c3c4nc(c(-c5c(F)c(F)c(F)c(F)c5F)c5ccc([nH]5)c(-c5c(F)c(F)c(F)c(F)c5F)c5nc(c(-c6c(F)c(F)c(F)c(F)c6F)c6ccc3[nH]6)C=C5)C=C4)cc2)cc1
REMARK SMILES IDX 15 1 14 2 12 3 13 4 11 6 9 7 10 8 7 9 8 10 6 11 3 12 4 13
REMARK SMILES IDX 86 14 5 15 85 16 2 17 1 18 16 19 17 20 18 21 19 22 20 23
REMARK SMILES IDX 21 25 22 26 23 27 84 28 24 29 83 30 25 31 26 32 27 33 77 34
REMARK SMILES IDX 28 35 82 36 76 37 78 38 29 39 81 40 75 41 74 42 30 44 62 45
REMARK SMILES IDX 42 46 61 47 43 48 46 49 60 50 79 51 44 52 45 53 59 55 80 56
REMARK SMILES IDX 47 57 31 58 32 59 40 60 33 61 34 62 38 63 41 64 35 65 36 66
REMARK SMILES IDX 39 67 37 68 63 69 64 70 72 71 65 72 66 73 70 74 73 75 67 76
REMARK SMILES IDX 68 77 71 78 69 79 48 80 49 81 57 82 50 83 51 84 55 85 58 86
REMARK SMILES IDX 52 87 53 88 56 89 54 90
REMARK H PARENT 14 5 19 24 78 43 46 54
REMARK Flexibility Score: inf
ROOT
ATOM      1  C   UNL A   1      32.875  29.168  27.246  1.00  0.00     0.116 C 
ENDROOT
BRANCH   1   2
ATOM      2  N   UNL A   1      31.905  28.092  27.300  1.00  0.00    -0.356 N 
ATOM      3  C   UNL A   1      31.932  26.873  26.694  1.00  0.00     0.221 C 
ATOM      4  O   UNL A   1      30.942  26.149  26.780  1.00  0.00    -0.275 OA
ATOM      5  H   UNL A   1      31.113  28.269  27.856  1.00  0.00     0.163 HD
BRANCH   3   6
ATOM      6  C   UNL A   1      33.166  26.424  25.943  1.00  0.00     0.123 C 
BRANCH   6   7
ATOM      7  C   UNL A   1      32.817  25.941  24.543  1.00  0.00     0.138 C 
ATOM      8  Br  UNL A   1      34.156  24.655  23.899  1.00  0.00    -0.080 Br
BRANCH   7   9
ATOM      9  C   UNL A   1      32.675  26.967  23.419  1.00  0.00     0.176 C 
ATOM     10  O   UNL A   1      33.630  27.192  22.670  1.00  0.00    -0.293 OA
BRANCH   9  11
ATOM     11  C   UNL A   1      31.393  27.689  23.135  1.00  0.00     0.019 A 
ATOM     12  C   UNL A   1      28.904  29.025  22.950  1.00  0.00    -0.048 A 
ATOM     13  C   UNL A   1      28.970  27.688  23.367  1.00  0.00     0.004 A 
ATOM     14  C   UNL A   1      30.095  29.663  22.582  1.00  0.00     0.004 A 
ATOM     15  C   UNL A   1      30.195  27.024  23.438  1.00  0.00     0.012 A 
ATOM     16  C   UNL A   1      31.326  28.998  22.656  1.00  0.00     0.012 A 
BRANCH  12  17
ATOM     17  C   UNL A   1      27.562  29.720  22.978  1.00  0.00     0.032 C 
ATOM     18  C   UNL A   1      27.549  31.143  23.521  1.00  0.00     0.009 C 
ENDBRANCH  12  17
ENDBRANCH   9  11
ENDBRANCH   7   9
ENDBRANCH   6   7
ENDBRANCH   3   6
ENDBRANCH   1   2
BRANCH   1  19
ATOM     19  C   UNL A   1      32.446  30.226  26.231  1.00  0.00     0.023 C 
BRANCH  19  20
ATOM     20  C   UNL A   1      31.901  31.509  26.850  1.00  0.00     0.023 C 
BRANCH  20  21
ATOM     21  C   UNL A   1      32.964  32.447  27.408  1.00  0.00     0.116 C 
BRANCH  21  22
ATOM     22  N   UNL A   1      32.508  33.820  27.610  1.00  0.00    -0.352 N 
ATOM     23  C   UNL A   1      33.019  34.771  28.461  1.00  0.00     0.251 C 
ATOM     24  H   UNL A   1      31.736  34.101  27.067  1.00  0.00     0.163 HD
ATOM     25  O   UNL A   1      32.501  35.865  28.570  1.00  0.00    -0.269 OA
BRANCH  23  26
ATOM     26  C   UNL A   1      34.196  34.413  29.287  1.00  0.00     0.039 A 
ATOM     27  C   UNL A   1      33.988  33.806  30.528  1.00  0.00     0.014 A 
ATOM     28  C   UNL A   1      35.488  34.594  28.789  1.00  0.00     0.014 A 
ATOM     29  C   UNL A   1      35.081  33.295  31.230  1.00  0.00     0.010 A 
ATOM     30  C   UNL A   1      36.563  34.017  29.452  1.00  0.00     0.010 A 
ATOM     31  C   UNL A   1      36.368  33.352  30.674  1.00  0.00    -0.014 A 
BRANCH  31  32
ATOM     32  C   UNL A   1      37.530  32.711  31.338  1.00  0.00     0.031 A 
ATOM     33  C   UNL A   1      38.246  31.575  30.665  1.00  0.00     0.074 A 
ATOM     34  C   UNL A   1      37.878  33.086  32.584  1.00  0.00     0.049 A 
ATOM     35  N   UNL A   1      39.203  30.810  31.125  1.00  0.00    -0.248 NA
ATOM     36  C   UNL A   1      37.799  31.229  29.306  1.00  0.00     0.031 C 
ATOM     37  C   UNL A   1      37.221  34.134  33.369  1.00  0.00     0.029 A 
ATOM     38  N   UNL A   1      38.864  32.618  33.417  1.00  0.00    -0.354 N 
ATOM     39  C   UNL A   1      39.452  29.879  30.126  1.00  0.00     0.074 A 
ATOM     40  C   UNL A   1      38.515  30.143  29.055  1.00  0.00     0.031 C 
ATOM     41  C   UNL A   1      37.834  34.241  34.559  1.00  0.00     0.029 A 
ATOM     42  C   UNL A   1      38.904  33.251  34.634  1.00  0.00     0.049 A 
ATOM     43  H   UNL A   1      39.482  31.894  33.165  1.00  0.00     0.167 HD
ATOM     44  C   UNL A   1      40.391  28.905  30.096  1.00  0.00     0.037 A 
ATOM     45  C   UNL A   1      39.713  33.053  35.693  1.00  0.00     0.037 A 
ATOM     46  C   UNL A   1      41.352  28.674  31.140  1.00  0.00     0.049 A 
ATOM     47  C   UNL A   1      40.775  31.991  35.617  1.00  0.00     0.074 A 
ATOM     48  C   UNL A   1      42.393  27.762  31.171  1.00  0.00     0.029 A 
ATOM     49  N   UNL A   1      41.395  29.372  32.338  1.00  0.00    -0.354 N 
ATOM     50  N   UNL A   1      41.043  31.158  34.642  1.00  0.00    -0.248 NA
ATOM     51  C   UNL A   1      41.652  31.846  36.788  1.00  0.00     0.031 C 
ATOM     52  C   UNL A   1      43.048  27.889  32.401  1.00  0.00     0.029 A 
ATOM     53  C   UNL A   1      42.437  28.902  33.121  1.00  0.00     0.049 A 
ATOM     54  H   UNL A   1      40.775  30.092  32.595  1.00  0.00     0.167 HD
ATOM     55  C   UNL A   1      42.129  30.408  35.068  1.00  0.00     0.074 A 
ATOM     56  C   UNL A   1      42.481  30.893  36.386  1.00  0.00     0.031 C 
ATOM     57  C   UNL A   1      42.778  29.407  34.425  1.00  0.00     0.037 A 
BRANCH  44  58
ATOM     58  C   UNL A   1      40.432  28.024  28.883  1.00  0.00     0.064 A 
ATOM     59  C   UNL A   1      39.723  26.814  28.832  1.00  0.00     0.173 A 
ATOM     60  C   UNL A   1      41.170  28.402  27.752  1.00  0.00     0.173 A 
ATOM     61  F   UNL A   1      39.015  26.402  29.894  1.00  0.00    -0.203 F 
ATOM     62  C   UNL A   1      39.775  26.001  27.703  1.00  0.00     0.198 A 
ATOM     63  C   UNL A   1      41.197  27.600  26.615  1.00  0.00     0.198 A 
ATOM     64  F   UNL A   1      41.863  29.550  27.748  1.00  0.00    -0.203 F 
ATOM     65  F   UNL A   1      39.131  24.826  27.696  1.00  0.00    -0.200 F 
ATOM     66  C   UNL A   1      40.507  26.397  26.594  1.00  0.00     0.200 A 
ATOM     67  F   UNL A   1      41.898  27.987  25.539  1.00  0.00    -0.200 F 
ATOM     68  F   UNL A   1      40.555  25.614  25.507  1.00  0.00    -0.200 F 
ENDBRANCH  44  58
BRANCH  45  69
ATOM     69  C   UNL A   1      39.574  33.904  36.901  1.00  0.00     0.064 A 
ATOM     70  C   UNL A   1      38.800  33.477  37.990  1.00  0.00     0.173 A 
ATOM     71  C   UNL A   1      40.205  35.152  36.996  1.00  0.00     0.173 A 
ATOM     72  F   UNL A   1      38.161  32.299  37.935  1.00  0.00    -0.203 F 
ATOM     73  C   UNL A   1      38.647  34.276  39.121  1.00  0.00     0.198 A 
ATOM     74  C   UNL A   1      40.070  35.939  38.137  1.00  0.00     0.198 A 
ATOM     75  F   UNL A   1      40.960  35.600  35.983  1.00  0.00    -0.203 F 
ATOM     76  F   UNL A   1      37.869  33.862  40.131  1.00  0.00    -0.200 F 
ATOM     77  C   UNL A   1      39.286  35.504  39.196  1.00  0.00     0.200 A 
ATOM     78  F   UNL A   1      40.697  37.121  38.211  1.00  0.00    -0.200 F 
ATOM     79  F   UNL A   1      39.140  36.272  40.284  1.00  0.00    -0.200 F 
ENDBRANCH  45  69
BRANCH  57  80
ATOM     80  C   UNL A   1      43.952  28.791  35.124  1.00  0.00     0.064 A 
ATOM     81  C   UNL A   1      45.248  29.307  34.973  1.00  0.00     0.173 A 
ATOM     82  C   UNL A   1      43.771  27.701  35.987  1.00  0.00     0.173 A 
ATOM     83  F   UNL A   1      45.471  30.338  34.145  1.00  0.00    -0.203 F 
ATOM     84  C   UNL A   1      46.324  28.741  35.649  1.00  0.00     0.198 A 
ATOM     85  C   UNL A   1      44.847  27.153  36.680  1.00  0.00     0.198 A 
ATOM     86  F   UNL A   1      42.550  27.177  36.167  1.00  0.00    -0.203 F 
ATOM     87  F   UNL A   1      47.560  29.224  35.463  1.00  0.00    -0.200 F 
ATOM     88  C   UNL A   1      46.122  27.669  36.507  1.00  0.00     0.200 A 
ATOM     89  F   UNL A   1      44.648  26.124  37.516  1.00  0.00    -0.200 F 
ATOM     90  F   UNL A   1      47.158  27.129  37.163  1.00  0.00    -0.200 F 
ENDBRANCH  57  80
ENDBRANCH  31  32
ENDBRANCH  23  26
ENDBRANCH  21  22
ENDBRANCH  20  21
ENDBRANCH  19  20
ENDBRANCH   1  19
TORSDOF 15
ENDMDL
MODEL 2
REMARK VINA RESULT:     -11.6      1.565      3.174
REMARK SMILES CCc1ccc(C(=O)[C@@H](Br)CC(=O)NCCCCNC(=O)c2ccc(-c3c4nc(c(-c5c(F)c(F)c(F)c(F)c5F)c5ccc([nH]5)c(-c5c(F)c(F)c(F)c(F)c5F)c5nc(c(-c6c(F)c(F)c(F)c(F)c6F)c6ccc3[nH]6)C=C5)C=C4)cc2)cc1
REMARK SMILES IDX 15 1 14 2 12 3 13 4 11 6 9 7 10 8 7 9 8 10 6 11 3 12 4 13
REMARK SMILES IDX 86 14 5 15 85 16 2 17 1 18 16 19 17 20 18 21 19 22 20 23
REMARK SMILES IDX 21 25 22 26 23 27 84 28 24 29 83 30 25 31 26 32 27 33 77 34
REMARK SMILES IDX 28 35 82 36 76 37 78 38 29 39 81 40 75 41 74 42 30 44 62 45
REMARK SMILES IDX 42 46 61 47 43 48 46 49 60 50 79 51 44 52 45 53 59 55 80 56
REMARK SMILES IDX 47 57 31 58 32 59 40 60 33 61 34 62 38 63 41 64 35 65 36 66
REMARK SMILES IDX 39 67 37 68 63 69 64 70 72 71 65 72 66 73 70 74 73 75 67 76
REMARK SMILES IDX 68 77 71 78 69 79 48 80 49 81 57 82 50 83 51 84 55 85 58 86
REMARK SMILES IDX 52 87 53 88 56 89 54 90
REMARK H PARENT 14 5 19 24 78 43 46 54
REMARK Flexibility Score: inf
ROOT
ATOM      1  C   UNL A   1      31.928  29.762  25.274  1.00  0.00     0.116 C 
ENDROOT
BRANCH   1   2
ATOM      2  N   UNL A   1      33.089  29.621  24.418  1.00  0.00    -0.356 N 
ATOM      3  C   UNL A   1      33.324  28.722  23.422  1.00  0.00     0.221 C 
ATOM      4  O   UNL A   1      34.435  28.704  22.895  1.00  0.00    -0.275 OA
ATOM      5  H   UNL A   1      33.812  30.269  24.581  1.00  0.00     0.163 HD
BRANCH   3   6
ATOM      6  C   UNL A   1      32.229  27.780  22.974  1.00  0.00     0.123 C 
BRANCH   6   7
ATOM      7  C   UNL A   1      32.457  26.373  23.507  1.00  0.00     0.138 C 
ATOM      8  Br  UNL A   1      33.318  26.431  25.272  1.00  0.00    -0.080 Br
BRANCH   7   9
ATOM      9  C   UNL A   1      33.297  25.397  22.684  1.00  0.00     0.176 C 
ATOM     10  O   UNL A   1      33.795  25.766  21.617  1.00  0.00    -0.293 OA
BRANCH   9  11
ATOM     11  C   UNL A   1      33.603  24.003  23.141  1.00  0.00     0.019 A 
ATOM     12  C   UNL A   1      34.333  21.521  24.291  1.00  0.00    -0.048 A 
ATOM     13  C   UNL A   1      35.312  22.449  23.909  1.00  0.00     0.004 A 
ATOM     14  C   UNL A   1      32.991  21.835  24.042  1.00  0.00     0.004 A 
ATOM     15  C   UNL A   1      34.952  23.664  23.323  1.00  0.00     0.012 A 
ATOM     16  C   UNL A   1      32.628  23.056  23.457  1.00  0.00     0.012 A 
BRANCH  12  17
ATOM     17  C   UNL A   1      34.775  20.263  25.002  1.00  0.00     0.032 C 
ATOM     18  C   UNL A   1      34.140  18.961  24.529  1.00  0.00     0.009 C 
ENDBRANCH  12  17
ENDBRANCH   9  11
ENDBRANCH   7   9
ENDBRANCH   6   7
ENDBRANCH   3   6
ENDBRANCH   1   2
BRANCH   1  19
ATOM     19  C   UNL A   1      32.325  30.352  26.625  1.00  0.00     0.023 C 
BRANCH  19  20
ATOM     20  C   UNL A   1      31.883  31.797  26.837  1.00  0.00     0.023 C 
BRANCH  20  21
ATOM     21  C   UNL A   1      32.921  32.688  27.507  1.00  0.00     0.116 C 
BRANCH  21  22
ATOM     22  N   UNL A   1      32.481  34.065  27.724  1.00  0.00    -0.352 N 
ATOM     23  C   UNL A   1      33.012  35.003  28.577  1.00  0.00     0.251 C 
ATOM     24  H   UNL A   1      31.706  34.357  27.192  1.00  0.00     0.163 HD
ATOM     25  O   UNL A   1      32.506  36.102  28.699  1.00  0.00    -0.269 OA
BRANCH  23  26
ATOM     26  C   UNL A   1      34.193  34.627  29.387  1.00  0.00     0.039 A 
ATOM     27  C   UNL A   1      33.995  34.166  30.692  1.00  0.00     0.014 A 
ATOM     28  C   UNL A   1      35.470  34.643  28.822  1.00  0.00     0.014 A 
ATOM     29  C   UNL A   1      35.075  33.634  31.398  1.00  0.00     0.010 A 
ATOM     30  C   UNL A   1      36.524  34.042  29.498  1.00  0.00     0.010 A 
ATOM     31  C   UNL A   1      36.334  33.522  30.788  1.00  0.00    -0.014 A 
BRANCH  31  32
ATOM     32  C   UNL A   1      37.470  32.850  31.468  1.00  0.00     0.031 A 
ATOM     33  C   UNL A   1      38.155  31.687  30.811  1.00  0.00     0.074 A 
ATOM     34  C   UNL A   1      37.818  33.225  32.714  1.00  0.00     0.049 A 
ATOM     35  N   UNL A   1      39.083  30.896  31.285  1.00  0.00    -0.248 NA
ATOM     36  C   UNL A   1      37.708  31.343  29.451  1.00  0.00     0.031 C 
ATOM     37  C   UNL A   1      37.188  34.299  33.484  1.00  0.00     0.029 A 
ATOM     38  N   UNL A   1      38.781  32.733  33.559  1.00  0.00    -0.354 N 
ATOM     39  C   UNL A   1      39.310  29.948  30.297  1.00  0.00     0.074 A 
ATOM     40  C   UNL A   1      38.392  30.233  29.216  1.00  0.00     0.031 C 
ATOM     41  C   UNL A   1      37.794  34.398  34.679  1.00  0.00     0.029 A 
ATOM     42  C   UNL A   1      38.832  33.375  34.771  1.00  0.00     0.049 A 
ATOM     43  H   UNL A   1      39.378  31.988  33.319  1.00  0.00     0.167 HD
ATOM     44  C   UNL A   1      40.219  28.945  30.283  1.00  0.00     0.037 A 
ATOM     45  C   UNL A   1      39.624  33.161  35.839  1.00  0.00     0.037 A 
ATOM     46  C   UNL A   1      41.163  28.693  31.337  1.00  0.00     0.049 A 
ATOM     47  C   UNL A   1      40.653  32.065  35.781  1.00  0.00     0.074 A 
ATOM     48  C   UNL A   1      42.173  27.748  31.385  1.00  0.00     0.029 A 
ATOM     49  N   UNL A   1      41.217  29.398  32.530  1.00  0.00    -0.354 N 
ATOM     50  N   UNL A   1      40.902  31.215  34.815  1.00  0.00    -0.248 NA
ATOM     51  C   UNL A   1      41.515  31.902  36.961  1.00  0.00     0.031 C 
ATOM     52  C   UNL A   1      42.822  27.864  32.620  1.00  0.00     0.029 A 
ATOM     53  C   UNL A   1      42.237  28.903  33.326  1.00  0.00     0.049 A 
ATOM     54  H   UNL A   1      40.619  30.141  32.776  1.00  0.00     0.167 HD
ATOM     55  C   UNL A   1      41.961  30.435  35.257  1.00  0.00     0.074 A 
ATOM     56  C   UNL A   1      42.317  30.920  36.575  1.00  0.00     0.031 C 
ATOM     57  C   UNL A   1      42.583  29.408  34.629  1.00  0.00     0.037 A 
BRANCH  44  58
ATOM     58  C   UNL A   1      40.242  28.052  29.078  1.00  0.00     0.064 A 
ATOM     59  C   UNL A   1      40.990  28.379  27.938  1.00  0.00     0.173 A 
ATOM     60  C   UNL A   1      39.524  26.847  29.070  1.00  0.00     0.173 A 
ATOM     61  F   UNL A   1      41.681  29.528  27.890  1.00  0.00    -0.203 F 
ATOM     62  C   UNL A   1      40.997  27.546  26.822  1.00  0.00     0.198 A 
ATOM     63  C   UNL A   1      39.556  26.003  27.964  1.00  0.00     0.198 A 
ATOM     64  F   UNL A   1      38.795  26.487  30.137  1.00  0.00    -0.203 F 
ATOM     65  F   UNL A   1      41.680  27.904  25.726  1.00  0.00    -0.200 F 
ATOM     66  C   UNL A   1      40.285  26.356  26.839  1.00  0.00     0.200 A 
ATOM     67  F   UNL A   1      38.874  24.848  27.983  1.00  0.00    -0.200 F 
ATOM     68  F   UNL A   1      40.294  25.554  25.765  1.00  0.00    -0.200 F 
ENDBRANCH  44  58
BRANCH  45  69
ATOM     69  C   UNL A   1      39.502  34.025  37.039  1.00  0.00     0.064 A 
ATOM     70  C   UNL A   1      38.735  33.617  38.139  1.00  0.00     0.173 A 
ATOM     71  C   UNL A   1      40.143  35.270  37.114  1.00  0.00     0.173 A 
ATOM     72  F   UNL A   1      38.087  32.442  38.103  1.00  0.00    -0.203 F 
ATOM     73  C   UNL A   1      38.598  34.429  39.262  1.00  0.00     0.198 A 
ATOM     74  C   UNL A   1      40.024  36.071  38.247  1.00  0.00     0.198 A 
ATOM     75  F   UNL A   1      40.892  35.702  36.090  1.00  0.00    -0.203 F 
ATOM     76  F   UNL A   1      37.826  34.032  40.283  1.00  0.00    -0.200 F 
ATOM     77  C   UNL A   1      39.246  35.653  39.318  1.00  0.00     0.200 A 
ATOM     78  F   UNL A   1      40.659  37.249  38.302  1.00  0.00    -0.200 F 
ATOM     79  F   UNL A   1      39.115  36.434  40.399  1.00  0.00    -0.200 F 
ENDBRANCH  45  69
BRANCH  57  80
ATOM     80  C   UNL A   1      43.731  28.762  35.343  1.00  0.00     0.064 A 
ATOM     81  C   UNL A   1      45.052  29.188  35.144  1.00  0.00     0.173 A 
ATOM     82  C   UNL A   1      43.501  27.734  36.269  1.00  0.00     0.173 A 
ATOM     83  F   UNL A   1      45.321  30.156  34.255  1.00  0.00    -0.203 F 
ATOM     84  C   UNL A   1      46.105  28.596  35.834  1.00  0.00     0.198 A 
ATOM     85  C   UNL A   1      44.554  27.160  36.975  1.00  0.00     0.198 A 
ATOM     86  F   UNL A   1      42.254  27.296  36.497  1.00  0.00    -0.203 F 
ATOM     87  F   UNL A   1      47.364  28.992  35.602  1.00  0.00    -0.200 F 
ATOM     88  C   UNL A   1      45.855  27.587  36.754  1.00  0.00     0.200 A 
ATOM     89  F   UNL A   1      44.310  26.193  37.871  1.00  0.00    -0.200 F 
ATOM     90  F   UNL A   1      46.869  27.022  37.423  1.00  0.00    -0.200 F 
ENDBRANCH  57  80
ENDBRANCH  31  32
ENDBRANCH  23  26
ENDBRANCH  21  22
ENDBRANCH  20  21
ENDBRANCH  19  20
ENDBRANCH   1  19
TORSDOF 15
ENDMDL
MODEL 3
REMARK VINA RESULT:     -11.5      3.726      9.165
REMARK SMILES CCc1ccc(C(=O)[C@@H](Br)CC(=O)NCCCCNC(=O)c2ccc(-c3c4nc(c(-c5c(F)c(F)c(F)c(F)c5F)c5ccc([nH]5)c(-c5c(F)c(F)c(F)c(F)c5F)c5nc(c(-c6c(F)c(F)c(F)c(F)c6F)c6ccc3[nH]6)C=C5)C=C4)cc2)cc1
REMARK SMILES IDX 15 1 14 2 12 3 13 4 11 6 9 7 10 8 7 9 8 10 6 11 3 12 4 13
REMARK SMILES IDX 86 14 5 15 85 16 2 17 1 18 16 19 17 20 18 21 19 22 20 23
REMARK SMILES IDX 21 25 22 26 23 27 84 28 24 29 83 30 25 31 26 32 27 33 77 34
REMARK SMILES IDX 28 35 82 36 76 37 78 38 29 39 81 40 75 41 74 42 30 44 62 45
REMARK SMILES IDX 42 46 61 47 43 48 46 49 60 50 79 51 44 52 45 53 59 55 80 56
REMARK SMILES IDX 47 57 31 58 32 59 40 60 33 61 34 62 38 63 41 64 35 65 36 66
REMARK SMILES IDX 39 67 37 68 63 69 64 70 72 71 65 72 66 73 70 74 73 75 67 76
REMARK SMILES IDX 68 77 71 78 69 79 48 80 49 81 57 82 50 83 51 84 55 85 58 86
REMARK SMILES IDX 52 87 53 88 56 89 54 90
REMARK H PARENT 14 5 19 24 78 43 46 54
REMARK Flexibility Score: inf
ROOT
ATOM      1  C   UNL A   1      33.459  28.885  23.264  1.00  0.00     0.116 C 
ENDROOT
BRANCH   1   2
ATOM      2  N   UNL A   1      32.294  29.231  22.475  1.00  0.00    -0.356 N 
ATOM      3  C   UNL A   1      30.976  29.016  22.741  1.00  0.00     0.221 C 
ATOM      4  O   UNL A   1      30.147  29.287  21.874  1.00  0.00    -0.275 OA
ATOM      5  H   UNL A   1      32.483  29.687  21.624  1.00  0.00     0.163 HD
BRANCH   3   6
ATOM      6  C   UNL A   1      30.550  28.467  24.085  1.00  0.00     0.123 C 
BRANCH   6   7
ATOM      7  C   UNL A   1      30.406  26.953  24.044  1.00  0.00     0.138 C 
ATOM      8  Br  UNL A   1      28.512  26.439  23.944  1.00  0.00    -0.080 Br
BRANCH   7   9
ATOM      9  C   UNL A   1      30.986  26.122  25.188  1.00  0.00     0.176 C 
ATOM     10  O   UNL A   1      30.364  26.023  26.249  1.00  0.00    -0.293 OA
BRANCH   9  11
ATOM     11  C   UNL A   1      32.269  25.358  25.068  1.00  0.00     0.019 A 
ATOM     12  C   UNL A   1      34.844  24.226  24.746  1.00  0.00    -0.048 A 
ATOM     13  C   UNL A   1      34.168  24.791  23.656  1.00  0.00     0.004 A 
ATOM     14  C   UNL A   1      34.190  24.194  25.985  1.00  0.00     0.004 A 
ATOM     15  C   UNL A   1      32.890  25.330  23.811  1.00  0.00     0.012 A 
ATOM     16  C   UNL A   1      32.909  24.738  26.143  1.00  0.00     0.012 A 
BRANCH  12  17
ATOM     17  C   UNL A   1      36.260  23.739  24.540  1.00  0.00     0.032 C 
ATOM     18  C   UNL A   1      36.497  22.845  23.329  1.00  0.00     0.009 C 
ENDBRANCH  12  17
ENDBRANCH   9  11
ENDBRANCH   7   9
ENDBRANCH   6   7
ENDBRANCH   3   6
ENDBRANCH   1   2
BRANCH   1  19
ATOM     19  C   UNL A   1      33.277  29.329  24.714  1.00  0.00     0.023 C 
BRANCH  19  20
ATOM     20  C   UNL A   1      33.920  28.403  25.742  1.00  0.00     0.023 C 
BRANCH  20  21
ATOM     21  C   UNL A   1      33.508  28.670  27.184  1.00  0.00     0.116 C 
BRANCH  21  22
ATOM     22  N   UNL A   1      33.500  30.084  27.556  1.00  0.00    -0.352 N 
ATOM     23  C   UNL A   1      34.521  30.826  28.099  1.00  0.00     0.251 C 
ATOM     24  H   UNL A   1      32.656  30.566  27.397  1.00  0.00     0.163 HD
ATOM     25  O   UNL A   1      34.357  31.989  28.414  1.00  0.00    -0.269 OA
BRANCH  23  26
ATOM     26  C   UNL A   1      35.823  30.160  28.340  1.00  0.00     0.039 A 
ATOM     27  C   UNL A   1      36.806  30.228  27.349  1.00  0.00     0.014 A 
ATOM     28  C   UNL A   1      36.091  29.562  29.572  1.00  0.00     0.014 A 
ATOM     29  C   UNL A   1      38.094  29.771  27.634  1.00  0.00     0.010 A 
ATOM     30  C   UNL A   1      37.390  29.180  29.877  1.00  0.00     0.010 A 
ATOM     31  C   UNL A   1      38.407  29.291  28.915  1.00  0.00    -0.014 A 
BRANCH  31  32
ATOM     32  C   UNL A   1      39.794  28.913  29.286  1.00  0.00     0.031 A 
ATOM     33  C   UNL A   1      40.639  29.856  30.091  1.00  0.00     0.074 A 
ATOM     34  C   UNL A   1      40.321  27.766  28.815  1.00  0.00     0.049 A 
ATOM     35  N   UNL A   1      41.903  29.765  30.417  1.00  0.00    -0.248 NA
ATOM     36  C   UNL A   1      39.984  31.088  30.562  1.00  0.00     0.031 C 
ATOM     37  C   UNL A   1      39.623  26.795  27.970  1.00  0.00     0.029 A 
ATOM     38  N   UNL A   1      41.575  27.229  28.969  1.00  0.00    -0.354 N 
ATOM     39  C   UNL A   1      42.199  30.934  31.104  1.00  0.00     0.074 A 
ATOM     40  C   UNL A   1      40.998  31.741  31.108  1.00  0.00     0.031 C 
ATOM     41  C   UNL A   1      40.450  25.773  27.698  1.00  0.00     0.029 A 
ATOM     42  C   UNL A   1      41.745  26.031  28.322  1.00  0.00     0.049 A 
ATOM     43  H   UNL A   1      42.286  27.663  29.494  1.00  0.00     0.167 HD
ATOM     44  C   UNL A   1      43.362  31.293  31.697  1.00  0.00     0.037 A 
ATOM     45  C   UNL A   1      42.826  25.232  28.237  1.00  0.00     0.037 A 
ATOM     46  C   UNL A   1      44.540  30.469  31.733  1.00  0.00     0.049 A 
ATOM     47  C   UNL A   1      44.094  25.634  28.939  1.00  0.00     0.074 A 
ATOM     48  C   UNL A   1      45.744  30.710  32.372  1.00  0.00     0.029 A 
ATOM     49  N   UNL A   1      44.658  29.237  31.107  1.00  0.00    -0.354 N 
ATOM     50  N   UNL A   1      44.344  26.713  29.640  1.00  0.00    -0.248 NA
ATOM     51  C   UNL A   1      45.228  24.705  28.843  1.00  0.00     0.031 C 
ATOM     52  C   UNL A   1      46.600  29.635  32.110  1.00  0.00     0.029 A 
ATOM     53  C   UNL A   1      45.919  28.710  31.336  1.00  0.00     0.049 A 
ATOM     54  H   UNL A   1      43.951  28.801  30.578  1.00  0.00     0.167 HD
ATOM     55  C   UNL A   1      45.650  26.584  30.087  1.00  0.00     0.074 A 
ATOM     56  C   UNL A   1      46.139  25.314  29.590  1.00  0.00     0.031 C 
ATOM     57  C   UNL A   1      46.381  27.439  30.843  1.00  0.00     0.037 A 
BRANCH  44  58
ATOM     58  C   UNL A   1      43.409  32.633  32.368  1.00  0.00     0.064 A 
ATOM     59  C   UNL A   1      43.804  33.787  31.674  1.00  0.00     0.173 A 
ATOM     60  C   UNL A   1      43.037  32.770  33.713  1.00  0.00     0.173 A 
ATOM     61  F   UNL A   1      44.184  33.705  30.390  1.00  0.00    -0.203 F 
ATOM     62  C   UNL A   1      43.851  35.024  32.311  1.00  0.00     0.198 A 
ATOM     63  C   UNL A   1      43.059  34.013  34.338  1.00  0.00     0.198 A 
ATOM     64  F   UNL A   1      42.649  31.698  34.421  1.00  0.00    -0.203 F 
ATOM     65  F   UNL A   1      44.279  36.104  31.641  1.00  0.00    -0.200 F 
ATOM     66  C   UNL A   1      43.473  35.137  33.640  1.00  0.00     0.200 A 
ATOM     67  F   UNL A   1      42.685  34.124  35.622  1.00  0.00    -0.200 F 
ATOM     68  F   UNL A   1      43.517  36.329  34.251  1.00  0.00    -0.200 F 
ENDBRANCH  44  58
BRANCH  45  69
ATOM     69  C   UNL A   1      42.746  23.952  27.489  1.00  0.00     0.064 A 
ATOM     70  C   UNL A   1      43.067  23.900  26.126  1.00  0.00     0.173 A 
ATOM     71  C   UNL A   1      42.349  22.762  28.114  1.00  0.00     0.173 A 
ATOM     72  F   UNL A   1      43.432  25.019  25.481  1.00  0.00    -0.203 F 
ATOM     73  C   UNL A   1      42.976  22.708  25.410  1.00  0.00     0.198 A 
ATOM     74  C   UNL A   1      42.281  21.566  27.403  1.00  0.00     0.198 A 
ATOM     75  F   UNL A   1      42.037  22.759  29.418  1.00  0.00    -0.203 F 
ATOM     76  F   UNL A   1      43.250  22.694  24.098  1.00  0.00    -0.200 F 
ATOM     77  C   UNL A   1      42.588  21.541  26.050  1.00  0.00     0.200 A 
ATOM     78  F   UNL A   1      41.915  20.438  28.026  1.00  0.00    -0.200 F 
ATOM     79  F   UNL A   1      42.502  20.395  25.361  1.00  0.00    -0.200 F 
ENDBRANCH  45  69
BRANCH  57  80
ATOM     80  C   UNL A   1      47.773  27.017  31.204  1.00  0.00     0.064 A 
ATOM     81  C   UNL A   1      48.026  26.198  32.314  1.00  0.00     0.173 A 
ATOM     82  C   UNL A   1      48.859  27.402  30.405  1.00  0.00     0.173 A 
ATOM     83  F   UNL A   1      47.019  25.820  33.116  1.00  0.00    -0.203 F 
ATOM     84  C   UNL A   1      49.321  25.793  32.621  1.00  0.00     0.198 A 
ATOM     85  C   UNL A   1      50.150  26.975  30.702  1.00  0.00     0.198 A 
ATOM     86  F   UNL A   1      48.666  28.181  29.331  1.00  0.00    -0.203 F 
ATOM     87  F   UNL A   1      49.546  25.041  33.707  1.00  0.00    -0.200 F 
ATOM     88  C   UNL A   1      50.381  26.176  31.812  1.00  0.00     0.200 A 
ATOM     89  F   UNL A   1      51.172  27.337  29.914  1.00  0.00    -0.200 F 
ATOM     90  F   UNL A   1      51.627  25.780  32.105  1.00  0.00    -0.200 F 
ENDBRANCH  57  80
ENDBRANCH  31  32
ENDBRANCH  23  26
ENDBRANCH  21  22
ENDBRANCH  20  21
ENDBRANCH  19  20
ENDBRANCH   1  19
TORSDOF 15
ENDMDL
