MODEL 1
REMARK VINA RESULT:     -12.9      0.000      0.000
REMARK SMILES Cc1sc(NC(=O)c2ccc(Br)nc2)c(C(=O)NCCCCNC(=O)c2ccc(-c3c4nc(c(-c5c(F)c(F)c(F)c(F)c5F)c5ccc([nH]5)c(-c5c(F)c(F)c(F)c(F)c5F)c5nc(c(-c6c(F)c(F)c(F)c(F)c6F)c6ccc3[nH]6)C=C5)C=C4)cc2)c1C
REMARK SMILES IDX 20 1 19 2 18 3 16 4 17 5 15 7 1 8 2 9 3 10 89 11 4 12 90 13
REMARK SMILES IDX 5 14 6 15 7 17 8 18 9 19 14 20 10 21 13 22 11 23 12 24 21 25
REMARK SMILES IDX 22 26 23 27 24 28 25 30 26 31 27 32 88 33 28 34 87 35 29 36
REMARK SMILES IDX 30 37 31 38 81 39 32 40 86 41 80 42 82 43 33 44 85 45 79 46
REMARK SMILES IDX 78 47 34 49 66 50 46 51 65 52 47 53 50 54 64 55 83 56 48 57
REMARK SMILES IDX 49 58 63 60 84 61 51 62 35 63 36 64 44 65 37 66 38 67 42 68
REMARK SMILES IDX 45 69 39 70 40 71 43 72 41 73 67 74 68 75 76 76 69 77 70 78
REMARK SMILES IDX 74 79 77 80 71 81 72 82 75 83 73 84 52 85 53 86 61 87 54 88
REMARK SMILES IDX 55 89 59 90 62 91 56 92 57 93 60 94 58 95
REMARK H PARENT 18 6 5 16 23 29 82 48 50 59
REMARK Flexibility Score: inf
ROOT
ATOM      1  C   UNL A   1      31.397  30.806  26.404  1.00  0.00     0.023 C 
ENDROOT
BRANCH   1   2
ATOM      2  C   UNL A   1      31.257  30.217  24.995  1.00  0.00     0.116 C 
BRANCH   2   3
ATOM      3  N   UNL A   1      32.498  29.674  24.469  1.00  0.00    -0.352 N 
ATOM      4  C   UNL A   1      32.856  28.368  24.225  1.00  0.00     0.254 C 
ATOM      5  O   UNL A   1      34.037  28.144  23.955  1.00  0.00    -0.269 OA
ATOM      6  H   UNL A   1      33.188  30.342  24.255  1.00  0.00     0.163 HD
BRANCH   4   7
ATOM      7  C   UNL A   1      31.878  27.283  24.347  1.00  0.00     0.077 A 
ATOM      8  C   UNL A   1      29.416  25.291  26.477  1.00  0.00     0.057 C 
ATOM      9  C   UNL A   1      30.285  25.941  25.449  1.00  0.00     0.007 A 
ATOM     10  S   UNL A   1      29.998  25.625  23.796  1.00  0.00    -0.122 S 
ATOM     11  C   UNL A   1      31.370  26.788  25.625  1.00  0.00    -0.022 A 
ATOM     12  C   UNL A   1      31.402  26.466  23.338  1.00  0.00     0.109 A 
ATOM     13  C   UNL A   1      31.950  27.170  26.956  1.00  0.00     0.046 C 
BRANCH  12  14
ATOM     14  N   UNL A   1      31.780  26.161  22.050  1.00  0.00    -0.313 N 
ATOM     15  C   UNL A   1      32.774  25.306  21.632  1.00  0.00     0.257 C 
ATOM     16  H   UNL A   1      31.273  26.613  21.336  1.00  0.00     0.171 HD
ATOM     17  O   UNL A   1      33.179  25.351  20.472  1.00  0.00    -0.269 OA
BRANCH  15  18
ATOM     18  C   UNL A   1      33.337  24.279  22.528  1.00  0.00     0.058 A 
ATOM     19  C   UNL A   1      34.398  24.523  23.400  1.00  0.00     0.018 A 
ATOM     20  C   UNL A   1      32.776  23.009  22.525  1.00  0.00     0.126 A 
ATOM     21  C   UNL A   1      34.920  23.466  24.145  1.00  0.00     0.037 A 
ATOM     22  N   UNL A   1      33.258  21.965  23.240  1.00  0.00    -0.249 NA
ATOM     23  C   UNL A   1      34.337  22.211  24.016  1.00  0.00     0.106 A 
ATOM     24  Br  UNL A   1      35.079  20.754  24.973  1.00  0.00    -0.029 Br
ENDBRANCH  15  18
ENDBRANCH  12  14
ENDBRANCH   4   7
ENDBRANCH   2   3
ENDBRANCH   1   2
BRANCH   1  25
ATOM     25  C   UNL A   1      31.389  32.338  26.503  1.00  0.00     0.023 C 
BRANCH  25  26
ATOM     26  C   UNL A   1      32.602  32.978  27.173  1.00  0.00     0.116 C 
BRANCH  26  27
ATOM     27  N   UNL A   1      32.348  34.307  27.700  1.00  0.00    -0.352 N 
ATOM     28  C   UNL A   1      32.991  35.041  28.667  1.00  0.00     0.251 C 
ATOM     29  H   UNL A   1      31.576  34.762  27.293  1.00  0.00     0.163 HD
ATOM     30  O   UNL A   1      32.529  36.136  28.987  1.00  0.00    -0.269 OA
BRANCH  28  31
ATOM     31  C   UNL A   1      34.191  34.535  29.380  1.00  0.00     0.039 A 
ATOM     32  C   UNL A   1      34.007  33.997  30.661  1.00  0.00     0.014 A 
ATOM     33  C   UNL A   1      35.483  34.617  28.855  1.00  0.00     0.014 A 
ATOM     34  C   UNL A   1      35.090  33.463  31.366  1.00  0.00     0.010 A 
ATOM     35  C   UNL A   1      36.558  34.030  29.534  1.00  0.00     0.010 A 
ATOM     36  C   UNL A   1      36.370  33.431  30.789  1.00  0.00    -0.014 A 
BRANCH  36  37
ATOM     37  C   UNL A   1      37.486  32.720  31.470  1.00  0.00     0.031 A 
ATOM     38  C   UNL A   1      38.184  31.557  30.824  1.00  0.00     0.074 A 
ATOM     39  C   UNL A   1      37.852  33.109  32.707  1.00  0.00     0.049 A 
ATOM     40  N   UNL A   1      39.165  30.822  31.287  1.00  0.00    -0.248 NA
ATOM     41  C   UNL A   1      37.713  31.158  29.490  1.00  0.00     0.031 C 
ATOM     42  C   UNL A   1      37.233  34.195  33.468  1.00  0.00     0.029 A 
ATOM     43  N   UNL A   1      38.831  32.633  33.546  1.00  0.00    -0.354 N 
ATOM     44  C   UNL A   1      39.423  29.871  30.310  1.00  0.00     0.074 A 
ATOM     45  C   UNL A   1      38.475  30.101  29.239  1.00  0.00     0.031 C 
ATOM     46  C   UNL A   1      37.857  34.315  34.651  1.00  0.00     0.029 A 
ATOM     47  C   UNL A   1      38.901  33.298  34.744  1.00  0.00     0.049 A 
ATOM     48  H   UNL A   1      39.426  31.885  33.309  1.00  0.00     0.167 HD
ATOM     49  C   UNL A   1      40.374  28.905  30.298  1.00  0.00     0.037 A 
ATOM     50  C   UNL A   1      39.710  33.111  35.804  1.00  0.00     0.037 A 
ATOM     51  C   UNL A   1      41.335  28.683  31.347  1.00  0.00     0.049 A 
ATOM     52  C   UNL A   1      40.755  32.033  35.763  1.00  0.00     0.074 A 
ATOM     53  C   UNL A   1      42.372  27.765  31.387  1.00  0.00     0.029 A 
ATOM     54  N   UNL A   1      41.377  29.383  32.542  1.00  0.00    -0.354 N 
ATOM     55  N   UNL A   1      41.030  31.184  34.805  1.00  0.00    -0.248 NA
ATOM     56  C   UNL A   1      41.606  31.890  36.953  1.00  0.00     0.031 C 
ATOM     57  C   UNL A   1      43.023  27.889  32.620  1.00  0.00     0.029 A 
ATOM     58  C   UNL A   1      42.410  28.904  33.334  1.00  0.00     0.049 A 
ATOM     59  H   UNL A   1      40.765  30.112  32.793  1.00  0.00     0.167 HD
ATOM     60  C   UNL A   1      42.094  30.422  35.264  1.00  0.00     0.074 A 
ATOM     61  C   UNL A   1      42.426  30.915  36.584  1.00  0.00     0.031 C 
ATOM     62  C   UNL A   1      42.736  29.404  34.645  1.00  0.00     0.037 A 
BRANCH  49  63
ATOM     63  C   UNL A   1      40.431  28.007  29.100  1.00  0.00     0.064 A 
ATOM     64  C   UNL A   1      39.683  26.823  29.041  1.00  0.00     0.173 A 
ATOM     65  C   UNL A   1      41.194  28.362  27.978  1.00  0.00     0.173 A 
ATOM     66  F   UNL A   1      38.944  26.439  30.091  1.00  0.00    -0.203 F 
ATOM     67  C   UNL A   1      39.709  26.018  27.905  1.00  0.00     0.198 A 
ATOM     68  C   UNL A   1      41.201  27.565  26.837  1.00  0.00     0.198 A 
ATOM     69  F   UNL A   1      41.921  29.491  27.983  1.00  0.00    -0.203 F 
ATOM     70  F   UNL A   1      39.007  24.876  27.879  1.00  0.00    -0.200 F 
ATOM     71  C   UNL A   1      40.462  26.392  26.803  1.00  0.00     0.200 A 
ATOM     72  F   UNL A   1      41.922  27.933  25.767  1.00  0.00    -0.200 F 
ATOM     73  F   UNL A   1      40.478  25.619  25.707  1.00  0.00    -0.200 F 
ENDBRANCH  49  63
BRANCH  50  74
ATOM     74  C   UNL A   1      39.576  33.986  36.995  1.00  0.00     0.064 A 
ATOM     75  C   UNL A   1      38.809  33.586  38.097  1.00  0.00     0.173 A 
ATOM     76  C   UNL A   1      40.208  35.235  37.054  1.00  0.00     0.173 A 
ATOM     77  F   UNL A   1      38.167  32.407  38.073  1.00  0.00    -0.203 F 
ATOM     78  C   UNL A   1      38.667  34.409  39.211  1.00  0.00     0.198 A 
ATOM     79  C   UNL A   1      40.083  36.050  38.177  1.00  0.00     0.198 A 
ATOM     80  F   UNL A   1      40.953  35.660  36.023  1.00  0.00    -0.203 F 
ATOM     81  F   UNL A   1      37.898  34.020  40.236  1.00  0.00    -0.200 F 
ATOM     82  C   UNL A   1      39.308  35.639  39.251  1.00  0.00     0.200 A 
ATOM     83  F   UNL A   1      40.709  37.234  38.217  1.00  0.00    -0.200 F 
ATOM     84  F   UNL A   1      39.172  36.431  40.323  1.00  0.00    -0.200 F 
ENDBRANCH  50  74
BRANCH  62  85
ATOM     85  C   UNL A   1      43.878  28.767  35.376  1.00  0.00     0.064 A 
ATOM     86  C   UNL A   1      43.672  27.707  36.271  1.00  0.00     0.173 A 
ATOM     87  C   UNL A   1      45.194  29.200  35.160  1.00  0.00     0.173 A 
ATOM     88  F   UNL A   1      42.429  27.270  36.525  1.00  0.00    -0.203 F 
ATOM     89  C   UNL A   1      44.742  27.115  36.936  1.00  0.00     0.198 A 
ATOM     90  C   UNL A   1      46.263  28.592  35.810  1.00  0.00     0.198 A 
ATOM     91  F   UNL A   1      45.441  30.210  34.312  1.00  0.00    -0.203 F 
ATOM     92  F   UNL A   1      44.520  26.127  37.814  1.00  0.00    -0.200 F 
ATOM     93  C   UNL A   1      46.037  27.554  36.701  1.00  0.00     0.200 A 
ATOM     94  F   UNL A   1      47.515  29.014  35.579  1.00  0.00    -0.200 F 
ATOM     95  F   UNL A   1      47.066  26.981  37.340  1.00  0.00    -0.200 F 
ENDBRANCH  62  85
ENDBRANCH  36  37
ENDBRANCH  28  31
ENDBRANCH  26  27
ENDBRANCH  25  26
ENDBRANCH   1  25
TORSDOF 13
ENDMDL
MODEL 2
REMARK VINA RESULT:     -12.8      0.496      7.427
REMARK SMILES Cc1sc(NC(=O)c2ccc(Br)nc2)c(C(=O)NCCCCNC(=O)c2ccc(-c3c4nc(c(-c5c(F)c(F)c(F)c(F)c5F)c5ccc([nH]5)c(-c5c(F)c(F)c(F)c(F)c5F)c5nc(c(-c6c(F)c(F)c(F)c(F)c6F)c6ccc3[nH]6)C=C5)C=C4)cc2)c1C
REMARK SMILES IDX 20 1 19 2 18 3 16 4 17 5 15 7 1 8 2 9 3 10 89 11 4 12 90 13
REMARK SMILES IDX 5 14 6 15 7 17 8 18 9 19 14 20 10 21 13 22 11 23 12 24 21 25
REMARK SMILES IDX 22 26 23 27 24 28 25 30 26 31 27 32 88 33 28 34 87 35 29 36
REMARK SMILES IDX 30 37 31 38 81 39 32 40 86 41 80 42 82 43 33 44 85 45 79 46
REMARK SMILES IDX 78 47 34 49 66 50 46 51 65 52 47 53 50 54 64 55 83 56 48 57
REMARK SMILES IDX 49 58 63 60 84 61 51 62 35 63 36 64 44 65 37 66 38 67 42 68
REMARK SMILES IDX 45 69 39 70 40 71 43 72 41 73 67 74 68 75 76 76 69 77 70 78
REMARK SMILES IDX 74 79 77 80 71 81 72 82 75 83 73 84 52 85 53 86 61 87 54 88
REMARK SMILES IDX 55 89 59 90 62 91 56 92 57 93 60 94 58 95
REMARK H PARENT 18 6 5 16 23 29 82 48 50 59
REMARK Flexibility Score: inf
ROOT
ATOM      1  C   UNL A   1      31.399  30.810  26.418  1.00  0.00     0.023 C 
ENDROOT
BRANCH   1   2
ATOM      2  C   UNL A   1      31.253  30.223  25.009  1.00  0.00     0.116 C 
BRANCH   2   3
ATOM      3  N   UNL A   1      32.492  29.681  24.476  1.00  0.00    -0.352 N 
ATOM      4  C   UNL A   1      32.847  28.376  24.225  1.00  0.00     0.254 C 
ATOM      5  O   UNL A   1      34.027  28.152  23.950  1.00  0.00    -0.269 OA
ATOM      6  H   UNL A   1      33.182  30.349  24.263  1.00  0.00     0.163 HD
BRANCH   4   7
ATOM      7  C   UNL A   1      31.868  27.291  24.343  1.00  0.00     0.077 A 
ATOM      8  C   UNL A   1      29.403  25.297  26.469  1.00  0.00     0.057 C 
ATOM      9  C   UNL A   1      30.273  25.949  25.443  1.00  0.00     0.007 A 
ATOM     10  S   UNL A   1      29.986  25.637  23.788  1.00  0.00    -0.122 S 
ATOM     11  C   UNL A   1      31.359  26.794  25.621  1.00  0.00    -0.022 A 
ATOM     12  C   UNL A   1      31.391  26.477  23.332  1.00  0.00     0.109 A 
ATOM     13  C   UNL A   1      31.939  27.173  26.952  1.00  0.00     0.046 C 
BRANCH  12  14
ATOM     14  N   UNL A   1      31.770  26.174  22.044  1.00  0.00    -0.313 N 
ATOM     15  C   UNL A   1      32.758  25.315  21.624  1.00  0.00     0.257 C 
ATOM     16  H   UNL A   1      31.267  26.633  21.332  1.00  0.00     0.171 HD
ATOM     17  O   UNL A   1      33.166  25.362  20.465  1.00  0.00    -0.269 OA
BRANCH  15  18
ATOM     18  C   UNL A   1      33.314  24.280  22.517  1.00  0.00     0.058 A 
ATOM     19  C   UNL A   1      34.452  24.476  23.300  1.00  0.00     0.018 A 
ATOM     20  C   UNL A   1      32.666  23.056  22.605  1.00  0.00     0.126 A 
ATOM     21  C   UNL A   1      34.952  23.410  24.047  1.00  0.00     0.037 A 
ATOM     22  N   UNL A   1      33.125  22.005  23.324  1.00  0.00    -0.249 NA
ATOM     23  C   UNL A   1      34.274  22.197  24.010  1.00  0.00     0.106 A 
ATOM     24  Br  UNL A   1      34.982  20.724  24.967  1.00  0.00    -0.029 Br
ENDBRANCH  15  18
ENDBRANCH  12  14
ENDBRANCH   4   7
ENDBRANCH   2   3
ENDBRANCH   1   2
BRANCH   1  25
ATOM     25  C   UNL A   1      31.364  32.341  26.522  1.00  0.00     0.023 C 
BRANCH  25  26
ATOM     26  C   UNL A   1      32.610  33.008  27.099  1.00  0.00     0.116 C 
BRANCH  26  27
ATOM     27  N   UNL A   1      32.356  34.305  27.699  1.00  0.00    -0.352 N 
ATOM     28  C   UNL A   1      33.010  34.991  28.694  1.00  0.00     0.251 C 
ATOM     29  H   UNL A   1      31.576  34.777  27.328  1.00  0.00     0.163 HD
ATOM     30  O   UNL A   1      32.547  36.065  29.077  1.00  0.00    -0.269 OA
BRANCH  28  31
ATOM     31  C   UNL A   1      34.224  34.456  29.361  1.00  0.00     0.039 A 
ATOM     32  C   UNL A   1      34.055  33.802  30.589  1.00  0.00     0.014 A 
ATOM     33  C   UNL A   1      35.513  34.619  28.847  1.00  0.00     0.014 A 
ATOM     34  C   UNL A   1      35.153  33.237  31.245  1.00  0.00     0.010 A 
ATOM     35  C   UNL A   1      36.603  34.002  29.473  1.00  0.00     0.010 A 
ATOM     36  C   UNL A   1      36.432  33.289  30.669  1.00  0.00    -0.014 A 
BRANCH  36  37
ATOM     37  C   UNL A   1      37.567  32.551  31.287  1.00  0.00     0.031 A 
ATOM     38  C   UNL A   1      38.078  32.903  32.655  1.00  0.00     0.074 A 
ATOM     39  C   UNL A   1      38.168  31.569  30.586  1.00  0.00     0.049 A 
ATOM     40  N   UNL A   1      39.065  32.366  33.330  1.00  0.00    -0.248 NA
ATOM     41  C   UNL A   1      37.405  34.007  33.351  1.00  0.00     0.031 C 
ATOM     42  C   UNL A   1      37.801  31.152  29.232  1.00  0.00     0.029 A 
ATOM     43  N   UNL A   1      39.219  30.745  30.914  1.00  0.00    -0.354 N 
ATOM     44  C   UNL A   1      39.137  33.070  34.524  1.00  0.00     0.074 A 
ATOM     45  C   UNL A   1      38.114  34.094  34.469  1.00  0.00     0.031 C 
ATOM     46  C   UNL A   1      38.598  30.140  28.852  1.00  0.00     0.029 A 
ATOM     47  C   UNL A   1      39.550  29.856  29.922  1.00  0.00     0.049 A 
ATOM     48  H   UNL A   1      39.689  30.790  31.777  1.00  0.00     0.167 HD
ATOM     49  C   UNL A   1      39.968  32.871  35.576  1.00  0.00     0.037 A 
ATOM     50  C   UNL A   1      40.515  28.918  29.874  1.00  0.00     0.037 A 
ATOM     51  C   UNL A   1      40.973  31.843  35.649  1.00  0.00     0.049 A 
ATOM     52  C   UNL A   1      41.421  28.719  31.054  1.00  0.00     0.074 A 
ATOM     53  C   UNL A   1      41.816  31.532  36.703  1.00  0.00     0.029 A 
ATOM     54  N   UNL A   1      41.273  30.957  34.627  1.00  0.00    -0.354 N 
ATOM     55  N   UNL A   1      41.434  29.349  32.202  1.00  0.00    -0.248 NA
ATOM     56  C   UNL A   1      42.448  27.673  30.933  1.00  0.00     0.031 C 
ATOM     57  C   UNL A   1      42.648  30.479  36.307  1.00  0.00     0.029 A 
ATOM     58  C   UNL A   1      42.302  30.113  35.018  1.00  0.00     0.049 A 
ATOM     59  H   UNL A   1      40.823  30.930  33.751  1.00  0.00     0.167 HD
ATOM     60  C   UNL A   1      42.450  28.767  32.946  1.00  0.00     0.074 A 
ATOM     61  C   UNL A   1      43.026  27.723  32.126  1.00  0.00     0.031 C 
ATOM     62  C   UNL A   1      42.866  29.074  34.197  1.00  0.00     0.037 A 
BRANCH  49  63
ATOM     63  C   UNL A   1      39.825  33.788  36.753  1.00  0.00     0.064 A 
ATOM     64  C   UNL A   1      40.474  35.029  36.793  1.00  0.00     0.173 A 
ATOM     65  C   UNL A   1      38.982  33.449  37.823  1.00  0.00     0.173 A 
ATOM     66  F   UNL A   1      41.294  35.394  35.797  1.00  0.00    -0.203 F 
ATOM     67  C   UNL A   1      40.299  35.892  37.871  1.00  0.00     0.198 A 
ATOM     68  C   UNL A   1      38.794  34.323  38.889  1.00  0.00     0.198 A 
ATOM     69  F   UNL A   1      38.332  32.275  37.826  1.00  0.00    -0.203 F 
ATOM     70  F   UNL A   1      40.951  37.064  37.903  1.00  0.00    -0.200 F 
ATOM     71  C   UNL A   1      39.455  35.542  38.914  1.00  0.00     0.200 A 
ATOM     72  F   UNL A   1      37.969  33.988  39.892  1.00  0.00    -0.200 F 
ATOM     73  F   UNL A   1      39.281  36.379  39.947  1.00  0.00    -0.200 F 
ENDBRANCH  49  63
BRANCH  50  74
ATOM     74  C   UNL A   1      40.660  28.073  28.662  1.00  0.00     0.064 A 
ATOM     75  C   UNL A   1      41.460  28.489  27.589  1.00  0.00     0.173 A 
ATOM     76  C   UNL A   1      40.003  26.841  28.552  1.00  0.00     0.173 A 
ATOM     77  F   UNL A   1      42.089  29.674  27.643  1.00  0.00    -0.203 F 
ATOM     78  C   UNL A   1      41.587  27.709  26.443  1.00  0.00     0.198 A 
ATOM     79  C   UNL A   1      40.147  26.050  27.414  1.00  0.00     0.198 A 
ATOM     80  F   UNL A   1      39.227  26.402  29.554  1.00  0.00    -0.203 F 
ATOM     81  F   UNL A   1      42.328  28.145  25.416  1.00  0.00    -0.200 F 
ATOM     82  C   UNL A   1      40.934  26.488  26.359  1.00  0.00     0.200 A 
ATOM     83  F   UNL A   1      39.521  24.868  27.338  1.00  0.00    -0.200 F 
ATOM     84  F   UNL A   1      41.057  25.736  25.257  1.00  0.00    -0.200 F 
ENDBRANCH  50  74
BRANCH  62  85
ATOM     85  C   UNL A   1      43.985  28.257  34.767  1.00  0.00     0.064 A 
ATOM     86  C   UNL A   1      45.322  28.660  34.641  1.00  0.00     0.173 A 
ATOM     87  C   UNL A   1      43.717  27.074  35.471  1.00  0.00     0.173 A 
ATOM     88  F   UNL A   1      45.629  29.775  33.961  1.00  0.00    -0.203 F 
ATOM     89  C   UNL A   1      46.353  27.899  35.186  1.00  0.00     0.198 A 
ATOM     90  C   UNL A   1      44.748  26.326  36.032  1.00  0.00     0.198 A 
ATOM     91  F   UNL A   1      42.453  26.648  35.619  1.00  0.00    -0.203 F 
ATOM     92  F   UNL A   1      47.626  28.284  35.023  1.00  0.00    -0.200 F 
ATOM     93  C   UNL A   1      46.065  26.736  35.885  1.00  0.00     0.200 A 
ATOM     94  F   UNL A   1      44.469  25.205  36.713  1.00  0.00    -0.200 F 
ATOM     95  F   UNL A   1      47.058  26.006  36.411  1.00  0.00    -0.200 F 
ENDBRANCH  62  85
ENDBRANCH  36  37
ENDBRANCH  28  31
ENDBRANCH  26  27
ENDBRANCH  25  26
ENDBRANCH   1  25
TORSDOF 13
ENDMDL
MODEL 3
REMARK VINA RESULT:     -12.8      0.333      1.240
REMARK SMILES Cc1sc(NC(=O)c2ccc(Br)nc2)c(C(=O)NCCCCNC(=O)c2ccc(-c3c4nc(c(-c5c(F)c(F)c(F)c(F)c5F)c5ccc([nH]5)c(-c5c(F)c(F)c(F)c(F)c5F)c5nc(c(-c6c(F)c(F)c(F)c(F)c6F)c6ccc3[nH]6)C=C5)C=C4)cc2)c1C
REMARK SMILES IDX 20 1 19 2 18 3 16 4 17 5 15 7 1 8 2 9 3 10 89 11 4 12 90 13
REMARK SMILES IDX 5 14 6 15 7 17 8 18 9 19 14 20 10 21 13 22 11 23 12 24 21 25
REMARK SMILES IDX 22 26 23 27 24 28 25 30 26 31 27 32 88 33 28 34 87 35 29 36
REMARK SMILES IDX 30 37 31 38 81 39 32 40 86 41 80 42 82 43 33 44 85 45 79 46
REMARK SMILES IDX 78 47 34 49 66 50 46 51 65 52 47 53 50 54 64 55 83 56 48 57
REMARK SMILES IDX 49 58 63 60 84 61 51 62 35 63 36 64 44 65 37 66 38 67 42 68
REMARK SMILES IDX 45 69 39 70 40 71 43 72 41 73 67 74 68 75 76 76 69 77 70 78
REMARK SMILES IDX 74 79 77 80 71 81 72 82 75 83 73 84 52 85 53 86 61 87 54 88
REMARK SMILES IDX 55 89 59 90 62 91 56 92 57 93 60 94 58 95
REMARK H PARENT 18 6 5 16 23 29 82 48 50 59
REMARK Flexibility Score: inf
ROOT
ATOM      1  C   UNL A   1      31.402  30.698  26.331  1.00  0.00     0.023 C 
ENDROOT
BRANCH   1   2
ATOM      2  C   UNL A   1      31.296  30.171  24.895  1.00  0.00     0.116 C 
BRANCH   2   3
ATOM      3  N   UNL A   1      32.545  29.635  24.381  1.00  0.00    -0.352 N 
ATOM      4  C   UNL A   1      32.914  28.331  24.145  1.00  0.00     0.254 C 
ATOM      5  O   UNL A   1      34.099  28.114  23.886  1.00  0.00    -0.269 OA
ATOM      6  H   UNL A   1      33.233  30.307  24.170  1.00  0.00     0.163 HD
BRANCH   4   7
ATOM      7  C   UNL A   1      31.943  27.239  24.262  1.00  0.00     0.077 A 
ATOM      8  C   UNL A   1      29.512  25.206  26.392  1.00  0.00     0.057 C 
ATOM      9  C   UNL A   1      30.367  25.875  25.364  1.00  0.00     0.007 A 
ATOM     10  S   UNL A   1      30.065  25.580  23.709  1.00  0.00    -0.122 S 
ATOM     11  C   UNL A   1      31.450  26.725  25.539  1.00  0.00    -0.022 A 
ATOM     12  C   UNL A   1      31.460  26.433  23.248  1.00  0.00     0.109 A 
ATOM     13  C   UNL A   1      32.042  27.092  26.869  1.00  0.00     0.046 C 
BRANCH  12  14
ATOM     14  N   UNL A   1      31.826  26.147  21.952  1.00  0.00    -0.313 N 
ATOM     15  C   UNL A   1      32.768  25.248  21.510  1.00  0.00     0.257 C 
ATOM     16  H   UNL A   1      31.352  26.652  21.252  1.00  0.00     0.171 HD
ATOM     17  O   UNL A   1      33.182  25.306  20.353  1.00  0.00    -0.269 OA
BRANCH  15  18
ATOM     18  C   UNL A   1      33.264  24.160  22.374  1.00  0.00     0.058 A 
ATOM     19  C   UNL A   1      32.650  22.910  22.458  1.00  0.00     0.018 A 
ATOM     20  C   UNL A   1      34.410  24.375  23.127  1.00  0.00     0.126 A 
ATOM     21  C   UNL A   1      33.141  21.974  23.367  1.00  0.00     0.037 A 
ATOM     22  N   UNL A   1      34.912  23.484  24.015  1.00  0.00    -0.249 NA
ATOM     23  C   UNL A   1      34.250  22.311  24.135  1.00  0.00     0.106 A 
ATOM     24  Br  UNL A   1      34.884  21.073  25.421  1.00  0.00    -0.029 Br
ENDBRANCH  15  18
ENDBRANCH  12  14
ENDBRANCH   4   7
ENDBRANCH   2   3
ENDBRANCH   1   2
BRANCH   1  25
ATOM     25  C   UNL A   1      31.343  32.223  26.501  1.00  0.00     0.023 C 
BRANCH  25  26
ATOM     26  C   UNL A   1      32.574  32.882  27.118  1.00  0.00     0.116 C 
BRANCH  26  27
ATOM     27  N   UNL A   1      32.328  34.217  27.633  1.00  0.00    -0.352 N 
ATOM     28  C   UNL A   1      32.974  34.955  28.595  1.00  0.00     0.251 C 
ATOM     29  H   UNL A   1      31.560  34.674  27.220  1.00  0.00     0.163 HD
ATOM     30  O   UNL A   1      32.520  36.055  28.903  1.00  0.00    -0.269 OA
BRANCH  28  31
ATOM     31  C   UNL A   1      34.170  34.446  29.314  1.00  0.00     0.039 A 
ATOM     32  C   UNL A   1      33.969  33.845  30.564  1.00  0.00     0.014 A 
ATOM     33  C   UNL A   1      35.472  34.585  28.827  1.00  0.00     0.014 A 
ATOM     34  C   UNL A   1      35.048  33.307  31.271  1.00  0.00     0.010 A 
ATOM     35  C   UNL A   1      36.544  33.994  29.505  1.00  0.00     0.010 A 
ATOM     36  C   UNL A   1      36.341  33.333  30.726  1.00  0.00    -0.014 A 
BRANCH  36  37
ATOM     37  C   UNL A   1      37.459  32.619  31.402  1.00  0.00     0.031 A 
ATOM     38  C   UNL A   1      38.158  31.462  30.749  1.00  0.00     0.074 A 
ATOM     39  C   UNL A   1      37.825  33.002  32.642  1.00  0.00     0.049 A 
ATOM     40  N   UNL A   1      39.141  30.725  31.207  1.00  0.00    -0.248 NA
ATOM     41  C   UNL A   1      37.687  31.070  29.413  1.00  0.00     0.031 C 
ATOM     42  C   UNL A   1      37.204  34.082  33.410  1.00  0.00     0.029 A 
ATOM     43  N   UNL A   1      38.805  32.521  33.477  1.00  0.00    -0.354 N 
ATOM     44  C   UNL A   1      39.400  29.781  30.224  1.00  0.00     0.074 A 
ATOM     45  C   UNL A   1      38.451  30.016  29.155  1.00  0.00     0.031 C 
ATOM     46  C   UNL A   1      37.829  34.195  34.594  1.00  0.00     0.029 A 
ATOM     47  C   UNL A   1      38.874  33.179  34.680  1.00  0.00     0.049 A 
ATOM     48  H   UNL A   1      39.401  31.775  33.236  1.00  0.00     0.167 HD
ATOM     49  C   UNL A   1      40.352  28.816  30.206  1.00  0.00     0.037 A 
ATOM     50  C   UNL A   1      39.683  32.986  35.738  1.00  0.00     0.037 A 
ATOM     51  C   UNL A   1      41.313  28.588  31.253  1.00  0.00     0.049 A 
ATOM     52  C   UNL A   1      40.730  31.910  35.691  1.00  0.00     0.074 A 
ATOM     53  C   UNL A   1      42.352  27.673  31.287  1.00  0.00     0.029 A 
ATOM     54  N   UNL A   1      41.355  29.281  32.452  1.00  0.00    -0.354 N 
ATOM     55  N   UNL A   1      41.006  31.068  34.727  1.00  0.00    -0.248 NA
ATOM     56  C   UNL A   1      41.582  31.761  36.880  1.00  0.00     0.031 C 
ATOM     57  C   UNL A   1      43.003  27.789  32.521  1.00  0.00     0.029 A 
ATOM     58  C   UNL A   1      42.389  28.799  33.242  1.00  0.00     0.049 A 
ATOM     59  H   UNL A   1      40.742  30.008  32.708  1.00  0.00     0.167 HD
ATOM     60  C   UNL A   1      42.071  30.305  35.181  1.00  0.00     0.074 A 
ATOM     61  C   UNL A   1      42.403  30.790  36.504  1.00  0.00     0.031 C 
ATOM     62  C   UNL A   1      42.715  29.291  34.555  1.00  0.00     0.037 A 
BRANCH  49  63
ATOM     63  C   UNL A   1      40.410  27.925  29.003  1.00  0.00     0.064 A 
ATOM     64  C   UNL A   1      41.229  28.233  27.907  1.00  0.00     0.173 A 
ATOM     65  C   UNL A   1      39.689  26.722  28.970  1.00  0.00     0.173 A 
ATOM     66  F   UNL A   1      41.932  29.375  27.890  1.00  0.00    -0.203 F 
ATOM     67  C   UNL A   1      41.310  27.376  26.813  1.00  0.00     0.198 A 
ATOM     68  C   UNL A   1      39.789  25.859  27.883  1.00  0.00     0.198 A 
ATOM     69  F   UNL A   1      38.899  26.379  29.998  1.00  0.00    -0.203 F 
ATOM     70  F   UNL A   1      42.078  27.703  25.763  1.00  0.00    -0.200 F 
ATOM     71  C   UNL A   1      40.596  26.188  26.804  1.00  0.00     0.200 A 
ATOM     72  F   UNL A   1      39.106  24.704  27.880  1.00  0.00    -0.200 F 
ATOM     73  F   UNL A   1      40.683  25.360  25.753  1.00  0.00    -0.200 F 
ENDBRANCH  49  63
BRANCH  50  74
ATOM     74  C   UNL A   1      39.549  33.854  36.935  1.00  0.00     0.064 A 
ATOM     75  C   UNL A   1      38.776  33.449  38.031  1.00  0.00     0.173 A 
ATOM     76  C   UNL A   1      40.186  35.100  37.005  1.00  0.00     0.173 A 
ATOM     77  F   UNL A   1      38.130  32.273  37.997  1.00  0.00    -0.203 F 
ATOM     78  C   UNL A   1      38.633  34.266  39.150  1.00  0.00     0.198 A 
ATOM     79  C   UNL A   1      40.060  35.907  38.133  1.00  0.00     0.198 A 
ATOM     80  F   UNL A   1      40.936  35.529  35.980  1.00  0.00    -0.203 F 
ATOM     81  F   UNL A   1      37.859  33.872  40.170  1.00  0.00    -0.200 F 
ATOM     82  C   UNL A   1      39.279  35.492  39.201  1.00  0.00     0.200 A 
ATOM     83  F   UNL A   1      40.691  37.088  38.183  1.00  0.00    -0.200 F 
ATOM     84  F   UNL A   1      39.143  36.277  40.278  1.00  0.00    -0.200 F 
ENDBRANCH  50  74
BRANCH  62  85
ATOM     85  C   UNL A   1      43.857  28.651  35.283  1.00  0.00     0.064 A 
ATOM     86  C   UNL A   1      43.659  27.555  36.134  1.00  0.00     0.173 A 
ATOM     87  C   UNL A   1      45.167  29.119  35.104  1.00  0.00     0.173 A 
ATOM     88  F   UNL A   1      42.422  27.084  36.351  1.00  0.00    -0.203 F 
ATOM     89  C   UNL A   1      44.731  26.961  36.796  1.00  0.00     0.198 A 
ATOM     90  C   UNL A   1      46.239  28.510  35.750  1.00  0.00     0.198 A 
ATOM     91  F   UNL A   1      45.407  30.164  34.298  1.00  0.00    -0.203 F 
ATOM     92  F   UNL A   1      44.515  25.938  37.633  1.00  0.00    -0.200 F 
ATOM     93  C   UNL A   1      46.020  27.435  36.599  1.00  0.00     0.200 A 
ATOM     94  F   UNL A   1      47.485  28.965  35.556  1.00  0.00    -0.200 F 
ATOM     95  F   UNL A   1      47.050  26.860  37.234  1.00  0.00    -0.200 F 
ENDBRANCH  62  85
ENDBRANCH  36  37
ENDBRANCH  28  31
ENDBRANCH  26  27
ENDBRANCH  25  26
ENDBRANCH   1  25
TORSDOF 13
ENDMDL
