MODEL 1
REMARK VINA RESULT:     -11.2      0.000      0.000
REMARK SMILES CCN(Cc1ccccn1)C(=O)NC(CC)(CC)C(=O)NCCCCNC(=O)c1ccc(-c2c3nc(c(-c4c(F)c(F)c(F)c(F)c4F)c4ccc([nH]4)c(-c4c(F)c(F)c(F)c(F)c4F)c4nc(c(-c5c(F)c(F)c(F)c(F)c5F)c5ccc2[nH]5)C=C4)C=C3)cc1
REMARK SMILES IDX 22 1 21 2 19 3 20 4 14 6 13 7 11 8 12 9 3 11 2 12 1 13 4 14
REMARK SMILES IDX 5 15 6 16 10 17 7 18 9 19 8 20 15 21 16 22 17 23 18 24 23 25
REMARK SMILES IDX 24 26 25 27 26 28 27 29 28 31 29 32 30 33 91 34 31 35 90 36
REMARK SMILES IDX 32 37 33 38 34 39 84 40 35 41 89 42 83 43 85 44 36 45 88 46
REMARK SMILES IDX 82 47 81 48 37 50 69 51 49 52 68 53 50 54 53 55 67 56 86 57
REMARK SMILES IDX 51 58 52 59 66 61 87 62 54 63 38 64 39 65 47 66 40 67 41 68
REMARK SMILES IDX 45 69 48 70 42 71 43 72 46 73 44 74 70 75 71 76 79 77 72 78
REMARK SMILES IDX 73 79 77 80 80 81 74 82 75 83 78 84 76 85 55 86 56 87 64 88
REMARK SMILES IDX 57 89 58 90 62 91 65 92 59 93 60 94 63 95 61 96
REMARK H PARENT 21 5 13 10 26 30 85 49 53 60
REMARK Flexibility Score: inf
ROOT
ATOM      1  C   UNL A   1      36.280  21.560  25.693  1.00  0.00     0.116 C 
ENDROOT
BRANCH   1   2
ATOM      2  N   UNL A   1      35.300  21.490  26.752  1.00  0.00    -0.354 N 
ATOM      3  C   UNL A   1      34.212  22.251  27.016  1.00  0.00     0.245 C 
ATOM      4  O   UNL A   1      33.965  22.401  28.221  1.00  0.00    -0.272 OA
ATOM      5  H   UNL A   1      35.450  20.760  27.396  1.00  0.00     0.163 HD
BRANCH   3   6
ATOM      6  C   UNL A   1      33.386  22.961  25.914  1.00  0.00     0.120 C 
BRANCH   6   7
ATOM      7  N   UNL A   1      31.999  23.187  26.411  1.00  0.00    -0.323 N 
ATOM      8  C   UNL A   1      30.962  24.021  26.255  1.00  0.00     0.318 C 
ATOM      9  O   UNL A   1      30.097  23.891  27.135  1.00  0.00    -0.249 OA
ATOM     10  H   UNL A   1      31.768  22.495  27.073  1.00  0.00     0.166 HD
BRANCH   8  11
ATOM     11  N   UNL A   1      30.731  24.842  25.190  1.00  0.00    -0.319 N 
BRANCH  11  12
ATOM     12  C   UNL A   1      30.644  24.148  23.895  1.00  0.00     0.118 C 
ATOM     13  C   UNL A   1      31.251  24.946  22.741  1.00  0.00     0.027 C 
ENDBRANCH  11  12
BRANCH  11  14
ATOM     14  C   UNL A   1      30.581  26.307  25.108  1.00  0.00     0.177 C 
BRANCH  14  15
ATOM     15  C   UNL A   1      31.754  27.153  25.541  1.00  0.00     0.060 A 
ATOM     16  C   UNL A   1      31.903  27.534  26.873  1.00  0.00     0.026 A 
ATOM     17  N   UNL A   1      32.606  27.578  24.568  1.00  0.00    -0.259 NA
ATOM     18  C   UNL A   1      32.990  28.327  27.229  1.00  0.00     0.004 A 
ATOM     19  C   UNL A   1      33.650  28.348  24.943  1.00  0.00     0.111 A 
ATOM     20  C   UNL A   1      33.888  28.737  26.249  1.00  0.00     0.020 A 
ENDBRANCH  14  15
ENDBRANCH  11  14
ENDBRANCH   8  11
ENDBRANCH   6   7
BRANCH   6  21
ATOM     21  C   UNL A   1      33.260  22.228  24.548  1.00  0.00     0.035 C 
ATOM     22  C   UNL A   1      32.465  20.921  24.557  1.00  0.00     0.007 C 
ENDBRANCH   6  21
BRANCH   6  23
ATOM     23  C   UNL A   1      34.062  24.362  25.710  1.00  0.00     0.035 C 
ATOM     24  C   UNL A   1      34.615  24.641  24.314  1.00  0.00     0.007 C 
ENDBRANCH   6  23
ENDBRANCH   3   6
ENDBRANCH   1   2
BRANCH   1  25
ATOM     25  C   UNL A   1      36.395  20.195  25.012  1.00  0.00     0.023 C 
BRANCH  25  26
ATOM     26  C   UNL A   1      37.831  19.771  24.675  1.00  0.00     0.023 C 
BRANCH  26  27
ATOM     27  C   UNL A   1      38.881  20.234  25.679  1.00  0.00     0.116 C 
BRANCH  27  28
ATOM     28  N   UNL A   1      39.881  19.203  25.917  1.00  0.00    -0.352 N 
ATOM     29  C   UNL A   1      41.228  19.337  26.131  1.00  0.00     0.251 C 
ATOM     30  H   UNL A   1      39.542  18.280  25.925  1.00  0.00     0.163 HD
ATOM     31  O   UNL A   1      41.965  18.355  26.062  1.00  0.00    -0.269 OA
BRANCH  29  32
ATOM     32  C   UNL A   1      41.797  20.664  26.437  1.00  0.00     0.039 A 
ATOM     33  C   UNL A   1      42.137  21.516  25.384  1.00  0.00     0.014 A 
ATOM     34  C   UNL A   1      42.010  21.059  27.761  1.00  0.00     0.014 A 
ATOM     35  C   UNL A   1      42.640  22.790  25.661  1.00  0.00     0.010 A 
ATOM     36  C   UNL A   1      42.446  22.353  28.036  1.00  0.00     0.010 A 
ATOM     37  C   UNL A   1      42.769  23.229  26.989  1.00  0.00    -0.014 A 
BRANCH  37  38
ATOM     38  C   UNL A   1      43.240  24.602  27.302  1.00  0.00     0.031 A 
ATOM     39  C   UNL A   1      42.279  25.625  27.843  1.00  0.00     0.074 A 
ATOM     40  C   UNL A   1      44.516  24.944  27.037  1.00  0.00     0.049 A 
ATOM     41  N   UNL A   1      42.483  26.890  28.114  1.00  0.00    -0.248 NA
ATOM     42  C   UNL A   1      40.900  25.175  28.090  1.00  0.00     0.031 C 
ATOM     43  C   UNL A   1      45.530  24.054  26.471  1.00  0.00     0.029 A 
ATOM     44  N   UNL A   1      45.176  26.138  27.199  1.00  0.00    -0.354 N 
ATOM     45  C   UNL A   1      41.259  27.387  28.541  1.00  0.00     0.074 A 
ATOM     46  C   UNL A   1      40.306  26.302  28.455  1.00  0.00     0.031 C 
ATOM     47  C   UNL A   1      46.688  24.724  26.355  1.00  0.00     0.029 A 
ATOM     48  C   UNL A   1      46.489  26.100  26.798  1.00  0.00     0.049 A 
ATOM     49  H   UNL A   1      44.747  26.943  27.568  1.00  0.00     0.167 HD
ATOM     50  C   UNL A   1      40.962  28.633  28.983  1.00  0.00     0.037 A 
ATOM     51  C   UNL A   1      47.423  27.070  26.782  1.00  0.00     0.037 A 
ATOM     52  C   UNL A   1      41.922  29.700  29.103  1.00  0.00     0.049 A 
ATOM     53  C   UNL A   1      47.060  28.446  27.274  1.00  0.00     0.074 A 
ATOM     54  C   UNL A   1      41.736  30.972  29.616  1.00  0.00     0.029 A 
ATOM     55  N   UNL A   1      43.246  29.619  28.700  1.00  0.00    -0.354 N 
ATOM     56  N   UNL A   1      45.920  28.881  27.755  1.00  0.00    -0.248 NA
ATOM     57  C   UNL A   1      48.116  29.466  27.225  1.00  0.00     0.031 C 
ATOM     58  C   UNL A   1      42.934  31.678  29.475  1.00  0.00     0.029 A 
ATOM     59  C   UNL A   1      43.882  30.830  28.927  1.00  0.00     0.049 A 
ATOM     60  H   UNL A   1      43.671  28.822  28.311  1.00  0.00     0.167 HD
ATOM     61  C   UNL A   1      46.133  30.209  28.099  1.00  0.00     0.074 A 
ATOM     62  C   UNL A   1      47.514  30.505  27.784  1.00  0.00     0.031 C 
ATOM     63  C   UNL A   1      45.263  31.104  28.627  1.00  0.00     0.037 A 
BRANCH  50  64
ATOM     64  C   UNL A   1      39.542  28.919  29.377  1.00  0.00     0.064 A 
ATOM     65  C   UNL A   1      39.096  28.754  30.697  1.00  0.00     0.173 A 
ATOM     66  C   UNL A   1      38.636  29.434  28.437  1.00  0.00     0.173 A 
ATOM     67  F   UNL A   1      39.919  28.256  31.632  1.00  0.00    -0.203 F 
ATOM     68  C   UNL A   1      37.789  29.075  31.056  1.00  0.00     0.198 A 
ATOM     69  C   UNL A   1      37.340  29.781  28.807  1.00  0.00     0.198 A 
ATOM     70  F   UNL A   1      39.014  29.618  27.164  1.00  0.00    -0.203 F 
ATOM     71  F   UNL A   1      37.373  28.873  32.314  1.00  0.00    -0.200 F 
ATOM     72  C   UNL A   1      36.916  29.597  30.114  1.00  0.00     0.200 A 
ATOM     73  F   UNL A   1      36.501  30.299  27.898  1.00  0.00    -0.200 F 
ATOM     74  F   UNL A   1      35.663  29.921  30.465  1.00  0.00    -0.200 F 
ENDBRANCH  50  64
BRANCH  51  75
ATOM     75  C   UNL A   1      48.800  26.781  26.300  1.00  0.00     0.064 A 
ATOM     76  C   UNL A   1      49.155  27.011  24.964  1.00  0.00     0.173 A 
ATOM     77  C   UNL A   1      49.775  26.238  27.149  1.00  0.00     0.173 A 
ATOM     78  F   UNL A   1      48.252  27.509  24.107  1.00  0.00    -0.203 F 
ATOM     79  C   UNL A   1      50.422  26.679  24.487  1.00  0.00     0.198 A 
ATOM     80  C   UNL A   1      51.051  25.935  26.680  1.00  0.00     0.198 A 
ATOM     81  F   UNL A   1      49.487  26.001  28.438  1.00  0.00    -0.203 F 
ATOM     82  F   UNL A   1      50.715  26.853  23.191  1.00  0.00    -0.200 F 
ATOM     83  C   UNL A   1      51.370  26.144  25.346  1.00  0.00     0.200 A 
ATOM     84  F   UNL A   1      51.968  25.431  27.516  1.00  0.00    -0.200 F 
ATOM     85  F   UNL A   1      52.586  25.820  24.886  1.00  0.00    -0.200 F 
ENDBRANCH  51  75
BRANCH  63  86
ATOM     86  C   UNL A   1      45.789  32.473  28.946  1.00  0.00     0.064 A 
ATOM     87  C   UNL A   1      46.352  32.776  30.194  1.00  0.00     0.173 A 
ATOM     88  C   UNL A   1      45.764  33.484  27.973  1.00  0.00     0.173 A 
ATOM     89  F   UNL A   1      46.384  31.847  31.163  1.00  0.00    -0.203 F 
ATOM     90  C   UNL A   1      46.845  34.049  30.466  1.00  0.00     0.198 A 
ATOM     91  C   UNL A   1      46.289  34.746  28.238  1.00  0.00     0.198 A 
ATOM     92  F   UNL A   1      45.244  33.244  26.760  1.00  0.00    -0.203 F 
ATOM     93  F   UNL A   1      47.332  34.330  31.683  1.00  0.00    -0.200 F 
ATOM     94  C   UNL A   1      46.821  35.029  29.486  1.00  0.00     0.200 A 
ATOM     95  F   UNL A   1      46.279  35.687  27.284  1.00  0.00    -0.200 F 
ATOM     96  F   UNL A   1      47.305  36.252  29.749  1.00  0.00    -0.200 F 
ENDBRANCH  63  86
ENDBRANCH  37  38
ENDBRANCH  29  32
ENDBRANCH  27  28
ENDBRANCH  26  27
ENDBRANCH  25  26
ENDBRANCH   1  25
TORSDOF 18
ENDMDL
MODEL 2
REMARK VINA RESULT:     -11.0      0.735      7.229
REMARK SMILES CCN(Cc1ccccn1)C(=O)NC(CC)(CC)C(=O)NCCCCNC(=O)c1ccc(-c2c3nc(c(-c4c(F)c(F)c(F)c(F)c4F)c4ccc([nH]4)c(-c4c(F)c(F)c(F)c(F)c4F)c4nc(c(-c5c(F)c(F)c(F)c(F)c5F)c5ccc2[nH]5)C=C4)C=C3)cc1
REMARK SMILES IDX 22 1 21 2 19 3 20 4 14 6 13 7 11 8 12 9 3 11 2 12 1 13 4 14
REMARK SMILES IDX 5 15 6 16 10 17 7 18 9 19 8 20 15 21 16 22 17 23 18 24 23 25
REMARK SMILES IDX 24 26 25 27 26 28 27 29 28 31 29 32 30 33 91 34 31 35 90 36
REMARK SMILES IDX 32 37 33 38 34 39 84 40 35 41 89 42 83 43 85 44 36 45 88 46
REMARK SMILES IDX 82 47 81 48 37 50 69 51 49 52 68 53 50 54 53 55 67 56 86 57
REMARK SMILES IDX 51 58 52 59 66 61 87 62 54 63 38 64 39 65 47 66 40 67 41 68
REMARK SMILES IDX 45 69 48 70 42 71 43 72 46 73 44 74 70 75 71 76 79 77 72 78
REMARK SMILES IDX 73 79 77 80 80 81 74 82 75 83 78 84 76 85 55 86 56 87 64 88
REMARK SMILES IDX 57 89 58 90 62 91 65 92 59 93 60 94 63 95 61 96
REMARK H PARENT 21 5 13 10 26 30 85 49 53 60
REMARK Flexibility Score: inf
ROOT
ATOM      1  C   UNL A   1      36.413  21.619  25.660  1.00  0.00     0.116 C 
ENDROOT
BRANCH   1   2
ATOM      2  N   UNL A   1      35.449  21.548  26.732  1.00  0.00    -0.354 N 
ATOM      3  C   UNL A   1      34.338  22.280  26.987  1.00  0.00     0.245 C 
ATOM      4  O   UNL A   1      34.100  22.459  28.189  1.00  0.00    -0.272 OA
ATOM      5  H   UNL A   1      35.630  20.844  27.396  1.00  0.00     0.163 HD
BRANCH   3   6
ATOM      6  C   UNL A   1      33.476  22.928  25.873  1.00  0.00     0.120 C 
BRANCH   6   7
ATOM      7  N   UNL A   1      32.092  23.135  26.385  1.00  0.00    -0.323 N 
ATOM      8  C   UNL A   1      31.051  23.970  26.259  1.00  0.00     0.318 C 
ATOM      9  O   UNL A   1      30.192  23.812  27.140  1.00  0.00    -0.249 OA
ATOM     10  H   UNL A   1      31.867  22.424  27.028  1.00  0.00     0.166 HD
BRANCH   8  11
ATOM     11  N   UNL A   1      30.812  24.820  25.219  1.00  0.00    -0.319 N 
BRANCH  11  12
ATOM     12  C   UNL A   1      30.793  24.174  23.897  1.00  0.00     0.118 C 
ATOM     13  C   UNL A   1      31.173  25.120  22.758  1.00  0.00     0.027 C 
ENDBRANCH  11  12
BRANCH  11  14
ATOM     14  C   UNL A   1      30.595  26.279  25.188  1.00  0.00     0.177 C 
BRANCH  14  15
ATOM     15  C   UNL A   1      31.716  27.161  25.685  1.00  0.00     0.060 A 
ATOM     16  C   UNL A   1      31.718  27.638  26.994  1.00  0.00     0.026 A 
ATOM     17  N   UNL A   1      32.671  27.518  24.782  1.00  0.00    -0.259 NA
ATOM     18  C   UNL A   1      32.762  28.461  27.407  1.00  0.00     0.004 A 
ATOM     19  C   UNL A   1      33.669  28.319  25.213  1.00  0.00     0.111 A 
ATOM     20  C   UNL A   1      33.763  28.803  26.505  1.00  0.00     0.020 A 
ENDBRANCH  14  15
ENDBRANCH  11  14
ENDBRANCH   8  11
ENDBRANCH   6   7
BRANCH   6  21
ATOM     21  C   UNL A   1      33.349  22.143  24.537  1.00  0.00     0.035 C 
ATOM     22  C   UNL A   1      32.559  20.834  24.598  1.00  0.00     0.007 C 
ENDBRANCH   6  21
BRANCH   6  23
ATOM     23  C   UNL A   1      34.111  24.337  25.608  1.00  0.00     0.035 C 
ATOM     24  C   UNL A   1      34.712  24.550  24.220  1.00  0.00     0.007 C 
ENDBRANCH   6  23
ENDBRANCH   3   6
ENDBRANCH   1   2
BRANCH   1  25
ATOM     25  C   UNL A   1      36.529  20.251  24.985  1.00  0.00     0.023 C 
BRANCH  25  26
ATOM     26  C   UNL A   1      37.970  19.786  24.732  1.00  0.00     0.023 C 
BRANCH  26  27
ATOM     27  C   UNL A   1      38.982  20.264  25.767  1.00  0.00     0.116 C 
BRANCH  27  28
ATOM     28  N   UNL A   1      40.051  19.294  25.955  1.00  0.00    -0.352 N 
ATOM     29  C   UNL A   1      41.389  19.508  26.154  1.00  0.00     0.251 C 
ATOM     30  H   UNL A   1      39.772  18.350  25.938  1.00  0.00     0.163 HD
ATOM     31  O   UNL A   1      42.187  18.579  26.041  1.00  0.00    -0.269 OA
BRANCH  29  32
ATOM     32  C   UNL A   1      41.877  20.858  26.495  1.00  0.00     0.039 A 
ATOM     33  C   UNL A   1      42.159  21.759  25.466  1.00  0.00     0.014 A 
ATOM     34  C   UNL A   1      42.072  21.229  27.830  1.00  0.00     0.014 A 
ATOM     35  C   UNL A   1      42.583  23.053  25.777  1.00  0.00     0.010 A 
ATOM     36  C   UNL A   1      42.428  22.539  28.139  1.00  0.00     0.010 A 
ATOM     37  C   UNL A   1      42.691  23.462  27.117  1.00  0.00    -0.014 A 
BRANCH  37  38
ATOM     38  C   UNL A   1      43.077  24.852  27.466  1.00  0.00     0.031 A 
ATOM     39  C   UNL A   1      44.527  25.252  27.489  1.00  0.00     0.074 A 
ATOM     40  C   UNL A   1      42.126  25.736  27.826  1.00  0.00     0.049 A 
ATOM     41  N   UNL A   1      45.066  26.395  27.832  1.00  0.00    -0.248 NA
ATOM     42  C   UNL A   1      45.504  24.224  27.096  1.00  0.00     0.031 C 
ATOM     43  C   UNL A   1      40.691  25.456  27.887  1.00  0.00     0.029 A 
ATOM     44  N   UNL A   1      42.224  27.048  28.221  1.00  0.00    -0.354 N 
ATOM     45  C   UNL A   1      46.438  26.216  27.717  1.00  0.00     0.074 A 
ATOM     46  C   UNL A   1      46.655  24.844  27.313  1.00  0.00     0.031 C 
ATOM     47  C   UNL A   1      40.041  26.567  28.270  1.00  0.00     0.029 A 
ATOM     48  C   UNL A   1      41.015  27.624  28.524  1.00  0.00     0.049 A 
ATOM     49  H   UNL A   1      43.081  27.529  28.280  1.00  0.00     0.167 HD
ATOM     50  C   UNL A   1      47.426  27.122  27.913  1.00  0.00     0.037 A 
ATOM     51  C   UNL A   1      40.727  28.864  28.965  1.00  0.00     0.037 A 
ATOM     52  C   UNL A   1      47.204  28.497  28.278  1.00  0.00     0.049 A 
ATOM     53  C   UNL A   1      41.848  29.845  29.179  1.00  0.00     0.074 A 
ATOM     54  C   UNL A   1      48.134  29.511  28.420  1.00  0.00     0.029 A 
ATOM     55  N   UNL A   1      45.964  29.048  28.562  1.00  0.00    -0.354 N 
ATOM     56  N   UNL A   1      43.136  29.689  28.985  1.00  0.00    -0.248 NA
ATOM     57  C   UNL A   1      41.475  31.179  29.669  1.00  0.00     0.031 C 
ATOM     58  C   UNL A   1      47.464  30.663  28.842  1.00  0.00     0.029 A 
ATOM     59  C   UNL A   1      46.109  30.382  28.908  1.00  0.00     0.049 A 
ATOM     60  H   UNL A   1      45.108  28.563  28.524  1.00  0.00     0.167 HD
ATOM     61  C   UNL A   1      43.719  30.911  29.293  1.00  0.00     0.074 A 
ATOM     62  C   UNL A   1      42.644  31.802  29.673  1.00  0.00     0.031 C 
ATOM     63  C   UNL A   1      45.027  31.262  29.264  1.00  0.00     0.037 A 
BRANCH  50  64
ATOM     64  C   UNL A   1      48.845  26.664  27.734  1.00  0.00     0.064 A 
ATOM     65  C   UNL A   1      49.645  26.302  28.827  1.00  0.00     0.173 A 
ATOM     66  C   UNL A   1      49.386  26.519  26.447  1.00  0.00     0.173 A 
ATOM     67  F   UNL A   1      49.179  26.431  30.079  1.00  0.00    -0.203 F 
ATOM     68  C   UNL A   1      50.942  25.829  28.640  1.00  0.00     0.198 A 
ATOM     69  C   UNL A   1      50.672  26.019  26.263  1.00  0.00     0.198 A 
ATOM     70  F   UNL A   1      48.660  26.845  25.368  1.00  0.00    -0.203 F 
ATOM     71  F   UNL A   1      51.703  25.525  29.701  1.00  0.00    -0.200 F 
ATOM     72  C   UNL A   1      51.450  25.679  27.359  1.00  0.00     0.200 A 
ATOM     73  F   UNL A   1      51.157  25.860  25.023  1.00  0.00    -0.200 F 
ATOM     74  F   UNL A   1      52.693  25.208  27.180  1.00  0.00    -0.200 F 
ENDBRANCH  50  64
BRANCH  51  75
ATOM     75  C   UNL A   1      39.317  29.262  29.220  1.00  0.00     0.064 A 
ATOM     76  C   UNL A   1      38.778  29.203  30.513  1.00  0.00     0.173 A 
ATOM     77  C   UNL A   1      38.471  29.675  28.181  1.00  0.00     0.173 A 
ATOM     78  F   UNL A   1      39.539  28.794  31.538  1.00  0.00    -0.203 F 
ATOM     79  C   UNL A   1      37.439  29.509  30.751  1.00  0.00     0.198 A 
ATOM     80  C   UNL A   1      37.141  30.011  28.424  1.00  0.00     0.198 A 
ATOM     81  F   UNL A   1      38.938  29.753  26.926  1.00  0.00    -0.203 F 
ATOM     82  F   UNL A   1      36.934  29.383  31.986  1.00  0.00    -0.200 F 
ATOM     83  C   UNL A   1      36.622  29.915  29.707  1.00  0.00     0.200 A 
ATOM     84  F   UNL A   1      36.359  30.417  27.414  1.00  0.00    -0.200 F 
ATOM     85  F   UNL A   1      35.334  30.204  29.935  1.00  0.00    -0.200 F 
ENDBRANCH  51  75
BRANCH  63  86
ATOM     86  C   UNL A   1      45.367  32.685  29.605  1.00  0.00     0.064 A 
ATOM     87  C   UNL A   1      45.704  33.071  30.910  1.00  0.00     0.173 A 
ATOM     88  C   UNL A   1      45.392  33.665  28.602  1.00  0.00     0.173 A 
ATOM     89  F   UNL A   1      45.680  32.172  31.908  1.00  0.00    -0.203 F 
ATOM     90  C   UNL A   1      46.028  34.392  31.204  1.00  0.00     0.198 A 
ATOM     91  C   UNL A   1      45.748  34.979  28.894  1.00  0.00     0.198 A 
ATOM     92  F   UNL A   1      45.085  33.347  27.336  1.00  0.00    -0.203 F 
ATOM     93  F   UNL A   1      46.297  34.749  32.467  1.00  0.00    -0.200 F 
ATOM     94  C   UNL A   1      46.058  35.343  30.195  1.00  0.00     0.200 A 
ATOM     95  F   UNL A   1      45.792  35.893  27.914  1.00  0.00    -0.200 F 
ATOM     96  F   UNL A   1      46.378  36.613  30.479  1.00  0.00    -0.200 F 
ENDBRANCH  63  86
ENDBRANCH  37  38
ENDBRANCH  29  32
ENDBRANCH  27  28
ENDBRANCH  26  27
ENDBRANCH  25  26
ENDBRANCH   1  25
TORSDOF 18
ENDMDL
MODEL 3
REMARK VINA RESULT:     -10.6      1.094      2.126
REMARK SMILES CCN(Cc1ccccn1)C(=O)NC(CC)(CC)C(=O)NCCCCNC(=O)c1ccc(-c2c3nc(c(-c4c(F)c(F)c(F)c(F)c4F)c4ccc([nH]4)c(-c4c(F)c(F)c(F)c(F)c4F)c4nc(c(-c5c(F)c(F)c(F)c(F)c5F)c5ccc2[nH]5)C=C4)C=C3)cc1
REMARK SMILES IDX 22 1 21 2 19 3 20 4 14 6 13 7 11 8 12 9 3 11 2 12 1 13 4 14
REMARK SMILES IDX 5 15 6 16 10 17 7 18 9 19 8 20 15 21 16 22 17 23 18 24 23 25
REMARK SMILES IDX 24 26 25 27 26 28 27 29 28 31 29 32 30 33 91 34 31 35 90 36
REMARK SMILES IDX 32 37 33 38 34 39 84 40 35 41 89 42 83 43 85 44 36 45 88 46
REMARK SMILES IDX 82 47 81 48 37 50 69 51 49 52 68 53 50 54 53 55 67 56 86 57
REMARK SMILES IDX 51 58 52 59 66 61 87 62 54 63 38 64 39 65 47 66 40 67 41 68
REMARK SMILES IDX 45 69 48 70 42 71 43 72 46 73 44 74 70 75 71 76 79 77 72 78
REMARK SMILES IDX 73 79 77 80 80 81 74 82 75 83 78 84 76 85 55 86 56 87 64 88
REMARK SMILES IDX 57 89 58 90 62 91 65 92 59 93 60 94 63 95 61 96
REMARK H PARENT 21 5 13 10 26 30 85 49 53 60
REMARK Flexibility Score: inf
ROOT
ATOM      1  C   UNL A   1      36.952  21.855  25.442  1.00  0.00     0.116 C 
ENDROOT
BRANCH   1   2
ATOM      2  N   UNL A   1      36.415  22.749  24.443  1.00  0.00    -0.354 N 
ATOM      3  C   UNL A   1      35.156  22.915  23.974  1.00  0.00     0.245 C 
ATOM      4  O   UNL A   1      35.086  23.218  22.775  1.00  0.00    -0.272 OA
ATOM      5  H   UNL A   1      37.083  23.345  24.030  1.00  0.00     0.163 HD
BRANCH   3   6
ATOM      6  C   UNL A   1      33.891  22.657  24.832  1.00  0.00     0.120 C 
BRANCH   6   7
ATOM      7  N   UNL A   1      32.721  23.319  24.189  1.00  0.00    -0.323 N 
ATOM      8  C   UNL A   1      32.228  24.538  23.931  1.00  0.00     0.318 C 
ATOM      9  O   UNL A   1      31.043  24.517  23.567  1.00  0.00    -0.249 OA
ATOM     10  H   UNL A   1      32.107  22.635  23.836  1.00  0.00     0.166 HD
BRANCH   8  11
ATOM     11  N   UNL A   1      32.929  25.708  23.898  1.00  0.00    -0.319 N 
BRANCH  11  12
ATOM     12  C   UNL A   1      32.749  26.491  22.665  1.00  0.00     0.118 C 
ATOM     13  C   UNL A   1      31.632  27.529  22.766  1.00  0.00     0.027 C 
ENDBRANCH  11  12
BRANCH  11  14
ATOM     14  C   UNL A   1      33.857  26.312  24.873  1.00  0.00     0.177 C 
BRANCH  14  15
ATOM     15  C   UNL A   1      33.333  27.439  25.729  1.00  0.00     0.060 A 
ATOM     16  C   UNL A   1      32.254  27.238  26.588  1.00  0.00     0.026 A 
ATOM     17  N   UNL A   1      33.912  28.661  25.570  1.00  0.00    -0.259 NA
ATOM     18  C   UNL A   1      31.791  28.307  27.349  1.00  0.00     0.004 A 
ATOM     19  C   UNL A   1      33.440  29.679  26.321  1.00  0.00     0.111 A 
ATOM     20  C   UNL A   1      32.399  29.551  27.223  1.00  0.00     0.020 A 
ENDBRANCH  14  15
ENDBRANCH  11  14
ENDBRANCH   8  11
ENDBRANCH   6   7
BRANCH   6  21
ATOM     21  C   UNL A   1      33.930  23.148  26.307  1.00  0.00     0.035 C 
ATOM     22  C   UNL A   1      33.869  22.059  27.380  1.00  0.00     0.007 C 
ENDBRANCH   6  21
BRANCH   6  23
ATOM     23  C   UNL A   1      33.655  21.108  24.789  1.00  0.00     0.035 C 
ATOM     24  C   UNL A   1      32.562  20.623  23.838  1.00  0.00     0.007 C 
ENDBRANCH   6  23
ENDBRANCH   3   6
ENDBRANCH   1   2
BRANCH   1  25
ATOM     25  C   UNL A   1      36.742  20.407  24.997  1.00  0.00     0.023 C 
BRANCH  25  26
ATOM     26  C   UNL A   1      38.030  19.575  24.911  1.00  0.00     0.023 C 
BRANCH  26  27
ATOM     27  C   UNL A   1      39.179  20.094  25.768  1.00  0.00     0.116 C 
BRANCH  27  28
ATOM     28  N   UNL A   1      40.203  19.077  25.958  1.00  0.00    -0.352 N 
ATOM     29  C   UNL A   1      41.554  19.231  26.127  1.00  0.00     0.251 C 
ATOM     30  H   UNL A   1      39.879  18.148  25.966  1.00  0.00     0.163 HD
ATOM     31  O   UNL A   1      42.304  18.261  26.021  1.00  0.00    -0.269 OA
BRANCH  29  32
ATOM     32  C   UNL A   1      42.112  20.562  26.430  1.00  0.00     0.039 A 
ATOM     33  C   UNL A   1      42.576  21.359  25.381  1.00  0.00     0.014 A 
ATOM     34  C   UNL A   1      42.192  21.017  27.750  1.00  0.00     0.014 A 
ATOM     35  C   UNL A   1      43.071  22.637  25.651  1.00  0.00     0.010 A 
ATOM     36  C   UNL A   1      42.620  22.317  28.010  1.00  0.00     0.010 A 
ATOM     37  C   UNL A   1      43.068  23.138  26.964  1.00  0.00    -0.014 A 
BRANCH  37  38
ATOM     38  C   UNL A   1      43.527  24.518  27.261  1.00  0.00     0.031 A 
ATOM     39  C   UNL A   1      42.563  25.536  27.804  1.00  0.00     0.074 A 
ATOM     40  C   UNL A   1      44.797  24.870  26.981  1.00  0.00     0.049 A 
ATOM     41  N   UNL A   1      42.757  26.805  28.063  1.00  0.00    -0.248 NA
ATOM     42  C   UNL A   1      41.190  25.074  28.069  1.00  0.00     0.031 C 
ATOM     43  C   UNL A   1      45.814  23.986  26.411  1.00  0.00     0.029 A 
ATOM     44  N   UNL A   1      45.447  26.072  27.127  1.00  0.00    -0.354 N 
ATOM     45  C   UNL A   1      41.532  27.293  28.499  1.00  0.00     0.074 A 
ATOM     46  C   UNL A   1      40.589  26.198  28.431  1.00  0.00     0.031 C 
ATOM     47  C   UNL A   1      46.965  24.666  26.279  1.00  0.00     0.029 A 
ATOM     48  C   UNL A   1      46.756  26.044  26.713  1.00  0.00     0.049 A 
ATOM     49  H   UNL A   1      45.015  26.876  27.494  1.00  0.00     0.167 HD
ATOM     50  C   UNL A   1      41.228  28.539  28.934  1.00  0.00     0.037 A 
ATOM     51  C   UNL A   1      47.681  27.022  26.680  1.00  0.00     0.037 A 
ATOM     52  C   UNL A   1      42.178  29.616  29.035  1.00  0.00     0.049 A 
ATOM     53  C   UNL A   1      47.309  28.399  27.165  1.00  0.00     0.074 A 
ATOM     54  C   UNL A   1      41.984  30.891  29.540  1.00  0.00     0.029 A 
ATOM     55  N   UNL A   1      43.499  29.546  28.620  1.00  0.00    -0.354 N 
ATOM     56  N   UNL A   1      46.170  28.826  27.654  1.00  0.00    -0.248 NA
ATOM     57  C   UNL A   1      48.355  29.429  27.097  1.00  0.00     0.031 C 
ATOM     58  C   UNL A   1      43.174  31.607  29.382  1.00  0.00     0.029 A 
ATOM     59  C   UNL A   1      44.125  30.764  28.831  1.00  0.00     0.049 A 
ATOM     60  H   UNL A   1      43.928  28.749  28.233  1.00  0.00     0.167 HD
ATOM     61  C   UNL A   1      46.374  30.159  27.985  1.00  0.00     0.074 A 
ATOM     62  C   UNL A   1      47.749  30.466  27.655  1.00  0.00     0.031 C 
ATOM     63  C   UNL A   1      45.500  31.049  28.515  1.00  0.00     0.037 A 
BRANCH  50  64
ATOM     64  C   UNL A   1      39.809  28.815  29.340  1.00  0.00     0.064 A 
ATOM     65  C   UNL A   1      38.858  29.286  28.423  1.00  0.00     0.173 A 
ATOM     66  C   UNL A   1      39.379  28.536  30.647  1.00  0.00     0.173 A 
ATOM     67  F   UNL A   1      39.219  29.578  27.164  1.00  0.00    -0.203 F 
ATOM     68  C   UNL A   1      37.534  29.487  28.804  1.00  0.00     0.198 A 
ATOM     69  C   UNL A   1      38.048  28.710  31.016  1.00  0.00     0.198 A 
ATOM     70  F   UNL A   1      40.246  28.077  31.561  1.00  0.00    -0.203 F 
ATOM     71  F   UNL A   1      36.650  29.974  27.921  1.00  0.00    -0.200 F 
ATOM     72  C   UNL A   1      37.128  29.189  30.096  1.00  0.00     0.200 A 
ATOM     73  F   UNL A   1      37.654  28.408  32.261  1.00  0.00    -0.200 F 
ATOM     74  F   UNL A   1      35.849  29.367  30.457  1.00  0.00    -0.200 F 
ENDBRANCH  50  64
BRANCH  51  75
ATOM     75  C   UNL A   1      49.056  26.743  26.187  1.00  0.00     0.064 A 
ATOM     76  C   UNL A   1      49.416  27.034  24.863  1.00  0.00     0.173 A 
ATOM     77  C   UNL A   1      50.023  26.150  27.009  1.00  0.00     0.173 A 
ATOM     78  F   UNL A   1      48.519  27.581  24.030  1.00  0.00    -0.203 F 
ATOM     79  C   UNL A   1      50.680  26.712  24.373  1.00  0.00     0.198 A 
ATOM     80  C   UNL A   1      51.297  25.857  26.528  1.00  0.00     0.198 A 
ATOM     81  F   UNL A   1      49.732  25.854  28.285  1.00  0.00    -0.203 F 
ATOM     82  F   UNL A   1      50.977  26.945  23.087  1.00  0.00    -0.200 F 
ATOM     83  C   UNL A   1      51.621  26.126  25.206  1.00  0.00     0.200 A 
ATOM     84  F   UNL A   1      52.209  25.304  27.340  1.00  0.00    -0.200 F 
ATOM     85  F   UNL A   1      52.835  25.813  24.733  1.00  0.00    -0.200 F 
ENDBRANCH  51  75
BRANCH  63  86
ATOM     86  C   UNL A   1      46.016  32.426  28.818  1.00  0.00     0.064 A 
ATOM     87  C   UNL A   1      45.931  33.468  27.884  1.00  0.00     0.173 A 
ATOM     88  C   UNL A   1      46.567  32.713  30.076  1.00  0.00     0.173 A 
ATOM     89  F   UNL A   1      45.427  33.239  26.661  1.00  0.00    -0.203 F 
ATOM     90  C   UNL A   1      46.405  34.741  28.188  1.00  0.00     0.198 A 
ATOM     91  C   UNL A   1      47.010  33.996  30.388  1.00  0.00     0.198 A 
ATOM     92  F   UNL A   1      46.664  31.754  31.008  1.00  0.00    -0.203 F 
ATOM     93  F   UNL A   1      46.361  35.709  27.262  1.00  0.00    -0.200 F 
ATOM     94  C   UNL A   1      46.936  35.006  29.442  1.00  0.00     0.200 A 
ATOM     95  F   UNL A   1      47.507  34.253  31.606  1.00  0.00    -0.200 F 
ATOM     96  F   UNL A   1      47.383  36.235  29.735  1.00  0.00    -0.200 F 
ENDBRANCH  63  86
ENDBRANCH  37  38
ENDBRANCH  29  32
ENDBRANCH  27  28
ENDBRANCH  26  27
ENDBRANCH  25  26
ENDBRANCH   1  25
TORSDOF 18
ENDMDL
