MODEL 1
REMARK VINA RESULT:     -13.4      0.000      0.000
REMARK SMILES O=C(NCCCCNC(=O)c1cc(F)c(F)cc1NS(=O)(=O)c1ccc2c(c1)CCC2)c1ccc(-c2c3nc(c(-c4c(F)c(F)c(F)c(F)c4F)c4ccc([nH]4)c(-c4c(F)c(F)c(F)c(F)c4F)c4nc(c(-c5c(F)c(F)c(F)c(F)c5F)c5ccc2[nH]5)C=C4)C=C3)cc1
REMARK SMILES IDX 6 1 5 2 4 3 3 4 1 5 2 6 32 8 33 9 94 10 34 11 93 12 35 13
REMARK SMILES IDX 36 14 37 15 87 16 38 17 92 18 86 19 88 20 39 21 91 22 85 23
REMARK SMILES IDX 84 24 40 26 72 27 52 28 71 29 53 30 56 31 70 32 89 33 54 34
REMARK SMILES IDX 55 35 69 37 90 38 57 39 41 40 42 41 50 42 43 43 44 44 48 45
REMARK SMILES IDX 51 46 45 47 46 48 49 49 47 50 73 51 74 52 82 53 75 54 76 55
REMARK SMILES IDX 80 56 83 57 77 58 78 59 81 60 79 61 58 62 59 63 67 64 60 65
REMARK SMILES IDX 61 66 65 67 68 68 62 69 63 70 66 71 64 72 7 73 8 74 9 75
REMARK SMILES IDX 10 77 11 78 12 79 18 80 13 81 17 82 14 83 15 84 16 85 19 86
REMARK SMILES IDX 20 88 21 89 22 90 23 91 24 92 28 93 25 94 27 95 26 96 29 97
REMARK SMILES IDX 31 98 30 99
REMARK H PARENT 3 7 88 25 56 36 8 76 19 87
REMARK Flexibility Score: inf
ROOT
ATOM      1  C   UNL A   1      31.117  31.214  25.733  1.00  0.00     0.023 C 
ENDROOT
BRANCH   1   2
ATOM      2  C   UNL A   1      31.346  31.987  27.029  1.00  0.00     0.023 C 
BRANCH   2   3
ATOM      3  C   UNL A   1      32.597  32.855  27.049  1.00  0.00     0.116 C 
BRANCH   3   4
ATOM      4  N   UNL A   1      32.350  34.203  27.539  1.00  0.00    -0.352 N 
ATOM      5  O   UNL A   1      32.528  35.965  28.938  1.00  0.00    -0.269 OA
ATOM      6  C   UNL A   1      32.955  34.875  28.575  1.00  0.00     0.251 C 
ATOM      7  H   UNL A   1      31.651  34.704  27.062  1.00  0.00     0.163 HD
BRANCH   6   8
ATOM      8  C   UNL A   1      34.109  34.265  29.271  1.00  0.00     0.039 A 
ATOM      9  C   UNL A   1      35.413  34.537  28.854  1.00  0.00     0.014 A 
ATOM     10  C   UNL A   1      33.879  33.403  30.347  1.00  0.00     0.014 A 
ATOM     11  C   UNL A   1      36.474  33.830  29.407  1.00  0.00     0.010 A 
ATOM     12  C   UNL A   1      34.958  32.765  30.967  1.00  0.00     0.010 A 
ATOM     13  C   UNL A   1      36.262  32.952  30.483  1.00  0.00    -0.014 A 
BRANCH  13  14
ATOM     14  C   UNL A   1      37.429  32.301  31.131  1.00  0.00     0.031 A 
ATOM     15  C   UNL A   1      37.877  32.693  32.511  1.00  0.00     0.074 A 
ATOM     16  C   UNL A   1      38.064  31.316  30.465  1.00  0.00     0.049 A 
ATOM     17  N   UNL A   1      38.876  32.222  33.216  1.00  0.00    -0.248 NA
ATOM     18  C   UNL A   1      37.109  33.748  33.192  1.00  0.00     0.031 C 
ATOM     19  C   UNL A   1      37.710  30.846  29.125  1.00  0.00     0.029 A 
ATOM     20  N   UNL A   1      39.119  30.518  30.827  1.00  0.00    -0.354 N 
ATOM     21  C   UNL A   1      38.861  32.923  34.415  1.00  0.00     0.074 A 
ATOM     22  C   UNL A   1      37.774  33.876  34.333  1.00  0.00     0.031 C 
ATOM     23  C   UNL A   1      38.491  29.807  28.800  1.00  0.00     0.029 A 
ATOM     24  C   UNL A   1      39.451  29.586  29.874  1.00  0.00     0.049 A 
ATOM     25  H   UNL A   1      39.592  30.605  31.685  1.00  0.00     0.167 HD
ATOM     26  C   UNL A   1      39.673  32.769  35.487  1.00  0.00     0.037 A 
ATOM     27  C   UNL A   1      40.433  28.666  29.856  1.00  0.00     0.037 A 
ATOM     28  C   UNL A   1      40.747  31.810  35.563  1.00  0.00     0.049 A 
ATOM     29  C   UNL A   1      41.360  28.568  31.033  1.00  0.00     0.074 A 
ATOM     30  C   UNL A   1      41.622  31.578  36.609  1.00  0.00     0.029 A 
ATOM     31  N   UNL A   1      41.091  30.923  34.552  1.00  0.00    -0.354 N 
ATOM     32  N   UNL A   1      41.331  29.232  32.162  1.00  0.00    -0.248 NA
ATOM     33  C   UNL A   1      42.460  27.601  30.931  1.00  0.00     0.031 C 
ATOM     34  C   UNL A   1      42.525  30.588  36.215  1.00  0.00     0.029 A 
ATOM     35  C   UNL A   1      42.179  30.159  34.945  1.00  0.00     0.049 A 
ATOM     36  H   UNL A   1      40.631  30.848  33.685  1.00  0.00     0.167 HD
ATOM     37  C   UNL A   1      42.393  28.752  32.914  1.00  0.00     0.074 A 
ATOM     38  C   UNL A   1      43.035  27.724  32.120  1.00  0.00     0.031 C 
ATOM     39  C   UNL A   1      42.801  29.131  34.149  1.00  0.00     0.037 A 
BRANCH  26  40
ATOM     40  C   UNL A   1      39.443  33.647  36.685  1.00  0.00     0.064 A 
ATOM     41  C   UNL A   1      40.084  34.893  36.789  1.00  0.00     0.173 A 
ATOM     42  C   UNL A   1      38.679  33.211  37.776  1.00  0.00     0.173 A 
ATOM     43  F   UNL A   1      40.835  35.354  35.778  1.00  0.00    -0.203 F 
ATOM     44  C   UNL A   1      39.986  35.655  37.950  1.00  0.00     0.198 A 
ATOM     45  C   UNL A   1      38.560  33.988  38.925  1.00  0.00     0.198 A 
ATOM     46  F   UNL A   1      38.039  32.033  37.724  1.00  0.00    -0.203 F 
ATOM     47  F   UNL A   1      40.642  36.820  38.043  1.00  0.00    -0.200 F 
ATOM     48  C   UNL A   1      39.224  35.203  39.017  1.00  0.00     0.200 A 
ATOM     49  F   UNL A   1      37.808  33.560  39.949  1.00  0.00    -0.200 F 
ATOM     50  F   UNL A   1      39.130  35.938  40.134  1.00  0.00    -0.200 F 
ENDBRANCH  26  40
BRANCH  27  51
ATOM     51  C   UNL A   1      40.576  27.764  28.684  1.00  0.00     0.064 A 
ATOM     52  C   UNL A   1      41.368  28.116  27.580  1.00  0.00     0.173 A 
ATOM     53  C   UNL A   1      39.900  26.537  28.635  1.00  0.00     0.173 A 
ATOM     54  F   UNL A   1      42.033  29.281  27.574  1.00  0.00    -0.203 F 
ATOM     55  C   UNL A   1      41.456  27.288  26.463  1.00  0.00     0.198 A 
ATOM     56  C   UNL A   1      40.016  25.695  27.531  1.00  0.00     0.198 A 
ATOM     57  F   UNL A   1      39.145  26.147  29.673  1.00  0.00    -0.203 F 
ATOM     58  F   UNL A   1      42.184  27.671  25.405  1.00  0.00    -0.200 F 
ATOM     59  C   UNL A   1      40.786  26.076  26.442  1.00  0.00     0.200 A 
ATOM     60  F   UNL A   1      39.387  24.512  27.526  1.00  0.00    -0.200 F 
ATOM     61  F   UNL A   1      40.884  25.272  25.375  1.00  0.00    -0.200 F 
ENDBRANCH  27  51
BRANCH  39  62
ATOM     62  C   UNL A   1      43.983  28.419  34.738  1.00  0.00     0.064 A 
ATOM     63  C   UNL A   1      43.802  27.253  35.499  1.00  0.00     0.173 A 
ATOM     64  C   UNL A   1      45.284  28.925  34.609  1.00  0.00     0.173 A 
ATOM     65  F   UNL A   1      42.577  26.733  35.659  1.00  0.00    -0.203 F 
ATOM     66  C   UNL A   1      44.879  26.632  36.124  1.00  0.00     0.198 A 
ATOM     67  C   UNL A   1      46.363  28.283  35.209  1.00  0.00     0.198 A 
ATOM     68  F   UNL A   1      45.511  30.027  33.879  1.00  0.00    -0.203 F 
ATOM     69  F   UNL A   1      44.677  25.542  36.877  1.00  0.00    -0.200 F 
ATOM     70  C   UNL A   1      46.159  27.144  35.975  1.00  0.00     0.200 A 
ATOM     71  F   UNL A   1      47.604  28.764  35.042  1.00  0.00    -0.200 F 
ATOM     72  F   UNL A   1      47.197  26.538  36.566  1.00  0.00    -0.200 F 
ENDBRANCH  39  62
ENDBRANCH  13  14
ENDBRANCH   6   8
ENDBRANCH   3   4
ENDBRANCH   2   3
ENDBRANCH   1   2
BRANCH   1  73
ATOM     73  C   UNL A   1      31.650  29.784  25.736  1.00  0.00     0.116 C 
BRANCH  73  74
ATOM     74  N   UNL A   1      32.571  29.531  24.633  1.00  0.00    -0.352 N 
ATOM     75  C   UNL A   1      32.303  28.953  23.415  1.00  0.00     0.253 C 
ATOM     76  H   UNL A   1      33.503  29.810  24.780  1.00  0.00     0.163 HD
ATOM     77  O   UNL A   1      33.203  28.586  22.670  1.00  0.00    -0.269 OA
BRANCH  75  78
ATOM     78  C   UNL A   1      30.900  28.704  23.048  1.00  0.00     0.067 A 
ATOM     79  C   UNL A   1      30.212  29.724  22.370  1.00  0.00     0.058 A 
ATOM     80  C   UNL A   1      30.240  27.555  23.520  1.00  0.00     0.065 A 
ATOM     81  C   UNL A   1      28.833  29.654  22.271  1.00  0.00     0.159 A 
ATOM     82  C   UNL A   1      28.844  27.576  23.501  1.00  0.00     0.070 A 
ATOM     83  F   UNL A   1      28.162  30.654  21.684  1.00  0.00    -0.204 F 
ATOM     84  C   UNL A   1      28.151  28.602  22.858  1.00  0.00     0.160 A 
ATOM     85  F   UNL A   1      26.811  28.573  22.840  1.00  0.00    -0.204 F 
BRANCH  80  86
ATOM     86  N   UNL A   1      30.947  26.470  24.179  1.00  0.00    -0.279 N 
ATOM     87  H   UNL A   1      31.046  26.469  25.158  1.00  0.00     0.180 HD
BRANCH  86  88
ATOM     88  S   UNL A   1      31.610  25.185  23.240  1.00  0.00     0.261 S 
ATOM     89  O   UNL A   1      30.810  24.008  23.510  1.00  0.00    -0.201 OA
ATOM     90  O   UNL A   1      31.744  25.694  21.892  1.00  0.00    -0.201 OA
BRANCH  88  91
ATOM     91  C   UNL A   1      33.238  24.885  23.876  1.00  0.00     0.088 A 
ATOM     92  C   UNL A   1      33.569  25.303  25.179  1.00  0.00     0.022 A 
ATOM     93  C   UNL A   1      34.138  24.153  23.091  1.00  0.00     0.026 A 
ATOM     94  C   UNL A   1      34.779  24.899  25.752  1.00  0.00     0.005 A 
ATOM     95  C   UNL A   1      35.299  23.712  23.696  1.00  0.00    -0.043 A 
ATOM     96  C   UNL A   1      35.611  24.071  25.013  1.00  0.00    -0.045 A 
ATOM     97  C   UNL A   1      36.338  22.798  23.127  1.00  0.00     0.036 C 
ATOM     98  C   UNL A   1      36.902  23.440  25.435  1.00  0.00     0.036 C 
ATOM     99  C   UNL A   1      37.018  22.301  24.410  1.00  0.00     0.010 C 
ENDBRANCH  88  91
ENDBRANCH  86  88
ENDBRANCH  80  86
ENDBRANCH  75  78
ENDBRANCH  73  74
ENDBRANCH   1  73
TORSDOF 14
ENDMDL
MODEL 2
REMARK VINA RESULT:     -13.4      5.665     11.064
REMARK SMILES O=C(NCCCCNC(=O)c1cc(F)c(F)cc1NS(=O)(=O)c1ccc2c(c1)CCC2)c1ccc(-c2c3nc(c(-c4c(F)c(F)c(F)c(F)c4F)c4ccc([nH]4)c(-c4c(F)c(F)c(F)c(F)c4F)c4nc(c(-c5c(F)c(F)c(F)c(F)c5F)c5ccc2[nH]5)C=C4)C=C3)cc1
REMARK SMILES IDX 6 1 5 2 4 3 3 4 1 5 2 6 32 8 33 9 94 10 34 11 93 12 35 13
REMARK SMILES IDX 36 14 37 15 87 16 38 17 92 18 86 19 88 20 39 21 91 22 85 23
REMARK SMILES IDX 84 24 40 26 72 27 52 28 71 29 53 30 56 31 70 32 89 33 54 34
REMARK SMILES IDX 55 35 69 37 90 38 57 39 41 40 42 41 50 42 43 43 44 44 48 45
REMARK SMILES IDX 51 46 45 47 46 48 49 49 47 50 73 51 74 52 82 53 75 54 76 55
REMARK SMILES IDX 80 56 83 57 77 58 78 59 81 60 79 61 58 62 59 63 67 64 60 65
REMARK SMILES IDX 61 66 65 67 68 68 62 69 63 70 66 71 64 72 7 73 8 74 9 75
REMARK SMILES IDX 10 77 11 78 12 79 18 80 13 81 17 82 14 83 15 84 16 85 19 86
REMARK SMILES IDX 20 88 21 89 22 90 23 91 24 92 28 93 25 94 27 95 26 96 29 97
REMARK SMILES IDX 31 98 30 99
REMARK H PARENT 3 7 88 25 56 36 8 76 19 87
REMARK Flexibility Score: inf
ROOT
ATOM      1  C   UNL A   1      37.568  21.083  25.004  1.00  0.00     0.023 C 
ENDROOT
BRANCH   1   2
ATOM      2  C   UNL A   1      38.590  19.951  24.959  1.00  0.00     0.023 C 
BRANCH   2   3
ATOM      3  C   UNL A   1      39.469  19.828  26.196  1.00  0.00     0.116 C 
BRANCH   3   4
ATOM      4  N   UNL A   1      40.604  18.936  26.003  1.00  0.00    -0.352 N 
ATOM      5  O   UNL A   1      42.764  18.370  25.674  1.00  0.00    -0.269 OA
ATOM      6  C   UNL A   1      41.946  19.231  25.983  1.00  0.00     0.251 C 
ATOM      7  H   UNL A   1      40.377  17.988  25.870  1.00  0.00     0.163 HD
BRANCH   6   8
ATOM      8  C   UNL A   1      42.402  20.600  26.307  1.00  0.00     0.039 A 
ATOM      9  C   UNL A   1      42.619  20.980  27.633  1.00  0.00     0.014 A 
ATOM     10  C   UNL A   1      42.606  21.515  25.271  1.00  0.00     0.014 A 
ATOM     11  C   UNL A   1      42.884  22.310  27.933  1.00  0.00     0.010 A 
ATOM     12  C   UNL A   1      42.968  22.832  25.570  1.00  0.00     0.010 A 
ATOM     13  C   UNL A   1      43.082  23.248  26.905  1.00  0.00    -0.014 A 
BRANCH  13  14
ATOM     14  C   UNL A   1      43.481  24.634  27.254  1.00  0.00     0.031 A 
ATOM     15  C   UNL A   1      44.879  25.131  27.011  1.00  0.00     0.074 A 
ATOM     16  C   UNL A   1      42.547  25.461  27.764  1.00  0.00     0.049 A 
ATOM     17  N   UNL A   1      45.386  26.313  27.259  1.00  0.00    -0.248 NA
ATOM     18  C   UNL A   1      45.833  24.184  26.413  1.00  0.00     0.031 C 
ATOM     19  C   UNL A   1      41.156  25.089  28.032  1.00  0.00     0.029 A 
ATOM     20  N   UNL A   1      42.611  26.782  28.126  1.00  0.00    -0.354 N 
ATOM     21  C   UNL A   1      46.713  26.251  26.856  1.00  0.00     0.074 A 
ATOM     22  C   UNL A   1      46.946  24.905  26.376  1.00  0.00     0.031 C 
ATOM     23  C   UNL A   1      40.485  26.168  28.459  1.00  0.00     0.029 A 
ATOM     24  C   UNL A   1      41.413  27.287  28.568  1.00  0.00     0.049 A 
ATOM     25  H   UNL A   1      43.436  27.316  28.072  1.00  0.00     0.167 HD
ATOM     26  C   UNL A   1      47.643  27.236  26.873  1.00  0.00     0.037 A 
ATOM     27  C   UNL A   1      41.097  28.511  29.031  1.00  0.00     0.037 A 
ATOM     28  C   UNL A   1      47.399  28.576  27.345  1.00  0.00     0.049 A 
ATOM     29  C   UNL A   1      42.169  29.560  29.101  1.00  0.00     0.074 A 
ATOM     30  C   UNL A   1      48.278  29.643  27.399  1.00  0.00     0.029 A 
ATOM     31  N   UNL A   1      46.187  29.033  27.843  1.00  0.00    -0.354 N 
ATOM     32  N   UNL A   1      43.418  29.490  28.711  1.00  0.00    -0.248 NA
ATOM     33  C   UNL A   1      41.792  30.854  29.684  1.00  0.00     0.031 C 
ATOM     34  C   UNL A   1      47.614  30.730  27.974  1.00  0.00     0.029 A 
ATOM     35  C   UNL A   1      46.304  30.360  28.225  1.00  0.00     0.049 A 
ATOM     36  H   UNL A   1      45.365  28.494  27.915  1.00  0.00     0.167 HD
ATOM     37  C   UNL A   1      43.971  30.734  28.981  1.00  0.00     0.074 A 
ATOM     38  C   UNL A   1      42.915  31.546  29.550  1.00  0.00     0.031 C 
ATOM     39  C   UNL A   1      45.241  31.160  28.779  1.00  0.00     0.037 A 
BRANCH  26  40
ATOM     40  C   UNL A   1      49.022  26.921  26.364  1.00  0.00     0.064 A 
ATOM     41  C   UNL A   1      49.336  27.092  25.006  1.00  0.00     0.173 A 
ATOM     42  C   UNL A   1      49.995  26.349  27.195  1.00  0.00     0.173 A 
ATOM     43  F   UNL A   1      48.438  27.627  24.165  1.00  0.00    -0.203 F 
ATOM     44  C   UNL A   1      50.566  26.680  24.497  1.00  0.00     0.198 A 
ATOM     45  C   UNL A   1      51.233  25.964  26.688  1.00  0.00     0.198 A 
ATOM     46  F   UNL A   1      49.748  26.173  28.502  1.00  0.00    -0.203 F 
ATOM     47  F   UNL A   1      50.827  26.813  23.189  1.00  0.00    -0.200 F 
ATOM     48  C   UNL A   1      51.513  26.117  25.338  1.00  0.00     0.200 A 
ATOM     49  F   UNL A   1      52.157  25.437  27.506  1.00  0.00    -0.200 F 
ATOM     50  F   UNL A   1      52.695  25.721  24.848  1.00  0.00    -0.200 F 
ENDBRANCH  26  40
BRANCH  27  51
ATOM     51  C   UNL A   1      39.703  28.802  29.452  1.00  0.00     0.064 A 
ATOM     52  C   UNL A   1      39.264  28.552  30.761  1.00  0.00     0.173 A 
ATOM     53  C   UNL A   1      38.770  29.316  28.540  1.00  0.00     0.173 A 
ATOM     54  F   UNL A   1      40.115  28.056  31.671  1.00  0.00    -0.203 F 
ATOM     55  C   UNL A   1      37.942  28.780  31.134  1.00  0.00     0.198 A 
ATOM     56  C   UNL A   1      37.456  29.575  28.924  1.00  0.00     0.198 A 
ATOM     57  F   UNL A   1      39.145  29.590  27.281  1.00  0.00    -0.203 F 
ATOM     58  F   UNL A   1      37.541  28.490  32.379  1.00  0.00    -0.200 F 
ATOM     59  C   UNL A   1      37.041  29.297  30.217  1.00  0.00     0.200 A 
ATOM     60  F   UNL A   1      36.595  30.100  28.042  1.00  0.00    -0.200 F 
ATOM     61  F   UNL A   1      35.773  29.533  30.581  1.00  0.00    -0.200 F 
ENDBRANCH  27  51
BRANCH  39  62
ATOM     62  C   UNL A   1      45.562  32.579  29.149  1.00  0.00     0.064 A 
ATOM     63  C   UNL A   1      46.018  32.889  30.440  1.00  0.00     0.173 A 
ATOM     64  C   UNL A   1      45.355  33.636  28.252  1.00  0.00     0.173 A 
ATOM     65  F   UNL A   1      46.226  31.914  31.337  1.00  0.00    -0.203 F 
ATOM     66  C   UNL A   1      46.237  34.209  30.824  1.00  0.00     0.198 A 
ATOM     67  C   UNL A   1      45.606  34.953  28.630  1.00  0.00     0.198 A 
ATOM     68  F   UNL A   1      44.935  33.390  27.003  1.00  0.00    -0.203 F 
ATOM     69  F   UNL A   1      46.635  34.484  32.073  1.00  0.00    -0.200 F 
ATOM     70  C   UNL A   1      46.035  35.239  29.918  1.00  0.00     0.200 A 
ATOM     71  F   UNL A   1      45.436  35.945  27.745  1.00  0.00    -0.200 F 
ATOM     72  F   UNL A   1      46.258  36.508  30.284  1.00  0.00    -0.200 F 
ENDBRANCH  39  62
ENDBRANCH  13  14
ENDBRANCH   6   8
ENDBRANCH   3   4
ENDBRANCH   2   3
ENDBRANCH   1   2
BRANCH   1  73
ATOM     73  C   UNL A   1      36.110  20.635  24.952  1.00  0.00     0.116 C 
BRANCH  73  74
ATOM     74  N   UNL A   1      35.337  21.118  26.091  1.00  0.00    -0.352 N 
ATOM     75  C   UNL A   1      33.974  21.102  26.264  1.00  0.00     0.253 C 
ATOM     76  H   UNL A   1      35.859  21.504  26.831  1.00  0.00     0.163 HD
ATOM     77  O   UNL A   1      33.435  21.745  27.156  1.00  0.00    -0.269 OA
BRANCH  75  78
ATOM     78  C   UNL A   1      33.151  20.356  25.300  1.00  0.00     0.067 A 
ATOM     79  C   UNL A   1      33.020  18.970  25.489  1.00  0.00     0.058 A 
ATOM     80  C   UNL A   1      32.668  20.992  24.142  1.00  0.00     0.065 A 
ATOM     81  C   UNL A   1      32.512  18.195  24.460  1.00  0.00     0.159 A 
ATOM     82  C   UNL A   1      32.269  20.168  23.088  1.00  0.00     0.070 A 
ATOM     83  F   UNL A   1      32.444  16.866  24.606  1.00  0.00    -0.204 F 
ATOM     84  C   UNL A   1      32.166  18.787  23.256  1.00  0.00     0.160 A 
ATOM     85  F   UNL A   1      31.756  18.033  22.227  1.00  0.00    -0.204 F 
BRANCH  80  86
ATOM     86  N   UNL A   1      32.753  22.430  23.955  1.00  0.00    -0.279 N 
ATOM     87  H   UNL A   1      33.533  22.824  23.504  1.00  0.00     0.180 HD
BRANCH  86  88
ATOM     88  S   UNL A   1      31.480  23.444  24.526  1.00  0.00     0.261 S 
ATOM     89  O   UNL A   1      30.797  23.963  23.359  1.00  0.00    -0.201 OA
ATOM     90  O   UNL A   1      30.763  22.676  25.520  1.00  0.00    -0.201 OA
BRANCH  88  91
ATOM     91  C   UNL A   1      32.256  24.812  25.346  1.00  0.00     0.088 A 
ATOM     92  C   UNL A   1      33.597  25.133  25.057  1.00  0.00     0.022 A 
ATOM     93  C   UNL A   1      31.482  25.603  26.204  1.00  0.00     0.026 A 
ATOM     94  C   UNL A   1      34.148  26.319  25.551  1.00  0.00     0.005 A 
ATOM     95  C   UNL A   1      32.025  26.800  26.630  1.00  0.00    -0.043 A 
ATOM     96  C   UNL A   1      33.337  27.160  26.299  1.00  0.00    -0.045 A 
ATOM     97  C   UNL A   1      31.354  27.881  27.420  1.00  0.00     0.036 C 
ATOM     98  C   UNL A   1      33.666  28.510  26.856  1.00  0.00     0.036 C 
ATOM     99  C   UNL A   1      32.258  29.078  27.094  1.00  0.00     0.010 C 
ENDBRANCH  88  91
ENDBRANCH  86  88
ENDBRANCH  80  86
ENDBRANCH  75  78
ENDBRANCH  73  74
ENDBRANCH   1  73
TORSDOF 14
ENDMDL
MODEL 3
REMARK VINA RESULT:     -13.3      0.468      2.014
REMARK SMILES O=C(NCCCCNC(=O)c1cc(F)c(F)cc1NS(=O)(=O)c1ccc2c(c1)CCC2)c1ccc(-c2c3nc(c(-c4c(F)c(F)c(F)c(F)c4F)c4ccc([nH]4)c(-c4c(F)c(F)c(F)c(F)c4F)c4nc(c(-c5c(F)c(F)c(F)c(F)c5F)c5ccc2[nH]5)C=C4)C=C3)cc1
REMARK SMILES IDX 6 1 5 2 4 3 3 4 1 5 2 6 32 8 33 9 94 10 34 11 93 12 35 13
REMARK SMILES IDX 36 14 37 15 87 16 38 17 92 18 86 19 88 20 39 21 91 22 85 23
REMARK SMILES IDX 84 24 40 26 72 27 52 28 71 29 53 30 56 31 70 32 89 33 54 34
REMARK SMILES IDX 55 35 69 37 90 38 57 39 41 40 42 41 50 42 43 43 44 44 48 45
REMARK SMILES IDX 51 46 45 47 46 48 49 49 47 50 73 51 74 52 82 53 75 54 76 55
REMARK SMILES IDX 80 56 83 57 77 58 78 59 81 60 79 61 58 62 59 63 67 64 60 65
REMARK SMILES IDX 61 66 65 67 68 68 62 69 63 70 66 71 64 72 7 73 8 74 9 75
REMARK SMILES IDX 10 77 11 78 12 79 18 80 13 81 17 82 14 83 15 84 16 85 19 86
REMARK SMILES IDX 20 88 21 89 22 90 23 91 24 92 28 93 25 94 27 95 26 96 29 97
REMARK SMILES IDX 31 98 30 99
REMARK H PARENT 3 7 88 25 56 36 8 76 19 87
REMARK Flexibility Score: inf
ROOT
ATOM      1  C   UNL A   1      32.197  30.547  26.780  1.00  0.00     0.023 C 
ENDROOT
BRANCH   1   2
ATOM      2  C   UNL A   1      31.738  31.947  27.178  1.00  0.00     0.023 C 
BRANCH   2   3
ATOM      3  C   UNL A   1      32.723  33.063  26.856  1.00  0.00     0.116 C 
BRANCH   3   4
ATOM      4  N   UNL A   1      32.462  34.287  27.599  1.00  0.00    -0.352 N 
ATOM      5  O   UNL A   1      32.639  35.756  29.304  1.00  0.00    -0.269 OA
ATOM      6  C   UNL A   1      33.078  34.765  28.731  1.00  0.00     0.251 C 
ATOM      7  H   UNL A   1      31.742  34.854  27.240  1.00  0.00     0.163 HD
BRANCH   6   8
ATOM      8  C   UNL A   1      34.260  34.061  29.276  1.00  0.00     0.039 A 
ATOM      9  C   UNL A   1      34.103  32.957  30.116  1.00  0.00     0.014 A 
ATOM     10  C   UNL A   1      35.539  34.519  28.948  1.00  0.00     0.014 A 
ATOM     11  C   UNL A   1      35.212  32.411  30.750  1.00  0.00     0.010 A 
ATOM     12  C   UNL A   1      36.661  33.905  29.513  1.00  0.00     0.010 A 
ATOM     13  C   UNL A   1      36.505  32.865  30.441  1.00  0.00    -0.014 A 
BRANCH  13  14
ATOM     14  C   UNL A   1      37.677  32.184  31.046  1.00  0.00     0.031 A 
ATOM     15  C   UNL A   1      38.132  32.500  32.443  1.00  0.00     0.074 A 
ATOM     16  C   UNL A   1      38.311  31.238  30.324  1.00  0.00     0.049 A 
ATOM     17  N   UNL A   1      39.136  31.994  33.116  1.00  0.00    -0.248 NA
ATOM     18  C   UNL A   1      37.366  33.515  33.185  1.00  0.00     0.031 C 
ATOM     19  C   UNL A   1      37.950  30.841  28.962  1.00  0.00     0.029 A 
ATOM     20  N   UNL A   1      39.370  30.425  30.635  1.00  0.00    -0.354 N 
ATOM     21  C   UNL A   1      39.127  32.628  34.351  1.00  0.00     0.074 A 
ATOM     22  C   UNL A   1      38.037  33.582  34.327  1.00  0.00     0.031 C 
ATOM     23  C   UNL A   1      38.732  29.823  28.576  1.00  0.00     0.029 A 
ATOM     24  C   UNL A   1      39.699  29.546  29.631  1.00  0.00     0.049 A 
ATOM     25  H   UNL A   1      39.848  30.465  31.495  1.00  0.00     0.167 HD
ATOM     26  C   UNL A   1      39.945  32.418  35.409  1.00  0.00     0.037 A 
ATOM     27  C   UNL A   1      40.683  28.631  29.557  1.00  0.00     0.037 A 
ATOM     28  C   UNL A   1      41.022  31.460  35.426  1.00  0.00     0.049 A 
ATOM     29  C   UNL A   1      41.616  28.472  30.722  1.00  0.00     0.074 A 
ATOM     30  C   UNL A   1      41.904  31.173  36.453  1.00  0.00     0.029 A 
ATOM     31  N   UNL A   1      41.362  30.630  34.366  1.00  0.00    -0.354 N 
ATOM     32  N   UNL A   1      41.593  29.073  31.886  1.00  0.00    -0.248 NA
ATOM     33  C   UNL A   1      42.718  27.515  30.561  1.00  0.00     0.031 C 
ATOM     34  C   UNL A   1      42.807  30.208  36.000  1.00  0.00     0.029 A 
ATOM     35  C   UNL A   1      42.454  29.849  34.710  1.00  0.00     0.049 A 
ATOM     36  H   UNL A   1      40.897  30.602  33.498  1.00  0.00     0.167 HD
ATOM     37  C   UNL A   1      42.660  28.555  32.604  1.00  0.00     0.074 A 
ATOM     38  C   UNL A   1      43.300  27.574  31.751  1.00  0.00     0.031 C 
ATOM     39  C   UNL A   1      43.074  28.867  33.856  1.00  0.00     0.037 A 
BRANCH  26  40
ATOM     40  C   UNL A   1      39.721  33.229  36.654  1.00  0.00     0.064 A 
ATOM     41  C   UNL A   1      38.743  32.848  37.587  1.00  0.00     0.173 A 
ATOM     42  C   UNL A   1      40.394  34.440  36.868  1.00  0.00     0.173 A 
ATOM     43  F   UNL A   1      38.063  31.703  37.425  1.00  0.00    -0.203 F 
ATOM     44  C   UNL A   1      38.434  33.660  38.676  1.00  0.00     0.198 A 
ATOM     45  C   UNL A   1      40.102  35.237  37.973  1.00  0.00     0.198 A 
ATOM     46  F   UNL A   1      41.344  34.845  36.012  1.00  0.00    -0.203 F 
ATOM     47  F   UNL A   1      37.467  33.296  39.529  1.00  0.00    -0.200 F 
ATOM     48  C   UNL A   1      39.114  34.853  38.868  1.00  0.00     0.200 A 
ATOM     49  F   UNL A   1      40.773  36.381  38.169  1.00  0.00    -0.200 F 
ATOM     50  F   UNL A   1      38.816  35.635  39.915  1.00  0.00    -0.200 F 
ENDBRANCH  26  40
BRANCH  27  51
ATOM     51  C   UNL A   1      40.821  27.796  28.336  1.00  0.00     0.064 A 
ATOM     52  C   UNL A   1      40.195  26.544  28.229  1.00  0.00     0.173 A 
ATOM     53  C   UNL A   1      41.608  28.224  27.258  1.00  0.00     0.173 A 
ATOM     54  F   UNL A   1      39.435  26.085  29.235  1.00  0.00    -0.203 F 
ATOM     55  C   UNL A   1      40.372  25.744  27.103  1.00  0.00     0.198 A 
ATOM     56  C   UNL A   1      41.757  27.437  26.119  1.00  0.00     0.198 A 
ATOM     57  F   UNL A   1      42.212  29.421  27.305  1.00  0.00    -0.203 F 
ATOM     58  F   UNL A   1      39.798  24.535  27.048  1.00  0.00    -0.200 F 
ATOM     59  C   UNL A   1      41.147  26.193  26.046  1.00  0.00     0.200 A 
ATOM     60  F   UNL A   1      42.485  27.887  25.088  1.00  0.00    -0.200 F 
ATOM     61  F   UNL A   1      41.303  25.431  24.955  1.00  0.00    -0.200 F 
ENDBRANCH  27  51
BRANCH  39  62
ATOM     62  C   UNL A   1      44.261  28.127  34.398  1.00  0.00     0.064 A 
ATOM     63  C   UNL A   1      45.558  28.627  34.204  1.00  0.00     0.173 A 
ATOM     64  C   UNL A   1      44.122  26.893  35.049  1.00  0.00     0.173 A 
ATOM     65  F   UNL A   1      45.745  29.800  33.581  1.00  0.00    -0.203 F 
ATOM     66  C   UNL A   1      46.673  27.908  34.625  1.00  0.00     0.198 A 
ATOM     67  C   UNL A   1      45.238  26.193  35.498  1.00  0.00     0.198 A 
ATOM     68  F   UNL A   1      42.903  26.381  35.273  1.00  0.00    -0.203 F 
ATOM     69  F   UNL A   1      47.903  28.387  34.394  1.00  0.00    -0.200 F 
ATOM     70  C   UNL A   1      46.513  26.694  35.275  1.00  0.00     0.200 A 
ATOM     71  F   UNL A   1      45.080  25.032  36.150  1.00  0.00    -0.200 F 
ATOM     72  F   UNL A   1      47.586  26.009  35.691  1.00  0.00    -0.200 F 
ENDBRANCH  39  62
ENDBRANCH  13  14
ENDBRANCH   6   8
ENDBRANCH   3   4
ENDBRANCH   2   3
ENDBRANCH   1   2
BRANCH   1  73
ATOM     73  C   UNL A   1      31.466  29.950  25.580  1.00  0.00     0.116 C 
BRANCH  73  74
ATOM     74  N   UNL A   1      32.373  29.604  24.491  1.00  0.00    -0.352 N 
ATOM     75  C   UNL A   1      32.089  28.930  23.327  1.00  0.00     0.253 C 
ATOM     76  H   UNL A   1      33.308  29.889  24.604  1.00  0.00     0.163 HD
ATOM     77  O   UNL A   1      32.978  28.500  22.604  1.00  0.00    -0.269 OA
BRANCH  75  78
ATOM     78  C   UNL A   1      30.681  28.659  22.997  1.00  0.00     0.067 A 
ATOM     79  C   UNL A   1      29.965  29.660  22.318  1.00  0.00     0.058 A 
ATOM     80  C   UNL A   1      30.045  27.512  23.504  1.00  0.00     0.065 A 
ATOM     81  C   UNL A   1      28.584  29.573  22.253  1.00  0.00     0.159 A 
ATOM     82  C   UNL A   1      28.649  27.516  23.517  1.00  0.00     0.070 A 
ATOM     83  F   UNL A   1      27.889  30.554  21.665  1.00  0.00    -0.204 F 
ATOM     84  C   UNL A   1      27.929  28.523  22.873  1.00  0.00     0.160 A 
ATOM     85  F   UNL A   1      26.589  28.478  22.887  1.00  0.00    -0.204 F 
BRANCH  80  86
ATOM     86  N   UNL A   1      30.779  26.446  24.165  1.00  0.00    -0.279 N 
ATOM     87  H   UNL A   1      30.885  26.452  25.143  1.00  0.00     0.180 HD
BRANCH  86  88
ATOM     88  S   UNL A   1      31.465  25.171  23.228  1.00  0.00     0.261 S 
ATOM     89  O   UNL A   1      30.696  23.977  23.513  1.00  0.00    -0.201 OA
ATOM     90  O   UNL A   1      31.577  25.674  21.877  1.00  0.00    -0.201 OA
BRANCH  88  91
ATOM     91  C   UNL A   1      33.105  24.914  23.853  1.00  0.00     0.088 A 
ATOM     92  C   UNL A   1      33.430  25.325  25.161  1.00  0.00     0.022 A 
ATOM     93  C   UNL A   1      34.024  24.222  23.054  1.00  0.00     0.026 A 
ATOM     94  C   UNL A   1      34.654  24.951  25.722  1.00  0.00     0.005 A 
ATOM     95  C   UNL A   1      35.201  23.810  23.648  1.00  0.00    -0.043 A 
ATOM     96  C   UNL A   1      35.508  24.160  24.968  1.00  0.00    -0.045 A 
ATOM     97  C   UNL A   1      36.267  22.938  23.061  1.00  0.00     0.036 C 
ATOM     98  C   UNL A   1      36.821  23.564  25.376  1.00  0.00     0.036 C 
ATOM     99  C   UNL A   1      36.968  22.444  24.334  1.00  0.00     0.010 C 
ENDBRANCH  88  91
ENDBRANCH  86  88
ENDBRANCH  80  86
ENDBRANCH  75  78
ENDBRANCH  73  74
ENDBRANCH   1  73
TORSDOF 14
ENDMDL
