MODEL 1
REMARK VINA RESULT:     -11.2      0.000      0.000
REMARK SMILES [NH3+]CC(=O)N1C[C@H](O)C[C@H]1C(=O)NCCCCNC(=O)c1ccc(-c2c3nc(c(-c4c(F)c(F)c(F)c(F)c4F)c4ccc([nH]4)c(-c4c(F)c(F)c(F)c(F)c4F)c4nc(c(-c5c(F)c(F)c(F)c(F)c5F)c5ccc2[nH]5)C=C4)C=C3)cc1
REMARK SMILES IDX 15 1 14 2 13 3 11 4 12 5 10 7 5 8 6 9 7 10 9 11 3 12 4 13
REMARK SMILES IDX 2 14 1 15 8 19 16 21 17 22 18 23 19 24 20 26 21 27 22 28
REMARK SMILES IDX 83 29 23 30 82 31 24 32 25 33 26 34 76 35 27 36 81 37 75 38
REMARK SMILES IDX 77 39 28 40 80 41 74 42 73 43 29 45 61 46 41 47 60 48 42 49
REMARK SMILES IDX 45 50 59 51 78 52 43 53 44 54 58 56 79 57 46 58 30 59 31 60
REMARK SMILES IDX 39 61 32 62 33 63 37 64 40 65 34 66 35 67 38 68 36 69 62 70
REMARK SMILES IDX 63 71 71 72 64 73 65 74 69 75 72 76 66 77 67 78 70 79 68 80
REMARK SMILES IDX 47 81 48 82 56 83 49 84 50 85 54 86 57 87 51 88 52 89 55 90
REMARK SMILES IDX 53 91
REMARK H PARENT 13 6 1 16 1 17 1 18 8 20 18 25 77 44 45 55
REMARK Flexibility Score: inf
ROOT
ATOM      1  C   UNL A   1      31.854  30.365  26.627  1.00  0.00     0.023 C 
ENDROOT
BRANCH   1   2
ATOM      2  C   UNL A   1      31.613  29.768  25.247  1.00  0.00     0.116 C 
BRANCH   2   3
ATOM      3  N   UNL A   1      32.817  29.696  24.454  1.00  0.00    -0.354 N 
ATOM      4  C   UNL A   1      33.538  28.615  24.045  1.00  0.00     0.242 C 
ATOM      5  O   UNL A   1      34.394  28.817  23.176  1.00  0.00    -0.273 OA
ATOM      6  H   UNL A   1      33.175  30.565  24.163  1.00  0.00     0.163 HD
BRANCH   4   7
ATOM      7  C   UNL A   1      33.170  27.174  24.452  1.00  0.00     0.177 C 
ATOM      8  N   UNL A   1      33.525  26.064  23.559  1.00  0.00    -0.323 N 
ATOM      9  C   UNL A   1      34.182  24.981  24.277  1.00  0.00     0.152 C 
ATOM     10  C   UNL A   1      34.013  25.319  25.757  1.00  0.00     0.136 C 
ATOM     11  C   UNL A   1      33.819  26.829  25.800  1.00  0.00     0.069 C 
BRANCH   8  12
ATOM     12  C   UNL A   1      32.982  26.018  22.290  1.00  0.00     0.278 C 
ATOM     13  O   UNL A   1      33.689  26.192  21.295  1.00  0.00    -0.268 OA
BRANCH  12  14
ATOM     14  C   UNL A   1      31.468  25.816  22.128  1.00  0.00     0.360 C 
BRANCH  14  15
ATOM     15  N   UNL A   1      30.975  24.566  22.711  1.00  0.00    -0.350 N 
ATOM     16  H   UNL A   1      31.255  23.781  22.122  1.00  0.00     0.344 HD
ATOM     17  H   UNL A   1      29.957  24.598  22.773  1.00  0.00     0.344 HD
ATOM     18  H   UNL A   1      31.369  24.447  23.644  1.00  0.00     0.344 HD
ENDBRANCH  14  15
ENDBRANCH  12  14
ENDBRANCH   8  12
BRANCH  10  19
ATOM     19  O   UNL A   1      32.870  24.662  26.293  1.00  0.00    -0.391 OA
ATOM     20  H   UNL A   1      32.300  25.313  26.733  1.00  0.00     0.211 HD
ENDBRANCH  10  19
ENDBRANCH   4   7
ENDBRANCH   2   3
ENDBRANCH   1   2
BRANCH   1  21
ATOM     21  C   UNL A   1      31.626  31.875  26.719  1.00  0.00     0.023 C 
BRANCH  21  22
ATOM     22  C   UNL A   1      32.791  32.684  27.277  1.00  0.00     0.116 C 
BRANCH  22  23
ATOM     23  N   UNL A   1      32.431  34.054  27.613  1.00  0.00    -0.352 N 
ATOM     24  C   UNL A   1      32.979  34.886  28.560  1.00  0.00     0.251 C 
ATOM     25  H   UNL A   1      31.694  34.439  27.087  1.00  0.00     0.163 HD
ATOM     26  O   UNL A   1      32.476  35.981  28.787  1.00  0.00    -0.269 OA
BRANCH  24  27
ATOM     27  C   UNL A   1      34.156  34.438  29.333  1.00  0.00     0.039 A 
ATOM     28  C   UNL A   1      33.953  33.813  30.565  1.00  0.00     0.014 A 
ATOM     29  C   UNL A   1      35.449  34.603  28.830  1.00  0.00     0.014 A 
ATOM     30  C   UNL A   1      35.043  33.281  31.257  1.00  0.00     0.010 A 
ATOM     31  C   UNL A   1      36.524  34.008  29.484  1.00  0.00     0.010 A 
ATOM     32  C   UNL A   1      36.332  33.337  30.701  1.00  0.00    -0.014 A 
BRANCH  32  33
ATOM     33  C   UNL A   1      37.485  32.683  31.369  1.00  0.00     0.031 A 
ATOM     34  C   UNL A   1      38.202  31.543  30.701  1.00  0.00     0.074 A 
ATOM     35  C   UNL A   1      37.843  33.071  32.609  1.00  0.00     0.049 A 
ATOM     36  N   UNL A   1      39.186  30.806  31.150  1.00  0.00    -0.248 NA
ATOM     37  C   UNL A   1      37.731  31.162  29.361  1.00  0.00     0.031 C 
ATOM     38  C   UNL A   1      37.191  34.128  33.384  1.00  0.00     0.029 A 
ATOM     39  N   UNL A   1      38.835  32.613  33.440  1.00  0.00    -0.354 N 
ATOM     40  C   UNL A   1      39.444  29.872  30.156  1.00  0.00     0.074 A 
ATOM     41  C   UNL A   1      38.476  30.096  29.104  1.00  0.00     0.031 C 
ATOM     42  C   UNL A   1      37.816  34.255  34.566  1.00  0.00     0.029 A 
ATOM     43  C   UNL A   1      38.884  33.264  34.649  1.00  0.00     0.049 A 
ATOM     44  H   UNL A   1      39.453  31.888  33.194  1.00  0.00     0.167 HD
ATOM     45  C   UNL A   1      40.415  28.929  30.114  1.00  0.00     0.037 A 
ATOM     46  C   UNL A   1      39.695  33.077  35.708  1.00  0.00     0.037 A 
ATOM     47  C   UNL A   1      41.388  28.723  31.153  1.00  0.00     0.049 A 
ATOM     48  C   UNL A   1      40.761  32.016  35.639  1.00  0.00     0.074 A 
ATOM     49  C   UNL A   1      42.450  27.834  31.178  1.00  0.00     0.029 A 
ATOM     50  N   UNL A   1      41.418  29.412  32.358  1.00  0.00    -0.354 N 
ATOM     51  N   UNL A   1      41.042  31.189  34.661  1.00  0.00    -0.248 NA
ATOM     52  C   UNL A   1      41.624  31.868  36.818  1.00  0.00     0.031 C 
ATOM     53  C   UNL A   1      43.090  27.951  32.417  1.00  0.00     0.029 A 
ATOM     54  C   UNL A   1      42.463  28.951  33.142  1.00  0.00     0.049 A 
ATOM     55  H   UNL A   1      40.787  30.123  32.616  1.00  0.00     0.167 HD
ATOM     56  C   UNL A   1      42.132  30.445  35.094  1.00  0.00     0.074 A 
ATOM     57  C   UNL A   1      42.469  30.929  36.416  1.00  0.00     0.031 C 
ATOM     58  C   UNL A   1      42.792  29.449  34.454  1.00  0.00     0.037 A 
BRANCH  45  59
ATOM     59  C   UNL A   1      40.475  28.049  28.899  1.00  0.00     0.064 A 
ATOM     60  C   UNL A   1      39.763  26.841  28.828  1.00  0.00     0.173 A 
ATOM     61  C   UNL A   1      41.223  28.434  27.776  1.00  0.00     0.173 A 
ATOM     62  F   UNL A   1      39.041  26.421  29.877  1.00  0.00    -0.203 F 
ATOM     63  C   UNL A   1      39.823  26.039  27.691  1.00  0.00     0.198 A 
ATOM     64  C   UNL A   1      41.255  27.645  26.629  1.00  0.00     0.198 A 
ATOM     65  F   UNL A   1      41.917  29.582  27.786  1.00  0.00    -0.203 F 
ATOM     66  F   UNL A   1      39.175  24.866  27.667  1.00  0.00    -0.200 F 
ATOM     67  C   UNL A   1      40.561  26.445  26.590  1.00  0.00     0.200 A 
ATOM     68  F   UNL A   1      41.957  28.046  25.560  1.00  0.00    -0.200 F 
ATOM     69  F   UNL A   1      40.611  25.676  25.494  1.00  0.00    -0.200 F 
ENDBRANCH  45  59
BRANCH  46  70
ATOM     70  C   UNL A   1      39.550  33.931  36.917  1.00  0.00     0.064 A 
ATOM     71  C   UNL A   1      38.786  33.504  38.011  1.00  0.00     0.173 A 
ATOM     72  C   UNL A   1      40.162  35.190  37.000  1.00  0.00     0.173 A 
ATOM     73  F   UNL A   1      38.163  32.317  37.971  1.00  0.00    -0.203 F 
ATOM     74  C   UNL A   1      38.621  34.313  39.134  1.00  0.00     0.198 A 
ATOM     75  C   UNL A   1      40.021  35.985  38.135  1.00  0.00     0.198 A 
ATOM     76  F   UNL A   1      40.908  35.643  35.982  1.00  0.00    -0.203 F 
ATOM     77  F   UNL A   1      37.845  33.901  40.146  1.00  0.00    -0.200 F 
ATOM     78  C   UNL A   1      39.244  35.551  39.198  1.00  0.00     0.200 A 
ATOM     79  F   UNL A   1      40.637  37.174  38.199  1.00  0.00    -0.200 F 
ATOM     80  F   UNL A   1      39.087  36.327  40.279  1.00  0.00    -0.200 F 
ENDBRANCH  46  70
BRANCH  58  81
ATOM     81  C   UNL A   1      43.973  28.842  35.157  1.00  0.00     0.064 A 
ATOM     82  C   UNL A   1      43.833  27.739  36.012  1.00  0.00     0.173 A 
ATOM     83  C   UNL A   1      45.263  29.346  34.938  1.00  0.00     0.173 A 
ATOM     84  F   UNL A   1      42.618  27.230  36.266  1.00  0.00    -0.203 F 
ATOM     85  C   UNL A   1      44.941  27.181  36.645  1.00  0.00     0.198 A 
ATOM     86  C   UNL A   1      46.372  28.765  35.547  1.00  0.00     0.198 A 
ATOM     87  F   UNL A   1      45.451  30.394  34.123  1.00  0.00    -0.203 F 
ATOM     88  F   UNL A   1      44.779  26.161  37.498  1.00  0.00    -0.200 F 
ATOM     89  C   UNL A   1      46.209  27.689  36.406  1.00  0.00     0.200 A 
ATOM     90  F   UNL A   1      47.599  29.248  35.303  1.00  0.00    -0.200 F 
ATOM     91  F   UNL A   1      47.275  27.145  37.010  1.00  0.00    -0.200 F 
ENDBRANCH  58  81
ENDBRANCH  32  33
ENDBRANCH  24  27
ENDBRANCH  22  23
ENDBRANCH  21  22
ENDBRANCH   1  21
TORSDOF 15
ENDMDL
MODEL 2
REMARK VINA RESULT:     -11.2      0.376      2.054
REMARK SMILES [NH3+]CC(=O)N1C[C@H](O)C[C@H]1C(=O)NCCCCNC(=O)c1ccc(-c2c3nc(c(-c4c(F)c(F)c(F)c(F)c4F)c4ccc([nH]4)c(-c4c(F)c(F)c(F)c(F)c4F)c4nc(c(-c5c(F)c(F)c(F)c(F)c5F)c5ccc2[nH]5)C=C4)C=C3)cc1
REMARK SMILES IDX 15 1 14 2 13 3 11 4 12 5 10 7 5 8 6 9 7 10 9 11 3 12 4 13
REMARK SMILES IDX 2 14 1 15 8 19 16 21 17 22 18 23 19 24 20 26 21 27 22 28
REMARK SMILES IDX 83 29 23 30 82 31 24 32 25 33 26 34 76 35 27 36 81 37 75 38
REMARK SMILES IDX 77 39 28 40 80 41 74 42 73 43 29 45 61 46 41 47 60 48 42 49
REMARK SMILES IDX 45 50 59 51 78 52 43 53 44 54 58 56 79 57 46 58 30 59 31 60
REMARK SMILES IDX 39 61 32 62 33 63 37 64 40 65 34 66 35 67 38 68 36 69 62 70
REMARK SMILES IDX 63 71 71 72 64 73 65 74 69 75 72 76 66 77 67 78 70 79 68 80
REMARK SMILES IDX 47 81 48 82 56 83 49 84 50 85 54 86 57 87 51 88 52 89 55 90
REMARK SMILES IDX 53 91
REMARK H PARENT 13 6 1 16 1 17 1 18 8 20 18 25 77 44 45 55
REMARK Flexibility Score: inf
ROOT
ATOM      1  C   UNL A   1      31.909  30.388  26.688  1.00  0.00     0.023 C 
ENDROOT
BRANCH   1   2
ATOM      2  C   UNL A   1      31.707  29.804  25.297  1.00  0.00     0.116 C 
BRANCH   2   3
ATOM      3  N   UNL A   1      32.942  29.690  24.557  1.00  0.00    -0.354 N 
ATOM      4  C   UNL A   1      33.631  28.584  24.160  1.00  0.00     0.242 C 
ATOM      5  O   UNL A   1      34.534  28.762  23.333  1.00  0.00    -0.273 OA
ATOM      6  H   UNL A   1      33.351  30.547  24.299  1.00  0.00     0.163 HD
BRANCH   4   7
ATOM      7  C   UNL A   1      33.180  27.155  24.522  1.00  0.00     0.177 C 
ATOM      8  N   UNL A   1      33.461  26.057  23.589  1.00  0.00    -0.323 N 
ATOM      9  C   UNL A   1      34.057  24.913  24.264  1.00  0.00     0.152 C 
ATOM     10  C   UNL A   1      33.920  25.210  25.755  1.00  0.00     0.136 C 
ATOM     11  C   UNL A   1      33.817  26.726  25.851  1.00  0.00     0.069 C 
BRANCH   8  12
ATOM     12  C   UNL A   1      32.906  26.087  22.324  1.00  0.00     0.278 C 
ATOM     13  O   UNL A   1      33.621  26.026  21.321  1.00  0.00    -0.268 OA
BRANCH  12  14
ATOM     14  C   UNL A   1      31.389  26.267  22.174  1.00  0.00     0.360 C 
BRANCH  14  15
ATOM     15  N   UNL A   1      30.980  27.655  21.946  1.00  0.00    -0.350 N 
ATOM     16  H   UNL A   1      31.428  28.008  21.100  1.00  0.00     0.344 HD
ATOM     17  H   UNL A   1      31.261  28.228  22.743  1.00  0.00     0.344 HD
ATOM     18  H   UNL A   1      29.967  27.698  21.837  1.00  0.00     0.344 HD
ENDBRANCH  14  15
ENDBRANCH  12  14
ENDBRANCH   8  12
BRANCH  10  19
ATOM     19  O   UNL A   1      32.743  24.605  26.281  1.00  0.00    -0.391 OA
ATOM     20  H   UNL A   1      32.569  24.955  27.169  1.00  0.00     0.211 HD
ENDBRANCH  10  19
ENDBRANCH   4   7
ENDBRANCH   2   3
ENDBRANCH   1   2
BRANCH   1  21
ATOM     21  C   UNL A   1      31.636  31.890  26.796  1.00  0.00     0.023 C 
BRANCH  21  22
ATOM     22  C   UNL A   1      32.822  32.745  27.228  1.00  0.00     0.116 C 
BRANCH  22  23
ATOM     23  N   UNL A   1      32.449  34.105  27.590  1.00  0.00    -0.352 N 
ATOM     24  C   UNL A   1      32.979  34.918  28.563  1.00  0.00     0.251 C 
ATOM     25  H   UNL A   1      31.715  34.497  27.065  1.00  0.00     0.163 HD
ATOM     26  O   UNL A   1      32.465  36.004  28.809  1.00  0.00    -0.269 OA
BRANCH  24  27
ATOM     27  C   UNL A   1      34.148  34.459  29.341  1.00  0.00     0.039 A 
ATOM     28  C   UNL A   1      33.935  33.818  30.564  1.00  0.00     0.014 A 
ATOM     29  C   UNL A   1      35.446  34.631  28.852  1.00  0.00     0.014 A 
ATOM     30  C   UNL A   1      35.018  33.278  31.258  1.00  0.00     0.010 A 
ATOM     31  C   UNL A   1      36.516  34.027  29.507  1.00  0.00     0.010 A 
ATOM     32  C   UNL A   1      36.312  33.340  30.714  1.00  0.00    -0.014 A 
BRANCH  32  33
ATOM     33  C   UNL A   1      37.459  32.677  31.384  1.00  0.00     0.031 A 
ATOM     34  C   UNL A   1      38.156  31.519  30.725  1.00  0.00     0.074 A 
ATOM     35  C   UNL A   1      37.829  33.074  32.617  1.00  0.00     0.049 A 
ATOM     36  N   UNL A   1      39.132  30.774  31.178  1.00  0.00    -0.248 NA
ATOM     37  C   UNL A   1      37.673  31.130  29.392  1.00  0.00     0.031 C 
ATOM     38  C   UNL A   1      37.197  34.149  33.384  1.00  0.00     0.029 A 
ATOM     39  N   UNL A   1      38.819  32.611  33.448  1.00  0.00    -0.354 N 
ATOM     40  C   UNL A   1      39.371  29.824  30.193  1.00  0.00     0.074 A 
ATOM     41  C   UNL A   1      38.401  30.051  29.144  1.00  0.00     0.031 C 
ATOM     42  C   UNL A   1      37.829  34.280  34.561  1.00  0.00     0.029 A 
ATOM     43  C   UNL A   1      38.884  33.275  34.650  1.00  0.00     0.049 A 
ATOM     44  H   UNL A   1      39.425  31.874  33.207  1.00  0.00     0.167 HD
ATOM     45  C   UNL A   1      40.328  28.866  30.157  1.00  0.00     0.037 A 
ATOM     46  C   UNL A   1      39.697  33.088  35.706  1.00  0.00     0.037 A 
ATOM     47  C   UNL A   1      41.304  28.658  31.194  1.00  0.00     0.049 A 
ATOM     48  C   UNL A   1      40.747  32.011  35.644  1.00  0.00     0.074 A 
ATOM     49  C   UNL A   1      42.352  27.755  31.223  1.00  0.00     0.029 A 
ATOM     50  N   UNL A   1      41.349  29.361  32.390  1.00  0.00    -0.354 N 
ATOM     51  N   UNL A   1      41.012  31.169  34.674  1.00  0.00    -0.248 NA
ATOM     52  C   UNL A   1      41.615  31.865  36.820  1.00  0.00     0.031 C 
ATOM     53  C   UNL A   1      43.000  27.876  32.457  1.00  0.00     0.029 A 
ATOM     54  C   UNL A   1      42.392  28.894  33.174  1.00  0.00     0.049 A 
ATOM     55  H   UNL A   1      40.731  30.084  32.643  1.00  0.00     0.167 HD
ATOM     56  C   UNL A   1      42.092  30.414  35.110  1.00  0.00     0.074 A 
ATOM     57  C   UNL A   1      42.444  30.908  36.425  1.00  0.00     0.031 C 
ATOM     58  C   UNL A   1      42.735  29.402  34.478  1.00  0.00     0.037 A 
BRANCH  45  59
ATOM     59  C   UNL A   1      40.369  27.972  28.952  1.00  0.00     0.064 A 
ATOM     60  C   UNL A   1      41.136  28.295  27.821  1.00  0.00     0.173 A 
ATOM     61  C   UNL A   1      39.664  26.759  28.939  1.00  0.00     0.173 A 
ATOM     62  F   UNL A   1      41.821  29.447  27.776  1.00  0.00    -0.203 F 
ATOM     63  C   UNL A   1      41.170  27.452  26.713  1.00  0.00     0.198 A 
ATOM     64  C   UNL A   1      39.726  25.904  27.842  1.00  0.00     0.198 A 
ATOM     65  F   UNL A   1      38.920  26.398  29.996  1.00  0.00    -0.203 F 
ATOM     66  F   UNL A   1      41.870  27.807  25.626  1.00  0.00    -0.200 F 
ATOM     67  C   UNL A   1      40.473  26.254  26.728  1.00  0.00     0.200 A 
ATOM     68  F   UNL A   1      39.062  24.739  27.863  1.00  0.00    -0.200 F 
ATOM     69  F   UNL A   1      40.514  25.440  25.663  1.00  0.00    -0.200 F 
ENDBRANCH  45  59
BRANCH  46  70
ATOM     70  C   UNL A   1      39.571  33.959  36.906  1.00  0.00     0.064 A 
ATOM     71  C   UNL A   1      40.230  35.193  36.971  1.00  0.00     0.173 A 
ATOM     72  C   UNL A   1      38.798  33.572  38.011  1.00  0.00     0.173 A 
ATOM     73  F   UNL A   1      40.998  35.598  35.949  1.00  0.00    -0.203 F 
ATOM     74  C   UNL A   1      40.140  35.999  38.104  1.00  0.00     0.198 A 
ATOM     75  C   UNL A   1      38.685  34.392  39.131  1.00  0.00     0.198 A 
ATOM     76  F   UNL A   1      38.143  32.402  37.997  1.00  0.00    -0.203 F 
ATOM     77  F   UNL A   1      40.820  37.153  38.160  1.00  0.00    -0.200 F 
ATOM     78  C   UNL A   1      39.362  35.601  39.182  1.00  0.00     0.200 A 
ATOM     79  F   UNL A   1      37.920  34.010  40.164  1.00  0.00    -0.200 F 
ATOM     80  F   UNL A   1      39.273  36.377  40.270  1.00  0.00    -0.200 F 
ENDBRANCH  46  70
BRANCH  58  81
ATOM     81  C   UNL A   1      43.910  28.785  35.182  1.00  0.00     0.064 A 
ATOM     82  C   UNL A   1      45.213  29.274  35.007  1.00  0.00     0.173 A 
ATOM     83  C   UNL A   1      43.722  27.718  36.073  1.00  0.00     0.173 A 
ATOM     84  F   UNL A   1      45.447  30.283  34.154  1.00  0.00    -0.203 F 
ATOM     85  C   UNL A   1      46.289  28.698  35.678  1.00  0.00     0.198 A 
ATOM     86  C   UNL A   1      44.795  27.166  36.766  1.00  0.00     0.198 A 
ATOM     87  F   UNL A   1      42.495  27.219  36.282  1.00  0.00    -0.203 F 
ATOM     88  F   UNL A   1      47.531  29.148  35.457  1.00  0.00    -0.200 F 
ATOM     89  C   UNL A   1      46.078  27.650  36.562  1.00  0.00     0.200 A 
ATOM     90  F   UNL A   1      44.588  26.164  37.632  1.00  0.00    -0.200 F 
ATOM     91  F   UNL A   1      47.114  27.103  37.214  1.00  0.00    -0.200 F 
ENDBRANCH  58  81
ENDBRANCH  32  33
ENDBRANCH  24  27
ENDBRANCH  22  23
ENDBRANCH  21  22
ENDBRANCH   1  21
TORSDOF 15
ENDMDL
MODEL 3
REMARK VINA RESULT:     -11.1      1.031      7.665
REMARK SMILES [NH3+]CC(=O)N1C[C@H](O)C[C@H]1C(=O)NCCCCNC(=O)c1ccc(-c2c3nc(c(-c4c(F)c(F)c(F)c(F)c4F)c4ccc([nH]4)c(-c4c(F)c(F)c(F)c(F)c4F)c4nc(c(-c5c(F)c(F)c(F)c(F)c5F)c5ccc2[nH]5)C=C4)C=C3)cc1
REMARK SMILES IDX 15 1 14 2 13 3 11 4 12 5 10 7 5 8 6 9 7 10 9 11 3 12 4 13
REMARK SMILES IDX 2 14 1 15 8 19 16 21 17 22 18 23 19 24 20 26 21 27 22 28
REMARK SMILES IDX 83 29 23 30 82 31 24 32 25 33 26 34 76 35 27 36 81 37 75 38
REMARK SMILES IDX 77 39 28 40 80 41 74 42 73 43 29 45 61 46 41 47 60 48 42 49
REMARK SMILES IDX 45 50 59 51 78 52 43 53 44 54 58 56 79 57 46 58 30 59 31 60
REMARK SMILES IDX 39 61 32 62 33 63 37 64 40 65 34 66 35 67 38 68 36 69 62 70
REMARK SMILES IDX 63 71 71 72 64 73 65 74 69 75 72 76 66 77 67 78 70 79 68 80
REMARK SMILES IDX 47 81 48 82 56 83 49 84 50 85 54 86 57 87 51 88 52 89 55 90
REMARK SMILES IDX 53 91
REMARK H PARENT 13 6 1 16 1 17 1 18 8 20 18 25 77 44 45 55
REMARK Flexibility Score: inf
ROOT
ATOM      1  C   UNL A   1      31.623  30.738  26.074  1.00  0.00     0.023 C 
ENDROOT
BRANCH   1   2
ATOM      2  C   UNL A   1      32.899  30.092  26.596  1.00  0.00     0.116 C 
BRANCH   2   3
ATOM      3  N   UNL A   1      33.642  29.415  25.561  1.00  0.00    -0.354 N 
ATOM      4  C   UNL A   1      33.312  28.329  24.807  1.00  0.00     0.242 C 
ATOM      5  O   UNL A   1      34.029  28.098  23.826  1.00  0.00    -0.273 OA
ATOM      6  H   UNL A   1      34.529  29.797  25.369  1.00  0.00     0.163 HD
BRANCH   4   7
ATOM      7  C   UNL A   1      31.992  27.558  25.003  1.00  0.00     0.177 C 
ATOM      8  N   UNL A   1      31.397  26.853  23.860  1.00  0.00    -0.323 N 
ATOM      9  C   UNL A   1      31.026  25.487  24.200  1.00  0.00     0.152 C 
ATOM     10  C   UNL A   1      31.170  25.397  25.718  1.00  0.00     0.136 C 
ATOM     11  C   UNL A   1      32.168  26.486  26.088  1.00  0.00     0.069 C 
BRANCH   8  12
ATOM     12  C   UNL A   1      30.998  27.578  22.753  1.00  0.00     0.278 C 
ATOM     13  O   UNL A   1      31.059  27.088  21.624  1.00  0.00    -0.268 OA
BRANCH  12  14
ATOM     14  C   UNL A   1      30.541  29.033  22.934  1.00  0.00     0.360 C 
BRANCH  14  15
ATOM     15  N   UNL A   1      30.711  29.857  21.734  1.00  0.00    -0.350 N 
ATOM     16  H   UNL A   1      31.100  29.288  20.982  1.00  0.00     0.344 HD
ATOM     17  H   UNL A   1      31.347  30.629  21.939  1.00  0.00     0.344 HD
ATOM     18  H   UNL A   1      29.807  30.229  21.445  1.00  0.00     0.344 HD
ENDBRANCH  14  15
ENDBRANCH  12  14
ENDBRANCH   8  12
BRANCH  10  19
ATOM     19  O   UNL A   1      29.920  25.642  26.355  1.00  0.00    -0.391 OA
ATOM     20  H   UNL A   1      30.042  26.289  27.067  1.00  0.00     0.211 HD
ENDBRANCH  10  19
ENDBRANCH   4   7
ENDBRANCH   2   3
ENDBRANCH   1   2
BRANCH   1  21
ATOM     21  C   UNL A   1      31.404  32.181  26.532  1.00  0.00     0.023 C 
BRANCH  21  22
ATOM     22  C   UNL A   1      32.580  32.828  27.255  1.00  0.00     0.116 C 
BRANCH  22  23
ATOM     23  N   UNL A   1      32.339  34.217  27.619  1.00  0.00    -0.352 N 
ATOM     24  C   UNL A   1      32.977  34.989  28.559  1.00  0.00     0.251 C 
ATOM     25  H   UNL A   1      31.619  34.666  27.121  1.00  0.00     0.163 HD
ATOM     26  O   UNL A   1      32.568  36.117  28.816  1.00  0.00    -0.269 OA
BRANCH  24  27
ATOM     27  C   UNL A   1      34.138  34.439  29.291  1.00  0.00     0.039 A 
ATOM     28  C   UNL A   1      33.915  33.735  30.476  1.00  0.00     0.014 A 
ATOM     29  C   UNL A   1      35.435  34.589  28.793  1.00  0.00     0.014 A 
ATOM     30  C   UNL A   1      34.984  33.111  31.120  1.00  0.00     0.010 A 
ATOM     31  C   UNL A   1      36.488  33.905  29.394  1.00  0.00     0.010 A 
ATOM     32  C   UNL A   1      36.273  33.155  30.561  1.00  0.00    -0.014 A 
BRANCH  32  33
ATOM     33  C   UNL A   1      37.400  32.409  31.172  1.00  0.00     0.031 A 
ATOM     34  C   UNL A   1      37.900  32.777  32.542  1.00  0.00     0.074 A 
ATOM     35  C   UNL A   1      38.020  31.443  30.465  1.00  0.00     0.049 A 
ATOM     36  N   UNL A   1      38.909  32.285  33.215  1.00  0.00    -0.248 NA
ATOM     37  C   UNL A   1      37.187  33.860  33.235  1.00  0.00     0.031 C 
ATOM     38  C   UNL A   1      37.664  31.031  29.106  1.00  0.00     0.029 A 
ATOM     39  N   UNL A   1      39.087  30.642  30.786  1.00  0.00    -0.354 N 
ATOM     40  C   UNL A   1      38.959  33.005  34.402  1.00  0.00     0.074 A 
ATOM     41  C   UNL A   1      37.915  34.004  34.333  1.00  0.00     0.031 C 
ATOM     42  C   UNL A   1      38.481  30.038  28.720  1.00  0.00     0.029 A 
ATOM     43  C   UNL A   1      39.442  29.769  29.786  1.00  0.00     0.049 A 
ATOM     44  H   UNL A   1      39.554  30.687  31.652  1.00  0.00     0.167 HD
ATOM     45  C   UNL A   1      39.783  32.831  35.462  1.00  0.00     0.037 A 
ATOM     46  C   UNL A   1      40.434  28.861  29.731  1.00  0.00     0.037 A 
ATOM     47  C   UNL A   1      40.806  31.822  35.534  1.00  0.00     0.049 A 
ATOM     48  C   UNL A   1      41.343  28.694  30.920  1.00  0.00     0.074 A 
ATOM     49  C   UNL A   1      41.653  31.525  36.588  1.00  0.00     0.029 A 
ATOM     50  N   UNL A   1      41.126  30.945  34.507  1.00  0.00    -0.354 N 
ATOM     51  N   UNL A   1      41.330  29.330  32.066  1.00  0.00    -0.248 NA
ATOM     52  C   UNL A   1      42.398  27.678  30.808  1.00  0.00     0.031 C 
ATOM     53  C   UNL A   1      42.518  30.503  36.181  1.00  0.00     0.029 A 
ATOM     54  C   UNL A   1      42.174  30.124  34.893  1.00  0.00     0.049 A 
ATOM     55  H   UNL A   1      40.675  30.912  33.632  1.00  0.00     0.167 HD
ATOM     56  C   UNL A   1      42.353  28.772  32.822  1.00  0.00     0.074 A 
ATOM     57  C   UNL A   1      42.956  27.736  32.009  1.00  0.00     0.031 C 
ATOM     58  C   UNL A   1      42.757  29.091  34.076  1.00  0.00     0.037 A 
BRANCH  45  59
ATOM     59  C   UNL A   1      39.609  33.752  36.635  1.00  0.00     0.064 A 
ATOM     60  C   UNL A   1      38.806  33.402  37.732  1.00  0.00     0.173 A 
ATOM     61  C   UNL A   1      40.281  34.982  36.681  1.00  0.00     0.173 A 
ATOM     62  F   UNL A   1      38.133  32.242  37.735  1.00  0.00    -0.203 F 
ATOM     63  C   UNL A   1      38.659  34.264  38.817  1.00  0.00     0.198 A 
ATOM     64  C   UNL A   1      40.157  35.827  37.782  1.00  0.00     0.198 A 
ATOM     65  F   UNL A   1      41.066  35.364  35.662  1.00  0.00    -0.203 F 
ATOM     66  F   UNL A   1      37.847  33.930  39.830  1.00  0.00    -0.200 F 
ATOM     67  C   UNL A   1      39.342  35.471  38.844  1.00  0.00     0.200 A 
ATOM     68  F   UNL A   1      40.828  36.987  37.813  1.00  0.00    -0.200 F 
ATOM     69  F   UNL A   1      39.205  36.295  39.893  1.00  0.00    -0.200 F 
ENDBRANCH  45  59
BRANCH  46  70
ATOM     70  C   UNL A   1      40.607  28.019  28.517  1.00  0.00     0.064 A 
ATOM     71  C   UNL A   1      41.386  28.463  27.440  1.00  0.00     0.173 A 
ATOM     72  C   UNL A   1      39.994  26.763  28.406  1.00  0.00     0.173 A 
ATOM     73  F   UNL A   1      41.975  29.667  27.490  1.00  0.00    -0.203 F 
ATOM     74  C   UNL A   1      41.527  27.692  26.288  1.00  0.00     0.198 A 
ATOM     75  C   UNL A   1      40.160  25.980  27.266  1.00  0.00     0.198 A 
ATOM     76  F   UNL A   1      39.243  26.290  29.411  1.00  0.00    -0.203 F 
ATOM     77  F   UNL A   1      42.237  28.162  25.252  1.00  0.00    -0.200 F 
ATOM     78  C   UNL A   1      40.918  26.448  26.203  1.00  0.00     0.200 A 
ATOM     79  F   UNL A   1      39.583  24.773  27.195  1.00  0.00    -0.200 F 
ATOM     80  F   UNL A   1      41.057  25.706  25.097  1.00  0.00    -0.200 F 
ENDBRANCH  46  70
BRANCH  58  81
ATOM     81  C   UNL A   1      43.880  28.284  34.664  1.00  0.00     0.064 A 
ATOM     82  C   UNL A   1      43.645  27.076  35.337  1.00  0.00     0.173 A 
ATOM     83  C   UNL A   1      45.209  28.708  34.516  1.00  0.00     0.173 A 
ATOM     84  F   UNL A   1      42.391  26.636  35.517  1.00  0.00    -0.203 F 
ATOM     85  C   UNL A   1      44.700  26.335  35.864  1.00  0.00     0.198 A 
ATOM     86  C   UNL A   1      46.263  27.948  35.017  1.00  0.00     0.198 A 
ATOM     87  F   UNL A   1      45.488  29.852  33.875  1.00  0.00    -0.203 F 
ATOM     88  F   UNL A   1      44.449  25.210  36.547  1.00  0.00    -0.200 F 
ATOM     89  C   UNL A   1      46.007  26.768  35.697  1.00  0.00     0.200 A 
ATOM     90  F   UNL A   1      47.527  28.359  34.841  1.00  0.00    -0.200 F 
ATOM     91  F   UNL A   1      47.021  26.048  36.198  1.00  0.00    -0.200 F 
ENDBRANCH  58  81
ENDBRANCH  32  33
ENDBRANCH  24  27
ENDBRANCH  22  23
ENDBRANCH  21  22
ENDBRANCH   1  21
TORSDOF 15
ENDMDL
