MODEL 1
REMARK VINA RESULT:      -9.7      0.000      0.000
REMARK SMILES O=C(CC[C@H]1CCC[N@@H+](Cc2cccc(C3CC3)c2)C1)NCCCCNC(=O)c1ccc(-c2c3nc(c(-c4c(F)c(F)c(F)c(F)c4F)c4ccc([nH]4)c(-c4c(F)c(F)c(F)c(F)c4F)c4nc(c(-c5c(F)c(F)c(F)c(F)c5F)c5ccc2[nH]5)C=C4)C=C3)cc1
REMARK SMILES IDX 22 1 21 2 1 3 2 4 3 6 4 7 5 8 6 9 20 10 7 11 9 12 8 13 10 15
REMARK SMILES IDX 11 16 12 17 19 18 13 19 15 20 14 21 16 22 17 23 18 24 23 25
REMARK SMILES IDX 24 26 25 27 26 28 27 29 28 31 29 32 30 33 91 34 31 35 90 36
REMARK SMILES IDX 32 37 33 38 34 39 84 40 35 41 89 42 83 43 85 44 36 45 88 46
REMARK SMILES IDX 82 47 81 48 37 50 69 51 49 52 68 53 50 54 53 55 67 56 86 57
REMARK SMILES IDX 51 58 52 59 66 61 87 62 54 63 38 64 39 65 47 66 40 67 41 68
REMARK SMILES IDX 45 69 48 70 42 71 43 72 46 73 44 74 70 75 71 76 79 77 72 78
REMARK SMILES IDX 73 79 77 80 80 81 74 82 75 83 78 84 76 85 55 86 56 87 64 88
REMARK SMILES IDX 57 89 58 90 62 91 65 92 59 93 60 94 63 95 61 96
REMARK H PARENT 21 5 9 14 26 30 85 49 53 60
REMARK Flexibility Score: inf
ROOT
ATOM      1  C   UNL A   1      34.806  34.197  34.030  1.00  0.00     0.116 C 
ENDROOT
BRANCH   1   2
ATOM      2  N   UNL A   1      36.163  33.719  34.171  1.00  0.00    -0.356 N 
ATOM      3  O   UNL A   1      36.199  33.561  36.462  1.00  0.00    -0.275 OA
ATOM      4  C   UNL A   1      36.762  33.456  35.378  1.00  0.00     0.220 C 
ATOM      5  H   UNL A   1      36.691  33.574  33.352  1.00  0.00     0.163 HD
BRANCH   4   6
ATOM      6  C   UNL A   1      38.210  33.022  35.246  1.00  0.00     0.100 C 
BRANCH   6   7
ATOM      7  C   UNL A   1      38.576  31.799  36.089  1.00  0.00     0.019 C 
BRANCH   7   8
ATOM      8  C   UNL A   1      38.722  30.481  35.289  1.00  0.00     0.045 C 
ATOM      9  C   UNL A   1      38.267  30.649  33.834  1.00  0.00     0.015 C 
ATOM     10  C   UNL A   1      40.193  30.033  35.299  1.00  0.00     0.265 C 
ATOM     11  C   UNL A   1      38.533  29.364  33.053  1.00  0.00     0.062 C 
ATOM     12  N   UNL A   1      40.454  28.813  34.525  1.00  0.00    -0.331 N 
ATOM     13  C   UNL A   1      40.008  28.958  33.131  1.00  0.00     0.262 C 
ATOM     14  H   UNL A   1      39.902  28.063  34.943  1.00  0.00     0.348 HD
BRANCH  12  15
ATOM     15  C   UNL A   1      41.878  28.385  34.616  1.00  0.00     0.299 C 
BRANCH  15  16
ATOM     16  C   UNL A   1      42.134  26.918  34.927  1.00  0.00     0.006 A 
ATOM     17  C   UNL A   1      41.218  26.166  35.667  1.00  0.00     0.009 A 
ATOM     18  C   UNL A   1      43.270  26.267  34.412  1.00  0.00     0.013 A 
ATOM     19  C   UNL A   1      41.411  24.795  35.829  1.00  0.00     0.001 A 
ATOM     20  C   UNL A   1      43.423  24.871  34.438  1.00  0.00    -0.044 A 
ATOM     21  C   UNL A   1      42.482  24.156  35.196  1.00  0.00     0.004 A 
BRANCH  20  22
ATOM     22  C   UNL A   1      44.476  24.137  33.627  1.00  0.00     0.019 C 
ATOM     23  C   UNL A   1      44.251  23.827  32.160  1.00  0.00     0.009 C 
ATOM     24  C   UNL A   1      45.294  24.826  32.568  1.00  0.00     0.009 C 
ENDBRANCH  20  22
ENDBRANCH  15  16
ENDBRANCH  12  15
ENDBRANCH   7   8
ENDBRANCH   6   7
ENDBRANCH   4   6
ENDBRANCH   1   2
BRANCH   1  25
ATOM     25  C   UNL A   1      34.763  35.478  33.194  1.00  0.00     0.023 C 
BRANCH  25  26
ATOM     26  C   UNL A   1      33.422  35.760  32.502  1.00  0.00     0.023 C 
BRANCH  26  27
ATOM     27  C   UNL A   1      33.523  36.438  31.140  1.00  0.00     0.116 C 
BRANCH  27  28
ATOM     28  N   UNL A   1      32.835  35.688  30.103  1.00  0.00    -0.352 N 
ATOM     29  C   UNL A   1      33.287  34.663  29.312  1.00  0.00     0.251 C 
ATOM     30  H   UNL A   1      31.901  35.956  29.943  1.00  0.00     0.163 HD
ATOM     31  O   UNL A   1      32.607  34.283  28.357  1.00  0.00    -0.269 OA
BRANCH  29  32
ATOM     32  C   UNL A   1      34.595  34.022  29.573  1.00  0.00     0.039 A 
ATOM     33  C   UNL A   1      35.697  34.408  28.804  1.00  0.00     0.014 A 
ATOM     34  C   UNL A   1      34.740  33.029  30.546  1.00  0.00     0.014 A 
ATOM     35  C   UNL A   1      36.953  33.848  29.053  1.00  0.00     0.010 A 
ATOM     36  C   UNL A   1      36.006  32.524  30.842  1.00  0.00     0.010 A 
ATOM     37  C   UNL A   1      37.127  32.928  30.100  1.00  0.00    -0.014 A 
BRANCH  37  38
ATOM     38  C   UNL A   1      38.471  32.391  30.437  1.00  0.00     0.031 A 
ATOM     39  C   UNL A   1      38.941  31.088  29.851  1.00  0.00     0.074 A 
ATOM     40  C   UNL A   1      39.248  33.047  31.322  1.00  0.00     0.049 A 
ATOM     41  N   UNL A   1      40.047  30.425  30.083  1.00  0.00    -0.248 NA
ATOM     42  C   UNL A   1      38.037  30.430  28.896  1.00  0.00     0.031 C 
ATOM     43  C   UNL A   1      38.893  34.298  31.992  1.00  0.00     0.029 A 
ATOM     44  N   UNL A   1      40.493  32.745  31.818  1.00  0.00    -0.354 N 
ATOM     45  C   UNL A   1      39.968  29.273  29.311  1.00  0.00     0.074 A 
ATOM     46  C   UNL A   1      38.681  29.298  28.649  1.00  0.00     0.031 C 
ATOM     47  C   UNL A   1      39.901  34.666  32.799  1.00  0.00     0.029 A 
ATOM     48  C   UNL A   1      40.955  33.658  32.737  1.00  0.00     0.049 A 
ATOM     49  H   UNL A   1      41.005  31.951  31.543  1.00  0.00     0.167 HD
ATOM     50  C   UNL A   1      40.893  28.296  29.152  1.00  0.00     0.037 A 
ATOM     51  C   UNL A   1      42.093  33.674  33.457  1.00  0.00     0.037 A 
ATOM     52  C   UNL A   1      42.178  28.279  29.802  1.00  0.00     0.049 A 
ATOM     53  C   UNL A   1      43.093  32.564  33.279  1.00  0.00     0.074 A 
ATOM     54  C   UNL A   1      43.201  27.356  29.668  1.00  0.00     0.029 A 
ATOM     55  N   UNL A   1      42.615  29.228  30.716  1.00  0.00    -0.354 N 
ATOM     56  N   UNL A   1      43.033  31.512  32.499  1.00  0.00    -0.248 NA
ATOM     57  C   UNL A   1      44.324  32.649  34.077  1.00  0.00     0.031 C 
ATOM     58  C   UNL A   1      44.234  27.717  30.539  1.00  0.00     0.029 A 
ATOM     59  C   UNL A   1      43.881  28.898  31.171  1.00  0.00     0.049 A 
ATOM     60  H   UNL A   1      42.100  30.017  30.998  1.00  0.00     0.167 HD
ATOM     61  C   UNL A   1      44.227  30.828  32.690  1.00  0.00     0.074 A 
ATOM     62  C   UNL A   1      44.998  31.590  33.647  1.00  0.00     0.031 C 
ATOM     63  C   UNL A   1      44.643  29.669  32.122  1.00  0.00     0.037 A 
BRANCH  50  64
ATOM     64  C   UNL A   1      40.546  27.157  28.235  1.00  0.00     0.064 A 
ATOM     65  C   UNL A   1      41.140  27.022  26.970  1.00  0.00     0.173 A 
ATOM     66  C   UNL A   1      39.638  26.166  28.639  1.00  0.00     0.173 A 
ATOM     67  F   UNL A   1      42.009  27.944  26.530  1.00  0.00    -0.203 F 
ATOM     68  C   UNL A   1      40.811  25.959  26.132  1.00  0.00     0.198 A 
ATOM     69  C   UNL A   1      39.337  25.087  27.811  1.00  0.00     0.198 A 
ATOM     70  F   UNL A   1      39.046  26.240  29.840  1.00  0.00    -0.203 F 
ATOM     71  F   UNL A   1      41.350  25.882  24.907  1.00  0.00    -0.200 F 
ATOM     72  C   UNL A   1      39.917  24.989  26.556  1.00  0.00     0.200 A 
ATOM     73  F   UNL A   1      38.483  24.141  28.230  1.00  0.00    -0.200 F 
ATOM     74  F   UNL A   1      39.606  23.963  25.751  1.00  0.00    -0.200 F 
ENDBRANCH  50  64
BRANCH  51  75
ATOM     75  C   UNL A   1      42.352  34.789  34.406  1.00  0.00     0.064 A 
ATOM     76  C   UNL A   1      42.031  34.668  35.766  1.00  0.00     0.173 A 
ATOM     77  C   UNL A   1      42.917  35.998  33.975  1.00  0.00     0.173 A 
ATOM     78  F   UNL A   1      41.469  33.540  36.223  1.00  0.00    -0.203 F 
ATOM     79  C   UNL A   1      42.247  35.720  36.653  1.00  0.00     0.198 A 
ATOM     80  C   UNL A   1      43.162  37.038  34.869  1.00  0.00     0.198 A 
ATOM     81  F   UNL A   1      43.246  36.164  32.685  1.00  0.00    -0.203 F 
ATOM     82  F   UNL A   1      41.886  35.595  37.938  1.00  0.00    -0.200 F 
ATOM     83  C   UNL A   1      42.818  36.902  36.206  1.00  0.00     0.200 A 
ATOM     84  F   UNL A   1      43.728  38.173  34.435  1.00  0.00    -0.200 F 
ATOM     85  F   UNL A   1      43.029  37.912  37.060  1.00  0.00    -0.200 F 
ENDBRANCH  51  75
BRANCH  63  86
ATOM     86  C   UNL A   1      46.013  29.172  32.490  1.00  0.00     0.064 A 
ATOM     87  C   UNL A   1      46.243  28.446  33.667  1.00  0.00     0.173 A 
ATOM     88  C   UNL A   1      47.102  29.396  31.633  1.00  0.00     0.173 A 
ATOM     89  F   UNL A   1      45.240  28.218  34.528  1.00  0.00    -0.203 F 
ATOM     90  C   UNL A   1      47.519  27.986  33.986  1.00  0.00     0.198 A 
ATOM     91  C   UNL A   1      48.369  28.906  31.939  1.00  0.00     0.198 A 
ATOM     92  F   UNL A   1      46.935  30.080  30.491  1.00  0.00    -0.203 F 
ATOM     93  F   UNL A   1      47.726  27.338  35.141  1.00  0.00    -0.200 F 
ATOM     94  C   UNL A   1      48.578  28.208  33.118  1.00  0.00     0.200 A 
ATOM     95  F   UNL A   1      49.387  29.108  31.091  1.00  0.00    -0.200 F 
ATOM     96  F   UNL A   1      49.802  27.757  33.423  1.00  0.00    -0.200 F 
ENDBRANCH  63  86
ENDBRANCH  37  38
ENDBRANCH  29  32
ENDBRANCH  27  28
ENDBRANCH  26  27
ENDBRANCH  25  26
ENDBRANCH   1  25
TORSDOF 16
ENDMDL
MODEL 2
REMARK VINA RESULT:      -9.4      2.218      7.860
REMARK SMILES O=C(CC[C@H]1CCC[N@@H+](Cc2cccc(C3CC3)c2)C1)NCCCCNC(=O)c1ccc(-c2c3nc(c(-c4c(F)c(F)c(F)c(F)c4F)c4ccc([nH]4)c(-c4c(F)c(F)c(F)c(F)c4F)c4nc(c(-c5c(F)c(F)c(F)c(F)c5F)c5ccc2[nH]5)C=C4)C=C3)cc1
REMARK SMILES IDX 22 1 21 2 1 3 2 4 3 6 4 7 5 8 6 9 20 10 7 11 9 12 8 13 10 15
REMARK SMILES IDX 11 16 12 17 19 18 13 19 15 20 14 21 16 22 17 23 18 24 23 25
REMARK SMILES IDX 24 26 25 27 26 28 27 29 28 31 29 32 30 33 91 34 31 35 90 36
REMARK SMILES IDX 32 37 33 38 34 39 84 40 35 41 89 42 83 43 85 44 36 45 88 46
REMARK SMILES IDX 82 47 81 48 37 50 69 51 49 52 68 53 50 54 53 55 67 56 86 57
REMARK SMILES IDX 51 58 52 59 66 61 87 62 54 63 38 64 39 65 47 66 40 67 41 68
REMARK SMILES IDX 45 69 48 70 42 71 43 72 46 73 44 74 70 75 71 76 79 77 72 78
REMARK SMILES IDX 73 79 77 80 80 81 74 82 75 83 78 84 76 85 55 86 56 87 64 88
REMARK SMILES IDX 57 89 58 90 62 91 65 92 59 93 60 94 63 95 61 96
REMARK H PARENT 21 5 9 14 26 30 85 49 53 60
REMARK Flexibility Score: inf
ROOT
ATOM      1  C   UNL A   1      34.529  33.075  31.723  1.00  0.00     0.116 C 
ENDROOT
BRANCH   1   2
ATOM      2  N   UNL A   1      35.902  32.832  32.109  1.00  0.00    -0.356 N 
ATOM      3  O   UNL A   1      35.660  33.199  34.362  1.00  0.00    -0.275 OA
ATOM      4  C   UNL A   1      36.366  32.932  33.396  1.00  0.00     0.220 C 
ATOM      5  H   UNL A   1      36.543  32.581  31.404  1.00  0.00     0.163 HD
BRANCH   4   6
ATOM      6  C   UNL A   1      37.859  32.683  33.516  1.00  0.00     0.100 C 
BRANCH   6   7
ATOM      7  C   UNL A   1      38.261  31.880  34.753  1.00  0.00     0.019 C 
BRANCH   7   8
ATOM      8  C   UNL A   1      38.492  30.369  34.499  1.00  0.00     0.045 C 
ATOM      9  C   UNL A   1      37.776  29.894  33.229  1.00  0.00     0.015 C 
ATOM     10  C   UNL A   1      39.998  30.097  34.351  1.00  0.00     0.265 C 
ATOM     11  C   UNL A   1      38.122  28.432  32.952  1.00  0.00     0.062 C 
ATOM     12  N   UNL A   1      40.329  28.696  34.056  1.00  0.00    -0.331 N 
ATOM     13  C   UNL A   1      39.636  28.226  32.848  1.00  0.00     0.262 C 
ATOM     14  H   UNL A   1      39.990  28.134  34.838  1.00  0.00     0.348 HD
BRANCH  12  15
ATOM     15  C   UNL A   1      41.799  28.471  33.983  1.00  0.00     0.299 C 
BRANCH  15  16
ATOM     16  C   UNL A   1      42.308  27.115  34.447  1.00  0.00     0.006 A 
ATOM     17  C   UNL A   1      41.690  26.432  35.498  1.00  0.00     0.009 A 
ATOM     18  C   UNL A   1      43.372  26.484  33.776  1.00  0.00     0.013 A 
ATOM     19  C   UNL A   1      42.091  25.136  35.819  1.00  0.00     0.001 A 
ATOM     20  C   UNL A   1      43.707  25.136  33.982  1.00  0.00    -0.044 A 
ATOM     21  C   UNL A   1      43.065  24.491  35.049  1.00  0.00     0.004 A 
BRANCH  20  22
ATOM     22  C   UNL A   1      44.635  24.362  33.061  1.00  0.00     0.019 C 
ATOM     23  C   UNL A   1      45.046  22.940  33.386  1.00  0.00     0.009 C 
ATOM     24  C   UNL A   1      44.149  23.215  32.215  1.00  0.00     0.009 C 
ENDBRANCH  20  22
ENDBRANCH  15  16
ENDBRANCH  12  15
ENDBRANCH   7   8
ENDBRANCH   6   7
ENDBRANCH   4   6
ENDBRANCH   1   2
BRANCH   1  25
ATOM     25  C   UNL A   1      34.430  34.286  30.792  1.00  0.00     0.023 C 
BRANCH  25  26
ATOM     26  C   UNL A   1      33.923  33.980  29.377  1.00  0.00     0.023 C 
BRANCH  26  27
ATOM     27  C   UNL A   1      34.801  33.037  28.560  1.00  0.00     0.116 C 
BRANCH  27  28
ATOM     28  N   UNL A   1      34.048  31.918  28.019  1.00  0.00    -0.352 N 
ATOM     29  C   UNL A   1      34.458  30.644  27.721  1.00  0.00     0.251 C 
ATOM     30  H   UNL A   1      33.097  32.102  27.839  1.00  0.00     0.163 HD
ATOM     31  O   UNL A   1      33.711  29.894  27.091  1.00  0.00    -0.269 OA
BRANCH  29  32
ATOM     32  C   UNL A   1      35.798  30.164  28.124  1.00  0.00     0.039 A 
ATOM     33  C   UNL A   1      36.846  30.245  27.200  1.00  0.00     0.014 A 
ATOM     34  C   UNL A   1      36.028  29.611  29.387  1.00  0.00     0.014 A 
ATOM     35  C   UNL A   1      38.131  29.835  27.564  1.00  0.00     0.010 A 
ATOM     36  C   UNL A   1      37.323  29.270  29.773  1.00  0.00     0.010 A 
ATOM     37  C   UNL A   1      38.390  29.378  28.867  1.00  0.00    -0.014 A 
BRANCH  37  38
ATOM     38  C   UNL A   1      39.767  29.023  29.298  1.00  0.00     0.031 A 
ATOM     39  C   UNL A   1      40.567  29.969  30.152  1.00  0.00     0.074 A 
ATOM     40  C   UNL A   1      40.324  27.873  28.871  1.00  0.00     0.049 A 
ATOM     41  N   UNL A   1      41.806  29.868  30.565  1.00  0.00    -0.248 NA
ATOM     42  C   UNL A   1      39.894  31.206  30.576  1.00  0.00     0.031 C 
ATOM     43  C   UNL A   1      39.671  26.889  28.008  1.00  0.00     0.029 A 
ATOM     44  N   UNL A   1      41.571  27.342  29.095  1.00  0.00    -0.354 N 
ATOM     45  C   UNL A   1      42.061  31.025  31.288  1.00  0.00     0.074 A 
ATOM     46  C   UNL A   1      40.868  31.842  31.210  1.00  0.00     0.031 C 
ATOM     47  C   UNL A   1      40.513  25.868  27.788  1.00  0.00     0.029 A 
ATOM     48  C   UNL A   1      41.781  26.143  28.458  1.00  0.00     0.049 A 
ATOM     49  H   UNL A   1      42.250  27.779  29.658  1.00  0.00     0.167 HD
ATOM     50  C   UNL A   1      43.179  31.366  31.975  1.00  0.00     0.037 A 
ATOM     51  C   UNL A   1      42.875  25.358  28.408  1.00  0.00     0.037 A 
ATOM     52  C   UNL A   1      44.360  30.547  32.063  1.00  0.00     0.049 A 
ATOM     53  C   UNL A   1      44.112  25.772  29.160  1.00  0.00     0.074 A 
ATOM     54  C   UNL A   1      45.525  30.785  32.772  1.00  0.00     0.029 A 
ATOM     55  N   UNL A   1      44.530  29.332  31.414  1.00  0.00    -0.354 N 
ATOM     56  N   UNL A   1      44.318  26.839  29.892  1.00  0.00    -0.248 NA
ATOM     57  C   UNL A   1      45.265  24.864  29.085  1.00  0.00     0.031 C 
ATOM     58  C   UNL A   1      46.418  29.741  32.510  1.00  0.00     0.029 A 
ATOM     59  C   UNL A   1      45.790  28.822  31.686  1.00  0.00     0.049 A 
ATOM     60  H   UNL A   1      43.855  28.898  30.844  1.00  0.00     0.167 HD
ATOM     61  C   UNL A   1      45.611  26.718  30.387  1.00  0.00     0.074 A 
ATOM     62  C   UNL A   1      46.135  25.467  29.884  1.00  0.00     0.031 C 
ATOM     63  C   UNL A   1      46.300  27.570  31.184  1.00  0.00     0.037 A 
BRANCH  50  64
ATOM     64  C   UNL A   1      43.177  32.689  32.688  1.00  0.00     0.064 A 
ATOM     65  C   UNL A   1      42.918  32.783  34.065  1.00  0.00     0.173 A 
ATOM     66  C   UNL A   1      43.475  33.873  31.997  1.00  0.00     0.173 A 
ATOM     67  F   UNL A   1      42.620  31.684  34.773  1.00  0.00    -0.203 F 
ATOM     68  C   UNL A   1      42.924  34.016  34.713  1.00  0.00     0.198 A 
ATOM     69  C   UNL A   1      43.513  35.100  32.656  1.00  0.00     0.198 A 
ATOM     70  F   UNL A   1      43.739  33.841  30.682  1.00  0.00    -0.203 F 
ATOM     71  F   UNL A   1      42.620  34.087  36.017  1.00  0.00    -0.200 F 
ATOM     72  C   UNL A   1      43.229  35.171  34.010  1.00  0.00     0.200 A 
ATOM     73  F   UNL A   1      43.823  36.214  31.977  1.00  0.00    -0.200 F 
ATOM     74  F   UNL A   1      43.240  36.356  34.637  1.00  0.00    -0.200 F 
ENDBRANCH  50  64
BRANCH  51  75
ATOM     75  C   UNL A   1      42.845  24.095  27.625  1.00  0.00     0.064 A 
ATOM     76  C   UNL A   1      43.155  24.085  26.258  1.00  0.00     0.173 A 
ATOM     77  C   UNL A   1      42.501  22.874  28.224  1.00  0.00     0.173 A 
ATOM     78  F   UNL A   1      43.469  25.231  25.636  1.00  0.00    -0.203 F 
ATOM     79  C   UNL A   1      43.101  22.909  25.515  1.00  0.00     0.198 A 
ATOM     80  C   UNL A   1      42.478  21.692  27.487  1.00  0.00     0.198 A 
ATOM     81  F   UNL A   1      42.200  22.826  29.530  1.00  0.00    -0.203 F 
ATOM     82  F   UNL A   1      43.355  22.937  24.199  1.00  0.00    -0.200 F 
ATOM     83  C   UNL A   1      42.769  21.712  26.131  1.00  0.00     0.200 A 
ATOM     84  F   UNL A   1      42.172  20.535  28.089  1.00  0.00    -0.200 F 
ATOM     85  F   UNL A   1      42.721  20.578  25.417  1.00  0.00    -0.200 F 
ENDBRANCH  51  75
BRANCH  63  86
ATOM     86  C   UNL A   1      47.685  27.162  31.598  1.00  0.00     0.064 A 
ATOM     87  C   UNL A   1      47.933  26.528  32.824  1.00  0.00     0.173 A 
ATOM     88  C   UNL A   1      48.774  27.375  30.738  1.00  0.00     0.173 A 
ATOM     89  F   UNL A   1      46.930  26.314  33.690  1.00  0.00    -0.203 F 
ATOM     90  C   UNL A   1      49.224  26.148  33.186  1.00  0.00     0.198 A 
ATOM     91  C   UNL A   1      50.057  26.964  31.089  1.00  0.00     0.198 A 
ATOM     92  F   UNL A   1      48.592  27.972  29.551  1.00  0.00    -0.203 F 
ATOM     93  F   UNL A   1      49.445  25.589  34.384  1.00  0.00    -0.200 F 
ATOM     94  C   UNL A   1      50.282  26.357  32.315  1.00  0.00     0.200 A 
ATOM     95  F   UNL A   1      51.076  27.154  30.239  1.00  0.00    -0.200 F 
ATOM     96  F   UNL A   1      51.521  25.983  32.661  1.00  0.00    -0.200 F 
ENDBRANCH  63  86
ENDBRANCH  37  38
ENDBRANCH  29  32
ENDBRANCH  27  28
ENDBRANCH  26  27
ENDBRANCH  25  26
ENDBRANCH   1  25
TORSDOF 16
ENDMDL
MODEL 3
REMARK VINA RESULT:      -9.4      4.246      9.912
REMARK SMILES O=C(CC[C@H]1CCC[N@@H+](Cc2cccc(C3CC3)c2)C1)NCCCCNC(=O)c1ccc(-c2c3nc(c(-c4c(F)c(F)c(F)c(F)c4F)c4ccc([nH]4)c(-c4c(F)c(F)c(F)c(F)c4F)c4nc(c(-c5c(F)c(F)c(F)c(F)c5F)c5ccc2[nH]5)C=C4)C=C3)cc1
REMARK SMILES IDX 22 1 21 2 1 3 2 4 3 6 4 7 5 8 6 9 20 10 7 11 9 12 8 13 10 15
REMARK SMILES IDX 11 16 12 17 19 18 13 19 15 20 14 21 16 22 17 23 18 24 23 25
REMARK SMILES IDX 24 26 25 27 26 28 27 29 28 31 29 32 30 33 91 34 31 35 90 36
REMARK SMILES IDX 32 37 33 38 34 39 84 40 35 41 89 42 83 43 85 44 36 45 88 46
REMARK SMILES IDX 82 47 81 48 37 50 69 51 49 52 68 53 50 54 53 55 67 56 86 57
REMARK SMILES IDX 51 58 52 59 66 61 87 62 54 63 38 64 39 65 47 66 40 67 41 68
REMARK SMILES IDX 45 69 48 70 42 71 43 72 46 73 44 74 70 75 71 76 79 77 72 78
REMARK SMILES IDX 73 79 77 80 80 81 74 82 75 83 78 84 76 85 55 86 56 87 64 88
REMARK SMILES IDX 57 89 58 90 62 91 65 92 59 93 60 94 63 95 61 96
REMARK H PARENT 21 5 9 14 26 30 85 49 53 60
REMARK Flexibility Score: inf
ROOT
ATOM      1  C   UNL A   1      32.265  30.210  26.026  1.00  0.00     0.116 C 
ENDROOT
BRANCH   1   2
ATOM      2  N   UNL A   1      32.748  29.700  24.762  1.00  0.00    -0.356 N 
ATOM      3  O   UNL A   1      34.019  27.976  25.588  1.00  0.00    -0.275 OA
ATOM      4  C   UNL A   1      33.603  28.634  24.641  1.00  0.00     0.220 C 
ATOM      5  H   UNL A   1      32.446  30.147  23.938  1.00  0.00     0.163 HD
BRANCH   4   6
ATOM      6  C   UNL A   1      34.000  28.344  23.205  1.00  0.00     0.100 C 
BRANCH   6   7
ATOM      7  C   UNL A   1      32.954  27.555  22.415  1.00  0.00     0.019 C 
BRANCH   7   8
ATOM      8  C   UNL A   1      32.186  26.493  23.239  1.00  0.00     0.045 C 
ATOM      9  C   UNL A   1      30.667  26.689  23.138  1.00  0.00     0.015 C 
ATOM     10  C   UNL A   1      32.539  25.087  22.724  1.00  0.00     0.265 C 
ATOM     11  C   UNL A   1      29.947  25.557  23.868  1.00  0.00     0.062 C 
ATOM     12  N   UNL A   1      31.825  24.001  23.407  1.00  0.00    -0.331 N 
ATOM     13  C   UNL A   1      30.369  24.186  23.329  1.00  0.00     0.262 C 
ATOM     14  H   UNL A   1      32.082  24.041  24.394  1.00  0.00     0.348 HD
BRANCH  12  15
ATOM     15  C   UNL A   1      32.246  22.659  22.917  1.00  0.00     0.299 C 
BRANCH  15  16
ATOM     16  C   UNL A   1      33.279  21.918  23.753  1.00  0.00     0.006 A 
ATOM     17  C   UNL A   1      33.039  20.623  24.217  1.00  0.00     0.009 A 
ATOM     18  C   UNL A   1      34.534  22.499  24.015  1.00  0.00     0.013 A 
ATOM     19  C   UNL A   1      34.049  19.917  24.869  1.00  0.00     0.001 A 
ATOM     20  C   UNL A   1      35.613  21.771  24.543  1.00  0.00    -0.044 A 
ATOM     21  C   UNL A   1      35.325  20.476  25.000  1.00  0.00     0.004 A 
BRANCH  20  22
ATOM     22  C   UNL A   1      37.041  22.289  24.545  1.00  0.00     0.019 C 
ATOM     23  C   UNL A   1      37.456  23.422  25.463  1.00  0.00     0.009 C 
ATOM     24  C   UNL A   1      37.982  22.034  25.692  1.00  0.00     0.009 C 
ENDBRANCH  20  22
ENDBRANCH  15  16
ENDBRANCH  12  15
ENDBRANCH   7   8
ENDBRANCH   6   7
ENDBRANCH   4   6
ENDBRANCH   1   2
BRANCH   1  25
ATOM     25  C   UNL A   1      31.061  31.131  25.820  1.00  0.00     0.023 C 
BRANCH  25  26
ATOM     26  C   UNL A   1      31.180  32.515  26.471  1.00  0.00     0.023 C 
BRANCH  26  27
ATOM     27  C   UNL A   1      32.556  32.853  27.036  1.00  0.00     0.116 C 
BRANCH  27  28
ATOM     28  N   UNL A   1      32.593  34.179  27.630  1.00  0.00    -0.352 N 
ATOM     29  C   UNL A   1      33.364  34.660  28.657  1.00  0.00     0.251 C 
ATOM     30  H   UNL A   1      31.971  34.832  27.234  1.00  0.00     0.163 HD
ATOM     31  O   UNL A   1      33.113  35.765  29.142  1.00  0.00    -0.269 OA
BRANCH  29  32
ATOM     32  C   UNL A   1      34.477  33.860  29.211  1.00  0.00     0.039 A 
ATOM     33  C   UNL A   1      35.788  34.201  28.862  1.00  0.00     0.014 A 
ATOM     34  C   UNL A   1      34.244  32.763  30.046  1.00  0.00     0.014 A 
ATOM     35  C   UNL A   1      36.863  33.486  29.399  1.00  0.00     0.010 A 
ATOM     36  C   UNL A   1      35.316  32.097  30.638  1.00  0.00     0.010 A 
ATOM     37  C   UNL A   1      36.638  32.452  30.322  1.00  0.00    -0.014 A 
BRANCH  37  38
ATOM     38  C   UNL A   1      37.771  31.742  30.972  1.00  0.00     0.031 A 
ATOM     39  C   UNL A   1      38.206  32.112  32.364  1.00  0.00     0.074 A 
ATOM     40  C   UNL A   1      38.450  30.802  30.286  1.00  0.00     0.049 A 
ATOM     41  N   UNL A   1      39.214  31.658  33.066  1.00  0.00    -0.248 NA
ATOM     42  C   UNL A   1      37.418  33.148  33.048  1.00  0.00     0.031 C 
ATOM     43  C   UNL A   1      38.156  30.379  28.917  1.00  0.00     0.029 A 
ATOM     44  N   UNL A   1      39.537  30.040  30.642  1.00  0.00    -0.354 N 
ATOM     45  C   UNL A   1      39.186  32.356  34.266  1.00  0.00     0.074 A 
ATOM     46  C   UNL A   1      38.097  33.305  34.175  1.00  0.00     0.031 C 
ATOM     47  C   UNL A   1      39.027  29.424  28.553  1.00  0.00     0.029 A 
ATOM     48  C   UNL A   1      39.968  29.197  29.646  1.00  0.00     0.049 A 
ATOM     49  H   UNL A   1      39.965  30.094  31.526  1.00  0.00     0.167 HD
ATOM     50  C   UNL A   1      39.981  32.204  35.353  1.00  0.00     0.037 A 
ATOM     51  C   UNL A   1      41.011  28.345  29.612  1.00  0.00     0.037 A 
ATOM     52  C   UNL A   1      41.057  31.251  35.446  1.00  0.00     0.049 A 
ATOM     53  C   UNL A   1      41.893  28.213  30.825  1.00  0.00     0.074 A 
ATOM     54  C   UNL A   1      41.888  30.990  36.522  1.00  0.00     0.029 A 
ATOM     55  N   UNL A   1      41.455  30.404  34.421  1.00  0.00    -0.354 N 
ATOM     56  N   UNL A   1      41.817  28.834  31.976  1.00  0.00    -0.248 NA
ATOM     57  C   UNL A   1      43.002  27.252  30.734  1.00  0.00     0.031 C 
ATOM     58  C   UNL A   1      42.821  30.025  36.131  1.00  0.00     0.029 A 
ATOM     59  C   UNL A   1      42.535  29.640  34.831  1.00  0.00     0.049 A 
ATOM     60  H   UNL A   1      41.032  30.356  33.533  1.00  0.00     0.167 HD
ATOM     61  C   UNL A   1      42.846  28.321  32.755  1.00  0.00     0.074 A 
ATOM     62  C   UNL A   1      43.523  27.326  31.951  1.00  0.00     0.031 C 
ATOM     63  C   UNL A   1      43.198  28.647  34.023  1.00  0.00     0.037 A 
BRANCH  50  64
ATOM     64  C   UNL A   1      39.716  33.094  36.535  1.00  0.00     0.064 A 
ATOM     65  C   UNL A   1      40.388  34.315  36.702  1.00  0.00     0.173 A 
ATOM     66  C   UNL A   1      38.753  32.742  37.492  1.00  0.00     0.173 A 
ATOM     67  F   UNL A   1      41.325  34.697  35.821  1.00  0.00    -0.203 F 
ATOM     68  C   UNL A   1      40.130  35.131  37.800  1.00  0.00     0.198 A 
ATOM     69  C   UNL A   1      38.474  33.577  38.571  1.00  0.00     0.198 A 
ATOM     70  F   UNL A   1      38.074  31.590  37.378  1.00  0.00    -0.203 F 
ATOM     71  F   UNL A   1      40.824  36.266  37.967  1.00  0.00    -0.200 F 
ATOM     72  C   UNL A   1      39.168  34.766  38.729  1.00  0.00     0.200 A 
ATOM     73  F   UNL A   1      37.532  33.229  39.460  1.00  0.00    -0.200 F 
ATOM     74  F   UNL A   1      38.916  35.555  39.782  1.00  0.00    -0.200 F 
ENDBRANCH  50  64
BRANCH  51  75
ATOM     75  C   UNL A   1      41.271  27.542  28.388  1.00  0.00     0.064 A 
ATOM     76  C   UNL A   1      40.632  26.312  28.183  1.00  0.00     0.173 A 
ATOM     77  C   UNL A   1      42.167  27.983  27.403  1.00  0.00     0.173 A 
ATOM     78  F   UNL A   1      39.783  25.837  29.107  1.00  0.00    -0.203 F 
ATOM     79  C   UNL A   1      40.893  25.543  27.052  1.00  0.00     0.198 A 
ATOM     80  C   UNL A   1      42.404  27.229  26.256  1.00  0.00     0.198 A 
ATOM     81  F   UNL A   1      42.802  29.155  27.548  1.00  0.00    -0.203 F 
ATOM     82  F   UNL A   1      40.305  24.348  26.904  1.00  0.00    -0.200 F 
ATOM     83  C   UNL A   1      41.774  26.005  26.085  1.00  0.00     0.200 A 
ATOM     84  F   UNL A   1      43.245  27.686  25.318  1.00  0.00    -0.200 F 
ATOM     85  F   UNL A   1      42.023  25.268  24.994  1.00  0.00    -0.200 F 
ENDBRANCH  51  75
BRANCH  63  86
ATOM     86  C   UNL A   1      44.345  27.895  34.637  1.00  0.00     0.064 A 
ATOM     87  C   UNL A   1      45.661  28.375  34.575  1.00  0.00     0.173 A 
ATOM     88  C   UNL A   1      44.116  26.695  35.329  1.00  0.00     0.173 A 
ATOM     89  F   UNL A   1      45.937  29.508  33.913  1.00  0.00    -0.203 F 
ATOM     90  C   UNL A   1      46.709  27.667  35.159  1.00  0.00     0.198 A 
ATOM     91  C   UNL A   1      45.162  26.008  35.940  1.00  0.00     0.198 A 
ATOM     92  F   UNL A   1      42.875  26.194  35.424  1.00  0.00    -0.203 F 
ATOM     93  F   UNL A   1      47.966  28.118  35.043  1.00  0.00    -0.200 F 
ATOM     94  C   UNL A   1      46.458  26.490  35.849  1.00  0.00     0.200 A 
ATOM     95  F   UNL A   1      44.913  24.879  36.619  1.00  0.00    -0.200 F 
ATOM     96  F   UNL A   1      47.466  25.816  36.417  1.00  0.00    -0.200 F 
ENDBRANCH  63  86
ENDBRANCH  37  38
ENDBRANCH  29  32
ENDBRANCH  27  28
ENDBRANCH  26  27
ENDBRANCH  25  26
ENDBRANCH   1  25
TORSDOF 16
ENDMDL
