MODEL 1
REMARK VINA RESULT:     -12.4      0.000      0.000
REMARK SMILES C[C@@H](C(=O)NCCCCNC(=O)c1ccc(-c2c3nc(c(-c4c(F)c(F)c(F)c(F)c4F)c4ccc([nH]4)c(-c4c(F)c(F)c(F)c(F)c4F)c4nc(c(-c5c(F)c(F)c(F)c(F)c5F)c5ccc2[nH]5)C=C4)C=C3)cc1)c1ccc(Cc2ccoc2)cc1F
REMARK SMILES IDX 7 1 6 2 5 3 3 4 4 5 2 7 1 8 76 9 77 10 87 11 78 12 86 13
REMARK SMILES IDX 88 14 79 15 80 16 81 17 82 18 85 19 83 20 84 21 8 22 9 23
REMARK SMILES IDX 10 24 11 25 12 27 13 28 14 29 75 30 15 31 74 32 16 33 17 34
REMARK SMILES IDX 18 35 68 36 19 37 73 38 67 39 69 40 20 41 72 42 66 43 65 44
REMARK SMILES IDX 21 46 53 47 33 48 52 49 34 50 37 51 51 52 70 53 35 54 36 55
REMARK SMILES IDX 50 57 71 58 38 59 22 60 23 61 31 62 24 63 25 64 29 65 32 66
REMARK SMILES IDX 26 67 27 68 30 69 28 70 54 71 55 72 63 73 56 74 57 75 61 76
REMARK SMILES IDX 64 77 58 78 59 79 62 80 60 81 39 82 40 83 48 84 41 85 42 86
REMARK SMILES IDX 46 87 49 88 43 89 44 90 47 91 45 92
REMARK H PARENT 5 6 10 26 69 45 37 56
REMARK Flexibility Score: inf
ROOT
ATOM      1  C   UNL A   1      31.817  30.352  25.962  1.00  0.00     0.023 C 
ENDROOT
BRANCH   1   2
ATOM      2  C   UNL A   1      33.089  29.666  26.460  1.00  0.00     0.116 C 
BRANCH   2   3
ATOM      3  N   UNL A   1      34.006  29.344  25.385  1.00  0.00    -0.356 N 
ATOM      4  C   UNL A   1      33.894  28.447  24.358  1.00  0.00     0.227 C 
ATOM      5  O   UNL A   1      34.723  28.567  23.454  1.00  0.00    -0.274 OA
ATOM      6  H   UNL A   1      34.848  29.855  25.395  1.00  0.00     0.163 HD
BRANCH   4   7
ATOM      7  C   UNL A   1      32.730  27.438  24.326  1.00  0.00     0.108 C 
ATOM      8  C   UNL A   1      33.083  26.103  23.665  1.00  0.00     0.023 C 
BRANCH   7   9
ATOM      9  C   UNL A   1      31.460  27.949  23.652  1.00  0.00    -0.000 A 
ATOM     10  C   UNL A   1      31.549  28.977  22.702  1.00  0.00     0.008 A 
ATOM     11  C   UNL A   1      30.184  27.518  24.035  1.00  0.00     0.127 A 
ATOM     12  C   UNL A   1      30.394  29.533  22.140  1.00  0.00     0.004 A 
ATOM     13  C   UNL A   1      29.029  28.058  23.466  1.00  0.00     0.043 A 
ATOM     14  F   UNL A   1      30.041  26.605  25.005  1.00  0.00    -0.207 F 
ATOM     15  C   UNL A   1      29.120  29.078  22.511  1.00  0.00    -0.041 A 
BRANCH  15  16
ATOM     16  C   UNL A   1      27.878  29.668  21.889  1.00  0.00     0.074 C 
BRANCH  16  17
ATOM     17  C   UNL A   1      27.959  31.150  22.040  1.00  0.00    -0.005 A 
ATOM     18  C   UNL A   1      28.242  31.908  23.216  1.00  0.00     0.046 A 
ATOM     19  C   UNL A   1      27.846  32.089  21.032  1.00  0.00     0.198 A 
ATOM     20  C   UNL A   1      28.269  33.230  22.841  1.00  0.00     0.195 A 
ATOM     21  O   UNL A   1      28.030  33.346  21.511  1.00  0.00    -0.472 OA
ENDBRANCH  16  17
ENDBRANCH  15  16
ENDBRANCH   7   9
ENDBRANCH   4   7
ENDBRANCH   2   3
ENDBRANCH   1   2
BRANCH   1  22
ATOM     22  C   UNL A   1      31.511  31.711  26.596  1.00  0.00     0.023 C 
BRANCH  22  23
ATOM     23  C   UNL A   1      32.690  32.406  27.267  1.00  0.00     0.116 C 
BRANCH  23  24
ATOM     24  N   UNL A   1      32.429  33.803  27.573  1.00  0.00    -0.352 N 
ATOM     25  C   UNL A   1      33.053  34.628  28.478  1.00  0.00     0.251 C 
ATOM     26  H   UNL A   1      31.700  34.219  27.058  1.00  0.00     0.163 HD
ATOM     27  O   UNL A   1      32.614  35.754  28.688  1.00  0.00    -0.269 OA
BRANCH  25  28
ATOM     28  C   UNL A   1      34.232  34.147  29.229  1.00  0.00     0.039 A 
ATOM     29  C   UNL A   1      34.030  33.324  30.340  1.00  0.00     0.014 A 
ATOM     30  C   UNL A   1      35.529  34.487  28.834  1.00  0.00     0.014 A 
ATOM     31  C   UNL A   1      35.128  32.781  31.009  1.00  0.00     0.010 A 
ATOM     32  C   UNL A   1      36.621  33.889  29.459  1.00  0.00     0.010 A 
ATOM     33  C   UNL A   1      36.432  33.024  30.547  1.00  0.00    -0.014 A 
BRANCH  33  34
ATOM     34  C   UNL A   1      37.604  32.357  31.171  1.00  0.00     0.031 A 
ATOM     35  C   UNL A   1      38.329  31.258  30.446  1.00  0.00     0.074 A 
ATOM     36  C   UNL A   1      37.971  32.698  32.422  1.00  0.00     0.049 A 
ATOM     37  N   UNL A   1      39.329  30.516  30.854  1.00  0.00    -0.248 NA
ATOM     38  C   UNL A   1      37.856  30.933  29.091  1.00  0.00     0.031 C 
ATOM     39  C   UNL A   1      37.315  33.712  33.248  1.00  0.00     0.029 A 
ATOM     40  N   UNL A   1      38.977  32.218  33.224  1.00  0.00    -0.354 N 
ATOM     41  C   UNL A   1      39.594  29.633  29.817  1.00  0.00     0.074 A 
ATOM     42  C   UNL A   1      38.622  29.897  28.778  1.00  0.00     0.031 C 
ATOM     43  C   UNL A   1      37.946  33.793  34.430  1.00  0.00     0.029 A 
ATOM     44  C   UNL A   1      39.024  32.810  34.463  1.00  0.00     0.049 A 
ATOM     45  H   UNL A   1      39.607  31.518  32.937  1.00  0.00     0.167 HD
ATOM     46  C   UNL A   1      40.574  28.702  29.731  1.00  0.00     0.037 A 
ATOM     47  C   UNL A   1      39.837  32.578  35.512  1.00  0.00     0.037 A 
ATOM     48  C   UNL A   1      41.554  28.458  30.757  1.00  0.00     0.049 A 
ATOM     49  C   UNL A   1      40.909  31.529  35.390  1.00  0.00     0.074 A 
ATOM     50  C   UNL A   1      42.625  27.582  30.735  1.00  0.00     0.029 A 
ATOM     51  N   UNL A   1      41.579  29.089  31.991  1.00  0.00    -0.354 N 
ATOM     52  N   UNL A   1      41.200  30.755  34.373  1.00  0.00    -0.248 NA
ATOM     53  C   UNL A   1      41.773  31.326  36.562  1.00  0.00     0.031 C 
ATOM     54  C   UNL A   1      43.268  27.646  31.975  1.00  0.00     0.029 A 
ATOM     55  C   UNL A   1      42.634  28.602  32.749  1.00  0.00     0.049 A 
ATOM     56  H   UNL A   1      40.944  29.781  32.287  1.00  0.00     0.167 HD
ATOM     57  C   UNL A   1      42.293  29.996  34.770  1.00  0.00     0.074 A 
ATOM     58  C   UNL A   1      42.627  30.417  36.114  1.00  0.00     0.031 C 
ATOM     59  C   UNL A   1      42.960  29.037  34.083  1.00  0.00     0.037 A 
BRANCH  46  60
ATOM     60  C   UNL A   1      40.645  27.875  28.481  1.00  0.00     0.064 A 
ATOM     61  C   UNL A   1      41.383  28.293  27.363  1.00  0.00     0.173 A 
ATOM     62  C   UNL A   1      40.020  26.619  28.422  1.00  0.00     0.173 A 
ATOM     63  F   UNL A   1      41.991  29.488  27.364  1.00  0.00    -0.203 F 
ATOM     64  C   UNL A   1      41.476  27.494  26.226  1.00  0.00     0.198 A 
ATOM     65  C   UNL A   1      40.140  25.810  27.295  1.00  0.00     0.198 A 
ATOM     66  F   UNL A   1      39.307  26.168  29.465  1.00  0.00    -0.203 F 
ATOM     67  F   UNL A   1      42.155  27.931  25.156  1.00  0.00    -0.200 F 
ATOM     68  C   UNL A   1      40.864  26.250  26.196  1.00  0.00     0.200 A 
ATOM     69  F   UNL A   1      39.560  24.603  27.273  1.00  0.00    -0.200 F 
ATOM     70  F   UNL A   1      40.967  25.477  25.107  1.00  0.00    -0.200 F 
ENDBRANCH  46  60
BRANCH  47  71
ATOM     71  C   UNL A   1      39.678  33.357  36.767  1.00  0.00     0.064 A 
ATOM     72  C   UNL A   1      38.771  32.952  37.758  1.00  0.00     0.173 A 
ATOM     73  C   UNL A   1      40.408  34.534  36.995  1.00  0.00     0.173 A 
ATOM     74  F   UNL A   1      38.035  31.847  37.577  1.00  0.00    -0.203 F 
ATOM     75  C   UNL A   1      38.580  33.708  38.913  1.00  0.00     0.198 A 
ATOM     76  C   UNL A   1      40.240  35.271  38.165  1.00  0.00     0.198 A 
ATOM     77  F   UNL A   1      41.292  34.963  36.083  1.00  0.00    -0.203 F 
ATOM     78  F   UNL A   1      37.667  33.328  39.816  1.00  0.00    -0.200 F 
ATOM     79  C   UNL A   1      39.318  34.865  39.117  1.00  0.00     0.200 A 
ATOM     80  F   UNL A   1      40.965  36.380  38.366  1.00  0.00    -0.200 F 
ATOM     81  F   UNL A   1      39.133  35.592  40.227  1.00  0.00    -0.200 F 
ENDBRANCH  47  71
BRANCH  59  82
ATOM     82  C   UNL A   1      44.140  28.401  34.759  1.00  0.00     0.064 A 
ATOM     83  C   UNL A   1      44.015  27.222  35.507  1.00  0.00     0.173 A 
ATOM     84  C   UNL A   1      45.420  28.962  34.625  1.00  0.00     0.173 A 
ATOM     85  F   UNL A   1      42.811  26.655  35.677  1.00  0.00    -0.203 F 
ATOM     86  C   UNL A   1      45.123  26.642  36.119  1.00  0.00     0.198 A 
ATOM     87  C   UNL A   1      46.530  28.362  35.211  1.00  0.00     0.198 A 
ATOM     88  F   UNL A   1      45.596  30.087  33.914  1.00  0.00    -0.203 F 
ATOM     89  F   UNL A   1      44.971  25.544  36.871  1.00  0.00    -0.200 F 
ATOM     90  C   UNL A   1      46.380  27.208  35.965  1.00  0.00     0.200 A 
ATOM     91  F   UNL A   1      47.746  28.902  35.049  1.00  0.00    -0.200 F 
ATOM     92  F   UNL A   1      47.446  26.644  36.549  1.00  0.00    -0.200 F 
ENDBRANCH  59  82
ENDBRANCH  33  34
ENDBRANCH  25  28
ENDBRANCH  23  24
ENDBRANCH  22  23
ENDBRANCH   1  22
TORSDOF 14
ENDMDL
MODEL 2
REMARK VINA RESULT:     -12.3      6.488     11.908
REMARK SMILES C[C@@H](C(=O)NCCCCNC(=O)c1ccc(-c2c3nc(c(-c4c(F)c(F)c(F)c(F)c4F)c4ccc([nH]4)c(-c4c(F)c(F)c(F)c(F)c4F)c4nc(c(-c5c(F)c(F)c(F)c(F)c5F)c5ccc2[nH]5)C=C4)C=C3)cc1)c1ccc(Cc2ccoc2)cc1F
REMARK SMILES IDX 7 1 6 2 5 3 3 4 4 5 2 7 1 8 76 9 77 10 87 11 78 12 86 13
REMARK SMILES IDX 88 14 79 15 80 16 81 17 82 18 85 19 83 20 84 21 8 22 9 23
REMARK SMILES IDX 10 24 11 25 12 27 13 28 14 29 75 30 15 31 74 32 16 33 17 34
REMARK SMILES IDX 18 35 68 36 19 37 73 38 67 39 69 40 20 41 72 42 66 43 65 44
REMARK SMILES IDX 21 46 53 47 33 48 52 49 34 50 37 51 51 52 70 53 35 54 36 55
REMARK SMILES IDX 50 57 71 58 38 59 22 60 23 61 31 62 24 63 25 64 29 65 32 66
REMARK SMILES IDX 26 67 27 68 30 69 28 70 54 71 55 72 63 73 56 74 57 75 61 76
REMARK SMILES IDX 64 77 58 78 59 79 62 80 60 81 39 82 40 83 48 84 41 85 42 86
REMARK SMILES IDX 46 87 49 88 43 89 44 90 47 91 45 92
REMARK H PARENT 5 6 10 26 69 45 37 56
REMARK Flexibility Score: inf
ROOT
ATOM      1  C   UNL A   1      36.643  20.695  25.018  1.00  0.00     0.023 C 
ENDROOT
BRANCH   1   2
ATOM      2  C   UNL A   1      36.708  22.206  25.240  1.00  0.00     0.116 C 
BRANCH   2   3
ATOM      3  N   UNL A   1      36.070  22.616  26.474  1.00  0.00    -0.356 N 
ATOM      4  C   UNL A   1      34.755  22.862  26.757  1.00  0.00     0.227 C 
ATOM      5  O   UNL A   1      34.475  22.954  27.954  1.00  0.00    -0.274 OA
ATOM      6  H   UNL A   1      36.684  22.738  27.234  1.00  0.00     0.163 HD
BRANCH   4   7
ATOM      7  C   UNL A   1      33.708  22.910  25.627  1.00  0.00     0.108 C 
ATOM      8  C   UNL A   1      32.459  23.727  25.969  1.00  0.00     0.023 C 
BRANCH   7   9
ATOM      9  C   UNL A   1      33.229  21.545  25.141  1.00  0.00    -0.000 A 
ATOM     10  C   UNL A   1      33.240  20.455  26.024  1.00  0.00     0.008 A 
ATOM     11  C   UNL A   1      32.895  21.301  23.803  1.00  0.00     0.127 A 
ATOM     12  C   UNL A   1      32.900  19.173  25.582  1.00  0.00     0.004 A 
ATOM     13  C   UNL A   1      32.540  20.026  23.359  1.00  0.00     0.043 A 
ATOM     14  F   UNL A   1      32.960  22.288  22.899  1.00  0.00    -0.207 F 
ATOM     15  C   UNL A   1      32.542  18.942  24.245  1.00  0.00    -0.041 A 
BRANCH  15  16
ATOM     16  C   UNL A   1      32.159  17.559  23.776  1.00  0.00     0.074 C 
BRANCH  16  17
ATOM     17  C   UNL A   1      33.165  16.603  24.322  1.00  0.00    -0.005 A 
ATOM     18  C   UNL A   1      34.588  16.724  24.335  1.00  0.00     0.046 A 
ATOM     19  C   UNL A   1      32.903  15.428  25.000  1.00  0.00     0.198 A 
ATOM     20  C   UNL A   1      35.074  15.624  25.001  1.00  0.00     0.195 A 
ATOM     21  O   UNL A   1      34.052  14.832  25.410  1.00  0.00    -0.472 OA
ENDBRANCH  16  17
ENDBRANCH  15  16
ENDBRANCH   7   9
ENDBRANCH   4   7
ENDBRANCH   2   3
ENDBRANCH   1   2
BRANCH   1  22
ATOM     22  C   UNL A   1      37.986  20.013  24.743  1.00  0.00     0.023 C 
BRANCH  22  23
ATOM     23  C   UNL A   1      39.086  20.288  25.762  1.00  0.00     0.116 C 
BRANCH  23  24
ATOM     24  N   UNL A   1      40.049  19.203  25.868  1.00  0.00    -0.352 N 
ATOM     25  C   UNL A   1      41.399  19.258  26.117  1.00  0.00     0.251 C 
ATOM     26  H   UNL A   1      39.681  18.298  25.743  1.00  0.00     0.163 HD
ATOM     27  O   UNL A   1      42.078  18.238  26.049  1.00  0.00    -0.269 OA
BRANCH  25  28
ATOM     28  C   UNL A   1      42.043  20.551  26.429  1.00  0.00     0.039 A 
ATOM     29  C   UNL A   1      42.488  21.351  25.373  1.00  0.00     0.014 A 
ATOM     30  C   UNL A   1      42.193  20.985  27.749  1.00  0.00     0.014 A 
ATOM     31  C   UNL A   1      43.014  22.617  25.636  1.00  0.00     0.010 A 
ATOM     32  C   UNL A   1      42.653  22.274  28.006  1.00  0.00     0.010 A 
ATOM     33  C   UNL A   1      43.060  23.106  26.952  1.00  0.00    -0.014 A 
BRANCH  33  34
ATOM     34  C   UNL A   1      43.501  24.496  27.239  1.00  0.00     0.031 A 
ATOM     35  C   UNL A   1      42.529  25.509  27.773  1.00  0.00     0.074 A 
ATOM     36  C   UNL A   1      44.767  24.860  26.952  1.00  0.00     0.049 A 
ATOM     37  N   UNL A   1      42.712  26.782  28.023  1.00  0.00    -0.248 NA
ATOM     38  C   UNL A   1      41.161  25.036  28.044  1.00  0.00     0.031 C 
ATOM     39  C   UNL A   1      45.791  23.984  26.383  1.00  0.00     0.029 A 
ATOM     40  N   UNL A   1      45.405  26.069  27.087  1.00  0.00    -0.354 N 
ATOM     41  C   UNL A   1      41.487  27.262  28.465  1.00  0.00     0.074 A 
ATOM     42  C   UNL A   1      40.553  26.157  28.406  1.00  0.00     0.031 C 
ATOM     43  C   UNL A   1      46.931  24.676  26.235  1.00  0.00     0.029 A 
ATOM     44  C   UNL A   1      46.710  26.054  26.659  1.00  0.00     0.049 A 
ATOM     45  H   UNL A   1      44.968  26.870  27.456  1.00  0.00     0.167 HD
ATOM     46  C   UNL A   1      41.175  28.506  28.899  1.00  0.00     0.037 A 
ATOM     47  C   UNL A   1      47.623  27.043  26.605  1.00  0.00     0.037 A 
ATOM     48  C   UNL A   1      42.112  29.596  28.979  1.00  0.00     0.049 A 
ATOM     49  C   UNL A   1      47.244  28.418  27.086  1.00  0.00     0.074 A 
ATOM     50  C   UNL A   1      41.907  30.875  29.467  1.00  0.00     0.029 A 
ATOM     51  N   UNL A   1      43.430  29.538  28.552  1.00  0.00    -0.354 N 
ATOM     52  N   UNL A   1      46.104  28.839  27.576  1.00  0.00    -0.248 NA
ATOM     53  C   UNL A   1      48.283  29.455  27.012  1.00  0.00     0.031 C 
ATOM     54  C   UNL A   1      43.086  31.605  29.291  1.00  0.00     0.029 A 
ATOM     55  C   UNL A   1      44.043  30.767  28.744  1.00  0.00     0.049 A 
ATOM     56  H   UNL A   1      43.867  28.742  28.170  1.00  0.00     0.167 HD
ATOM     57  C   UNL A   1      46.296  30.177  27.894  1.00  0.00     0.074 A 
ATOM     58  C   UNL A   1      47.668  30.493  27.561  1.00  0.00     0.031 C 
ATOM     59  C   UNL A   1      45.414  31.064  28.416  1.00  0.00     0.037 A 
BRANCH  46  60
ATOM     60  C   UNL A   1      39.761  28.762  29.334  1.00  0.00     0.064 A 
ATOM     61  C   UNL A   1      39.354  28.571  30.663  1.00  0.00     0.173 A 
ATOM     62  C   UNL A   1      38.817  29.264  28.425  1.00  0.00     0.173 A 
ATOM     63  F   UNL A   1      40.214  28.082  31.569  1.00  0.00    -0.203 F 
ATOM     64  C   UNL A   1      38.050  28.854  31.061  1.00  0.00     0.198 A 
ATOM     65  C   UNL A   1      37.523  29.575  28.833  1.00  0.00     0.198 A 
ATOM     66  F   UNL A   1      39.156  29.472  27.143  1.00  0.00    -0.203 F 
ATOM     67  F   UNL A   1      37.674  28.627  32.327  1.00  0.00    -0.200 F 
ATOM     68  C   UNL A   1      37.139  29.365  30.149  1.00  0.00     0.200 A 
ATOM     69  F   UNL A   1      36.648  30.082  27.954  1.00  0.00    -0.200 F 
ATOM     70  F   UNL A   1      35.889  29.651  30.538  1.00  0.00    -0.200 F 
ENDBRANCH  46  60
BRANCH  47  71
ATOM     71  C   UNL A   1      48.989  26.772  26.084  1.00  0.00     0.064 A 
ATOM     72  C   UNL A   1      49.307  27.005  24.738  1.00  0.00     0.173 A 
ATOM     73  C   UNL A   1      49.997  26.254  26.911  1.00  0.00     0.173 A 
ATOM     74  F   UNL A   1      48.371  27.480  23.903  1.00  0.00    -0.203 F 
ATOM     75  C   UNL A   1      50.570  26.703  24.233  1.00  0.00     0.198 A 
ATOM     76  C   UNL A   1      51.269  25.982  26.411  1.00  0.00     0.198 A 
ATOM     77  F   UNL A   1      49.747  26.017  28.207  1.00  0.00    -0.203 F 
ATOM     78  F   UNL A   1      50.828  26.883  22.931  1.00  0.00    -0.200 F 
ATOM     79  C   UNL A   1      51.551  26.196  25.071  1.00  0.00     0.200 A 
ATOM     80  F   UNL A   1      52.219  25.506  27.228  1.00  0.00    -0.200 F 
ATOM     81  F   UNL A   1      52.765  25.904  24.585  1.00  0.00    -0.200 F 
ENDBRANCH  47  71
BRANCH  59  82
ATOM     82  C   UNL A   1      45.916  32.452  28.692  1.00  0.00     0.064 A 
ATOM     83  C   UNL A   1      45.885  33.456  27.714  1.00  0.00     0.173 A 
ATOM     84  C   UNL A   1      46.400  32.790  29.966  1.00  0.00     0.173 A 
ATOM     85  F   UNL A   1      45.445  33.180  26.476  1.00  0.00    -0.203 F 
ATOM     86  C   UNL A   1      46.347  34.740  27.991  1.00  0.00     0.198 A 
ATOM     87  C   UNL A   1      46.831  34.083  30.248  1.00  0.00     0.198 A 
ATOM     88  F   UNL A   1      46.445  31.868  30.940  1.00  0.00    -0.203 F 
ATOM     89  F   UNL A   1      46.356  35.669  27.025  1.00  0.00    -0.200 F 
ATOM     90  C   UNL A   1      46.813  35.054  29.260  1.00  0.00     0.200 A 
ATOM     91  F   UNL A   1      47.266  34.388  31.479  1.00  0.00    -0.200 F 
ATOM     92  F   UNL A   1      47.250  36.292  29.527  1.00  0.00    -0.200 F 
ENDBRANCH  59  82
ENDBRANCH  33  34
ENDBRANCH  25  28
ENDBRANCH  23  24
ENDBRANCH  22  23
ENDBRANCH   1  22
TORSDOF 14
ENDMDL
MODEL 3
REMARK VINA RESULT:     -12.2      6.376     10.631
REMARK SMILES C[C@@H](C(=O)NCCCCNC(=O)c1ccc(-c2c3nc(c(-c4c(F)c(F)c(F)c(F)c4F)c4ccc([nH]4)c(-c4c(F)c(F)c(F)c(F)c4F)c4nc(c(-c5c(F)c(F)c(F)c(F)c5F)c5ccc2[nH]5)C=C4)C=C3)cc1)c1ccc(Cc2ccoc2)cc1F
REMARK SMILES IDX 7 1 6 2 5 3 3 4 4 5 2 7 1 8 76 9 77 10 87 11 78 12 86 13
REMARK SMILES IDX 88 14 79 15 80 16 81 17 82 18 85 19 83 20 84 21 8 22 9 23
REMARK SMILES IDX 10 24 11 25 12 27 13 28 14 29 75 30 15 31 74 32 16 33 17 34
REMARK SMILES IDX 18 35 68 36 19 37 73 38 67 39 69 40 20 41 72 42 66 43 65 44
REMARK SMILES IDX 21 46 53 47 33 48 52 49 34 50 37 51 51 52 70 53 35 54 36 55
REMARK SMILES IDX 50 57 71 58 38 59 22 60 23 61 31 62 24 63 25 64 29 65 32 66
REMARK SMILES IDX 26 67 27 68 30 69 28 70 54 71 55 72 63 73 56 74 57 75 61 76
REMARK SMILES IDX 64 77 58 78 59 79 62 80 60 81 39 82 40 83 48 84 41 85 42 86
REMARK SMILES IDX 46 87 49 88 43 89 44 90 47 91 45 92
REMARK H PARENT 5 6 10 26 69 45 37 56
REMARK Flexibility Score: inf
ROOT
ATOM      1  C   UNL A   1      36.657  20.685  25.004  1.00  0.00     0.023 C 
ENDROOT
BRANCH   1   2
ATOM      2  C   UNL A   1      36.766  22.194  25.229  1.00  0.00     0.116 C 
BRANCH   2   3
ATOM      3  N   UNL A   1      36.099  22.626  26.440  1.00  0.00    -0.356 N 
ATOM      4  C   UNL A   1      34.777  22.873  26.689  1.00  0.00     0.227 C 
ATOM      5  O   UNL A   1      34.471  22.988  27.878  1.00  0.00    -0.274 OA
ATOM      6  H   UNL A   1      36.696  22.764  27.212  1.00  0.00     0.163 HD
BRANCH   4   7
ATOM      7  C   UNL A   1      33.756  22.897  25.535  1.00  0.00     0.108 C 
ATOM      8  C   UNL A   1      32.518  23.751  25.817  1.00  0.00     0.023 C 
BRANCH   7   9
ATOM      9  C   UNL A   1      33.260  21.523  25.093  1.00  0.00    -0.000 A 
ATOM     10  C   UNL A   1      33.240  20.467  26.016  1.00  0.00     0.008 A 
ATOM     11  C   UNL A   1      32.939  21.236  23.761  1.00  0.00     0.127 A 
ATOM     12  C   UNL A   1      32.884  19.174  25.616  1.00  0.00     0.004 A 
ATOM     13  C   UNL A   1      32.568  19.952  23.359  1.00  0.00     0.043 A 
ATOM     14  F   UNL A   1      33.033  22.187  22.822  1.00  0.00    -0.207 F 
ATOM     15  C   UNL A   1      32.540  18.900  24.283  1.00  0.00    -0.041 A 
BRANCH  15  16
ATOM     16  C   UNL A   1      32.139  17.508  23.860  1.00  0.00     0.074 C 
BRANCH  16  17
ATOM     17  C   UNL A   1      33.156  16.562  24.403  1.00  0.00    -0.005 A 
ATOM     18  C   UNL A   1      34.576  16.704  24.429  1.00  0.00     0.046 A 
ATOM     19  C   UNL A   1      32.907  15.375  25.067  1.00  0.00     0.198 A 
ATOM     20  C   UNL A   1      35.074  15.605  25.086  1.00  0.00     0.195 A 
ATOM     21  O   UNL A   1      34.061  14.793  25.479  1.00  0.00    -0.472 OA
ENDBRANCH  16  17
ENDBRANCH  15  16
ENDBRANCH   7   9
ENDBRANCH   4   7
ENDBRANCH   2   3
ENDBRANCH   1   2
BRANCH   1  22
ATOM     22  C   UNL A   1      37.987  19.951  24.819  1.00  0.00     0.023 C 
BRANCH  22  23
ATOM     23  C   UNL A   1      39.060  20.257  25.858  1.00  0.00     0.116 C 
BRANCH  23  24
ATOM     24  N   UNL A   1      40.094  19.238  25.927  1.00  0.00    -0.352 N 
ATOM     25  C   UNL A   1      41.445  19.379  26.134  1.00  0.00     0.251 C 
ATOM     26  H   UNL A   1      39.782  18.311  25.808  1.00  0.00     0.163 HD
ATOM     27  O   UNL A   1      42.187  18.407  26.039  1.00  0.00    -0.269 OA
BRANCH  25  28
ATOM     28  C   UNL A   1      42.013  20.711  26.433  1.00  0.00     0.039 A 
ATOM     29  C   UNL A   1      42.318  21.565  25.370  1.00  0.00     0.014 A 
ATOM     30  C   UNL A   1      42.227  21.127  27.750  1.00  0.00     0.014 A 
ATOM     31  C   UNL A   1      42.767  22.861  25.629  1.00  0.00     0.010 A 
ATOM     32  C   UNL A   1      42.608  22.441  28.008  1.00  0.00     0.010 A 
ATOM     33  C   UNL A   1      42.874  23.325  26.950  1.00  0.00    -0.014 A 
BRANCH  33  34
ATOM     34  C   UNL A   1      43.231  24.737  27.242  1.00  0.00     0.031 A 
ATOM     35  C   UNL A   1      44.631  25.231  27.013  1.00  0.00     0.074 A 
ATOM     36  C   UNL A   1      42.304  25.556  27.777  1.00  0.00     0.049 A 
ATOM     37  N   UNL A   1      45.146  26.408  27.268  1.00  0.00    -0.248 NA
ATOM     38  C   UNL A   1      45.588  24.270  26.441  1.00  0.00     0.031 C 
ATOM     39  C   UNL A   1      40.926  25.182  28.093  1.00  0.00     0.029 A 
ATOM     40  N   UNL A   1      42.386  26.871  28.164  1.00  0.00    -0.354 N 
ATOM     41  C   UNL A   1      46.483  26.325  26.903  1.00  0.00     0.074 A 
ATOM     42  C   UNL A   1      46.714  24.970  26.451  1.00  0.00     0.031 C 
ATOM     43  C   UNL A   1      40.287  26.244  28.607  1.00  0.00     0.029 A 
ATOM     44  C   UNL A   1      41.219  27.363  28.696  1.00  0.00     0.049 A 
ATOM     45  H   UNL A   1      43.204  27.411  28.069  1.00  0.00     0.167 HD
ATOM     46  C   UNL A   1      47.425  27.298  26.922  1.00  0.00     0.037 A 
ATOM     47  C   UNL A   1      40.935  28.577  29.207  1.00  0.00     0.037 A 
ATOM     48  C   UNL A   1      47.185  28.651  27.350  1.00  0.00     0.049 A 
ATOM     49  C   UNL A   1      42.006  29.634  29.225  1.00  0.00     0.074 A 
ATOM     50  C   UNL A   1      48.059  29.725  27.344  1.00  0.00     0.029 A 
ATOM     51  N   UNL A   1      45.985  29.116  27.866  1.00  0.00    -0.354 N 
ATOM     52  N   UNL A   1      43.245  29.565  28.803  1.00  0.00    -0.248 NA
ATOM     53  C   UNL A   1      41.636  30.942  29.785  1.00  0.00     0.031 C 
ATOM     54  C   UNL A   1      47.404  30.826  27.902  1.00  0.00     0.029 A 
ATOM     55  C   UNL A   1      46.104  30.456  28.205  1.00  0.00     0.049 A 
ATOM     56  H   UNL A   1      45.169  28.577  27.975  1.00  0.00     0.167 HD
ATOM     57  C   UNL A   1      43.792  30.823  29.019  1.00  0.00     0.074 A 
ATOM     58  C   UNL A   1      42.744  31.641  29.591  1.00  0.00     0.031 C 
ATOM     59  C   UNL A   1      45.049  31.261  28.766  1.00  0.00     0.037 A 
BRANCH  46  60
ATOM     60  C   UNL A   1      48.808  26.941  26.461  1.00  0.00     0.064 A 
ATOM     61  C   UNL A   1      49.762  26.406  27.341  1.00  0.00     0.173 A 
ATOM     62  C   UNL A   1      49.165  27.076  25.110  1.00  0.00     0.173 A 
ATOM     63  F   UNL A   1      49.476  26.266  28.644  1.00  0.00    -0.203 F 
ATOM     64  C   UNL A   1      51.027  26.040  26.889  1.00  0.00     0.198 A 
ATOM     65  C   UNL A   1      50.420  26.680  24.657  1.00  0.00     0.198 A 
ATOM     66  F   UNL A   1      48.289  27.576  24.226  1.00  0.00    -0.203 F 
ATOM     67  F   UNL A   1      51.934  25.567  27.755  1.00  0.00    -0.200 F 
ATOM     68  C   UNL A   1      51.352  26.166  25.547  1.00  0.00     0.200 A 
ATOM     69  F   UNL A   1      50.728  26.790  23.357  1.00  0.00    -0.200 F 
ATOM     70  F   UNL A   1      52.564  25.799  25.112  1.00  0.00    -0.200 F 
ENDBRANCH  46  60
BRANCH  47  71
ATOM     71  C   UNL A   1      39.576  28.865  29.737  1.00  0.00     0.064 A 
ATOM     72  C   UNL A   1      38.588  29.432  28.919  1.00  0.00     0.173 A 
ATOM     73  C   UNL A   1      39.243  28.605  31.075  1.00  0.00     0.173 A 
ATOM     74  F   UNL A   1      38.865  29.720  27.639  1.00  0.00    -0.203 F 
ATOM     75  C   UNL A   1      37.330  29.754  29.425  1.00  0.00     0.198 A 
ATOM     76  C   UNL A   1      37.974  28.898  31.571  1.00  0.00     0.198 A 
ATOM     77  F   UNL A   1      40.149  28.059  31.899  1.00  0.00    -0.203 F 
ATOM     78  F   UNL A   1      36.425  30.347  28.635  1.00  0.00    -0.200 F 
ATOM     79  C   UNL A   1      37.023  29.482  30.749  1.00  0.00     0.200 A 
ATOM     80  F   UNL A   1      37.676  28.620  32.848  1.00  0.00    -0.200 F 
ATOM     81  F   UNL A   1      35.814  29.793  31.235  1.00  0.00    -0.200 F 
ENDBRANCH  47  71
BRANCH  59  82
ATOM     82  C   UNL A   1      45.353  32.699  29.073  1.00  0.00     0.064 A 
ATOM     83  C   UNL A   1      45.121  33.718  28.138  1.00  0.00     0.173 A 
ATOM     84  C   UNL A   1      45.850  33.064  30.334  1.00  0.00     0.173 A 
ATOM     85  F   UNL A   1      44.661  33.419  26.914  1.00  0.00    -0.203 F 
ATOM     86  C   UNL A   1      45.401  35.047  28.444  1.00  0.00     0.198 A 
ATOM     87  C   UNL A   1      46.098  34.397  30.647  1.00  0.00     0.198 A 
ATOM     88  F   UNL A   1      46.083  32.128  31.267  1.00  0.00    -0.203 F 
ATOM     89  F   UNL A   1      45.221  35.997  27.518  1.00  0.00    -0.200 F 
ATOM     90  C   UNL A   1      45.883  35.386  29.701  1.00  0.00     0.200 A 
ATOM     91  F   UNL A   1      46.549  34.724  31.867  1.00  0.00    -0.200 F 
ATOM     92  F   UNL A   1      46.145  36.666  29.996  1.00  0.00    -0.200 F 
ENDBRANCH  59  82
ENDBRANCH  33  34
ENDBRANCH  25  28
ENDBRANCH  23  24
ENDBRANCH  22  23
ENDBRANCH   1  22
TORSDOF 14
ENDMDL
