MODEL 1
REMARK VINA RESULT:     -11.9      0.000      0.000
REMARK SMILES CC(C)(C)c1ccc(NC(=O)CCC(=O)NCCCCNC(=O)c2ccc(-c3c4nc(c(-c5c(F)c(F)c(F)c(F)c5F)c5ccc([nH]5)c(-c5c(F)c(F)c(F)c(F)c5F)c5nc(c(-c6c(F)c(F)c(F)c(F)c6F)c6ccc3[nH]6)C=C5)C=C4)cc2)cc1
REMARK SMILES IDX 17 1 16 2 14 3 15 4 13 6 12 7 10 8 9 9 11 11 8 12 5 13 6 14
REMARK SMILES IDX 88 15 7 16 87 17 2 18 1 19 3 20 4 21 18 22 19 23 20 24 21 25
REMARK SMILES IDX 22 26 23 28 24 29 25 30 86 31 26 32 85 33 27 34 28 35 29 36
REMARK SMILES IDX 79 37 30 38 84 39 78 40 80 41 31 42 83 43 77 44 76 45 32 47
REMARK SMILES IDX 64 48 44 49 63 50 45 51 48 52 62 53 81 54 46 55 47 56 61 58
REMARK SMILES IDX 82 59 49 60 33 61 34 62 42 63 35 64 36 65 40 66 43 67 37 68
REMARK SMILES IDX 38 69 41 70 39 71 65 72 66 73 74 74 67 75 68 76 72 77 75 78
REMARK SMILES IDX 69 79 70 80 73 81 71 82 50 83 51 84 59 85 52 86 53 87 57 88
REMARK SMILES IDX 60 89 54 90 55 91 58 92 56 93
REMARK H PARENT 16 5 9 10 21 27 80 46 48 57
REMARK Flexibility Score: inf
ROOT
ATOM      1  C   UNL A   1      31.735  29.588  27.044  1.00  0.00     0.116 C 
ENDROOT
BRANCH   1   2
ATOM      2  N   UNL A   1      33.062  29.452  27.616  1.00  0.00    -0.356 N 
ATOM      3  C   UNL A   1      34.202  28.962  27.054  1.00  0.00     0.220 C 
ATOM      4  O   UNL A   1      35.268  29.113  27.651  1.00  0.00    -0.275 OA
ATOM      5  H   UNL A   1      33.152  29.759  28.547  1.00  0.00     0.163 HD
BRANCH   3   6
ATOM      6  C   UNL A   1      34.145  28.248  25.725  1.00  0.00     0.110 C 
BRANCH   6   7
ATOM      7  C   UNL A   1      33.782  26.771  25.816  1.00  0.00     0.110 C 
BRANCH   7   8
ATOM      8  C   UNL A   1      33.719  26.038  24.492  1.00  0.00     0.224 C 
ATOM      9  N   UNL A   1      32.807  26.327  23.518  1.00  0.00    -0.326 N 
ATOM     10  H   UNL A   1      32.890  25.770  22.709  1.00  0.00     0.169 HD
ATOM     11  O   UNL A   1      34.591  25.201  24.225  1.00  0.00    -0.275 OA
BRANCH   9  12
ATOM     12  C   UNL A   1      31.774  27.271  23.462  1.00  0.00     0.041 A 
ATOM     13  C   UNL A   1      29.501  28.928  23.109  1.00  0.00    -0.042 A 
ATOM     14  C   UNL A   1      30.791  29.357  22.753  1.00  0.00     0.006 A 
ATOM     15  C   UNL A   1      29.397  27.689  23.756  1.00  0.00     0.006 A 
ATOM     16  C   UNL A   1      31.912  28.543  22.932  1.00  0.00     0.026 A 
ATOM     17  C   UNL A   1      30.527  26.885  23.957  1.00  0.00     0.026 A 
BRANCH  13  18
ATOM     18  C   UNL A   1      28.288  29.818  22.799  1.00  0.00    -0.013 C 
ATOM     19  C   UNL A   1      28.398  31.113  23.625  1.00  0.00     0.016 C 
ATOM     20  C   UNL A   1      26.928  29.161  23.128  1.00  0.00     0.016 C 
ATOM     21  C   UNL A   1      28.259  30.169  21.294  1.00  0.00     0.016 C 
ENDBRANCH  13  18
ENDBRANCH   9  12
ENDBRANCH   7   8
ENDBRANCH   6   7
ENDBRANCH   3   6
ENDBRANCH   1   2
BRANCH   1  22
ATOM     22  C   UNL A   1      31.600  30.772  26.090  1.00  0.00     0.023 C 
BRANCH  22  23
ATOM     23  C   UNL A   1      31.421  32.133  26.756  1.00  0.00     0.023 C 
BRANCH  23  24
ATOM     24  C   UNL A   1      32.718  32.862  27.054  1.00  0.00     0.116 C 
BRANCH  24  25
ATOM     25  N   UNL A   1      32.483  34.189  27.599  1.00  0.00    -0.352 N 
ATOM     26  C   UNL A   1      33.041  34.788  28.696  1.00  0.00     0.251 C 
ATOM     27  H   UNL A   1      31.827  34.735  27.109  1.00  0.00     0.163 HD
ATOM     28  O   UNL A   1      32.556  35.828  29.142  1.00  0.00    -0.269 OA
BRANCH  26  29
ATOM     29  C   UNL A   1      34.227  34.194  29.346  1.00  0.00     0.039 A 
ATOM     30  C   UNL A   1      35.491  34.431  28.801  1.00  0.00     0.014 A 
ATOM     31  C   UNL A   1      34.088  33.365  30.463  1.00  0.00     0.014 A 
ATOM     32  C   UNL A   1      36.616  33.846  29.385  1.00  0.00     0.010 A 
ATOM     33  C   UNL A   1      35.215  32.870  31.105  1.00  0.00     0.010 A 
ATOM     34  C   UNL A   1      36.484  33.065  30.544  1.00  0.00    -0.014 A 
BRANCH  34  35
ATOM     35  C   UNL A   1      37.645  32.347  31.123  1.00  0.00     0.031 A 
ATOM     36  C   UNL A   1      38.112  32.702  32.510  1.00  0.00     0.074 A 
ATOM     37  C   UNL A   1      38.299  31.421  30.398  1.00  0.00     0.049 A 
ATOM     38  N   UNL A   1      39.137  32.247  33.184  1.00  0.00    -0.248 NA
ATOM     39  C   UNL A   1      37.348  33.742  33.219  1.00  0.00     0.031 C 
ATOM     40  C   UNL A   1      37.976  31.039  29.022  1.00  0.00     0.029 A 
ATOM     41  N   UNL A   1      39.376  30.637  30.719  1.00  0.00    -0.354 N 
ATOM     42  C   UNL A   1      39.158  32.968  34.371  1.00  0.00     0.074 A 
ATOM     43  C   UNL A   1      38.085  33.934  34.301  1.00  0.00     0.031 C 
ATOM     44  C   UNL A   1      38.817  30.067  28.629  1.00  0.00     0.029 A 
ATOM     45  C   UNL A   1      39.749  29.778  29.716  1.00  0.00     0.049 A 
ATOM     46  H   UNL A   1      39.837  30.684  31.588  1.00  0.00     0.167 HD
ATOM     47  C   UNL A   1      39.974  32.817  35.440  1.00  0.00     0.037 A 
ATOM     48  C   UNL A   1      40.726  28.853  29.688  1.00  0.00     0.037 A 
ATOM     49  C   UNL A   1      40.997  31.811  35.528  1.00  0.00     0.049 A 
ATOM     50  C   UNL A   1      41.573  28.652  30.916  1.00  0.00     0.074 A 
ATOM     51  C   UNL A   1      41.840  31.523  36.587  1.00  0.00     0.029 A 
ATOM     52  N   UNL A   1      41.304  30.916  34.514  1.00  0.00    -0.354 N 
ATOM     53  N   UNL A   1      41.545  29.298  32.057  1.00  0.00    -0.248 NA
ATOM     54  C   UNL A   1      42.575  27.579  30.858  1.00  0.00     0.031 C 
ATOM     55  C   UNL A   1      42.674  30.467  36.202  1.00  0.00     0.029 A 
ATOM     56  C   UNL A   1      42.324  30.073  34.921  1.00  0.00     0.049 A 
ATOM     57  H   UNL A   1      40.861  30.884  33.634  1.00  0.00     0.167 HD
ATOM     58  C   UNL A   1      42.502  28.694  32.861  1.00  0.00     0.074 A 
ATOM     59  C   UNL A   1      43.080  27.618  32.082  1.00  0.00     0.031 C 
ATOM     60  C   UNL A   1      42.873  29.002  34.128  1.00  0.00     0.037 A 
BRANCH  47  61
ATOM     61  C   UNL A   1      39.775  33.751  36.599  1.00  0.00     0.064 A 
ATOM     62  C   UNL A   1      40.425  34.994  36.665  1.00  0.00     0.173 A 
ATOM     63  C   UNL A   1      38.923  33.402  37.658  1.00  0.00     0.173 A 
ATOM     64  F   UNL A   1      41.263  35.369  35.686  1.00  0.00    -0.203 F 
ATOM     65  C   UNL A   1      40.261  35.833  37.763  1.00  0.00     0.198 A 
ATOM     66  C   UNL A   1      38.736  34.259  38.741  1.00  0.00     0.198 A 
ATOM     67  F   UNL A   1      38.274  32.228  37.647  1.00  0.00    -0.203 F 
ATOM     68  F   UNL A   1      40.943  36.985  37.832  1.00  0.00    -0.200 F 
ATOM     69  C   UNL A   1      39.413  35.468  38.797  1.00  0.00     0.200 A 
ATOM     70  F   UNL A   1      37.907  33.910  39.734  1.00  0.00    -0.200 F 
ATOM     71  F   UNL A   1      39.257  36.277  39.855  1.00  0.00    -0.200 F 
ENDBRANCH  47  61
BRANCH  48  72
ATOM     72  C   UNL A   1      40.911  28.006  28.482  1.00  0.00     0.064 A 
ATOM     73  C   UNL A   1      40.232  26.786  28.352  1.00  0.00     0.173 A 
ATOM     74  C   UNL A   1      41.761  28.396  27.437  1.00  0.00     0.173 A 
ATOM     75  F   UNL A   1      39.421  26.365  29.334  1.00  0.00    -0.203 F 
ATOM     76  C   UNL A   1      40.410  25.978  27.232  1.00  0.00     0.198 A 
ATOM     77  C   UNL A   1      41.918  27.597  26.305  1.00  0.00     0.198 A 
ATOM     78  F   UNL A   1      42.426  29.557  27.509  1.00  0.00    -0.203 F 
ATOM     79  F   UNL A   1      39.781  24.798  27.153  1.00  0.00    -0.200 F 
ATOM     80  C   UNL A   1      41.250  26.386  26.207  1.00  0.00     0.200 A 
ATOM     81  F   UNL A   1      42.720  28.001  25.310  1.00  0.00    -0.200 F 
ATOM     82  F   UNL A   1      41.419  25.610  25.129  1.00  0.00    -0.200 F 
ENDBRANCH  48  72
BRANCH  60  83
ATOM     83  C   UNL A   1      43.925  28.140  34.758  1.00  0.00     0.064 A 
ATOM     84  C   UNL A   1      43.595  26.969  35.454  1.00  0.00     0.173 A 
ATOM     85  C   UNL A   1      45.282  28.479  34.642  1.00  0.00     0.173 A 
ATOM     86  F   UNL A   1      42.310  26.612  35.603  1.00  0.00    -0.203 F 
ATOM     87  C   UNL A   1      44.583  26.185  36.042  1.00  0.00     0.198 A 
ATOM     88  C   UNL A   1      46.269  27.677  35.205  1.00  0.00     0.198 A 
ATOM     89  F   UNL A   1      45.648  29.585  33.977  1.00  0.00    -0.203 F 
ATOM     90  F   UNL A   1      44.242  25.099  36.748  1.00  0.00    -0.200 F 
ATOM     91  C   UNL A   1      45.919  26.537  35.912  1.00  0.00     0.200 A 
ATOM     92  F   UNL A   1      47.560  28.011  35.069  1.00  0.00    -0.200 F 
ATOM     93  F   UNL A   1      46.869  25.780  36.477  1.00  0.00    -0.200 F 
ENDBRANCH  60  83
ENDBRANCH  34  35
ENDBRANCH  26  29
ENDBRANCH  24  25
ENDBRANCH  23  24
ENDBRANCH  22  23
ENDBRANCH   1  22
TORSDOF 15
ENDMDL
MODEL 2
REMARK VINA RESULT:     -11.8      0.715      2.197
REMARK SMILES CC(C)(C)c1ccc(NC(=O)CCC(=O)NCCCCNC(=O)c2ccc(-c3c4nc(c(-c5c(F)c(F)c(F)c(F)c5F)c5ccc([nH]5)c(-c5c(F)c(F)c(F)c(F)c5F)c5nc(c(-c6c(F)c(F)c(F)c(F)c6F)c6ccc3[nH]6)C=C5)C=C4)cc2)cc1
REMARK SMILES IDX 17 1 16 2 14 3 15 4 13 6 12 7 10 8 9 9 11 11 8 12 5 13 6 14
REMARK SMILES IDX 88 15 7 16 87 17 2 18 1 19 3 20 4 21 18 22 19 23 20 24 21 25
REMARK SMILES IDX 22 26 23 28 24 29 25 30 86 31 26 32 85 33 27 34 28 35 29 36
REMARK SMILES IDX 79 37 30 38 84 39 78 40 80 41 31 42 83 43 77 44 76 45 32 47
REMARK SMILES IDX 64 48 44 49 63 50 45 51 48 52 62 53 81 54 46 55 47 56 61 58
REMARK SMILES IDX 82 59 49 60 33 61 34 62 42 63 35 64 36 65 40 66 43 67 37 68
REMARK SMILES IDX 38 69 41 70 39 71 65 72 66 73 74 74 67 75 68 76 72 77 75 78
REMARK SMILES IDX 69 79 70 80 73 81 71 82 50 83 51 84 59 85 52 86 53 87 57 88
REMARK SMILES IDX 60 89 54 90 55 91 58 92 56 93
REMARK H PARENT 16 5 9 10 21 27 80 46 48 57
REMARK Flexibility Score: inf
ROOT
ATOM      1  C   UNL A   1      31.730  29.336  26.915  1.00  0.00     0.116 C 
ENDROOT
BRANCH   1   2
ATOM      2  N   UNL A   1      33.011  29.357  27.598  1.00  0.00    -0.356 N 
ATOM      3  C   UNL A   1      34.238  28.967  27.153  1.00  0.00     0.220 C 
ATOM      4  O   UNL A   1      35.229  29.248  27.827  1.00  0.00    -0.275 OA
ATOM      5  H   UNL A   1      32.990  29.705  28.519  1.00  0.00     0.163 HD
BRANCH   3   6
ATOM      6  C   UNL A   1      34.366  28.204  25.857  1.00  0.00     0.110 C 
BRANCH   6   7
ATOM      7  C   UNL A   1      33.759  26.807  25.883  1.00  0.00     0.110 C 
BRANCH   7   8
ATOM      8  C   UNL A   1      33.736  26.086  24.550  1.00  0.00     0.224 C 
ATOM      9  N   UNL A   1      32.866  26.395  23.545  1.00  0.00    -0.326 N 
ATOM     10  H   UNL A   1      32.972  25.845  22.735  1.00  0.00     0.169 HD
ATOM     11  O   UNL A   1      34.607  25.240  24.309  1.00  0.00    -0.275 OA
BRANCH   9  12
ATOM     12  C   UNL A   1      31.848  27.353  23.459  1.00  0.00     0.041 A 
ATOM     13  C   UNL A   1      29.585  29.019  23.084  1.00  0.00    -0.042 A 
ATOM     14  C   UNL A   1      30.857  29.382  22.608  1.00  0.00     0.006 A 
ATOM     15  C   UNL A   1      29.502  27.852  23.856  1.00  0.00     0.006 A 
ATOM     16  C   UNL A   1      31.973  28.564  22.798  1.00  0.00     0.026 A 
ATOM     17  C   UNL A   1      30.628  27.047  24.066  1.00  0.00     0.026 A 
BRANCH  13  18
ATOM     18  C   UNL A   1      28.369  29.902  22.762  1.00  0.00    -0.013 C 
ATOM     19  C   UNL A   1      27.085  29.121  23.100  1.00  0.00     0.016 C 
ATOM     20  C   UNL A   1      28.285  30.335  21.281  1.00  0.00     0.016 C 
ATOM     21  C   UNL A   1      28.418  31.199  23.602  1.00  0.00     0.016 C 
ENDBRANCH  13  18
ENDBRANCH   9  12
ENDBRANCH   7   8
ENDBRANCH   6   7
ENDBRANCH   3   6
ENDBRANCH   1   2
BRANCH   1  22
ATOM     22  C   UNL A   1      31.470  30.578  26.067  1.00  0.00     0.023 C 
BRANCH  22  23
ATOM     23  C   UNL A   1      31.442  31.898  26.832  1.00  0.00     0.023 C 
BRANCH  23  24
ATOM     24  C   UNL A   1      32.700  32.735  26.687  1.00  0.00     0.116 C 
BRANCH  24  25
ATOM     25  N   UNL A   1      32.597  33.999  27.397  1.00  0.00    -0.352 N 
ATOM     26  C   UNL A   1      33.255  34.420  28.521  1.00  0.00     0.251 C 
ATOM     27  H   UNL A   1      31.962  34.646  27.014  1.00  0.00     0.163 HD
ATOM     28  O   UNL A   1      32.875  35.429  29.115  1.00  0.00    -0.269 OA
BRANCH  26  29
ATOM     29  C   UNL A   1      34.421  33.668  29.026  1.00  0.00     0.039 A 
ATOM     30  C   UNL A   1      34.214  32.455  29.688  1.00  0.00     0.014 A 
ATOM     31  C   UNL A   1      35.715  34.179  28.889  1.00  0.00     0.014 A 
ATOM     32  C   UNL A   1      35.305  31.752  30.201  1.00  0.00     0.010 A 
ATOM     33  C   UNL A   1      36.807  33.431  29.306  1.00  0.00     0.010 A 
ATOM     34  C   UNL A   1      36.609  32.235  30.009  1.00  0.00    -0.014 A 
BRANCH  34  35
ATOM     35  C   UNL A   1      37.775  31.566  30.633  1.00  0.00     0.031 A 
ATOM     36  C   UNL A   1      38.142  31.900  32.055  1.00  0.00     0.074 A 
ATOM     37  C   UNL A   1      38.522  30.702  29.921  1.00  0.00     0.049 A 
ATOM     38  N   UNL A   1      39.152  31.482  32.774  1.00  0.00    -0.248 NA
ATOM     39  C   UNL A   1      37.279  32.871  32.749  1.00  0.00     0.031 C 
ATOM     40  C   UNL A   1      38.301  30.348  28.518  1.00  0.00     0.029 A 
ATOM     41  N   UNL A   1      39.623  29.970  30.281  1.00  0.00    -0.354 N 
ATOM     42  C   UNL A   1      39.063  32.163  33.981  1.00  0.00     0.074 A 
ATOM     43  C   UNL A   1      37.941  33.068  33.877  1.00  0.00     0.031 C 
ATOM     44  C   UNL A   1      39.218  29.439  28.146  1.00  0.00     0.029 A 
ATOM     45  C   UNL A   1      40.102  29.167  29.276  1.00  0.00     0.049 A 
ATOM     46  H   UNL A   1      40.031  30.014  31.176  1.00  0.00     0.167 HD
ATOM     47  C   UNL A   1      39.824  32.023  35.092  1.00  0.00     0.037 A 
ATOM     48  C   UNL A   1      41.132  28.300  29.278  1.00  0.00     0.037 A 
ATOM     49  C   UNL A   1      40.898  31.074  35.210  1.00  0.00     0.049 A 
ATOM     50  C   UNL A   1      41.917  28.107  30.547  1.00  0.00     0.074 A 
ATOM     51  C   UNL A   1      41.695  30.799  36.306  1.00  0.00     0.029 A 
ATOM     52  N   UNL A   1      41.313  30.232  34.188  1.00  0.00    -0.354 N 
ATOM     53  N   UNL A   1      41.788  28.712  31.703  1.00  0.00    -0.248 NA
ATOM     54  C   UNL A   1      42.982  27.095  30.515  1.00  0.00     0.031 C 
ATOM     55  C   UNL A   1      42.610  29.805  35.940  1.00  0.00     0.029 A 
ATOM     56  C   UNL A   1      42.356  29.435  34.629  1.00  0.00     0.049 A 
ATOM     57  H   UNL A   1      40.924  30.204  33.284  1.00  0.00     0.167 HD
ATOM     58  C   UNL A   1      42.730  28.137  32.543  1.00  0.00     0.074 A 
ATOM     59  C   UNL A   1      43.413  27.122  31.768  1.00  0.00     0.031 C 
ATOM     60  C   UNL A   1      43.010  28.424  33.838  1.00  0.00     0.037 A 
BRANCH  47  61
ATOM     61  C   UNL A   1      39.505  32.905  36.264  1.00  0.00     0.064 A 
ATOM     62  C   UNL A   1      38.521  32.557  37.204  1.00  0.00     0.173 A 
ATOM     63  C   UNL A   1      40.191  34.115  36.454  1.00  0.00     0.173 A 
ATOM     64  F   UNL A   1      37.824  31.419  37.060  1.00  0.00    -0.203 F 
ATOM     65  C   UNL A   1      38.209  33.403  38.264  1.00  0.00     0.198 A 
ATOM     66  C   UNL A   1      39.899  34.943  37.535  1.00  0.00     0.198 A 
ATOM     67  F   UNL A   1      41.143  34.495  35.589  1.00  0.00    -0.203 F 
ATOM     68  F   UNL A   1      37.221  33.078  39.110  1.00  0.00    -0.200 F 
ATOM     69  C   UNL A   1      38.902  34.592  38.433  1.00  0.00     0.200 A 
ATOM     70  F   UNL A   1      40.577  36.087  37.703  1.00  0.00    -0.200 F 
ATOM     71  F   UNL A   1      38.600  35.406  39.454  1.00  0.00    -0.200 F 
ENDBRANCH  47  61
BRANCH  48  72
ATOM     72  C   UNL A   1      41.433  27.505  28.060  1.00  0.00     0.064 A 
ATOM     73  C   UNL A   1      42.308  27.997  27.082  1.00  0.00     0.173 A 
ATOM     74  C   UNL A   1      40.861  26.242  27.850  1.00  0.00     0.173 A 
ATOM     75  F   UNL A   1      42.866  29.207  27.232  1.00  0.00    -0.203 F 
ATOM     76  C   UNL A   1      42.585  27.266  25.929  1.00  0.00     0.198 A 
ATOM     77  C   UNL A   1      41.159  25.501  26.708  1.00  0.00     0.198 A 
ATOM     78  F   UNL A   1      40.025  25.723  28.761  1.00  0.00    -0.203 F 
ATOM     79  F   UNL A   1      43.392  27.779  24.991  1.00  0.00    -0.200 F 
ATOM     80  C   UNL A   1      42.014  26.016  25.745  1.00  0.00     0.200 A 
ATOM     81  F   UNL A   1      40.617  24.286  26.540  1.00  0.00    -0.200 F 
ATOM     82  F   UNL A   1      42.283  25.312  24.638  1.00  0.00    -0.200 F 
ENDBRANCH  48  72
BRANCH  60  83
ATOM     83  C   UNL A   1      44.074  27.602  34.503  1.00  0.00     0.064 A 
ATOM     84  C   UNL A   1      45.410  28.022  34.541  1.00  0.00     0.173 A 
ATOM     85  C   UNL A   1      43.745  26.390  35.130  1.00  0.00     0.173 A 
ATOM     86  F   UNL A   1      45.775  29.167  33.944  1.00  0.00    -0.203 F 
ATOM     87  C   UNL A   1      46.387  27.243  35.154  1.00  0.00     0.198 A 
ATOM     88  C   UNL A   1      44.718  25.628  35.767  1.00  0.00     0.198 A 
ATOM     89  F   UNL A   1      42.477  25.950  35.128  1.00  0.00    -0.203 F 
ATOM     90  F   UNL A   1      47.667  27.638  35.133  1.00  0.00    -0.200 F 
ATOM     91  C   UNL A   1      46.039  26.050  35.770  1.00  0.00     0.200 A 
ATOM     92  F   UNL A   1      44.380  24.482  36.373  1.00  0.00    -0.200 F 
ATOM     93  F   UNL A   1      46.981  25.301  36.361  1.00  0.00    -0.200 F 
ENDBRANCH  60  83
ENDBRANCH  34  35
ENDBRANCH  26  29
ENDBRANCH  24  25
ENDBRANCH  23  24
ENDBRANCH  22  23
ENDBRANCH   1  22
TORSDOF 15
ENDMDL
MODEL 3
REMARK VINA RESULT:     -11.6      1.665      3.290
REMARK SMILES CC(C)(C)c1ccc(NC(=O)CCC(=O)NCCCCNC(=O)c2ccc(-c3c4nc(c(-c5c(F)c(F)c(F)c(F)c5F)c5ccc([nH]5)c(-c5c(F)c(F)c(F)c(F)c5F)c5nc(c(-c6c(F)c(F)c(F)c(F)c6F)c6ccc3[nH]6)C=C5)C=C4)cc2)cc1
REMARK SMILES IDX 17 1 16 2 14 3 15 4 13 6 12 7 10 8 9 9 11 11 8 12 5 13 6 14
REMARK SMILES IDX 88 15 7 16 87 17 2 18 1 19 3 20 4 21 18 22 19 23 20 24 21 25
REMARK SMILES IDX 22 26 23 28 24 29 25 30 86 31 26 32 85 33 27 34 28 35 29 36
REMARK SMILES IDX 79 37 30 38 84 39 78 40 80 41 31 42 83 43 77 44 76 45 32 47
REMARK SMILES IDX 64 48 44 49 63 50 45 51 48 52 62 53 81 54 46 55 47 56 61 58
REMARK SMILES IDX 82 59 49 60 33 61 34 62 42 63 35 64 36 65 40 66 43 67 37 68
REMARK SMILES IDX 38 69 41 70 39 71 65 72 66 73 74 74 67 75 68 76 72 77 75 78
REMARK SMILES IDX 69 79 70 80 73 81 71 82 50 83 51 84 59 85 52 86 53 87 57 88
REMARK SMILES IDX 60 89 54 90 55 91 58 92 56 93
REMARK H PARENT 16 5 9 10 21 27 80 46 48 57
REMARK Flexibility Score: inf
ROOT
ATOM      1  C   UNL A   1      30.049  31.678  24.786  1.00  0.00     0.116 C 
ENDROOT
BRANCH   1   2
ATOM      2  N   UNL A   1      29.579  32.468  23.663  1.00  0.00    -0.356 N 
ATOM      3  C   UNL A   1      28.358  32.476  23.059  1.00  0.00     0.220 C 
ATOM      4  O   UNL A   1      28.107  33.363  22.243  1.00  0.00    -0.275 OA
ATOM      5  H   UNL A   1      30.239  33.092  23.283  1.00  0.00     0.163 HD
BRANCH   3   6
ATOM      6  C   UNL A   1      27.342  31.411  23.391  1.00  0.00     0.110 C 
BRANCH   6   7
ATOM      7  C   UNL A   1      27.673  30.028  22.845  1.00  0.00     0.110 C 
BRANCH   7   8
ATOM      8  C   UNL A   1      28.522  30.014  21.590  1.00  0.00     0.224 C 
ATOM      9  N   UNL A   1      29.807  29.551  21.559  1.00  0.00    -0.326 N 
ATOM     10  H   UNL A   1      30.232  29.600  20.672  1.00  0.00     0.169 HD
ATOM     11  O   UNL A   1      28.009  30.343  20.513  1.00  0.00    -0.275 OA
BRANCH   9  12
ATOM     12  C   UNL A   1      30.628  29.021  22.562  1.00  0.00     0.041 A 
ATOM     13  C   UNL A   1      32.054  28.134  24.846  1.00  0.00    -0.042 A 
ATOM     14  C   UNL A   1      32.671  28.896  23.838  1.00  0.00     0.006 A 
ATOM     15  C   UNL A   1      30.731  27.731  24.619  1.00  0.00     0.006 A 
ATOM     16  C   UNL A   1      31.971  29.328  22.710  1.00  0.00     0.026 A 
ATOM     17  C   UNL A   1      30.038  28.144  23.475  1.00  0.00     0.026 A 
BRANCH  13  18
ATOM     18  C   UNL A   1      32.838  27.770  26.116  1.00  0.00    -0.013 C 
ATOM     19  C   UNL A   1      31.925  27.976  27.339  1.00  0.00     0.016 C 
ATOM     20  C   UNL A   1      34.114  28.617  26.328  1.00  0.00     0.016 C 
ATOM     21  C   UNL A   1      33.291  26.293  26.055  1.00  0.00     0.016 C 
ENDBRANCH  13  18
ENDBRANCH   9  12
ENDBRANCH   7   8
ENDBRANCH   6   7
ENDBRANCH   3   6
ENDBRANCH   1   2
BRANCH   1  22
ATOM     22  C   UNL A   1      30.720  32.507  25.878  1.00  0.00     0.023 C 
BRANCH  22  23
ATOM     23  C   UNL A   1      31.622  31.728  26.830  1.00  0.00     0.023 C 
BRANCH  23  24
ATOM     24  C   UNL A   1      32.932  32.421  27.162  1.00  0.00     0.116 C 
BRANCH  24  25
ATOM     25  N   UNL A   1      32.722  33.770  27.659  1.00  0.00    -0.352 N 
ATOM     26  C   UNL A   1      33.299  34.402  28.727  1.00  0.00     0.251 C 
ATOM     27  H   UNL A   1      32.071  34.308  27.153  1.00  0.00     0.163 HD
ATOM     28  O   UNL A   1      32.834  35.465  29.138  1.00  0.00    -0.269 OA
BRANCH  26  29
ATOM     29  C   UNL A   1      34.480  33.813  29.391  1.00  0.00     0.039 A 
ATOM     30  C   UNL A   1      35.755  34.245  29.018  1.00  0.00     0.014 A 
ATOM     31  C   UNL A   1      34.333  32.802  30.344  1.00  0.00     0.014 A 
ATOM     32  C   UNL A   1      36.880  33.672  29.612  1.00  0.00     0.010 A 
ATOM     33  C   UNL A   1      35.447  32.307  31.010  1.00  0.00     0.010 A 
ATOM     34  C   UNL A   1      36.732  32.701  30.615  1.00  0.00    -0.014 A 
BRANCH  34  35
ATOM     35  C   UNL A   1      37.907  32.001  31.186  1.00  0.00     0.031 A 
ATOM     36  C   UNL A   1      38.355  32.335  32.585  1.00  0.00     0.074 A 
ATOM     37  C   UNL A   1      38.590  31.109  30.446  1.00  0.00     0.049 A 
ATOM     38  N   UNL A   1      39.387  31.893  33.256  1.00  0.00    -0.248 NA
ATOM     39  C   UNL A   1      37.558  33.339  33.311  1.00  0.00     0.031 C 
ATOM     40  C   UNL A   1      38.288  30.751  29.059  1.00  0.00     0.029 A 
ATOM     41  N   UNL A   1      39.685  30.346  30.758  1.00  0.00    -0.354 N 
ATOM     42  C   UNL A   1      39.379  32.587  34.459  1.00  0.00     0.074 A 
ATOM     43  C   UNL A   1      38.282  33.525  34.403  1.00  0.00     0.031 C 
ATOM     44  C   UNL A   1      39.157  29.811  28.651  1.00  0.00     0.029 A 
ATOM     45  C   UNL A   1      40.089  29.521  29.737  1.00  0.00     0.049 A 
ATOM     46  H   UNL A   1      40.139  30.385  31.630  1.00  0.00     0.167 HD
ATOM     47  C   UNL A   1      40.191  32.432  35.532  1.00  0.00     0.037 A 
ATOM     48  C   UNL A   1      41.090  28.622  29.696  1.00  0.00     0.037 A 
ATOM     49  C   UNL A   1      41.240  31.452  35.605  1.00  0.00     0.049 A 
ATOM     50  C   UNL A   1      41.932  28.416  30.926  1.00  0.00     0.074 A 
ATOM     51  C   UNL A   1      42.082  31.161  36.663  1.00  0.00     0.029 A 
ATOM     52  N   UNL A   1      41.577  30.589  34.573  1.00  0.00    -0.354 N 
ATOM     53  N   UNL A   1      41.880  29.034  32.081  1.00  0.00    -0.248 NA
ATOM     54  C   UNL A   1      42.963  27.371  30.851  1.00  0.00     0.031 C 
ATOM     55  C   UNL A   1      42.947  30.136  36.261  1.00  0.00     0.029 A 
ATOM     56  C   UNL A   1      42.617  29.763  34.968  1.00  0.00     0.049 A 
ATOM     57  H   UNL A   1      41.142  30.565  33.689  1.00  0.00     0.167 HD
ATOM     58  C   UNL A   1      42.846  28.438  32.879  1.00  0.00     0.074 A 
ATOM     59  C   UNL A   1      43.458  27.395  32.081  1.00  0.00     0.031 C 
ATOM     60  C   UNL A   1      43.199  28.726  34.156  1.00  0.00     0.037 A 
BRANCH  47  61
ATOM     61  C   UNL A   1      39.959  33.333  36.710  1.00  0.00     0.064 A 
ATOM     62  C   UNL A   1      38.997  33.035  37.689  1.00  0.00     0.173 A 
ATOM     63  C   UNL A   1      40.706  34.511  36.865  1.00  0.00     0.173 A 
ATOM     64  F   UNL A   1      38.244  31.930  37.580  1.00  0.00    -0.203 F 
ATOM     65  C   UNL A   1      38.766  33.899  38.755  1.00  0.00     0.198 A 
ATOM     66  C   UNL A   1      40.494  35.357  37.951  1.00  0.00     0.198 A 
ATOM     67  F   UNL A   1      41.640  34.844  35.961  1.00  0.00    -0.203 F 
ATOM     68  F   UNL A   1      37.798  33.624  39.641  1.00  0.00    -0.200 F 
ATOM     69  C   UNL A   1      39.518  35.056  38.889  1.00  0.00     0.200 A 
ATOM     70  F   UNL A   1      41.229  36.470  38.085  1.00  0.00    -0.200 F 
ATOM     71  F   UNL A   1      39.293  35.888  39.916  1.00  0.00    -0.200 F 
ENDBRANCH  47  61
BRANCH  48  72
ATOM     72  C   UNL A   1      41.305  27.809  28.473  1.00  0.00     0.064 A 
ATOM     73  C   UNL A   1      40.605  26.610  28.276  1.00  0.00     0.173 A 
ATOM     74  C   UNL A   1      42.207  28.210  27.477  1.00  0.00     0.173 A 
ATOM     75  F   UNL A   1      39.744  26.179  29.210  1.00  0.00    -0.203 F 
ATOM     76  C   UNL A   1      40.812  25.833  27.140  1.00  0.00     0.198 A 
ATOM     77  C   UNL A   1      42.394  27.443  26.328  1.00  0.00     0.198 A 
ATOM     78  F   UNL A   1      42.895  29.352  27.613  1.00  0.00    -0.203 F 
ATOM     79  F   UNL A   1      40.159  24.672  26.998  1.00  0.00    -0.200 F 
ATOM     80  C   UNL A   1      41.703  26.252  26.164  1.00  0.00     0.200 A 
ATOM     81  F   UNL A   1      43.246  27.857  25.380  1.00  0.00    -0.200 F 
ATOM     82  F   UNL A   1      41.899  25.505  25.069  1.00  0.00    -0.200 F 
ENDBRANCH  48  72
BRANCH  60  83
ATOM     83  C   UNL A   1      44.269  27.877  34.774  1.00  0.00     0.064 A 
ATOM     84  C   UNL A   1      45.621  28.243  34.718  1.00  0.00     0.173 A 
ATOM     85  C   UNL A   1      43.933  26.695  35.452  1.00  0.00     0.173 A 
ATOM     86  F   UNL A   1      45.992  29.358  34.069  1.00  0.00    -0.203 F 
ATOM     87  C   UNL A   1      46.603  27.440  35.289  1.00  0.00     0.198 A 
ATOM     88  C   UNL A   1      44.914  25.910  36.047  1.00  0.00     0.198 A 
ATOM     89  F   UNL A   1      42.652  26.308  35.540  1.00  0.00    -0.203 F 
ATOM     90  F   UNL A   1      47.894  27.781  35.178  1.00  0.00    -0.200 F 
ATOM     91  C   UNL A   1      46.248  26.276  35.957  1.00  0.00     0.200 A 
ATOM     92  F   UNL A   1      44.570  24.793  36.703  1.00  0.00    -0.200 F 
ATOM     93  F   UNL A   1      47.195  25.504  36.507  1.00  0.00    -0.200 F 
ENDBRANCH  60  83
ENDBRANCH  34  35
ENDBRANCH  26  29
ENDBRANCH  24  25
ENDBRANCH  23  24
ENDBRANCH  22  23
ENDBRANCH   1  22
TORSDOF 15
ENDMDL
