MODEL 1
REMARK VINA RESULT:     -12.2      0.000      0.000
REMARK SMILES CC[C@@H](C)[C@H](NC(=O)/C=C/c1ccnn1C)C(=O)NCCCCNC(=O)c1ccc(-c2c3nc(c(-c4c(F)c(F)c(F)c(F)c4F)c4ccc([nH]4)c(-c4c(F)c(F)c(F)c(F)c4F)c4nc(c(-c5c(F)c(F)c(F)c(F)c5F)c5ccc2[nH]5)C=C4)C=C3)cc1
REMARK SMILES IDX 21 1 20 2 19 3 17 4 18 5 5 7 3 8 4 9 2 10 1 11 6 12 7 13
REMARK SMILES IDX 8 15 9 16 10 17 11 18 12 19 15 20 13 21 14 22 16 23 22 24
REMARK SMILES IDX 23 25 24 26 25 27 26 29 27 30 28 31 89 32 29 33 88 34 30 35
REMARK SMILES IDX 31 36 32 37 82 38 33 39 87 40 81 41 83 42 34 43 86 44 80 45
REMARK SMILES IDX 79 46 35 48 67 49 47 50 66 51 48 52 51 53 65 54 84 55 49 56
REMARK SMILES IDX 50 57 64 59 85 60 52 61 36 62 37 63 45 64 38 65 39 66 43 67
REMARK SMILES IDX 46 68 40 69 41 70 44 71 42 72 68 73 69 74 77 75 70 76 71 77
REMARK SMILES IDX 75 78 78 79 72 80 73 81 76 82 74 83 53 84 54 85 62 86 55 87
REMARK SMILES IDX 56 88 60 89 63 90 57 91 58 92 61 93 59 94
REMARK H PARENT 19 6 6 14 24 28 83 47 51 58
REMARK Flexibility Score: inf
ROOT
ATOM      1  C   UNL A   1      31.701  30.591  26.364  1.00  0.00     0.023 C 
ENDROOT
BRANCH   1   2
ATOM      2  C   UNL A   1      33.104  30.110  26.693  1.00  0.00     0.116 C 
BRANCH   2   3
ATOM      3  N   UNL A   1      33.800  29.573  25.545  1.00  0.00    -0.354 N 
ATOM      4  C   UNL A   1      33.511  28.538  24.707  1.00  0.00     0.242 C 
ATOM      5  O   UNL A   1      34.168  28.482  23.661  1.00  0.00    -0.273 OA
ATOM      6  H   UNL A   1      34.639  30.043  25.328  1.00  0.00     0.163 HD
BRANCH   4   7
ATOM      7  C   UNL A   1      32.326  27.558  24.932  1.00  0.00     0.174 C 
BRANCH   7   8
ATOM      8  C   UNL A   1      32.750  26.347  25.827  1.00  0.00     0.018 C 
ATOM      9  C   UNL A   1      34.107  25.724  25.475  1.00  0.00     0.010 C 
BRANCH   8  10
ATOM     10  C   UNL A   1      31.640  25.274  25.851  1.00  0.00     0.002 C 
ATOM     11  C   UNL A   1      31.833  24.197  26.914  1.00  0.00     0.004 C 
ENDBRANCH   8  10
ENDBRANCH   7   8
BRANCH   7  12
ATOM     12  N   UNL A   1      31.659  27.185  23.680  1.00  0.00    -0.340 N 
ATOM     13  C   UNL A   1      31.016  27.828  22.689  1.00  0.00     0.244 C 
ATOM     14  H   UNL A   1      31.690  26.214  23.526  1.00  0.00     0.164 HD
ATOM     15  O   UNL A   1      30.797  27.170  21.667  1.00  0.00    -0.270 OA
BRANCH  13  16
ATOM     16  C   UNL A   1      30.527  29.222  22.710  1.00  0.00     0.073 C 
ATOM     17  C   UNL A   1      29.305  29.723  22.920  1.00  0.00     0.033 C 
BRANCH  17  18
ATOM     18  C   UNL A   1      29.055  31.118  22.843  1.00  0.00     0.061 A 
ATOM     19  C   UNL A   1      29.251  32.121  23.770  1.00  0.00     0.050 A 
ATOM     20  N   UNL A   1      28.451  31.733  21.764  1.00  0.00    -0.269 N 
ATOM     21  C   UNL A   1      28.770  33.290  23.162  1.00  0.00     0.136 A 
ATOM     22  N   UNL A   1      28.289  33.062  21.941  1.00  0.00    -0.181 NA
ATOM     23  C   UNL A   1      27.948  31.166  20.532  1.00  0.00     0.174 C 
ENDBRANCH  17  18
ENDBRANCH  13  16
ENDBRANCH   7  12
ENDBRANCH   4   7
ENDBRANCH   2   3
ENDBRANCH   1   2
BRANCH   1  24
ATOM     24  C   UNL A   1      31.473  32.075  26.629  1.00  0.00     0.023 C 
BRANCH  24  25
ATOM     25  C   UNL A   1      32.616  32.791  27.342  1.00  0.00     0.116 C 
BRANCH  25  26
ATOM     26  N   UNL A   1      32.310  34.168  27.705  1.00  0.00    -0.352 N 
ATOM     27  C   UNL A   1      32.948  34.986  28.601  1.00  0.00     0.251 C 
ATOM     28  H   UNL A   1      31.537  34.566  27.243  1.00  0.00     0.163 HD
ATOM     29  O   UNL A   1      32.496  36.098  28.859  1.00  0.00    -0.269 OA
BRANCH  27  30
ATOM     30  C   UNL A   1      34.159  34.500  29.289  1.00  0.00     0.039 A 
ATOM     31  C   UNL A   1      34.013  33.841  30.510  1.00  0.00     0.014 A 
ATOM     32  C   UNL A   1      35.422  34.649  28.710  1.00  0.00     0.014 A 
ATOM     33  C   UNL A   1      35.131  33.270  31.116  1.00  0.00     0.010 A 
ATOM     34  C   UNL A   1      36.517  34.000  29.268  1.00  0.00     0.010 A 
ATOM     35  C   UNL A   1      36.384  33.306  30.479  1.00  0.00    -0.014 A 
BRANCH  35  36
ATOM     36  C   UNL A   1      37.548  32.607  31.076  1.00  0.00     0.031 A 
ATOM     37  C   UNL A   1      38.051  32.986  32.441  1.00  0.00     0.074 A 
ATOM     38  C   UNL A   1      38.168  31.640  30.371  1.00  0.00     0.049 A 
ATOM     39  N   UNL A   1      39.026  32.459  33.138  1.00  0.00    -0.248 NA
ATOM     40  C   UNL A   1      37.391  34.123  33.102  1.00  0.00     0.031 C 
ATOM     41  C   UNL A   1      37.825  31.240  29.004  1.00  0.00     0.029 A 
ATOM     42  N   UNL A   1      39.210  30.814  30.706  1.00  0.00    -0.354 N 
ATOM     43  C   UNL A   1      39.088  33.191  34.316  1.00  0.00     0.074 A 
ATOM     44  C   UNL A   1      38.108  34.249  34.209  1.00  0.00     0.031 C 
ATOM     45  C   UNL A   1      38.615  30.220  28.633  1.00  0.00     0.029 A 
ATOM     46  C   UNL A   1      39.537  29.914  29.721  1.00  0.00     0.049 A 
ATOM     47  H   UNL A   1      39.680  30.862  31.569  1.00  0.00     0.167 HD
ATOM     48  C   UNL A   1      39.864  32.977  35.404  1.00  0.00     0.037 A 
ATOM     49  C   UNL A   1      40.472  28.945  29.701  1.00  0.00     0.037 A 
ATOM     50  C   UNL A   1      40.835  31.919  35.509  1.00  0.00     0.049 A 
ATOM     51  C   UNL A   1      41.314  28.722  30.928  1.00  0.00     0.074 A 
ATOM     52  C   UNL A   1      41.648  31.596  36.580  1.00  0.00     0.029 A 
ATOM     53  N   UNL A   1      41.125  31.013  34.499  1.00  0.00    -0.354 N 
ATOM     54  N   UNL A   1      41.305  29.370  32.069  1.00  0.00    -0.248 NA
ATOM     55  C   UNL A   1      42.283  27.621  30.872  1.00  0.00     0.031 C 
ATOM     56  C   UNL A   1      42.463  30.522  36.204  1.00  0.00     0.029 A 
ATOM     57  C   UNL A   1      42.117  30.139  34.917  1.00  0.00     0.049 A 
ATOM     58  H   UNL A   1      40.691  30.993  33.616  1.00  0.00     0.167 HD
ATOM     59  C   UNL A   1      42.250  28.744  32.870  1.00  0.00     0.074 A 
ATOM     60  C   UNL A   1      42.787  27.643  32.097  1.00  0.00     0.031 C 
ATOM     61  C   UNL A   1      42.645  29.055  34.130  1.00  0.00     0.037 A 
BRANCH  48  62
ATOM     62  C   UNL A   1      39.679  33.898  36.577  1.00  0.00     0.064 A 
ATOM     63  C   UNL A   1      38.879  33.534  37.673  1.00  0.00     0.173 A 
ATOM     64  C   UNL A   1      40.337  35.136  36.630  1.00  0.00     0.173 A 
ATOM     65  F   UNL A   1      38.217  32.367  37.667  1.00  0.00    -0.203 F 
ATOM     66  C   UNL A   1      38.722  34.387  38.762  1.00  0.00     0.198 A 
ATOM     67  C   UNL A   1      40.203  35.971  37.736  1.00  0.00     0.198 A 
ATOM     68  F   UNL A   1      41.116  35.532  35.613  1.00  0.00    -0.203 F 
ATOM     69  F   UNL A   1      37.913  34.039  39.772  1.00  0.00    -0.200 F 
ATOM     70  C   UNL A   1      39.391  35.600  38.797  1.00  0.00     0.200 A 
ATOM     71  F   UNL A   1      40.861  37.139  37.774  1.00  0.00    -0.200 F 
ATOM     72  F   UNL A   1      39.248  36.416  39.850  1.00  0.00    -0.200 F 
ENDBRANCH  48  62
BRANCH  49  73
ATOM     73  C   UNL A   1      40.641  28.096  28.493  1.00  0.00     0.064 A 
ATOM     74  C   UNL A   1      41.444  28.508  27.420  1.00  0.00     0.173 A 
ATOM     75  C   UNL A   1      39.990  26.858  28.379  1.00  0.00     0.173 A 
ATOM     76  F   UNL A   1      42.075  29.692  27.473  1.00  0.00    -0.203 F 
ATOM     77  C   UNL A   1      41.565  27.733  26.269  1.00  0.00     0.198 A 
ATOM     78  C   UNL A   1      40.138  26.068  27.242  1.00  0.00     0.198 A 
ATOM     79  F   UNL A   1      39.217  26.412  29.380  1.00  0.00    -0.203 F 
ATOM     80  F   UNL A   1      42.291  28.180  25.236  1.00  0.00    -0.200 F 
ATOM     81  C   UNL A   1      40.915  26.511  26.182  1.00  0.00     0.200 A 
ATOM     82  F   UNL A   1      39.523  24.880  27.170  1.00  0.00    -0.200 F 
ATOM     83  F   UNL A   1      41.031  25.764  25.076  1.00  0.00    -0.200 F 
ENDBRANCH  49  73
BRANCH  61  84
ATOM     84  C   UNL A   1      43.695  28.175  34.750  1.00  0.00     0.064 A 
ATOM     85  C   UNL A   1      45.058  28.503  34.693  1.00  0.00     0.173 A 
ATOM     86  C   UNL A   1      43.332  26.992  35.411  1.00  0.00     0.173 A 
ATOM     87  F   UNL A   1      45.458  29.618  34.062  1.00  0.00    -0.203 F 
ATOM     88  C   UNL A   1      46.021  27.657  35.235  1.00  0.00     0.198 A 
ATOM     89  C   UNL A   1      44.295  26.166  35.983  1.00  0.00     0.198 A 
ATOM     90  F   UNL A   1      42.042  26.634  35.502  1.00  0.00    -0.203 F 
ATOM     91  F   UNL A   1      47.322  27.957  35.106  1.00  0.00    -0.200 F 
ATOM     92  C   UNL A   1      45.639  26.492  35.882  1.00  0.00     0.200 A 
ATOM     93  F   UNL A   1      43.924  25.048  36.622  1.00  0.00    -0.200 F 
ATOM     94  F   UNL A   1      46.568  25.677  36.399  1.00  0.00    -0.200 F 
ENDBRANCH  61  84
ENDBRANCH  35  36
ENDBRANCH  27  30
ENDBRANCH  25  26
ENDBRANCH  24  25
ENDBRANCH   1  24
TORSDOF 16
ENDMDL
MODEL 2
REMARK VINA RESULT:     -11.9      1.527      3.745
REMARK SMILES CC[C@@H](C)[C@H](NC(=O)/C=C/c1ccnn1C)C(=O)NCCCCNC(=O)c1ccc(-c2c3nc(c(-c4c(F)c(F)c(F)c(F)c4F)c4ccc([nH]4)c(-c4c(F)c(F)c(F)c(F)c4F)c4nc(c(-c5c(F)c(F)c(F)c(F)c5F)c5ccc2[nH]5)C=C4)C=C3)cc1
REMARK SMILES IDX 21 1 20 2 19 3 17 4 18 5 5 7 3 8 4 9 2 10 1 11 6 12 7 13
REMARK SMILES IDX 8 15 9 16 10 17 11 18 12 19 15 20 13 21 14 22 16 23 22 24
REMARK SMILES IDX 23 25 24 26 25 27 26 29 27 30 28 31 89 32 29 33 88 34 30 35
REMARK SMILES IDX 31 36 32 37 82 38 33 39 87 40 81 41 83 42 34 43 86 44 80 45
REMARK SMILES IDX 79 46 35 48 67 49 47 50 66 51 48 52 51 53 65 54 84 55 49 56
REMARK SMILES IDX 50 57 64 59 85 60 52 61 36 62 37 63 45 64 38 65 39 66 43 67
REMARK SMILES IDX 46 68 40 69 41 70 44 71 42 72 68 73 69 74 77 75 70 76 71 77
REMARK SMILES IDX 75 78 78 79 72 80 73 81 76 82 74 83 53 84 54 85 62 86 55 87
REMARK SMILES IDX 56 88 60 89 63 90 57 91 58 92 61 93 59 94
REMARK H PARENT 19 6 6 14 24 28 83 47 51 58
REMARK Flexibility Score: inf
ROOT
ATOM      1  C   UNL A   1      31.801  30.543  26.654  1.00  0.00     0.023 C 
ENDROOT
BRANCH   1   2
ATOM      2  C   UNL A   1      31.706  30.126  25.196  1.00  0.00     0.116 C 
BRANCH   2   3
ATOM      3  N   UNL A   1      32.951  29.606  24.676  1.00  0.00    -0.354 N 
ATOM      4  C   UNL A   1      33.223  28.578  23.824  1.00  0.00     0.242 C 
ATOM      5  O   UNL A   1      34.370  28.537  23.365  1.00  0.00    -0.273 OA
ATOM      6  H   UNL A   1      33.751  30.084  24.996  1.00  0.00     0.163 HD
BRANCH   4   7
ATOM      7  C   UNL A   1      32.145  27.587  23.304  1.00  0.00     0.174 C 
BRANCH   7   8
ATOM      8  C   UNL A   1      31.774  26.525  24.392  1.00  0.00     0.018 C 
ATOM      9  C   UNL A   1      30.338  26.616  24.924  1.00  0.00     0.010 C 
BRANCH   8  10
ATOM     10  C   UNL A   1      32.794  26.554  25.550  1.00  0.00     0.002 C 
ATOM     11  C   UNL A   1      33.332  25.182  25.945  1.00  0.00     0.004 C 
ENDBRANCH   8  10
ENDBRANCH   7   8
BRANCH   7  12
ATOM     12  N   UNL A   1      32.485  27.022  21.994  1.00  0.00    -0.340 N 
ATOM     13  C   UNL A   1      33.055  25.893  21.538  1.00  0.00     0.244 C 
ATOM     14  H   UNL A   1      32.230  27.625  21.260  1.00  0.00     0.164 HD
ATOM     15  O   UNL A   1      32.948  25.682  20.326  1.00  0.00    -0.270 OA
BRANCH  13  16
ATOM     16  C   UNL A   1      33.812  24.902  22.329  1.00  0.00     0.073 C 
ATOM     17  C   UNL A   1      33.629  23.589  22.502  1.00  0.00     0.033 C 
BRANCH  17  18
ATOM     18  C   UNL A   1      34.468  22.833  23.363  1.00  0.00     0.061 A 
ATOM     19  C   UNL A   1      35.828  22.903  23.586  1.00  0.00     0.050 A 
ATOM     20  N   UNL A   1      34.030  21.763  24.118  1.00  0.00    -0.269 N 
ATOM     21  C   UNL A   1      36.110  21.874  24.496  1.00  0.00     0.136 A 
ATOM     22  N   UNL A   1      35.021  21.182  24.829  1.00  0.00    -0.181 NA
ATOM     23  C   UNL A   1      32.714  21.173  24.220  1.00  0.00     0.174 C 
ENDBRANCH  17  18
ENDBRANCH  13  16
ENDBRANCH   7  12
ENDBRANCH   4   7
ENDBRANCH   2   3
ENDBRANCH   1   2
BRANCH   1  24
ATOM     24  C   UNL A   1      31.511  32.020  26.900  1.00  0.00     0.023 C 
BRANCH  24  25
ATOM     25  C   UNL A   1      32.722  32.864  27.284  1.00  0.00     0.116 C 
BRANCH  25  26
ATOM     26  N   UNL A   1      32.384  34.219  27.700  1.00  0.00    -0.352 N 
ATOM     27  C   UNL A   1      32.991  35.008  28.643  1.00  0.00     0.251 C 
ATOM     28  H   UNL A   1      31.612  34.623  27.242  1.00  0.00     0.163 HD
ATOM     29  O   UNL A   1      32.514  36.100  28.941  1.00  0.00    -0.269 OA
BRANCH  27  30
ATOM     30  C   UNL A   1      34.199  34.514  29.332  1.00  0.00     0.039 A 
ATOM     31  C   UNL A   1      34.045  33.827  30.536  1.00  0.00     0.014 A 
ATOM     32  C   UNL A   1      35.466  34.684  28.768  1.00  0.00     0.014 A 
ATOM     33  C   UNL A   1      35.161  33.249  31.139  1.00  0.00     0.010 A 
ATOM     34  C   UNL A   1      36.560  34.029  29.322  1.00  0.00     0.010 A 
ATOM     35  C   UNL A   1      36.419  33.307  30.516  1.00  0.00    -0.014 A 
BRANCH  35  36
ATOM     36  C   UNL A   1      37.582  32.602  31.108  1.00  0.00     0.031 A 
ATOM     37  C   UNL A   1      38.090  32.975  32.473  1.00  0.00     0.074 A 
ATOM     38  C   UNL A   1      38.197  31.635  30.399  1.00  0.00     0.049 A 
ATOM     39  N   UNL A   1      39.065  32.443  33.166  1.00  0.00    -0.248 NA
ATOM     40  C   UNL A   1      37.436  34.113  33.138  1.00  0.00     0.031 C 
ATOM     41  C   UNL A   1      37.848  31.239  29.032  1.00  0.00     0.029 A 
ATOM     42  N   UNL A   1      39.236  30.803  30.729  1.00  0.00    -0.354 N 
ATOM     43  C   UNL A   1      39.132  33.171  34.346  1.00  0.00     0.074 A 
ATOM     44  C   UNL A   1      38.156  34.233  34.244  1.00  0.00     0.031 C 
ATOM     45  C   UNL A   1      38.633  30.217  28.656  1.00  0.00     0.029 A 
ATOM     46  C   UNL A   1      39.557  29.904  29.741  1.00  0.00     0.049 A 
ATOM     47  H   UNL A   1      39.709  30.847  31.591  1.00  0.00     0.167 HD
ATOM     48  C   UNL A   1      39.910  32.951  35.432  1.00  0.00     0.037 A 
ATOM     49  C   UNL A   1      40.488  28.932  29.717  1.00  0.00     0.037 A 
ATOM     50  C   UNL A   1      40.877  31.889  35.531  1.00  0.00     0.049 A 
ATOM     51  C   UNL A   1      41.332  28.702  30.941  1.00  0.00     0.074 A 
ATOM     52  C   UNL A   1      41.692  31.560  36.600  1.00  0.00     0.029 A 
ATOM     53  N   UNL A   1      41.161  30.984  34.518  1.00  0.00    -0.354 N 
ATOM     54  N   UNL A   1      41.329  29.347  32.083  1.00  0.00    -0.248 NA
ATOM     55  C   UNL A   1      42.297  27.597  30.880  1.00  0.00     0.031 C 
ATOM     56  C   UNL A   1      42.501  30.483  36.218  1.00  0.00     0.029 A 
ATOM     57  C   UNL A   1      42.150  30.105  34.932  1.00  0.00     0.049 A 
ATOM     58  H   UNL A   1      40.725  30.969  33.636  1.00  0.00     0.167 HD
ATOM     59  C   UNL A   1      42.273  28.715  32.881  1.00  0.00     0.074 A 
ATOM     60  C   UNL A   1      42.804  27.615  32.103  1.00  0.00     0.031 C 
ATOM     61  C   UNL A   1      42.673  29.021  34.141  1.00  0.00     0.037 A 
BRANCH  48  62
ATOM     62  C   UNL A   1      39.732  33.869  36.608  1.00  0.00     0.064 A 
ATOM     63  C   UNL A   1      40.363  35.123  36.658  1.00  0.00     0.173 A 
ATOM     64  C   UNL A   1      38.894  33.515  37.676  1.00  0.00     0.173 A 
ATOM     65  F   UNL A   1      41.185  35.505  35.670  1.00  0.00    -0.203 F 
ATOM     66  C   UNL A   1      40.183  35.974  37.746  1.00  0.00     0.198 A 
ATOM     67  C   UNL A   1      38.691  34.383  38.746  1.00  0.00     0.198 A 
ATOM     68  F   UNL A   1      38.265  32.331  37.678  1.00  0.00    -0.203 F 
ATOM     69  F   UNL A   1      40.837  37.143  37.794  1.00  0.00    -0.200 F 
ATOM     70  C   UNL A   1      39.342  35.607  38.784  1.00  0.00     0.200 A 
ATOM     71  F   UNL A   1      37.866  34.032  39.743  1.00  0.00    -0.200 F 
ATOM     72  F   UNL A   1      39.161  36.431  39.825  1.00  0.00    -0.200 F 
ENDBRANCH  48  62
BRANCH  49  73
ATOM     73  C   UNL A   1      40.651  28.085  28.505  1.00  0.00     0.064 A 
ATOM     74  C   UNL A   1      41.448  28.500  27.429  1.00  0.00     0.173 A 
ATOM     75  C   UNL A   1      40.000  26.847  28.393  1.00  0.00     0.173 A 
ATOM     76  F   UNL A   1      42.079  29.684  27.481  1.00  0.00    -0.203 F 
ATOM     77  C   UNL A   1      41.563  27.727  26.276  1.00  0.00     0.198 A 
ATOM     78  C   UNL A   1      40.141  26.060  27.253  1.00  0.00     0.198 A 
ATOM     79  F   UNL A   1      39.232  26.399  29.397  1.00  0.00    -0.203 F 
ATOM     80  F   UNL A   1      42.283  28.176  25.240  1.00  0.00    -0.200 F 
ATOM     81  C   UNL A   1      40.913  26.505  26.190  1.00  0.00     0.200 A 
ATOM     82  F   UNL A   1      39.527  24.871  27.183  1.00  0.00    -0.200 F 
ATOM     83  F   UNL A   1      41.023  25.761  25.082  1.00  0.00    -0.200 F 
ENDBRANCH  49  73
BRANCH  61  84
ATOM     84  C   UNL A   1      43.720  28.136  34.755  1.00  0.00     0.064 A 
ATOM     85  C   UNL A   1      43.378  26.983  35.478  1.00  0.00     0.173 A 
ATOM     86  C   UNL A   1      45.082  28.443  34.617  1.00  0.00     0.173 A 
ATOM     87  F   UNL A   1      42.089  26.652  35.650  1.00  0.00    -0.203 F 
ATOM     88  C   UNL A   1      44.357  26.197  36.078  1.00  0.00     0.198 A 
ATOM     89  C   UNL A   1      46.061  27.634  35.187  1.00  0.00     0.198 A 
ATOM     90  F   UNL A   1      45.466  29.528  33.928  1.00  0.00    -0.203 F 
ATOM     91  F   UNL A   1      44.002  25.139  36.822  1.00  0.00    -0.200 F 
ATOM     92  C   UNL A   1      45.698  26.520  35.929  1.00  0.00     0.200 A 
ATOM     93  F   UNL A   1      47.356  27.939  35.029  1.00  0.00    -0.200 F 
ATOM     94  F   UNL A   1      46.638  25.764  36.510  1.00  0.00    -0.200 F 
ENDBRANCH  61  84
ENDBRANCH  35  36
ENDBRANCH  27  30
ENDBRANCH  25  26
ENDBRANCH  24  25
ENDBRANCH   1  24
TORSDOF 16
ENDMDL
MODEL 3
REMARK VINA RESULT:     -11.9      0.769      7.356
REMARK SMILES CC[C@@H](C)[C@H](NC(=O)/C=C/c1ccnn1C)C(=O)NCCCCNC(=O)c1ccc(-c2c3nc(c(-c4c(F)c(F)c(F)c(F)c4F)c4ccc([nH]4)c(-c4c(F)c(F)c(F)c(F)c4F)c4nc(c(-c5c(F)c(F)c(F)c(F)c5F)c5ccc2[nH]5)C=C4)C=C3)cc1
REMARK SMILES IDX 21 1 20 2 19 3 17 4 18 5 5 7 3 8 4 9 2 10 1 11 6 12 7 13
REMARK SMILES IDX 8 15 9 16 10 17 11 18 12 19 15 20 13 21 14 22 16 23 22 24
REMARK SMILES IDX 23 25 24 26 25 27 26 29 27 30 28 31 89 32 29 33 88 34 30 35
REMARK SMILES IDX 31 36 32 37 82 38 33 39 87 40 81 41 83 42 34 43 86 44 80 45
REMARK SMILES IDX 79 46 35 48 67 49 47 50 66 51 48 52 51 53 65 54 84 55 49 56
REMARK SMILES IDX 50 57 64 59 85 60 52 61 36 62 37 63 45 64 38 65 39 66 43 67
REMARK SMILES IDX 46 68 40 69 41 70 44 71 42 72 68 73 69 74 77 75 70 76 71 77
REMARK SMILES IDX 75 78 78 79 72 80 73 81 76 82 74 83 53 84 54 85 62 86 55 87
REMARK SMILES IDX 56 88 60 89 63 90 57 91 58 92 61 93 59 94
REMARK H PARENT 19 6 6 14 24 28 83 47 51 58
REMARK Flexibility Score: inf
ROOT
ATOM      1  C   UNL A   1      31.796  30.945  26.105  1.00  0.00     0.023 C 
ENDROOT
BRANCH   1   2
ATOM      2  C   UNL A   1      32.944  30.082  26.602  1.00  0.00     0.116 C 
BRANCH   2   3
ATOM      3  N   UNL A   1      33.715  29.497  25.527  1.00  0.00    -0.354 N 
ATOM      4  C   UNL A   1      33.467  28.445  24.697  1.00  0.00     0.242 C 
ATOM      5  O   UNL A   1      34.203  28.344  23.709  1.00  0.00    -0.273 OA
ATOM      6  H   UNL A   1      34.580  29.941  25.365  1.00  0.00     0.163 HD
BRANCH   4   7
ATOM      7  C   UNL A   1      32.245  27.499  24.853  1.00  0.00     0.174 C 
BRANCH   7   8
ATOM      8  C   UNL A   1      32.595  26.256  25.737  1.00  0.00     0.018 C 
ATOM      9  C   UNL A   1      33.955  25.613  25.441  1.00  0.00     0.010 C 
BRANCH   8  10
ATOM     10  C   UNL A   1      31.463  25.207  25.673  1.00  0.00     0.002 C 
ATOM     11  C   UNL A   1      30.104  25.724  26.134  1.00  0.00     0.004 C 
ENDBRANCH   8  10
ENDBRANCH   7   8
BRANCH   7  12
ATOM     12  N   UNL A   1      31.617  27.174  23.569  1.00  0.00    -0.340 N 
ATOM     13  C   UNL A   1      30.911  27.836  22.634  1.00  0.00     0.244 C 
ATOM     14  H   UNL A   1      31.744  26.229  23.329  1.00  0.00     0.164 HD
ATOM     15  O   UNL A   1      30.757  27.252  21.556  1.00  0.00    -0.270 OA
BRANCH  13  16
ATOM     16  C   UNL A   1      30.285  29.166  22.775  1.00  0.00     0.073 C 
ATOM     17  C   UNL A   1      29.699  29.963  21.875  1.00  0.00     0.033 C 
BRANCH  17  18
ATOM     18  C   UNL A   1      29.203  31.243  22.234  1.00  0.00     0.061 A 
ATOM     19  C   UNL A   1      29.290  31.944  23.420  1.00  0.00     0.050 A 
ATOM     20  N   UNL A   1      28.418  32.023  21.408  1.00  0.00    -0.269 N 
ATOM     21  C   UNL A   1      28.565  33.126  23.208  1.00  0.00     0.136 A 
ATOM     22  N   UNL A   1      28.039  33.183  21.986  1.00  0.00    -0.181 NA
ATOM     23  C   UNL A   1      27.928  31.762  20.072  1.00  0.00     0.174 C 
ENDBRANCH  17  18
ENDBRANCH  13  16
ENDBRANCH   7  12
ENDBRANCH   4   7
ENDBRANCH   2   3
ENDBRANCH   1   2
BRANCH   1  24
ATOM     24  C   UNL A   1      31.501  32.156  26.985  1.00  0.00     0.023 C 
BRANCH  24  25
ATOM     25  C   UNL A   1      32.724  32.961  27.413  1.00  0.00     0.116 C 
BRANCH  25  26
ATOM     26  N   UNL A   1      32.425  34.347  27.745  1.00  0.00    -0.352 N 
ATOM     27  C   UNL A   1      33.010  35.154  28.687  1.00  0.00     0.251 C 
ATOM     28  H   UNL A   1      31.703  34.763  27.220  1.00  0.00     0.163 HD
ATOM     29  O   UNL A   1      32.568  36.279  28.904  1.00  0.00    -0.269 OA
BRANCH  27  30
ATOM     30  C   UNL A   1      34.149  34.641  29.472  1.00  0.00     0.039 A 
ATOM     31  C   UNL A   1      33.897  34.087  30.728  1.00  0.00     0.014 A 
ATOM     32  C   UNL A   1      35.445  34.660  28.953  1.00  0.00     0.014 A 
ATOM     33  C   UNL A   1      34.940  33.489  31.433  1.00  0.00     0.010 A 
ATOM     34  C   UNL A   1      36.463  33.982  29.615  1.00  0.00     0.010 A 
ATOM     35  C   UNL A   1      36.222  33.392  30.863  1.00  0.00    -0.014 A 
BRANCH  35  36
ATOM     36  C   UNL A   1      37.303  32.663  31.571  1.00  0.00     0.031 A 
ATOM     37  C   UNL A   1      37.988  31.493  30.923  1.00  0.00     0.074 A 
ATOM     38  C   UNL A   1      37.651  33.048  32.815  1.00  0.00     0.049 A 
ATOM     39  N   UNL A   1      38.979  30.764  31.372  1.00  0.00    -0.248 NA
ATOM     40  C   UNL A   1      37.479  31.066  29.611  1.00  0.00     0.031 C 
ATOM     41  C   UNL A   1      37.003  34.116  33.580  1.00  0.00     0.029 A 
ATOM     42  N   UNL A   1      38.637  32.592  33.652  1.00  0.00    -0.354 N 
ATOM     43  C   UNL A   1      39.215  29.805  30.397  1.00  0.00     0.074 A 
ATOM     44  C   UNL A   1      38.215  29.991  29.369  1.00  0.00     0.031 C 
ATOM     45  C   UNL A   1      37.634  34.258  34.757  1.00  0.00     0.029 A 
ATOM     46  C   UNL A   1      38.710  33.276  34.841  1.00  0.00     0.049 A 
ATOM     47  H   UNL A   1      39.235  31.845  33.423  1.00  0.00     0.167 HD
ATOM     48  C   UNL A   1      40.200  28.877  30.344  1.00  0.00     0.037 A 
ATOM     49  C   UNL A   1      39.553  33.130  35.879  1.00  0.00     0.037 A 
ATOM     50  C   UNL A   1      41.197  28.698  31.367  1.00  0.00     0.049 A 
ATOM     51  C   UNL A   1      40.646  32.099  35.791  1.00  0.00     0.074 A 
ATOM     52  C   UNL A   1      42.258  27.811  31.394  1.00  0.00     0.029 A 
ATOM     53  N   UNL A   1      41.252  29.424  32.549  1.00  0.00    -0.354 N 
ATOM     54  N   UNL A   1      40.909  31.252  34.824  1.00  0.00    -0.248 NA
ATOM     55  C   UNL A   1      41.570  32.016  36.928  1.00  0.00     0.031 C 
ATOM     56  C   UNL A   1      42.929  27.967  32.612  1.00  0.00     0.029 A 
ATOM     57  C   UNL A   1      42.321  28.992  33.320  1.00  0.00     0.049 A 
ATOM     58  H   UNL A   1      40.626  30.138  32.803  1.00  0.00     0.167 HD
ATOM     59  C   UNL A   1      42.037  30.551  35.228  1.00  0.00     0.074 A 
ATOM     60  C   UNL A   1      42.428  31.097  36.511  1.00  0.00     0.031 C 
ATOM     61  C   UNL A   1      42.689  29.541  34.599  1.00  0.00     0.037 A 
BRANCH  48  62
ATOM     62  C   UNL A   1      40.257  27.997  29.128  1.00  0.00     0.064 A 
ATOM     63  C   UNL A   1      39.545  26.788  29.067  1.00  0.00     0.173 A 
ATOM     64  C   UNL A   1      40.993  28.379  27.997  1.00  0.00     0.173 A 
ATOM     65  F   UNL A   1      38.837  26.368  30.126  1.00  0.00    -0.203 F 
ATOM     66  C   UNL A   1      39.593  25.982  27.932  1.00  0.00     0.198 A 
ATOM     67  C   UNL A   1      41.011  27.587  26.851  1.00  0.00     0.198 A 
ATOM     68  F   UNL A   1      41.689  29.526  27.999  1.00  0.00    -0.203 F 
ATOM     69  F   UNL A   1      38.946  24.808  27.919  1.00  0.00    -0.200 F 
ATOM     70  C   UNL A   1      40.318  26.386  26.823  1.00  0.00     0.200 A 
ATOM     71  F   UNL A   1      41.703  27.986  25.774  1.00  0.00    -0.200 F 
ATOM     72  F   UNL A   1      40.354  25.617  25.727  1.00  0.00    -0.200 F 
ENDBRANCH  48  62
BRANCH  49  73
ATOM     73  C   UNL A   1      39.419  34.000  37.078  1.00  0.00     0.064 A 
ATOM     74  C   UNL A   1      39.996  35.276  37.120  1.00  0.00     0.173 A 
ATOM     75  C   UNL A   1      38.721  33.564  38.215  1.00  0.00     0.173 A 
ATOM     76  F   UNL A   1      40.688  35.732  36.064  1.00  0.00    -0.203 F 
ATOM     77  C   UNL A   1      39.909  36.071  38.261  1.00  0.00     0.198 A 
ATOM     78  C   UNL A   1      38.606  34.373  39.344  1.00  0.00     0.198 A 
ATOM     79  F   UNL A   1      38.142  32.354  38.225  1.00  0.00    -0.203 F 
ATOM     80  F   UNL A   1      40.521  37.262  38.293  1.00  0.00    -0.200 F 
ATOM     81  C   UNL A   1      39.209  35.621  39.371  1.00  0.00     0.200 A 
ATOM     82  F   UNL A   1      37.914  33.941  40.406  1.00  0.00    -0.200 F 
ATOM     83  F   UNL A   1      39.125  36.384  40.468  1.00  0.00    -0.200 F 
ENDBRANCH  49  73
BRANCH  61  84
ATOM     84  C   UNL A   1      43.902  28.982  35.288  1.00  0.00     0.064 A 
ATOM     85  C   UNL A   1      43.803  27.937  36.219  1.00  0.00     0.173 A 
ATOM     86  C   UNL A   1      45.178  29.495  35.011  1.00  0.00     0.173 A 
ATOM     87  F   UNL A   1      42.604  27.419  36.528  1.00  0.00    -0.203 F 
ATOM     88  C   UNL A   1      44.930  27.458  36.880  1.00  0.00     0.198 A 
ATOM     89  C   UNL A   1      46.308  28.990  35.648  1.00  0.00     0.198 A 
ATOM     90  F   UNL A   1      45.331  30.489  34.123  1.00  0.00    -0.203 F 
ATOM     91  F   UNL A   1      44.802  26.507  37.817  1.00  0.00    -0.200 F 
ATOM     92  C   UNL A   1      46.182  27.982  36.591  1.00  0.00     0.200 A 
ATOM     93  F   UNL A   1      47.518  29.486  35.356  1.00  0.00    -0.200 F 
ATOM     94  F   UNL A   1      47.265  27.522  37.232  1.00  0.00    -0.200 F 
ENDBRANCH  61  84
ENDBRANCH  35  36
ENDBRANCH  27  30
ENDBRANCH  25  26
ENDBRANCH  24  25
ENDBRANCH   1  24
TORSDOF 16
ENDMDL
