MODEL 1
REMARK VINA RESULT:     -13.1      0.000      0.000
REMARK SMILES Cc1occc1C(=O)N1CCC(C(=O)NCCCCNC(=O)c2ccc(-c3c4nc(c(-c5c(F)c(F)c(F)c(F)c5F)c5ccc([nH]5)c(-c5c(F)c(F)c(F)c(F)c5F)c5nc(c(-c6c(F)c(F)c(F)c(F)c6F)c6ccc3[nH]6)C=C5)C=C4)cc2)(n2cccn2)CC1
REMARK SMILES IDX 18 1 17 2 16 3 15 4 13 5 14 6 12 8 7 9 8 10 9 11 10 12 92 13
REMARK SMILES IDX 11 14 91 15 6 16 1 17 2 18 3 19 4 20 5 21 86 22 87 23 90 24
REMARK SMILES IDX 88 25 89 26 19 27 20 28 21 29 22 31 23 32 24 33 85 34 25 35
REMARK SMILES IDX 84 36 26 37 27 38 28 39 78 40 29 41 83 42 77 43 79 44 30 45
REMARK SMILES IDX 82 46 76 47 75 48 31 50 63 51 43 52 62 53 44 54 47 55 61 56
REMARK SMILES IDX 80 57 45 58 46 59 60 61 81 62 48 63 32 64 33 65 41 66 34 67
REMARK SMILES IDX 35 68 39 69 42 70 36 71 37 72 40 73 38 74 64 75 65 76 73 77
REMARK SMILES IDX 66 78 67 79 71 80 74 81 68 82 69 83 72 84 70 85 49 86 50 87
REMARK SMILES IDX 58 88 51 89 52 90 56 91 59 92 53 93 54 94 57 95 55 96
REMARK H PARENT 15 7 20 30 79 49 47 60
REMARK Flexibility Score: inf
ROOT
ATOM      1  C   UNL A   1      31.275  31.744  26.509  1.00  0.00     0.023 C 
ENDROOT
BRANCH   1   2
ATOM      2  C   UNL A   1      31.413  30.595  25.508  1.00  0.00     0.023 C 
BRANCH   2   3
ATOM      3  C   UNL A   1      32.475  29.547  25.842  1.00  0.00     0.116 C 
BRANCH   3   4
ATOM      4  N   UNL A   1      33.494  29.434  24.810  1.00  0.00    -0.354 N 
ATOM      5  C   UNL A   1      33.662  28.599  23.730  1.00  0.00     0.248 C 
ATOM      6  O   UNL A   1      34.560  28.984  22.979  1.00  0.00    -0.272 OA
ATOM      7  H   UNL A   1      34.216  30.096  24.904  1.00  0.00     0.163 HD
BRANCH   5   8
ATOM      8  C   UNL A   1      32.732  27.355  23.479  1.00  0.00     0.144 C 
ATOM      9  C   UNL A   1      33.957  23.286  23.263  1.00  0.00     0.257 C 
ATOM     10  O   UNL A   1      34.848  23.141  22.423  1.00  0.00    -0.269 OA
ATOM     11  N   UNL A   1      33.242  24.482  23.344  1.00  0.00    -0.338 N 
ATOM     12  C   UNL A   1      32.960  25.177  22.100  1.00  0.00     0.123 C 
ATOM     13  C   UNL A   1      32.622  24.989  24.559  1.00  0.00     0.123 C 
ATOM     14  C   UNL A   1      33.192  26.674  22.166  1.00  0.00     0.062 C 
ATOM     15  C   UNL A   1      32.861  26.480  24.757  1.00  0.00     0.062 C 
BRANCH   9  16
ATOM     16  C   UNL A   1      33.615  22.186  24.157  1.00  0.00     0.081 A 
ATOM     17  C   UNL A   1      35.031  22.608  26.360  1.00  0.00     0.088 C 
ATOM     18  C   UNL A   1      34.079  21.943  25.444  1.00  0.00     0.113 A 
ATOM     19  O   UNL A   1      33.439  20.866  25.982  1.00  0.00    -0.469 OA
ATOM     20  C   UNL A   1      32.518  20.449  25.081  1.00  0.00     0.196 A 
ATOM     21  C   UNL A   1      32.576  21.227  23.951  1.00  0.00     0.056 A 
ENDBRANCH   9  16
BRANCH   8  22
ATOM     22  N   UNL A   1      31.282  27.706  23.295  1.00  0.00    -0.257 N 
ATOM     23  C   UNL A   1      30.190  27.009  23.770  1.00  0.00     0.110 A 
ATOM     24  N   UNL A   1      30.887  28.731  22.517  1.00  0.00    -0.181 NA
ATOM     25  C   UNL A   1      29.064  27.668  23.340  1.00  0.00     0.042 A 
ATOM     26  C   UNL A   1      29.557  28.735  22.584  1.00  0.00     0.135 A 
ENDBRANCH   8  22
ENDBRANCH   5   8
ENDBRANCH   3   4
ENDBRANCH   2   3
ENDBRANCH   1   2
BRANCH   1  27
ATOM     27  C   UNL A   1      32.566  32.460  26.895  1.00  0.00     0.116 C 
BRANCH  27  28
ATOM     28  N   UNL A   1      32.350  33.798  27.417  1.00  0.00    -0.352 N 
ATOM     29  C   UNL A   1      33.037  34.489  28.383  1.00  0.00     0.251 C 
ATOM     30  H   UNL A   1      31.593  34.284  27.015  1.00  0.00     0.163 HD
ATOM     31  O   UNL A   1      32.634  35.596  28.734  1.00  0.00    -0.269 OA
BRANCH  29  32
ATOM     32  C   UNL A   1      34.232  33.910  29.035  1.00  0.00     0.039 A 
ATOM     33  C   UNL A   1      34.040  32.913  29.998  1.00  0.00     0.014 A 
ATOM     34  C   UNL A   1      35.526  34.353  28.744  1.00  0.00     0.014 A 
ATOM     35  C   UNL A   1      35.140  32.324  30.625  1.00  0.00     0.010 A 
ATOM     36  C   UNL A   1      36.627  33.729  29.331  1.00  0.00     0.010 A 
ATOM     37  C   UNL A   1      36.443  32.710  30.278  1.00  0.00    -0.014 A 
BRANCH  37  38
ATOM     38  C   UNL A   1      37.617  32.048  30.899  1.00  0.00     0.031 A 
ATOM     39  C   UNL A   1      38.062  32.427  32.283  1.00  0.00     0.074 A 
ATOM     40  C   UNL A   1      38.311  31.133  30.196  1.00  0.00     0.049 A 
ATOM     41  N   UNL A   1      39.065  31.963  32.984  1.00  0.00    -0.248 NA
ATOM     42  C   UNL A   1      37.291  33.481  32.960  1.00  0.00     0.031 C 
ATOM     43  C   UNL A   1      38.015  30.720  28.824  1.00  0.00     0.029 A 
ATOM     44  N   UNL A   1      39.411  30.389  30.539  1.00  0.00    -0.354 N 
ATOM     45  C   UNL A   1      39.060  32.680  34.172  1.00  0.00     0.074 A 
ATOM     46  C   UNL A   1      37.974  33.633  34.087  1.00  0.00     0.031 C 
ATOM     47  C   UNL A   1      38.896  29.779  28.449  1.00  0.00     0.029 A 
ATOM     48  C   UNL A   1      39.828  29.536  29.548  1.00  0.00     0.049 A 
ATOM     49  H   UNL A   1      39.860  30.460  31.413  1.00  0.00     0.167 HD
ATOM     50  C   UNL A   1      39.876  32.545  35.244  1.00  0.00     0.037 A 
ATOM     51  C   UNL A   1      40.839  28.648  29.531  1.00  0.00     0.037 A 
ATOM     52  C   UNL A   1      40.930  31.570  35.350  1.00  0.00     0.049 A 
ATOM     53  C   UNL A   1      41.697  28.480  30.753  1.00  0.00     0.074 A 
ATOM     54  C   UNL A   1      41.759  31.307  36.426  1.00  0.00     0.029 A 
ATOM     55  N   UNL A   1      41.293  30.694  34.339  1.00  0.00    -0.354 N 
ATOM     56  N   UNL A   1      41.634  29.112  31.900  1.00  0.00    -0.248 NA
ATOM     57  C   UNL A   1      42.759  27.466  30.683  1.00  0.00     0.031 C 
ATOM     58  C   UNL A   1      42.641  30.285  36.058  1.00  0.00     0.029 A 
ATOM     59  C   UNL A   1      42.343  29.894  34.763  1.00  0.00     0.049 A 
ATOM     60  H   UNL A   1      40.869  30.646  33.452  1.00  0.00     0.167 HD
ATOM     61  C   UNL A   1      42.625  28.558  32.695  1.00  0.00     0.074 A 
ATOM     62  C   UNL A   1      43.275  27.533  31.903  1.00  0.00     0.031 C 
ATOM     63  C   UNL A   1      42.966  28.870  33.968  1.00  0.00     0.037 A 
BRANCH  50  64
ATOM     64  C   UNL A   1      39.659  33.476  36.398  1.00  0.00     0.064 A 
ATOM     65  C   UNL A   1      40.273  34.735  36.448  1.00  0.00     0.173 A 
ATOM     66  C   UNL A   1      38.803  33.117  37.448  1.00  0.00     0.173 A 
ATOM     67  F   UNL A   1      41.111  35.116  35.472  1.00  0.00    -0.203 F 
ATOM     68  C   UNL A   1      40.055  35.595  37.521  1.00  0.00     0.198 A 
ATOM     69  C   UNL A   1      38.569  33.988  38.510  1.00  0.00     0.198 A 
ATOM     70  F   UNL A   1      38.190  31.924  37.445  1.00  0.00    -0.203 F 
ATOM     71  F   UNL A   1      40.681  36.779  37.567  1.00  0.00    -0.200 F 
ATOM     72  C   UNL A   1      39.199  35.223  38.547  1.00  0.00     0.200 A 
ATOM     73  F   UNL A   1      37.738  33.631  39.499  1.00  0.00    -0.200 F 
ATOM     74  F   UNL A   1      38.988  36.053  39.578  1.00  0.00    -0.200 F 
ENDBRANCH  50  64
BRANCH  51  75
ATOM     75  C   UNL A   1      41.059  27.808  28.329  1.00  0.00     0.064 A 
ATOM     76  C   UNL A   1      41.914  28.239  27.306  1.00  0.00     0.173 A 
ATOM     77  C   UNL A   1      40.437  26.561  28.184  1.00  0.00     0.173 A 
ATOM     78  F   UNL A   1      42.515  29.435  27.395  1.00  0.00    -0.203 F 
ATOM     79  C   UNL A   1      42.129  27.458  26.173  1.00  0.00     0.198 A 
ATOM     80  C   UNL A   1      40.667  25.773  27.060  1.00  0.00     0.198 A 
ATOM     81  F   UNL A   1      39.615  26.107  29.141  1.00  0.00    -0.203 F 
ATOM     82  F   UNL A   1      42.927  27.906  25.195  1.00  0.00    -0.200 F 
ATOM     83  C   UNL A   1      41.509  26.223  26.053  1.00  0.00     0.200 A 
ATOM     84  F   UNL A   1      40.073  24.577  26.949  1.00  0.00    -0.200 F 
ATOM     85  F   UNL A   1      41.718  25.470  24.965  1.00  0.00    -0.200 F 
ENDBRANCH  51  75
BRANCH  63  86
ATOM     86  C   UNL A   1      44.067  28.072  34.597  1.00  0.00     0.064 A 
ATOM     87  C   UNL A   1      43.808  26.866  35.262  1.00  0.00     0.173 A 
ATOM     88  C   UNL A   1      45.398  28.501  34.497  1.00  0.00     0.173 A 
ATOM     89  F   UNL A   1      42.548  26.427  35.395  1.00  0.00    -0.203 F 
ATOM     90  C   UNL A   1      44.844  26.124  35.821  1.00  0.00     0.198 A 
ATOM     91  C   UNL A   1      46.434  27.747  35.040  1.00  0.00     0.198 A 
ATOM     92  F   UNL A   1      45.694  29.648  33.866  1.00  0.00    -0.203 F 
ATOM     93  F   UNL A   1      44.573  24.990  36.482  1.00  0.00    -0.200 F 
ATOM     94  C   UNL A   1      46.155  26.561  35.705  1.00  0.00     0.200 A 
ATOM     95  F   UNL A   1      47.701  28.166  34.923  1.00  0.00    -0.200 F 
ATOM     96  F   UNL A   1      47.152  25.843  36.240  1.00  0.00    -0.200 F 
ENDBRANCH  63  86
ENDBRANCH  37  38
ENDBRANCH  29  32
ENDBRANCH  27  28
ENDBRANCH   1  27
TORSDOF 13
ENDMDL
MODEL 2
REMARK VINA RESULT:     -13.0      0.103      1.921
REMARK SMILES Cc1occc1C(=O)N1CCC(C(=O)NCCCCNC(=O)c2ccc(-c3c4nc(c(-c5c(F)c(F)c(F)c(F)c5F)c5ccc([nH]5)c(-c5c(F)c(F)c(F)c(F)c5F)c5nc(c(-c6c(F)c(F)c(F)c(F)c6F)c6ccc3[nH]6)C=C5)C=C4)cc2)(n2cccn2)CC1
REMARK SMILES IDX 18 1 17 2 16 3 15 4 13 5 14 6 12 8 7 9 8 10 9 11 10 12 92 13
REMARK SMILES IDX 11 14 91 15 6 16 1 17 2 18 3 19 4 20 5 21 86 22 87 23 90 24
REMARK SMILES IDX 88 25 89 26 19 27 20 28 21 29 22 31 23 32 24 33 85 34 25 35
REMARK SMILES IDX 84 36 26 37 27 38 28 39 78 40 29 41 83 42 77 43 79 44 30 45
REMARK SMILES IDX 82 46 76 47 75 48 31 50 63 51 43 52 62 53 44 54 47 55 61 56
REMARK SMILES IDX 80 57 45 58 46 59 60 61 81 62 48 63 32 64 33 65 41 66 34 67
REMARK SMILES IDX 35 68 39 69 42 70 36 71 37 72 40 73 38 74 64 75 65 76 73 77
REMARK SMILES IDX 66 78 67 79 71 80 74 81 68 82 69 83 72 84 70 85 49 86 50 87
REMARK SMILES IDX 58 88 51 89 52 90 56 91 59 92 53 93 54 94 57 95 55 96
REMARK H PARENT 15 7 20 30 79 49 47 60
REMARK Flexibility Score: inf
ROOT
ATOM      1  C   UNL A   1      31.272  31.761  26.532  1.00  0.00     0.023 C 
ENDROOT
BRANCH   1   2
ATOM      2  C   UNL A   1      31.402  30.658  25.479  1.00  0.00     0.023 C 
BRANCH   2   3
ATOM      3  C   UNL A   1      32.435  29.572  25.778  1.00  0.00     0.116 C 
BRANCH   3   4
ATOM      4  N   UNL A   1      33.445  29.458  24.738  1.00  0.00    -0.354 N 
ATOM      5  C   UNL A   1      33.623  28.599  23.678  1.00  0.00     0.248 C 
ATOM      6  O   UNL A   1      34.502  28.986  22.906  1.00  0.00    -0.272 OA
ATOM      7  H   UNL A   1      34.151  30.140  24.805  1.00  0.00     0.163 HD
BRANCH   5   8
ATOM      8  C   UNL A   1      32.723  27.325  23.471  1.00  0.00     0.144 C 
ATOM      9  C   UNL A   1      34.059  23.289  23.288  1.00  0.00     0.257 C 
ATOM     10  O   UNL A   1      34.932  23.156  22.427  1.00  0.00    -0.269 OA
ATOM     11  N   UNL A   1      33.312  24.466  23.369  1.00  0.00    -0.338 N 
ATOM     12  C   UNL A   1      32.978  25.132  22.122  1.00  0.00     0.123 C 
ATOM     13  C   UNL A   1      32.709  24.975  24.591  1.00  0.00     0.123 C 
ATOM     14  C   UNL A   1      33.168  26.636  22.157  1.00  0.00     0.062 C 
ATOM     15  C   UNL A   1      32.909  26.475  24.759  1.00  0.00     0.062 C 
BRANCH   9  16
ATOM     16  C   UNL A   1      33.772  22.195  24.208  1.00  0.00     0.081 A 
ATOM     17  C   UNL A   1      35.158  22.742  26.402  1.00  0.00     0.088 C 
ATOM     18  C   UNL A   1      34.245  22.007  25.501  1.00  0.00     0.113 A 
ATOM     19  O   UNL A   1      33.659  20.912  26.065  1.00  0.00    -0.469 OA
ATOM     20  C   UNL A   1      32.763  20.426  25.172  1.00  0.00     0.196 A 
ATOM     21  C   UNL A   1      32.784  21.179  24.024  1.00  0.00     0.056 A 
ENDBRANCH   9  16
BRANCH   8  22
ATOM     22  N   UNL A   1      31.259  27.631  23.319  1.00  0.00    -0.257 N 
ATOM     23  C   UNL A   1      30.199  26.883  23.790  1.00  0.00     0.110 A 
ATOM     24  N   UNL A   1      30.818  28.665  22.578  1.00  0.00    -0.181 NA
ATOM     25  C   UNL A   1      29.045  27.516  23.396  1.00  0.00     0.042 A 
ATOM     26  C   UNL A   1      29.490  28.621  22.665  1.00  0.00     0.135 A 
ENDBRANCH   8  22
ENDBRANCH   5   8
ENDBRANCH   3   4
ENDBRANCH   2   3
ENDBRANCH   1   2
BRANCH   1  27
ATOM     27  C   UNL A   1      32.562  32.479  26.918  1.00  0.00     0.116 C 
BRANCH  27  28
ATOM     28  N   UNL A   1      32.344  33.818  27.437  1.00  0.00    -0.352 N 
ATOM     29  C   UNL A   1      33.030  34.512  28.401  1.00  0.00     0.251 C 
ATOM     30  H   UNL A   1      31.586  34.302  27.035  1.00  0.00     0.163 HD
ATOM     31  O   UNL A   1      32.625  35.619  28.750  1.00  0.00    -0.269 OA
BRANCH  29  32
ATOM     32  C   UNL A   1      34.226  33.936  29.054  1.00  0.00     0.039 A 
ATOM     33  C   UNL A   1      34.036  32.963  30.040  1.00  0.00     0.014 A 
ATOM     34  C   UNL A   1      35.521  34.361  28.740  1.00  0.00     0.014 A 
ATOM     35  C   UNL A   1      35.137  32.377  30.669  1.00  0.00     0.010 A 
ATOM     36  C   UNL A   1      36.622  33.740  29.329  1.00  0.00     0.010 A 
ATOM     37  C   UNL A   1      36.439  32.743  30.300  1.00  0.00    -0.014 A 
BRANCH  37  38
ATOM     38  C   UNL A   1      37.613  32.085  30.924  1.00  0.00     0.031 A 
ATOM     39  C   UNL A   1      38.057  32.468  32.307  1.00  0.00     0.074 A 
ATOM     40  C   UNL A   1      38.309  31.169  30.224  1.00  0.00     0.049 A 
ATOM     41  N   UNL A   1      39.061  32.007  33.010  1.00  0.00    -0.248 NA
ATOM     42  C   UNL A   1      37.285  33.523  32.981  1.00  0.00     0.031 C 
ATOM     43  C   UNL A   1      38.014  30.752  28.852  1.00  0.00     0.029 A 
ATOM     44  N   UNL A   1      39.410  30.427  30.569  1.00  0.00    -0.354 N 
ATOM     45  C   UNL A   1      39.054  32.727  34.196  1.00  0.00     0.074 A 
ATOM     46  C   UNL A   1      37.966  33.679  34.108  1.00  0.00     0.031 C 
ATOM     47  C   UNL A   1      38.897  29.811  28.480  1.00  0.00     0.029 A 
ATOM     48  C   UNL A   1      39.828  29.572  29.581  1.00  0.00     0.049 A 
ATOM     49  H   UNL A   1      39.858  30.501  31.443  1.00  0.00     0.167 HD
ATOM     50  C   UNL A   1      39.870  32.597  35.268  1.00  0.00     0.037 A 
ATOM     51  C   UNL A   1      40.841  28.685  29.566  1.00  0.00     0.037 A 
ATOM     52  C   UNL A   1      40.924  31.623  35.377  1.00  0.00     0.049 A 
ATOM     53  C   UNL A   1      41.698  28.522  30.789  1.00  0.00     0.074 A 
ATOM     54  C   UNL A   1      41.754  31.364  36.455  1.00  0.00     0.029 A 
ATOM     55  N   UNL A   1      41.290  30.744  34.369  1.00  0.00    -0.354 N 
ATOM     56  N   UNL A   1      41.634  29.156  31.934  1.00  0.00    -0.248 NA
ATOM     57  C   UNL A   1      42.761  27.509  30.723  1.00  0.00     0.031 C 
ATOM     58  C   UNL A   1      42.637  30.341  36.091  1.00  0.00     0.029 A 
ATOM     59  C   UNL A   1      42.340  29.947  34.796  1.00  0.00     0.049 A 
ATOM     60  H   UNL A   1      40.866  30.693  33.482  1.00  0.00     0.167 HD
ATOM     61  C   UNL A   1      42.625  28.606  32.731  1.00  0.00     0.074 A 
ATOM     62  C   UNL A   1      43.276  27.580  31.943  1.00  0.00     0.031 C 
ATOM     63  C   UNL A   1      42.964  28.921  34.004  1.00  0.00     0.037 A 
BRANCH  50  64
ATOM     64  C   UNL A   1      39.651  33.529  36.420  1.00  0.00     0.064 A 
ATOM     65  C   UNL A   1      38.822  33.180  37.496  1.00  0.00     0.173 A 
ATOM     66  C   UNL A   1      40.301  34.771  36.464  1.00  0.00     0.173 A 
ATOM     67  F   UNL A   1      38.169  32.008  37.492  1.00  0.00    -0.203 F 
ATOM     68  C   UNL A   1      38.635  34.051  38.566  1.00  0.00     0.198 A 
ATOM     69  C   UNL A   1      40.128  35.630  37.545  1.00  0.00     0.198 A 
ATOM     70  F   UNL A   1      41.105  35.149  35.459  1.00  0.00    -0.203 F 
ATOM     71  F   UNL A   1      37.809  33.713  39.567  1.00  0.00    -0.200 F 
ATOM     72  C   UNL A   1      39.292  35.272  38.592  1.00  0.00     0.200 A 
ATOM     73  F   UNL A   1      40.767  36.809  37.574  1.00  0.00    -0.200 F 
ATOM     74  F   UNL A   1      39.112  36.109  39.624  1.00  0.00    -0.200 F 
ENDBRANCH  50  64
BRANCH  51  75
ATOM     75  C   UNL A   1      41.063  27.843  28.367  1.00  0.00     0.064 A 
ATOM     76  C   UNL A   1      40.418  26.605  28.236  1.00  0.00     0.173 A 
ATOM     77  C   UNL A   1      41.906  28.257  27.328  1.00  0.00     0.173 A 
ATOM     78  F   UNL A   1      39.617  26.161  29.217  1.00  0.00    -0.203 F 
ATOM     79  C   UNL A   1      40.618  25.807  27.113  1.00  0.00     0.198 A 
ATOM     80  C   UNL A   1      42.092  27.466  26.197  1.00  0.00     0.198 A 
ATOM     81  F   UNL A   1      42.540  29.436  27.409  1.00  0.00    -0.203 F 
ATOM     82  F   UNL A   1      40.013  24.614  27.026  1.00  0.00    -0.200 F 
ATOM     83  C   UNL A   1      41.451  26.240  26.092  1.00  0.00     0.200 A 
ATOM     84  F   UNL A   1      42.890  27.890  25.208  1.00  0.00    -0.200 F 
ATOM     85  F   UNL A   1      41.641  25.472  25.010  1.00  0.00    -0.200 F 
ENDBRANCH  51  75
BRANCH  63  86
ATOM     86  C   UNL A   1      44.066  28.127  34.635  1.00  0.00     0.064 A 
ATOM     87  C   UNL A   1      45.399  28.559  34.587  1.00  0.00     0.173 A 
ATOM     88  C   UNL A   1      43.779  26.942  35.329  1.00  0.00     0.173 A 
ATOM     89  F   UNL A   1      45.721  29.678  33.922  1.00  0.00    -0.203 F 
ATOM     90  C   UNL A   1      46.409  27.823  35.199  1.00  0.00     0.198 A 
ATOM     91  C   UNL A   1      44.789  26.219  35.955  1.00  0.00     0.198 A 
ATOM     92  F   UNL A   1      42.517  26.492  35.403  1.00  0.00    -0.203 F 
ATOM     93  F   UNL A   1      47.681  28.235  35.114  1.00  0.00    -0.200 F 
ATOM     94  C   UNL A   1      46.103  26.657  35.886  1.00  0.00     0.200 A 
ATOM     95  F   UNL A   1      44.492  25.096  36.624  1.00  0.00    -0.200 F 
ATOM     96  F   UNL A   1      47.077  25.951  36.478  1.00  0.00    -0.200 F 
ENDBRANCH  63  86
ENDBRANCH  37  38
ENDBRANCH  29  32
ENDBRANCH  27  28
ENDBRANCH   1  27
TORSDOF 13
ENDMDL
MODEL 3
REMARK VINA RESULT:     -12.9      4.948     10.818
REMARK SMILES Cc1occc1C(=O)N1CCC(C(=O)NCCCCNC(=O)c2ccc(-c3c4nc(c(-c5c(F)c(F)c(F)c(F)c5F)c5ccc([nH]5)c(-c5c(F)c(F)c(F)c(F)c5F)c5nc(c(-c6c(F)c(F)c(F)c(F)c6F)c6ccc3[nH]6)C=C5)C=C4)cc2)(n2cccn2)CC1
REMARK SMILES IDX 18 1 17 2 16 3 15 4 13 5 14 6 12 8 7 9 8 10 9 11 10 12 92 13
REMARK SMILES IDX 11 14 91 15 6 16 1 17 2 18 3 19 4 20 5 21 86 22 87 23 90 24
REMARK SMILES IDX 88 25 89 26 19 27 20 28 21 29 22 31 23 32 24 33 85 34 25 35
REMARK SMILES IDX 84 36 26 37 27 38 28 39 78 40 29 41 83 42 77 43 79 44 30 45
REMARK SMILES IDX 82 46 76 47 75 48 31 50 63 51 43 52 62 53 44 54 47 55 61 56
REMARK SMILES IDX 80 57 45 58 46 59 60 61 81 62 48 63 32 64 33 65 41 66 34 67
REMARK SMILES IDX 35 68 39 69 42 70 36 71 37 72 40 73 38 74 64 75 65 76 73 77
REMARK SMILES IDX 66 78 67 79 71 80 74 81 68 82 69 83 72 84 70 85 49 86 50 87
REMARK SMILES IDX 58 88 51 89 52 90 56 91 59 92 53 93 54 94 57 95 55 96
REMARK H PARENT 15 7 20 30 79 49 47 60
REMARK Flexibility Score: inf
ROOT
ATOM      1  C   UNL A   1      37.878  19.653  24.719  1.00  0.00     0.023 C 
ENDROOT
BRANCH   1   2
ATOM      2  C   UNL A   1      36.439  20.091  25.002  1.00  0.00     0.023 C 
BRANCH   2   3
ATOM      3  C   UNL A   1      36.213  21.599  25.107  1.00  0.00     0.116 C 
BRANCH   3   4
ATOM      4  N   UNL A   1      35.704  21.999  26.410  1.00  0.00    -0.354 N 
ATOM      5  C   UNL A   1      34.479  22.435  26.858  1.00  0.00     0.248 C 
ATOM      6  O   UNL A   1      34.415  22.463  28.088  1.00  0.00    -0.272 OA
ATOM      7  H   UNL A   1      36.380  21.946  27.123  1.00  0.00     0.163 HD
BRANCH   5   8
ATOM      8  C   UNL A   1      33.296  22.766  25.874  1.00  0.00     0.144 C 
ATOM      9  C   UNL A   1      31.113  26.414  25.682  1.00  0.00     0.257 C 
ATOM     10  O   UNL A   1      30.646  26.703  26.786  1.00  0.00    -0.269 OA
ATOM     11  N   UNL A   1      31.666  25.153  25.450  1.00  0.00    -0.338 N 
ATOM     12  C   UNL A   1      31.044  24.019  26.112  1.00  0.00     0.123 C 
ATOM     13  C   UNL A   1      32.707  24.879  24.471  1.00  0.00     0.123 C 
ATOM     14  C   UNL A   1      32.033  23.047  26.726  1.00  0.00     0.062 C 
ATOM     15  C   UNL A   1      33.795  23.964  25.017  1.00  0.00     0.062 C 
BRANCH   9  16
ATOM     16  C   UNL A   1      31.054  27.380  24.591  1.00  0.00     0.081 A 
ATOM     17  C   UNL A   1      33.271  28.819  24.809  1.00  0.00     0.088 C 
ATOM     18  C   UNL A   1      31.978  28.362  24.257  1.00  0.00     0.113 A 
ATOM     19  O   UNL A   1      31.603  28.992  23.106  1.00  0.00    -0.469 OA
ATOM     20  C   UNL A   1      30.479  28.384  22.658  1.00  0.00     0.196 A 
ATOM     21  C   UNL A   1      30.105  27.385  23.522  1.00  0.00     0.056 A 
ENDBRANCH   9  16
BRANCH   8  22
ATOM     22  N   UNL A   1      32.944  21.639  24.944  1.00  0.00    -0.257 N 
ATOM     23  C   UNL A   1      32.557  21.739  23.623  1.00  0.00     0.110 A 
ATOM     24  N   UNL A   1      32.866  20.362  25.364  1.00  0.00    -0.181 NA
ATOM     25  C   UNL A   1      32.303  20.467  23.173  1.00  0.00     0.042 A 
ATOM     26  C   UNL A   1      32.527  19.655  24.289  1.00  0.00     0.135 A 
ENDBRANCH   8  22
ENDBRANCH   5   8
ENDBRANCH   3   4
ENDBRANCH   2   3
ENDBRANCH   1   2
BRANCH   1  27
ATOM     27  C   UNL A   1      38.923  20.069  25.751  1.00  0.00     0.116 C 
BRANCH  27  28
ATOM     28  N   UNL A   1      40.041  19.146  25.843  1.00  0.00    -0.352 N 
ATOM     29  C   UNL A   1      41.363  19.388  26.118  1.00  0.00     0.251 C 
ATOM     30  H   UNL A   1      39.814  18.201  25.684  1.00  0.00     0.163 HD
ATOM     31  O   UNL A   1      42.168  18.461  26.070  1.00  0.00    -0.269 OA
BRANCH  29  32
ATOM     32  C   UNL A   1      41.842  20.752  26.436  1.00  0.00     0.039 A 
ATOM     33  C   UNL A   1      42.010  21.655  25.380  1.00  0.00     0.014 A 
ATOM     34  C   UNL A   1      42.160  21.143  27.739  1.00  0.00     0.014 A 
ATOM     35  C   UNL A   1      42.440  22.958  25.634  1.00  0.00     0.010 A 
ATOM     36  C   UNL A   1      42.540  22.460  28.001  1.00  0.00     0.010 A 
ATOM     37  C   UNL A   1      42.685  23.378  26.950  1.00  0.00    -0.014 A 
BRANCH  37  38
ATOM     38  C   UNL A   1      43.088  24.778  27.232  1.00  0.00     0.031 A 
ATOM     39  C   UNL A   1      44.474  25.254  26.902  1.00  0.00     0.074 A 
ATOM     40  C   UNL A   1      42.216  25.611  27.830  1.00  0.00     0.049 A 
ATOM     41  N   UNL A   1      45.006  26.436  27.082  1.00  0.00    -0.248 NA
ATOM     42  C   UNL A   1      45.389  24.265  26.311  1.00  0.00     0.031 C 
ATOM     43  C   UNL A   1      40.860  25.254  28.252  1.00  0.00     0.029 A 
ATOM     44  N   UNL A   1      42.340  26.930  28.189  1.00  0.00    -0.354 N 
ATOM     45  C   UNL A   1      46.320  26.329  26.648  1.00  0.00     0.074 A 
ATOM     46  C   UNL A   1      46.516  24.958  26.225  1.00  0.00     0.031 C 
ATOM     47  C   UNL A   1      40.270  26.333  28.791  1.00  0.00     0.029 A 
ATOM     48  C   UNL A   1      41.210  27.451  28.767  1.00  0.00     0.049 A 
ATOM     49  H   UNL A   1      43.163  27.452  28.045  1.00  0.00     0.167 HD
ATOM     50  C   UNL A   1      47.272  27.290  26.592  1.00  0.00     0.037 A 
ATOM     51  C   UNL A   1      40.956  28.694  29.216  1.00  0.00     0.037 A 
ATOM     52  C   UNL A   1      47.068  28.663  26.971  1.00  0.00     0.049 A 
ATOM     53  C   UNL A   1      42.012  29.756  29.093  1.00  0.00     0.074 A 
ATOM     54  C   UNL A   1      47.950  29.726  26.877  1.00  0.00     0.029 A 
ATOM     55  N   UNL A   1      45.894  29.163  27.513  1.00  0.00    -0.354 N 
ATOM     56  N   UNL A   1      43.226  29.661  28.610  1.00  0.00    -0.248 NA
ATOM     57  C   UNL A   1      41.657  31.102  29.565  1.00  0.00     0.031 C 
ATOM     58  C   UNL A   1      47.317  30.866  27.384  1.00  0.00     0.029 A 
ATOM     59  C   UNL A   1      46.032  30.518  27.768  1.00  0.00     0.049 A 
ATOM     60  H   UNL A   1      45.083  28.634  27.690  1.00  0.00     0.167 HD
ATOM     61  C   UNL A   1      43.771  30.933  28.696  1.00  0.00     0.074 A 
ATOM     62  C   UNL A   1      42.753  31.787  29.272  1.00  0.00     0.031 C 
ATOM     63  C   UNL A   1      45.004  31.355  28.327  1.00  0.00     0.037 A 
BRANCH  50  64
ATOM     64  C   UNL A   1      48.628  26.890  26.095  1.00  0.00     0.064 A 
ATOM     65  C   UNL A   1      48.996  27.068  24.753  1.00  0.00     0.173 A 
ATOM     66  C   UNL A   1      49.579  26.355  26.975  1.00  0.00     0.173 A 
ATOM     67  F   UNL A   1      48.115  27.564  23.872  1.00  0.00    -0.203 F 
ATOM     68  C   UNL A   1      50.263  26.702  24.305  1.00  0.00     0.198 A 
ATOM     69  C   UNL A   1      50.852  26.010  26.528  1.00  0.00     0.198 A 
ATOM     70  F   UNL A   1      49.275  26.168  28.268  1.00  0.00    -0.203 F 
ATOM     71  F   UNL A   1      50.581  26.845  23.012  1.00  0.00    -0.200 F 
ATOM     72  C   UNL A   1      51.190  26.179  25.194  1.00  0.00     0.200 A 
ATOM     73  F   UNL A   1      51.751  25.510  27.388  1.00  0.00    -0.200 F 
ATOM     74  F   UNL A   1      52.410  25.830  24.762  1.00  0.00    -0.200 F 
ENDBRANCH  50  64
BRANCH  51  75
ATOM     75  C   UNL A   1      39.620  29.015  29.774  1.00  0.00     0.064 A 
ATOM     76  C   UNL A   1      39.356  28.834  31.138  1.00  0.00     0.173 A 
ATOM     77  C   UNL A   1      38.591  29.517  28.966  1.00  0.00     0.173 A 
ATOM     78  F   UNL A   1      40.307  28.337  31.944  1.00  0.00    -0.203 F 
ATOM     79  C   UNL A   1      38.106  29.132  31.673  1.00  0.00     0.198 A 
ATOM     80  C   UNL A   1      37.347  29.832  29.506  1.00  0.00     0.198 A 
ATOM     81  F   UNL A   1      38.801  29.710  27.656  1.00  0.00    -0.203 F 
ATOM     82  F   UNL A   1      37.869  28.922  32.975  1.00  0.00    -0.200 F 
ATOM     83  C   UNL A   1      37.104  29.636  30.857  1.00  0.00     0.200 A 
ATOM     84  F   UNL A   1      36.382  30.326  28.718  1.00  0.00    -0.200 F 
ATOM     85  F   UNL A   1      35.901  29.926  31.373  1.00  0.00    -0.200 F 
ENDBRANCH  51  75
BRANCH  63  86
ATOM     86  C   UNL A   1      45.310  32.811  28.505  1.00  0.00     0.064 A 
ATOM     87  C   UNL A   1      45.941  33.289  29.661  1.00  0.00     0.173 A 
ATOM     88  C   UNL A   1      45.003  33.728  27.490  1.00  0.00     0.173 A 
ATOM     89  F   UNL A   1      46.238  32.450  30.663  1.00  0.00    -0.203 F 
ATOM     90  C   UNL A   1      46.240  34.641  29.802  1.00  0.00     0.198 A 
ATOM     91  C   UNL A   1      45.321  35.076  27.625  1.00  0.00     0.198 A 
ATOM     92  F   UNL A   1      44.401  33.315  26.364  1.00  0.00    -0.203 F 
ATOM     93  F   UNL A   1      46.815  35.084  30.928  1.00  0.00    -0.200 F 
ATOM     94  C   UNL A   1      45.936  35.532  28.783  1.00  0.00     0.200 A 
ATOM     95  F   UNL A   1      45.032  35.935  26.639  1.00  0.00    -0.200 F 
ATOM     96  F   UNL A   1      46.228  36.833  28.918  1.00  0.00    -0.200 F 
ENDBRANCH  63  86
ENDBRANCH  37  38
ENDBRANCH  29  32
ENDBRANCH  27  28
ENDBRANCH   1  27
TORSDOF 13
ENDMDL
