MODEL 1
REMARK VINA RESULT:     -12.7      0.000      0.000
REMARK SMILES CCCc1cc(S(F)(F)(F)(F)F)cc2c1O[C@@H](C(F)(F)F)C(C(=O)NCCCCNC(=O)c1ccc(-c3c4nc(c(-c5c(F)c(F)c(F)c(F)c5F)c5ccc([nH]5)c(-c5c(F)c(F)c(F)c(F)c5F)c5nc(c(-c6c(F)c(F)c(F)c(F)c6F)c6ccc3[nH]6)C=C5)C=C4)cc1)=C2
REMARK SMILES IDX 27 1 26 2 25 3 23 4 24 5 22 7 4 8 5 9 15 10 6 11 14 12 16 13
REMARK SMILES IDX 13 14 96 15 17 16 3 17 2 18 1 19 7 20 8 21 9 22 10 23 11 24
REMARK SMILES IDX 12 25 18 26 19 27 20 28 21 29 28 30 29 31 30 32 31 33 32 35
REMARK SMILES IDX 33 36 34 37 95 38 35 39 94 40 36 41 37 42 38 43 88 44 39 45
REMARK SMILES IDX 93 46 87 47 89 48 40 49 92 50 86 51 85 52 41 54 73 55 53 56
REMARK SMILES IDX 72 57 54 58 57 59 71 60 90 61 55 62 56 63 70 65 91 66 58 67
REMARK SMILES IDX 42 68 43 69 51 70 44 71 45 72 49 73 52 74 46 75 47 76 50 77
REMARK SMILES IDX 48 78 74 79 75 80 83 81 76 82 77 83 81 84 84 85 78 86 79 87
REMARK SMILES IDX 82 88 80 89 59 90 60 91 68 92 61 93 62 94 66 95 69 96 63 97
REMARK SMILES IDX 64 98 67 99 65 100
REMARK H PARENT 25 6 30 34 89 53 57 64
REMARK Flexibility Score: inf
ROOT
ATOM      1  C   UNL A   1      37.069  21.390  24.430  1.00  0.00     0.023 C 
ENDROOT
BRANCH   1   2
ATOM      2  C   UNL A   1      36.310  22.121  25.526  1.00  0.00     0.116 C 
BRANCH   2   3
ATOM      3  N   UNL A   1      35.518  21.155  26.301  1.00  0.00    -0.352 N 
ATOM      4  C   UNL A   1      34.085  21.393  26.525  1.00  0.00     0.251 C 
ATOM      5  O   UNL A   1      33.399  20.558  27.195  1.00  0.00    -0.270 OA
ATOM      6  H   UNL A   1      35.946  20.349  26.670  1.00  0.00     0.163 HD
BRANCH   4   7
ATOM      7  C   UNL A   1      33.423  22.637  25.956  1.00  0.00     0.067 C 
ATOM      8  C   UNL A   1      31.916  26.001  23.990  1.00  0.00    -0.004 A 
ATOM      9  C   UNL A   1      32.132  27.262  24.516  1.00  0.00     0.032 A 
ATOM     10  C   UNL A   1      32.468  24.916  24.629  1.00  0.00     0.131 A 
ATOM     11  C   UNL A   1      32.884  27.434  25.648  1.00  0.00     0.108 A 
ATOM     12  C   UNL A   1      33.218  25.050  25.783  1.00  0.00     0.019 A 
ATOM     13  O   UNL A   1      32.341  23.686  24.033  1.00  0.00    -0.475 OA
ATOM     14  C   UNL A   1      33.420  26.332  26.282  1.00  0.00     0.036 A 
ATOM     15  C   UNL A   1      33.791  23.846  26.360  1.00  0.00     0.025 C 
ATOM     16  C   UNL A   1      32.322  22.524  24.909  1.00  0.00     0.314 C 
BRANCH   8  17
ATOM     17  C   UNL A   1      30.963  25.763  22.831  1.00  0.00     0.039 C 
BRANCH  17  18
ATOM     18  C   UNL A   1      31.510  26.431  21.580  1.00  0.00     0.001 C 
ATOM     19  C   UNL A   1      32.689  25.632  21.052  1.00  0.00     0.004 C 
ENDBRANCH  17  18
ENDBRANCH   8  17
BRANCH  11  20
ATOM     20  S   UNL A   1      33.175  29.094  26.307  1.00  0.00     0.310 S 
ATOM     21  F   UNL A   1      34.048  28.719  27.577  1.00  0.00    -0.094 F 
ATOM     22  F   UNL A   1      31.906  28.997  27.237  1.00  0.00    -0.094 F 
ATOM     23  F   UNL A   1      33.373  30.589  26.688  1.00  0.00    -0.094 F 
ATOM     24  F   UNL A   1      34.521  29.134  25.482  1.00  0.00    -0.094 F 
ATOM     25  F   UNL A   1      33.049  27.548  26.001  1.00  0.00    -0.094 F 
ENDBRANCH  11  20
BRANCH  16  26
ATOM     26  C   UNL A   1      32.555  21.272  24.078  1.00  0.00     0.429 C 
ATOM     27  F   UNL A   1      33.858  21.122  23.857  1.00  0.00    -0.167 F 
ATOM     28  F   UNL A   1      32.091  20.212  24.735  1.00  0.00    -0.167 F 
ATOM     29  F   UNL A   1      31.919  21.387  22.915  1.00  0.00    -0.167 F 
ENDBRANCH  16  26
ENDBRANCH   4   7
ENDBRANCH   2   3
ENDBRANCH   1   2
BRANCH   1  30
ATOM     30  C   UNL A   1      37.699  20.131  25.004  1.00  0.00     0.023 C 
BRANCH  30  31
ATOM     31  C   UNL A   1      38.959  20.498  25.770  1.00  0.00     0.116 C 
BRANCH  31  32
ATOM     32  N   UNL A   1      39.876  19.350  25.783  1.00  0.00    -0.352 N 
ATOM     33  C   UNL A   1      41.296  19.547  26.112  1.00  0.00     0.251 C 
ATOM     34  H   UNL A   1      39.541  18.449  25.573  1.00  0.00     0.163 HD
ATOM     35  O   UNL A   1      42.089  18.554  26.123  1.00  0.00    -0.269 OA
BRANCH  33  36
ATOM     36  C   UNL A   1      41.815  20.938  26.437  1.00  0.00     0.039 A 
ATOM     37  C   UNL A   1      42.185  21.830  25.444  1.00  0.00     0.014 A 
ATOM     38  C   UNL A   1      41.858  21.278  27.720  1.00  0.00     0.014 A 
ATOM     39  C   UNL A   1      42.867  22.972  25.925  1.00  0.00     0.010 A 
ATOM     40  C   UNL A   1      42.417  22.471  28.108  1.00  0.00     0.010 A 
ATOM     41  C   UNL A   1      42.859  23.376  27.183  1.00  0.00    -0.014 A 
BRANCH  41  42
ATOM     42  C   UNL A   1      43.315  24.770  27.579  1.00  0.00     0.031 A 
ATOM     43  C   UNL A   1      44.685  25.035  27.607  1.00  0.00     0.074 A 
ATOM     44  C   UNL A   1      42.340  25.704  27.889  1.00  0.00     0.049 A 
ATOM     45  N   UNL A   1      45.285  26.191  27.891  1.00  0.00    -0.248 NA
ATOM     46  C   UNL A   1      45.724  24.035  27.312  1.00  0.00     0.031 C 
ATOM     47  C   UNL A   1      40.956  25.447  27.855  1.00  0.00     0.029 A 
ATOM     48  N   UNL A   1      42.517  27.013  28.278  1.00  0.00    -0.354 N 
ATOM     49  C   UNL A   1      46.610  26.060  27.796  1.00  0.00     0.074 A 
ATOM     50  C   UNL A   1      46.911  24.669  27.428  1.00  0.00     0.031 C 
ATOM     51  C   UNL A   1      40.307  26.582  28.229  1.00  0.00     0.029 A 
ATOM     52  C   UNL A   1      41.276  27.566  28.501  1.00  0.00     0.049 A 
ATOM     53  H   UNL A   1      43.381  27.474  28.377  1.00  0.00     0.167 HD
ATOM     54  C   UNL A   1      47.578  27.044  28.000  1.00  0.00     0.037 A 
ATOM     55  C   UNL A   1      40.984  28.854  28.922  1.00  0.00     0.037 A 
ATOM     56  C   UNL A   1      47.284  28.344  28.379  1.00  0.00     0.049 A 
ATOM     57  C   UNL A   1      41.956  29.823  29.182  1.00  0.00     0.074 A 
ATOM     58  C   UNL A   1      48.247  29.351  28.581  1.00  0.00     0.029 A 
ATOM     59  N   UNL A   1      46.044  28.891  28.626  1.00  0.00    -0.354 N 
ATOM     60  N   UNL A   1      43.278  29.702  29.049  1.00  0.00    -0.248 NA
ATOM     61  C   UNL A   1      41.660  31.180  29.659  1.00  0.00     0.031 C 
ATOM     62  C   UNL A   1      47.600  30.487  28.954  1.00  0.00     0.029 A 
ATOM     63  C   UNL A   1      46.220  30.207  28.992  1.00  0.00     0.049 A 
ATOM     64  H   UNL A   1      45.182  28.422  28.554  1.00  0.00     0.167 HD
ATOM     65  C   UNL A   1      43.880  30.849  29.373  1.00  0.00     0.074 A 
ATOM     66  C   UNL A   1      42.848  31.814  29.777  1.00  0.00     0.031 C 
ATOM     67  C   UNL A   1      45.246  31.130  29.345  1.00  0.00     0.037 A 
BRANCH  54  68
ATOM     68  C   UNL A   1      49.037  26.669  27.795  1.00  0.00     0.064 A 
ATOM     69  C   UNL A   1      49.562  26.656  26.513  1.00  0.00     0.173 A 
ATOM     70  C   UNL A   1      49.783  26.358  28.848  1.00  0.00     0.173 A 
ATOM     71  F   UNL A   1      48.939  27.196  25.469  1.00  0.00    -0.203 F 
ATOM     72  C   UNL A   1      50.821  26.018  26.416  1.00  0.00     0.198 A 
ATOM     73  C   UNL A   1      51.056  25.867  28.683  1.00  0.00     0.198 A 
ATOM     74  F   UNL A   1      49.295  26.525  30.075  1.00  0.00    -0.203 F 
ATOM     75  F   UNL A   1      51.231  25.639  25.209  1.00  0.00    -0.200 F 
ATOM     76  C   UNL A   1      51.617  25.771  27.440  1.00  0.00     0.200 A 
ATOM     77  F   UNL A   1      51.752  25.478  29.749  1.00  0.00    -0.200 F 
ATOM     78  F   UNL A   1      52.896  25.447  27.272  1.00  0.00    -0.200 F 
ENDBRANCH  54  68
BRANCH  55  79
ATOM     79  C   UNL A   1      39.524  29.234  29.110  1.00  0.00     0.064 A 
ATOM     80  C   UNL A   1      38.980  29.234  30.383  1.00  0.00     0.173 A 
ATOM     81  C   UNL A   1      38.795  29.560  28.049  1.00  0.00     0.173 A 
ATOM     82  F   UNL A   1      39.718  29.164  31.488  1.00  0.00    -0.203 F 
ATOM     83  C   UNL A   1      37.568  29.315  30.404  1.00  0.00     0.198 A 
ATOM     84  C   UNL A   1      37.440  29.758  28.166  1.00  0.00     0.198 A 
ATOM     85  F   UNL A   1      39.381  29.696  26.863  1.00  0.00    -0.203 F 
ATOM     86  F   UNL A   1      36.944  28.965  31.525  1.00  0.00    -0.200 F 
ATOM     87  C   UNL A   1      36.826  29.715  29.387  1.00  0.00     0.200 A 
ATOM     88  F   UNL A   1      36.716  29.995  27.075  1.00  0.00    -0.200 F 
ATOM     89  F   UNL A   1      35.549  30.056  29.541  1.00  0.00    -0.200 F 
ENDBRANCH  55  79
BRANCH  67  90
ATOM     90  C   UNL A   1      45.695  32.532  29.723  1.00  0.00     0.064 A 
ATOM     91  C   UNL A   1      45.718  33.540  28.774  1.00  0.00     0.173 A 
ATOM     92  C   UNL A   1      45.995  32.773  30.993  1.00  0.00     0.173 A 
ATOM     93  F   UNL A   1      45.189  33.408  27.561  1.00  0.00    -0.203 F 
ATOM     94  C   UNL A   1      46.357  34.725  29.213  1.00  0.00     0.198 A 
ATOM     95  C   UNL A   1      46.487  33.999  31.375  1.00  0.00     0.198 A 
ATOM     96  F   UNL A   1      45.818  31.822  31.906  1.00  0.00    -0.203 F 
ATOM     97  F   UNL A   1      46.746  35.597  28.287  1.00  0.00    -0.200 F 
ATOM     98  C   UNL A   1      46.593  35.024  30.477  1.00  0.00     0.200 A 
ATOM     99  F   UNL A   1      46.865  34.189  32.635  1.00  0.00    -0.200 F 
ATOM    100  F   UNL A   1      46.917  36.257  30.856  1.00  0.00    -0.200 F 
ENDBRANCH  67  90
ENDBRANCH  41  42
ENDBRANCH  33  36
ENDBRANCH  31  32
ENDBRANCH  30  31
ENDBRANCH   1  30
TORSDOF 15
ENDMDL
MODEL 2
REMARK VINA RESULT:     -12.6      0.639      6.919
REMARK SMILES CCCc1cc(S(F)(F)(F)(F)F)cc2c1O[C@@H](C(F)(F)F)C(C(=O)NCCCCNC(=O)c1ccc(-c3c4nc(c(-c5c(F)c(F)c(F)c(F)c5F)c5ccc([nH]5)c(-c5c(F)c(F)c(F)c(F)c5F)c5nc(c(-c6c(F)c(F)c(F)c(F)c6F)c6ccc3[nH]6)C=C5)C=C4)cc1)=C2
REMARK SMILES IDX 27 1 26 2 25 3 23 4 24 5 22 7 4 8 5 9 15 10 6 11 14 12 16 13
REMARK SMILES IDX 13 14 96 15 17 16 3 17 2 18 1 19 7 20 8 21 9 22 10 23 11 24
REMARK SMILES IDX 12 25 18 26 19 27 20 28 21 29 28 30 29 31 30 32 31 33 32 35
REMARK SMILES IDX 33 36 34 37 95 38 35 39 94 40 36 41 37 42 38 43 88 44 39 45
REMARK SMILES IDX 93 46 87 47 89 48 40 49 92 50 86 51 85 52 41 54 73 55 53 56
REMARK SMILES IDX 72 57 54 58 57 59 71 60 90 61 55 62 56 63 70 65 91 66 58 67
REMARK SMILES IDX 42 68 43 69 51 70 44 71 45 72 49 73 52 74 46 75 47 76 50 77
REMARK SMILES IDX 48 78 74 79 75 80 83 81 76 82 77 83 81 84 84 85 78 86 79 87
REMARK SMILES IDX 82 88 80 89 59 90 60 91 68 92 61 93 62 94 66 95 69 96 63 97
REMARK SMILES IDX 64 98 67 99 65 100
REMARK H PARENT 25 6 30 34 89 53 57 64
REMARK Flexibility Score: inf
ROOT
ATOM      1  C   UNL A   1      37.163  21.280  24.280  1.00  0.00     0.023 C 
ENDROOT
BRANCH   1   2
ATOM      2  C   UNL A   1      36.328  22.078  25.268  1.00  0.00     0.116 C 
BRANCH   2   3
ATOM      3  N   UNL A   1      35.452  21.167  26.019  1.00  0.00    -0.352 N 
ATOM      4  C   UNL A   1      34.050  21.531  26.265  1.00  0.00     0.251 C 
ATOM      5  O   UNL A   1      33.293  20.743  26.915  1.00  0.00    -0.270 OA
ATOM      6  H   UNL A   1      35.805  20.312  26.357  1.00  0.00     0.163 HD
BRANCH   4   7
ATOM      7  C   UNL A   1      33.505  22.850  25.744  1.00  0.00     0.067 C 
ATOM      8  C   UNL A   1      32.342  26.427  23.926  1.00  0.00    -0.004 A 
ATOM      9  C   UNL A   1      32.598  27.634  24.551  1.00  0.00     0.032 A 
ATOM     10  C   UNL A   1      32.783  25.270  24.521  1.00  0.00     0.131 A 
ATOM     11  C   UNL A   1      33.281  27.682  25.739  1.00  0.00     0.108 A 
ATOM     12  C   UNL A   1      33.459  25.278  25.727  1.00  0.00     0.019 A 
ATOM     13  O   UNL A   1      32.622  24.092  23.833  1.00  0.00    -0.475 OA
ATOM     14  C   UNL A   1      33.704  26.508  26.327  1.00  0.00     0.036 A 
ATOM     15  C   UNL A   1      33.918  24.004  26.254  1.00  0.00     0.025 C 
ATOM     16  C   UNL A   1      32.473  22.878  24.623  1.00  0.00     0.314 C 
BRANCH   8  17
ATOM     17  C   UNL A   1      31.458  26.329  22.694  1.00  0.00     0.039 C 
BRANCH  17  18
ATOM     18  C   UNL A   1      30.243  27.224  22.870  1.00  0.00     0.001 C 
ATOM     19  C   UNL A   1      29.293  26.598  23.877  1.00  0.00     0.004 C 
ENDBRANCH  17  18
ENDBRANCH   8  17
BRANCH  11  20
ATOM     20  S   UNL A   1      33.625  29.273  26.529  1.00  0.00     0.310 S 
ATOM     21  F   UNL A   1      34.362  28.757  27.836  1.00  0.00    -0.094 F 
ATOM     22  F   UNL A   1      32.280  29.211  27.346  1.00  0.00    -0.094 F 
ATOM     23  F   UNL A   1      33.892  30.723  27.025  1.00  0.00    -0.094 F 
ATOM     24  F   UNL A   1      35.037  29.266  25.819  1.00  0.00    -0.094 F 
ATOM     25  F   UNL A   1      33.423  27.762  26.110  1.00  0.00    -0.094 F 
ENDBRANCH  11  20
BRANCH  16  26
ATOM     26  C   UNL A   1      32.686  21.672  23.723  1.00  0.00     0.429 C 
ATOM     27  F   UNL A   1      31.964  21.812  22.615  1.00  0.00    -0.167 F 
ATOM     28  F   UNL A   1      33.974  21.578  23.405  1.00  0.00    -0.167 F 
ATOM     29  F   UNL A   1      32.305  20.568  24.363  1.00  0.00    -0.167 F 
ENDBRANCH  16  26
ENDBRANCH   4   7
ENDBRANCH   2   3
ENDBRANCH   1   2
BRANCH   1  30
ATOM     30  C   UNL A   1      37.694  20.030  24.961  1.00  0.00     0.023 C 
BRANCH  30  31
ATOM     31  C   UNL A   1      38.909  20.387  25.801  1.00  0.00     0.116 C 
BRANCH  31  32
ATOM     32  N   UNL A   1      39.877  19.282  25.757  1.00  0.00    -0.352 N 
ATOM     33  C   UNL A   1      41.289  19.528  26.088  1.00  0.00     0.251 C 
ATOM     34  H   UNL A   1      39.582  18.378  25.506  1.00  0.00     0.163 HD
ATOM     35  O   UNL A   1      42.126  18.572  26.049  1.00  0.00    -0.269 OA
BRANCH  33  36
ATOM     36  C   UNL A   1      41.746  20.924  26.475  1.00  0.00     0.039 A 
ATOM     37  C   UNL A   1      42.089  21.871  25.523  1.00  0.00     0.014 A 
ATOM     38  C   UNL A   1      41.762  21.213  27.771  1.00  0.00     0.014 A 
ATOM     39  C   UNL A   1      42.719  23.019  26.058  1.00  0.00     0.010 A 
ATOM     40  C   UNL A   1      42.268  22.411  28.214  1.00  0.00     0.010 A 
ATOM     41  C   UNL A   1      42.681  23.371  27.331  1.00  0.00    -0.014 A 
BRANCH  41  42
ATOM     42  C   UNL A   1      43.075  24.765  27.788  1.00  0.00     0.031 A 
ATOM     43  C   UNL A   1      42.060  25.679  28.075  1.00  0.00     0.074 A 
ATOM     44  C   UNL A   1      44.427  25.049  27.897  1.00  0.00     0.049 A 
ATOM     45  N   UNL A   1      42.192  26.929  28.519  1.00  0.00    -0.248 NA
ATOM     46  C   UNL A   1      40.625  25.390  27.927  1.00  0.00     0.031 C 
ATOM     47  C   UNL A   1      45.457  24.131  27.618  1.00  0.00     0.029 A 
ATOM     48  N   UNL A   1      45.012  26.235  28.281  1.00  0.00    -0.354 N 
ATOM     49  C   UNL A   1      40.992  27.485  28.695  1.00  0.00     0.074 A 
ATOM     50  C   UNL A   1      39.968  26.505  28.310  1.00  0.00     0.031 C 
ATOM     51  C   UNL A   1      46.646  24.757  27.820  1.00  0.00     0.029 A 
ATOM     52  C   UNL A   1      46.379  26.076  28.230  1.00  0.00     0.049 A 
ATOM     53  H   UNL A   1      44.536  27.054  28.548  1.00  0.00     0.167 HD
ATOM     54  C   UNL A   1      40.712  28.770  29.162  1.00  0.00     0.037 A 
ATOM     55  C   UNL A   1      47.354  27.018  28.517  1.00  0.00     0.037 A 
ATOM     56  C   UNL A   1      41.688  29.699  29.492  1.00  0.00     0.049 A 
ATOM     57  C   UNL A   1      47.074  28.323  28.929  1.00  0.00     0.074 A 
ATOM     58  C   UNL A   1      41.422  30.995  29.971  1.00  0.00     0.029 A 
ATOM     59  N   UNL A   1      43.055  29.548  29.416  1.00  0.00    -0.354 N 
ATOM     60  N   UNL A   1      45.874  28.866  29.142  1.00  0.00    -0.248 NA
ATOM     61  C   UNL A   1      48.098  29.339  29.205  1.00  0.00     0.031 C 
ATOM     62  C   UNL A   1      42.612  31.622  30.174  1.00  0.00     0.029 A 
ATOM     63  C   UNL A   1      43.640  30.726  29.823  1.00  0.00     0.049 A 
ATOM     64  H   UNL A   1      43.531  28.738  29.123  1.00  0.00     0.167 HD
ATOM     65  C   UNL A   1      46.008  30.131  29.549  1.00  0.00     0.074 A 
ATOM     66  C   UNL A   1      47.440  30.456  29.588  1.00  0.00     0.031 C 
ATOM     67  C   UNL A   1      44.993  31.026  29.890  1.00  0.00     0.037 A 
BRANCH  54  68
ATOM     68  C   UNL A   1      39.255  29.176  29.320  1.00  0.00     0.064 A 
ATOM     69  C   UNL A   1      38.567  29.677  28.227  1.00  0.00     0.173 A 
ATOM     70  C   UNL A   1      38.667  29.045  30.503  1.00  0.00     0.173 A 
ATOM     71  F   UNL A   1      39.024  29.591  26.981  1.00  0.00    -0.203 F 
ATOM     72  C   UNL A   1      37.334  30.287  28.557  1.00  0.00     0.198 A 
ATOM     73  C   UNL A   1      37.406  29.545  30.716  1.00  0.00     0.198 A 
ATOM     74  F   UNL A   1      39.306  28.424  31.492  1.00  0.00    -0.203 F 
ATOM     75  F   UNL A   1      36.784  31.097  27.657  1.00  0.00    -0.200 F 
ATOM     76  C   UNL A   1      36.690  30.107  29.696  1.00  0.00     0.200 A 
ATOM     77  F   UNL A   1      36.873  29.483  31.934  1.00  0.00    -0.200 F 
ATOM     78  F   UNL A   1      35.414  30.454  29.842  1.00  0.00    -0.200 F 
ENDBRANCH  54  68
BRANCH  55  79
ATOM     79  C   UNL A   1      48.811  26.607  28.377  1.00  0.00     0.064 A 
ATOM     80  C   UNL A   1      49.480  26.089  29.473  1.00  0.00     0.173 A 
ATOM     81  C   UNL A   1      49.418  26.752  27.204  1.00  0.00     0.173 A 
ATOM     82  F   UNL A   1      48.860  25.692  30.581  1.00  0.00    -0.203 F 
ATOM     83  C   UNL A   1      50.883  26.018  29.308  1.00  0.00     0.198 A 
ATOM     84  C   UNL A   1      50.770  26.535  27.085  1.00  0.00     0.198 A 
ATOM     85  F   UNL A   1      48.711  27.110  26.136  1.00  0.00    -0.203 F 
ATOM     86  F   UNL A   1      51.629  25.883  30.401  1.00  0.00    -0.200 F 
ATOM     87  C   UNL A   1      51.504  26.079  28.144  1.00  0.00     0.200 A 
ATOM     88  F   UNL A   1      51.372  26.773  25.923  1.00  0.00    -0.200 F 
ATOM     89  F   UNL A   1      52.777  25.715  28.009  1.00  0.00    -0.200 F 
ENDBRANCH  55  79
BRANCH  67  90
ATOM     90  C   UNL A   1      45.394  32.412  30.366  1.00  0.00     0.064 A 
ATOM     91  C   UNL A   1      45.467  33.467  29.471  1.00  0.00     0.173 A 
ATOM     92  C   UNL A   1      45.603  32.594  31.664  1.00  0.00     0.173 A 
ATOM     93  F   UNL A   1      45.024  33.388  28.219  1.00  0.00    -0.203 F 
ATOM     94  C   UNL A   1      46.057  34.635  30.009  1.00  0.00     0.198 A 
ATOM     95  C   UNL A   1      46.050  33.805  32.137  1.00  0.00     0.198 A 
ATOM     96  F   UNL A   1      45.377  31.597  32.515  1.00  0.00    -0.203 F 
ATOM     97  F   UNL A   1      46.496  35.556  29.156  1.00  0.00    -0.200 F 
ATOM     98  C   UNL A   1      46.202  34.874  31.300  1.00  0.00     0.200 A 
ATOM     99  F   UNL A   1      46.338  33.937  33.429  1.00  0.00    -0.200 F 
ATOM    100  F   UNL A   1      46.482  36.090  31.759  1.00  0.00    -0.200 F 
ENDBRANCH  67  90
ENDBRANCH  41  42
ENDBRANCH  33  36
ENDBRANCH  31  32
ENDBRANCH  30  31
ENDBRANCH   1  30
TORSDOF 15
ENDMDL
MODEL 3
REMARK VINA RESULT:     -12.6      5.228     10.042
REMARK SMILES CCCc1cc(S(F)(F)(F)(F)F)cc2c1O[C@@H](C(F)(F)F)C(C(=O)NCCCCNC(=O)c1ccc(-c3c4nc(c(-c5c(F)c(F)c(F)c(F)c5F)c5ccc([nH]5)c(-c5c(F)c(F)c(F)c(F)c5F)c5nc(c(-c6c(F)c(F)c(F)c(F)c6F)c6ccc3[nH]6)C=C5)C=C4)cc1)=C2
REMARK SMILES IDX 27 1 26 2 25 3 23 4 24 5 22 7 4 8 5 9 15 10 6 11 14 12 16 13
REMARK SMILES IDX 13 14 96 15 17 16 3 17 2 18 1 19 7 20 8 21 9 22 10 23 11 24
REMARK SMILES IDX 12 25 18 26 19 27 20 28 21 29 28 30 29 31 30 32 31 33 32 35
REMARK SMILES IDX 33 36 34 37 95 38 35 39 94 40 36 41 37 42 38 43 88 44 39 45
REMARK SMILES IDX 93 46 87 47 89 48 40 49 92 50 86 51 85 52 41 54 73 55 53 56
REMARK SMILES IDX 72 57 54 58 57 59 71 60 90 61 55 62 56 63 70 65 91 66 58 67
REMARK SMILES IDX 42 68 43 69 51 70 44 71 45 72 49 73 52 74 46 75 47 76 50 77
REMARK SMILES IDX 48 78 74 79 75 80 83 81 76 82 77 83 81 84 84 85 78 86 79 87
REMARK SMILES IDX 82 88 80 89 59 90 60 91 68 92 61 93 62 94 66 95 69 96 63 97
REMARK SMILES IDX 64 98 67 99 65 100
REMARK H PARENT 25 6 30 34 89 53 57 64
REMARK Flexibility Score: inf
ROOT
ATOM      1  C   UNL A   1      31.783  29.996  26.911  1.00  0.00     0.023 C 
ENDROOT
BRANCH   1   2
ATOM      2  C   UNL A   1      32.764  29.359  25.940  1.00  0.00     0.116 C 
BRANCH   2   3
ATOM      3  N   UNL A   1      32.365  29.676  24.561  1.00  0.00    -0.352 N 
ATOM      4  C   UNL A   1      32.235  28.600  23.569  1.00  0.00     0.251 C 
ATOM      5  O   UNL A   1      31.890  28.874  22.376  1.00  0.00    -0.270 OA
ATOM      6  H   UNL A   1      32.185  30.608  24.302  1.00  0.00     0.163 HD
BRANCH   4   7
ATOM      7  C   UNL A   1      32.513  27.160  23.967  1.00  0.00     0.067 C 
ATOM      8  C   UNL A   1      33.086  23.326  25.523  1.00  0.00    -0.004 A 
ATOM      9  C   UNL A   1      34.368  22.845  25.720  1.00  0.00     0.032 A 
ATOM     10  C   UNL A   1      32.927  24.610  25.061  1.00  0.00     0.131 A 
ATOM     11  C   UNL A   1      35.462  23.631  25.464  1.00  0.00     0.108 A 
ATOM     12  C   UNL A   1      34.007  25.425  24.775  1.00  0.00     0.019 A 
ATOM     13  O   UNL A   1      31.650  25.110  24.979  1.00  0.00    -0.475 OA
ATOM     14  C   UNL A   1      35.282  24.913  24.988  1.00  0.00     0.036 A 
ATOM     15  C   UNL A   1      33.733  26.780  24.328  1.00  0.00     0.025 C 
ATOM     16  C   UNL A   1      31.398  26.122  23.963  1.00  0.00     0.314 C 
BRANCH   8  17
ATOM     17  C   UNL A   1      31.863  22.434  25.648  1.00  0.00     0.039 C 
BRANCH  17  18
ATOM     18  C   UNL A   1      32.135  21.103  24.967  1.00  0.00     0.001 C 
ATOM     19  C   UNL A   1      32.153  21.297  23.461  1.00  0.00     0.004 C 
ENDBRANCH  17  18
ENDBRANCH   8  17
BRANCH  11  20
ATOM     20  S   UNL A   1      37.131  22.991  25.751  1.00  0.00     0.310 S 
ATOM     21  F   UNL A   1      37.964  24.078  24.949  1.00  0.00    -0.094 F 
ATOM     22  F   UNL A   1      37.084  22.147  24.421  1.00  0.00    -0.094 F 
ATOM     23  F   UNL A   1      38.484  22.338  26.151  1.00  0.00    -0.094 F 
ATOM     24  F   UNL A   1      37.230  23.946  27.005  1.00  0.00    -0.094 F 
ATOM     25  F   UNL A   1      35.816  23.744  25.300  1.00  0.00    -0.094 F 
ENDBRANCH  11  20
BRANCH  16  26
ATOM     26  C   UNL A   1      30.078  26.811  24.266  1.00  0.00     0.429 C 
ATOM     27  F   UNL A   1      29.639  27.430  23.173  1.00  0.00    -0.167 F 
ATOM     28  F   UNL A   1      29.183  25.904  24.651  1.00  0.00    -0.167 F 
ATOM     29  F   UNL A   1      30.254  27.701  25.239  1.00  0.00    -0.167 F 
ENDBRANCH  16  26
ENDBRANCH   4   7
ENDBRANCH   2   3
ENDBRANCH   1   2
BRANCH   1  30
ATOM     30  C   UNL A   1      31.529  31.438  26.501  1.00  0.00     0.023 C 
BRANCH  30  31
ATOM     31  C   UNL A   1      32.735  32.288  26.864  1.00  0.00     0.116 C 
BRANCH  31  32
ATOM     32  N   UNL A   1      32.284  33.617  27.300  1.00  0.00    -0.352 N 
ATOM     33  C   UNL A   1      33.022  34.336  28.349  1.00  0.00     0.251 C 
ATOM     34  H   UNL A   1      31.489  34.026  26.890  1.00  0.00     0.163 HD
ATOM     35  O   UNL A   1      32.631  35.485  28.726  1.00  0.00    -0.269 OA
BRANCH  33  36
ATOM     36  C   UNL A   1      34.250  33.705  28.983  1.00  0.00     0.039 A 
ATOM     37  C   UNL A   1      35.525  34.202  28.760  1.00  0.00     0.014 A 
ATOM     38  C   UNL A   1      34.045  32.677  29.798  1.00  0.00     0.014 A 
ATOM     39  C   UNL A   1      36.559  33.356  29.223  1.00  0.00     0.010 A 
ATOM     40  C   UNL A   1      35.105  31.978  30.323  1.00  0.00     0.010 A 
ATOM     41  C   UNL A   1      36.393  32.378  30.095  1.00  0.00    -0.014 A 
BRANCH  41  42
ATOM     42  C   UNL A   1      37.571  31.732  30.807  1.00  0.00     0.031 A 
ATOM     43  C   UNL A   1      37.862  32.141  32.109  1.00  0.00     0.074 A 
ATOM     44  C   UNL A   1      38.290  30.769  30.119  1.00  0.00     0.049 A 
ATOM     45  N   UNL A   1      38.820  31.678  32.912  1.00  0.00    -0.248 NA
ATOM     46  C   UNL A   1      37.121  33.188  32.829  1.00  0.00     0.031 C 
ATOM     47  C   UNL A   1      37.998  30.345  28.808  1.00  0.00     0.029 A 
ATOM     48  N   UNL A   1      39.388  30.062  30.555  1.00  0.00    -0.354 N 
ATOM     49  C   UNL A   1      38.775  32.301  34.091  1.00  0.00     0.074 A 
ATOM     50  C   UNL A   1      37.685  33.286  34.052  1.00  0.00     0.031 C 
ATOM     51  C   UNL A   1      38.913  29.405  28.455  1.00  0.00     0.029 A 
ATOM     52  C   UNL A   1      39.791  29.224  29.540  1.00  0.00     0.049 A 
ATOM     53  H   UNL A   1      39.810  30.141  31.441  1.00  0.00     0.167 HD
ATOM     54  C   UNL A   1      39.598  32.087  35.198  1.00  0.00     0.037 A 
ATOM     55  C   UNL A   1      40.865  28.347  29.539  1.00  0.00     0.037 A 
ATOM     56  C   UNL A   1      40.645  31.178  35.212  1.00  0.00     0.049 A 
ATOM     57  C   UNL A   1      41.725  28.174  30.627  1.00  0.00     0.074 A 
ATOM     58  C   UNL A   1      41.479  30.943  36.322  1.00  0.00     0.029 A 
ATOM     59  N   UNL A   1      41.064  30.358  34.188  1.00  0.00    -0.354 N 
ATOM     60  N   UNL A   1      41.655  28.768  31.818  1.00  0.00    -0.248 NA
ATOM     61  C   UNL A   1      42.883  27.271  30.626  1.00  0.00     0.031 C 
ATOM     62  C   UNL A   1      42.395  30.002  35.970  1.00  0.00     0.029 A 
ATOM     63  C   UNL A   1      42.147  29.634  34.633  1.00  0.00     0.049 A 
ATOM     64  H   UNL A   1      40.659  30.299  33.293  1.00  0.00     0.167 HD
ATOM     65  C   UNL A   1      42.640  28.334  32.608  1.00  0.00     0.074 A 
ATOM     66  C   UNL A   1      43.449  27.370  31.849  1.00  0.00     0.031 C 
ATOM     67  C   UNL A   1      42.895  28.701  33.930  1.00  0.00     0.037 A 
BRANCH  54  68
ATOM     68  C   UNL A   1      39.333  32.894  36.458  1.00  0.00     0.064 A 
ATOM     69  C   UNL A   1      39.973  34.109  36.635  1.00  0.00     0.173 A 
ATOM     70  C   UNL A   1      38.493  32.419  37.371  1.00  0.00     0.173 A 
ATOM     71  F   UNL A   1      40.616  34.739  35.655  1.00  0.00    -0.203 F 
ATOM     72  C   UNL A   1      39.881  34.620  37.951  1.00  0.00     0.198 A 
ATOM     73  C   UNL A   1      38.352  33.046  38.585  1.00  0.00     0.198 A 
ATOM     74  F   UNL A   1      37.781  31.327  37.106  1.00  0.00    -0.203 F 
ATOM     75  F   UNL A   1      40.743  35.568  38.308  1.00  0.00    -0.200 F 
ATOM     76  C   UNL A   1      39.001  34.220  38.850  1.00  0.00     0.200 A 
ATOM     77  F   UNL A   1      37.572  32.503  39.517  1.00  0.00    -0.200 F 
ATOM     78  F   UNL A   1      38.758  34.921  39.954  1.00  0.00    -0.200 F 
ENDBRANCH  54  68
BRANCH  55  79
ATOM     79  C   UNL A   1      41.120  27.527  28.285  1.00  0.00     0.064 A 
ATOM     80  C   UNL A   1      40.486  26.305  28.132  1.00  0.00     0.173 A 
ATOM     81  C   UNL A   1      41.945  27.996  27.357  1.00  0.00     0.173 A 
ATOM     82  F   UNL A   1      39.471  25.912  28.897  1.00  0.00    -0.203 F 
ATOM     83  C   UNL A   1      41.015  25.512  27.086  1.00  0.00     0.198 A 
ATOM     84  C   UNL A   1      42.314  27.214  26.289  1.00  0.00     0.198 A 
ATOM     85  F   UNL A   1      42.420  29.234  27.463  1.00  0.00    -0.203 F 
ATOM     86  F   UNL A   1      40.730  24.213  27.089  1.00  0.00    -0.200 F 
ATOM     87  C   UNL A   1      41.772  25.973  26.106  1.00  0.00     0.200 A 
ATOM     88  F   UNL A   1      43.212  27.672  25.421  1.00  0.00    -0.200 F 
ATOM     89  F   UNL A   1      41.995  25.266  25.001  1.00  0.00    -0.200 F 
ENDBRANCH  55  79
BRANCH  67  90
ATOM     90  C   UNL A   1      44.062  28.037  34.642  1.00  0.00     0.064 A 
ATOM     91  C   UNL A   1      43.895  26.815  35.273  1.00  0.00     0.173 A 
ATOM     92  C   UNL A   1      45.250  28.625  34.583  1.00  0.00     0.173 A 
ATOM     93  F   UNL A   1      42.797  26.075  35.142  1.00  0.00    -0.203 F 
ATOM     94  C   UNL A   1      44.998  26.427  36.070  1.00  0.00     0.198 A 
ATOM     95  C   UNL A   1      46.319  28.113  35.279  1.00  0.00     0.198 A 
ATOM     96  F   UNL A   1      45.409  29.719  33.842  1.00  0.00    -0.203 F 
ATOM     97  F   UNL A   1      44.799  25.478  36.981  1.00  0.00    -0.200 F 
ATOM     98  C   UNL A   1      46.210  26.941  35.973  1.00  0.00     0.200 A 
ATOM     99  F   UNL A   1      47.476  28.769  35.277  1.00  0.00    -0.200 F 
ATOM    100  F   UNL A   1      47.267  26.350  36.522  1.00  0.00    -0.200 F 
ENDBRANCH  67  90
ENDBRANCH  41  42
ENDBRANCH  33  36
ENDBRANCH  31  32
ENDBRANCH  30  31
ENDBRANCH   1  30
TORSDOF 15
ENDMDL
