MODEL 1
REMARK VINA RESULT:     -13.3      0.000      0.000
REMARK SMILES Cc1ccc([N+](=O)[O-])c(N[C@H]2[C@@H]3CC[C@@H](C3)[C@@H]2C(=O)NCCCCNC(=O)c2ccc(-c3c4nc(c(-c5c(F)c(F)c(F)c(F)c5F)c5ccc([nH]5)c(-c5c(F)c(F)c(F)c(F)c5F)c5nc(c(-c6c(F)c(F)c(F)c(F)c6F)c6ccc3[nH]6)C=C5)C=C4)cc2)c1
REMARK SMILES IDX 22 1 21 2 20 3 18 4 19 5 17 7 11 8 12 9 13 10 16 11 15 12
REMARK SMILES IDX 14 13 10 14 9 16 1 17 2 18 3 19 91 20 4 21 5 22 6 23 7 24
REMARK SMILES IDX 8 25 23 26 24 27 25 28 26 29 27 31 28 32 29 33 90 34 30 35
REMARK SMILES IDX 89 36 31 37 32 38 33 39 83 40 34 41 88 42 82 43 84 44 35 45
REMARK SMILES IDX 87 46 81 47 80 48 36 50 68 51 48 52 67 53 49 54 52 55 66 56
REMARK SMILES IDX 85 57 50 58 51 59 65 61 86 62 53 63 37 64 38 65 46 66 39 67
REMARK SMILES IDX 40 68 44 69 47 70 41 71 42 72 45 73 43 74 69 75 70 76 78 77
REMARK SMILES IDX 71 78 72 79 76 80 79 81 73 82 74 83 77 84 75 85 54 86 55 87
REMARK SMILES IDX 63 88 56 89 57 90 61 91 64 92 58 93 59 94 62 95 60 96
REMARK H PARENT 20 6 10 15 25 30 84 49 52 60
REMARK Flexibility Score: inf
ROOT
ATOM      1  C   UNL A   1      31.564  29.788  25.820  1.00  0.00     0.023 C 
ENDROOT
BRANCH   1   2
ATOM      2  C   UNL A   1      31.464  29.057  24.469  1.00  0.00     0.116 C 
BRANCH   2   3
ATOM      3  N   UNL A   1      30.455  28.008  24.425  1.00  0.00    -0.356 N 
ATOM      4  C   UNL A   1      30.411  26.657  24.325  1.00  0.00     0.225 C 
ATOM      5  O   UNL A   1      29.260  26.198  24.397  1.00  0.00    -0.275 OA
ATOM      6  H   UNL A   1      29.548  28.387  24.485  1.00  0.00     0.163 HD
BRANCH   4   7
ATOM      7  C   UNL A   1      31.562  25.670  24.067  1.00  0.00     0.104 C 
ATOM      8  C   UNL A   1      33.000  26.069  24.368  1.00  0.00     0.095 C 
ATOM      9  C   UNL A   1      33.732  25.832  23.019  1.00  0.00     0.012 C 
ATOM     10  C   UNL A   1      33.196  26.791  21.921  1.00  0.00     0.006 C 
ATOM     11  C   UNL A   1      33.089  24.552  22.519  1.00  0.00     0.010 C 
ATOM     12  C   UNL A   1      31.660  25.103  22.622  1.00  0.00     0.004 C 
ATOM     13  C   UNL A   1      31.783  26.243  21.618  1.00  0.00     0.005 C 
BRANCH   8  14
ATOM     14  N   UNL A   1      33.591  25.412  25.559  1.00  0.00    -0.376 N 
ATOM     15  H   UNL A   1      33.583  26.026  26.328  1.00  0.00     0.161 HD
BRANCH  14  16
ATOM     16  C   UNL A   1      34.151  24.199  25.917  1.00  0.00     0.114 A 
ATOM     17  C   UNL A   1      37.751  22.843  25.545  1.00  0.00     0.044 C 
ATOM     18  C   UNL A   1      36.266  22.877  25.766  1.00  0.00    -0.049 A 
ATOM     19  C   UNL A   1      35.615  21.730  26.204  1.00  0.00     0.010 A 
ATOM     20  C   UNL A   1      35.524  24.061  25.578  1.00  0.00     0.036 A 
ATOM     21  C   UNL A   1      34.286  21.818  26.591  1.00  0.00     0.088 A 
ATOM     22  C   UNL A   1      33.599  23.053  26.516  1.00  0.00     0.292 A 
BRANCH  22  23
ATOM     23  N   UNL A   1      32.469  23.106  27.430  1.00  0.00     0.064 N 
ATOM     24  O   UNL A   1      32.534  22.418  28.462  1.00  0.00    -0.258 OA
ATOM     25  O   UNL A   1      31.587  23.941  27.190  1.00  0.00    -0.258 OA
ENDBRANCH  22  23
ENDBRANCH  14  16
ENDBRANCH   8  14
ENDBRANCH   4   7
ENDBRANCH   2   3
ENDBRANCH   1   2
BRANCH   1  26
ATOM     26  C   UNL A   1      32.942  30.348  26.166  1.00  0.00     0.023 C 
BRANCH  26  27
ATOM     27  C   UNL A   1      33.269  30.236  27.645  1.00  0.00     0.116 C 
BRANCH  27  28
ATOM     28  N   UNL A   1      34.008  31.366  28.198  1.00  0.00    -0.352 N 
ATOM     29  C   UNL A   1      35.260  31.396  28.801  1.00  0.00     0.251 C 
ATOM     30  H   UNL A   1      33.553  32.236  28.136  1.00  0.00     0.163 HD
ATOM     31  O   UNL A   1      35.694  32.434  29.270  1.00  0.00    -0.269 OA
BRANCH  29  32
ATOM     32  C   UNL A   1      36.125  30.189  28.734  1.00  0.00     0.039 A 
ATOM     33  C   UNL A   1      36.511  29.589  29.938  1.00  0.00     0.014 A 
ATOM     34  C   UNL A   1      36.761  29.846  27.548  1.00  0.00     0.014 A 
ATOM     35  C   UNL A   1      37.710  28.882  29.990  1.00  0.00     0.010 A 
ATOM     36  C   UNL A   1      38.018  29.288  27.625  1.00  0.00     0.010 A 
ATOM     37  C   UNL A   1      38.520  28.860  28.857  1.00  0.00    -0.014 A 
BRANCH  37  38
ATOM     38  C   UNL A   1      39.933  28.503  28.879  1.00  0.00     0.031 A 
ATOM     39  C   UNL A   1      40.359  27.139  28.500  1.00  0.00     0.074 A 
ATOM     40  C   UNL A   1      40.864  29.455  29.122  1.00  0.00     0.049 A 
ATOM     41  N   UNL A   1      41.476  26.603  28.857  1.00  0.00    -0.248 NA
ATOM     42  C   UNL A   1      39.531  26.247  27.699  1.00  0.00     0.031 C 
ATOM     43  C   UNL A   1      42.304  29.359  28.894  1.00  0.00     0.029 A 
ATOM     44  N   UNL A   1      40.703  30.674  29.806  1.00  0.00    -0.354 N 
ATOM     45  C   UNL A   1      41.647  25.450  28.124  1.00  0.00     0.074 A 
ATOM     46  C   UNL A   1      40.381  25.244  27.461  1.00  0.00     0.031 C 
ATOM     47  C   UNL A   1      42.928  30.265  29.662  1.00  0.00     0.029 A 
ATOM     48  C   UNL A   1      41.919  30.882  30.501  1.00  0.00     0.049 A 
ATOM     49  H   UNL A   1      39.912  31.260  29.803  1.00  0.00     0.167 HD
ATOM     50  C   UNL A   1      42.886  24.881  28.064  1.00  0.00     0.037 A 
ATOM     51  C   UNL A   1      41.964  30.927  31.863  1.00  0.00     0.037 A 
ATOM     52  C   UNL A   1      43.830  25.596  28.923  1.00  0.00     0.049 A 
ATOM     53  C   UNL A   1      42.836  29.864  32.486  1.00  0.00     0.074 A 
ATOM     54  C   UNL A   1      44.809  26.542  28.661  1.00  0.00     0.029 A 
ATOM     55  N   UNL A   1      43.633  25.609  30.301  1.00  0.00    -0.354 N 
ATOM     56  N   UNL A   1      43.214  28.779  31.867  1.00  0.00    -0.248 NA
ATOM     57  C   UNL A   1      43.328  29.926  33.858  1.00  0.00     0.031 C 
ATOM     58  C   UNL A   1      45.180  27.145  29.886  1.00  0.00     0.029 A 
ATOM     59  C   UNL A   1      44.435  26.562  30.898  1.00  0.00     0.049 A 
ATOM     60  H   UNL A   1      43.008  25.022  30.783  1.00  0.00     0.167 HD
ATOM     61  C   UNL A   1      43.947  27.996  32.722  1.00  0.00     0.074 A 
ATOM     62  C   UNL A   1      44.013  28.772  33.945  1.00  0.00     0.031 C 
ATOM     63  C   UNL A   1      44.422  26.770  32.339  1.00  0.00     0.037 A 
BRANCH  50  64
ATOM     64  C   UNL A   1      43.312  23.876  27.010  1.00  0.00     0.064 A 
ATOM     65  C   UNL A   1      42.902  22.526  27.088  1.00  0.00     0.173 A 
ATOM     66  C   UNL A   1      44.170  24.158  25.931  1.00  0.00     0.173 A 
ATOM     67  F   UNL A   1      41.984  22.121  27.975  1.00  0.00    -0.203 F 
ATOM     68  C   UNL A   1      43.418  21.529  26.253  1.00  0.00     0.198 A 
ATOM     69  C   UNL A   1      44.732  23.155  25.131  1.00  0.00     0.198 A 
ATOM     70  F   UNL A   1      44.442  25.415  25.567  1.00  0.00    -0.203 F 
ATOM     71  F   UNL A   1      42.996  20.264  26.389  1.00  0.00    -0.200 F 
ATOM     72  C   UNL A   1      44.366  21.837  25.302  1.00  0.00     0.200 A 
ATOM     73  F   UNL A   1      45.627  23.483  24.187  1.00  0.00    -0.200 F 
ATOM     74  F   UNL A   1      44.897  20.878  24.532  1.00  0.00    -0.200 F 
ENDBRANCH  50  64
BRANCH  51  75
ATOM     75  C   UNL A   1      40.735  31.500  32.468  1.00  0.00     0.064 A 
ATOM     76  C   UNL A   1      40.523  32.885  32.335  1.00  0.00     0.173 A 
ATOM     77  C   UNL A   1      39.629  30.700  32.778  1.00  0.00     0.173 A 
ATOM     78  F   UNL A   1      41.551  33.693  32.031  1.00  0.00    -0.203 F 
ATOM     79  C   UNL A   1      39.242  33.429  32.386  1.00  0.00     0.198 A 
ATOM     80  C   UNL A   1      38.347  31.251  32.838  1.00  0.00     0.198 A 
ATOM     81  F   UNL A   1      39.766  29.371  32.893  1.00  0.00    -0.203 F 
ATOM     82  F   UNL A   1      39.060  34.734  32.136  1.00  0.00    -0.200 F 
ATOM     83  C   UNL A   1      38.151  32.606  32.607  1.00  0.00     0.200 A 
ATOM     84  F   UNL A   1      37.287  30.451  33.022  1.00  0.00    -0.200 F 
ATOM     85  F   UNL A   1      36.909  33.108  32.551  1.00  0.00    -0.200 F 
ENDBRANCH  51  75
BRANCH  63  86
ATOM     86  C   UNL A   1      45.012  25.702  33.238  1.00  0.00     0.064 A 
ATOM     87  C   UNL A   1      44.259  24.833  34.044  1.00  0.00     0.173 A 
ATOM     88  C   UNL A   1      46.405  25.430  33.208  1.00  0.00     0.173 A 
ATOM     89  F   UNL A   1      42.922  24.879  34.066  1.00  0.00    -0.203 F 
ATOM     90  C   UNL A   1      44.853  23.828  34.816  1.00  0.00     0.198 A 
ATOM     91  C   UNL A   1      46.986  24.386  33.929  1.00  0.00     0.198 A 
ATOM     92  F   UNL A   1      47.250  26.149  32.454  1.00  0.00    -0.203 F 
ATOM     93  F   UNL A   1      44.088  23.062  35.606  1.00  0.00    -0.200 F 
ATOM     94  C   UNL A   1      46.213  23.597  34.751  1.00  0.00     0.200 A 
ATOM     95  F   UNL A   1      48.298  24.140  33.803  1.00  0.00    -0.200 F 
ATOM     96  F   UNL A   1      46.769  22.604  35.455  1.00  0.00    -0.200 F 
ENDBRANCH  63  86
ENDBRANCH  37  38
ENDBRANCH  29  32
ENDBRANCH  27  28
ENDBRANCH  26  27
ENDBRANCH   1  26
TORSDOF 14
ENDMDL
MODEL 2
REMARK VINA RESULT:     -13.2      3.359      9.726
REMARK SMILES Cc1ccc([N+](=O)[O-])c(N[C@H]2[C@@H]3CC[C@@H](C3)[C@@H]2C(=O)NCCCCNC(=O)c2ccc(-c3c4nc(c(-c5c(F)c(F)c(F)c(F)c5F)c5ccc([nH]5)c(-c5c(F)c(F)c(F)c(F)c5F)c5nc(c(-c6c(F)c(F)c(F)c(F)c6F)c6ccc3[nH]6)C=C5)C=C4)cc2)c1
REMARK SMILES IDX 22 1 21 2 20 3 18 4 19 5 17 7 11 8 12 9 13 10 16 11 15 12
REMARK SMILES IDX 14 13 10 14 9 16 1 17 2 18 3 19 91 20 4 21 5 22 6 23 7 24
REMARK SMILES IDX 8 25 23 26 24 27 25 28 26 29 27 31 28 32 29 33 90 34 30 35
REMARK SMILES IDX 89 36 31 37 32 38 33 39 83 40 34 41 88 42 82 43 84 44 35 45
REMARK SMILES IDX 87 46 81 47 80 48 36 50 68 51 48 52 67 53 49 54 52 55 66 56
REMARK SMILES IDX 85 57 50 58 51 59 65 61 86 62 53 63 37 64 38 65 46 66 39 67
REMARK SMILES IDX 40 68 44 69 47 70 41 71 42 72 45 73 43 74 69 75 70 76 78 77
REMARK SMILES IDX 71 78 72 79 76 80 79 81 73 82 74 83 77 84 75 85 54 86 55 87
REMARK SMILES IDX 63 88 56 89 57 90 61 91 64 92 58 93 59 94 62 95 60 96
REMARK H PARENT 20 6 10 15 25 30 84 49 52 60
REMARK Flexibility Score: inf
ROOT
ATOM      1  C   UNL A   1      37.493  21.162  24.635  1.00  0.00     0.023 C 
ENDROOT
BRANCH   1   2
ATOM      2  C   UNL A   1      36.127  20.635  25.108  1.00  0.00     0.116 C 
BRANCH   2   3
ATOM      3  N   UNL A   1      35.534  21.395  26.201  1.00  0.00    -0.356 N 
ATOM      4  C   UNL A   1      34.532  22.290  26.375  1.00  0.00     0.225 C 
ATOM      5  O   UNL A   1      34.369  22.617  27.561  1.00  0.00    -0.275 OA
ATOM      6  H   UNL A   1      35.991  21.205  27.052  1.00  0.00     0.163 HD
BRANCH   4   7
ATOM      7  C   UNL A   1      33.656  22.979  25.315  1.00  0.00     0.104 C 
ATOM      8  C   UNL A   1      32.703  24.098  25.713  1.00  0.00     0.095 C 
ATOM      9  C   UNL A   1      31.328  23.606  25.187  1.00  0.00     0.012 C 
ATOM     10  C   UNL A   1      30.878  22.316  25.929  1.00  0.00     0.006 C 
ATOM     11  C   UNL A   1      31.693  22.972  23.858  1.00  0.00     0.010 C 
ATOM     12  C   UNL A   1      32.748  22.041  24.470  1.00  0.00     0.004 C 
ATOM     13  C   UNL A   1      31.834  21.232  25.383  1.00  0.00     0.005 C 
BRANCH   8  14
ATOM     14  N   UNL A   1      33.122  25.453  25.283  1.00  0.00    -0.376 N 
ATOM     15  H   UNL A   1      33.966  25.706  25.724  1.00  0.00     0.161 HD
BRANCH  14  16
ATOM     16  C   UNL A   1      32.690  26.471  24.453  1.00  0.00     0.114 A 
ATOM     17  C   UNL A   1      31.423  30.037  25.235  1.00  0.00     0.044 C 
ATOM     18  C   UNL A   1      31.698  28.764  24.487  1.00  0.00    -0.049 A 
ATOM     19  C   UNL A   1      31.429  28.701  23.126  1.00  0.00     0.010 A 
ATOM     20  C   UNL A   1      32.263  27.644  25.131  1.00  0.00     0.036 A 
ATOM     21  C   UNL A   1      31.863  27.598  22.406  1.00  0.00     0.088 A 
ATOM     22  C   UNL A   1      32.547  26.543  23.055  1.00  0.00     0.292 A 
BRANCH  22  23
ATOM     23  N   UNL A   1      33.381  25.784  22.136  1.00  0.00     0.064 N 
ATOM     24  O   UNL A   1      33.208  25.968  20.920  1.00  0.00    -0.258 OA
ATOM     25  O   UNL A   1      34.303  25.120  22.627  1.00  0.00    -0.258 OA
ENDBRANCH  22  23
ENDBRANCH  14  16
ENDBRANCH   8  14
ENDBRANCH   4   7
ENDBRANCH   2   3
ENDBRANCH   1   2
BRANCH   1  26
ATOM     26  C   UNL A   1      38.592  21.191  25.695  1.00  0.00     0.023 C 
BRANCH  26  27
ATOM     27  C   UNL A   1      38.955  22.600  26.129  1.00  0.00     0.116 C 
BRANCH  27  28
ATOM     28  N   UNL A   1      40.357  22.792  26.486  1.00  0.00    -0.352 N 
ATOM     29  C   UNL A   1      41.041  23.962  26.791  1.00  0.00     0.251 C 
ATOM     30  H   UNL A   1      40.898  21.970  26.516  1.00  0.00     0.163 HD
ATOM     31  O   UNL A   1      42.242  23.936  27.003  1.00  0.00    -0.269 OA
BRANCH  29  32
ATOM     32  C   UNL A   1      40.273  25.216  27.004  1.00  0.00     0.039 A 
ATOM     33  C   UNL A   1      40.686  26.365  26.319  1.00  0.00     0.014 A 
ATOM     34  C   UNL A   1      39.372  25.317  28.055  1.00  0.00     0.014 A 
ATOM     35  C   UNL A   1      40.426  27.615  26.873  1.00  0.00     0.010 A 
ATOM     36  C   UNL A   1      39.249  26.534  28.688  1.00  0.00     0.010 A 
ATOM     37  C   UNL A   1      39.829  27.677  28.129  1.00  0.00    -0.014 A 
BRANCH  37  38
ATOM     38  C   UNL A   1      39.848  28.861  28.978  1.00  0.00     0.031 A 
ATOM     39  C   UNL A   1      38.834  29.921  28.794  1.00  0.00     0.074 A 
ATOM     40  C   UNL A   1      40.713  28.930  30.017  1.00  0.00     0.049 A 
ATOM     41  N   UNL A   1      38.984  31.142  29.181  1.00  0.00    -0.248 NA
ATOM     42  C   UNL A   1      37.562  29.690  28.122  1.00  0.00     0.031 C 
ATOM     43  C   UNL A   1      40.679  29.875  31.131  1.00  0.00     0.029 A 
ATOM     44  N   UNL A   1      41.932  28.247  30.180  1.00  0.00    -0.354 N 
ATOM     45  C   UNL A   1      37.764  31.772  29.080  1.00  0.00     0.074 A 
ATOM     46  C   UNL A   1      36.927  30.841  28.361  1.00  0.00     0.031 C 
ATOM     47  C   UNL A   1      41.903  29.949  31.676  1.00  0.00     0.029 A 
ATOM     48  C   UNL A   1      42.789  29.154  30.848  1.00  0.00     0.049 A 
ATOM     49  H   UNL A   1      42.145  27.330  29.891  1.00  0.00     0.167 HD
ATOM     50  C   UNL A   1      37.573  32.954  29.736  1.00  0.00     0.037 A 
ATOM     51  C   UNL A   1      43.931  29.618  30.266  1.00  0.00     0.037 A 
ATOM     52  C   UNL A   1      38.810  33.400  30.379  1.00  0.00     0.049 A 
ATOM     53  C   UNL A   1      43.967  31.117  30.089  1.00  0.00     0.074 A 
ATOM     54  C   UNL A   1      39.266  33.333  31.685  1.00  0.00     0.029 A 
ATOM     55  N   UNL A   1      39.912  33.729  29.595  1.00  0.00    -0.354 N 
ATOM     56  N   UNL A   1      42.908  31.878  30.120  1.00  0.00    -0.248 NA
ATOM     57  C   UNL A   1      45.190  31.871  29.838  1.00  0.00     0.031 C 
ATOM     58  C   UNL A   1      40.657  33.597  31.682  1.00  0.00     0.029 A 
ATOM     59  C   UNL A   1      41.048  33.833  30.374  1.00  0.00     0.049 A 
ATOM     60  H   UNL A   1      39.886  33.868  28.621  1.00  0.00     0.167 HD
ATOM     61  C   UNL A   1      43.270  33.178  29.871  1.00  0.00     0.074 A 
ATOM     62  C   UNL A   1      44.712  33.123  29.729  1.00  0.00     0.031 C 
ATOM     63  C   UNL A   1      42.338  34.177  29.792  1.00  0.00     0.037 A 
BRANCH  50  64
ATOM     64  C   UNL A   1      36.210  33.546  30.045  1.00  0.00     0.064 A 
ATOM     65  C   UNL A   1      35.396  34.069  29.015  1.00  0.00     0.173 A 
ATOM     66  C   UNL A   1      35.669  33.687  31.337  1.00  0.00     0.173 A 
ATOM     67  F   UNL A   1      35.702  33.898  27.723  1.00  0.00    -0.203 F 
ATOM     68  C   UNL A   1      34.224  34.789  29.269  1.00  0.00     0.198 A 
ATOM     69  C   UNL A   1      34.529  34.456  31.598  1.00  0.00     0.198 A 
ATOM     70  F   UNL A   1      36.182  33.030  32.382  1.00  0.00    -0.203 F 
ATOM     71  F   UNL A   1      33.505  35.269  28.246  1.00  0.00    -0.200 F 
ATOM     72  C   UNL A   1      33.814  35.020  30.564  1.00  0.00     0.200 A 
ATOM     73  F   UNL A   1      34.127  34.637  32.865  1.00  0.00    -0.200 F 
ATOM     74  F   UNL A   1      32.719  35.750  30.812  1.00  0.00    -0.200 F 
ENDBRANCH  50  64
BRANCH  51  75
ATOM     75  C   UNL A   1      44.570  28.626  29.366  1.00  0.00     0.064 A 
ATOM     76  C   UNL A   1      44.412  28.800  27.978  1.00  0.00     0.173 A 
ATOM     77  C   UNL A   1      45.621  27.811  29.802  1.00  0.00     0.173 A 
ATOM     78  F   UNL A   1      43.422  29.578  27.511  1.00  0.00    -0.203 F 
ATOM     79  C   UNL A   1      45.337  28.286  27.073  1.00  0.00     0.198 A 
ATOM     80  C   UNL A   1      46.542  27.289  28.891  1.00  0.00     0.198 A 
ATOM     81  F   UNL A   1      45.837  27.627  31.113  1.00  0.00    -0.203 F 
ATOM     82  F   UNL A   1      45.224  28.571  25.768  1.00  0.00    -0.200 F 
ATOM     83  C   UNL A   1      46.419  27.556  27.534  1.00  0.00     0.200 A 
ATOM     84  F   UNL A   1      47.607  26.608  29.337  1.00  0.00    -0.200 F 
ATOM     85  F   UNL A   1      47.368  27.150  26.678  1.00  0.00    -0.200 F 
ENDBRANCH  51  75
BRANCH  63  86
ATOM     86  C   UNL A   1      42.555  35.586  29.277  1.00  0.00     0.064 A 
ATOM     87  C   UNL A   1      41.971  36.106  28.110  1.00  0.00     0.173 A 
ATOM     88  C   UNL A   1      43.286  36.527  30.049  1.00  0.00     0.173 A 
ATOM     89  F   UNL A   1      41.144  35.376  27.354  1.00  0.00    -0.203 F 
ATOM     90  C   UNL A   1      42.165  37.433  27.707  1.00  0.00     0.198 A 
ATOM     91  C   UNL A   1      43.422  37.865  29.678  1.00  0.00     0.198 A 
ATOM     92  F   UNL A   1      43.869  36.189  31.209  1.00  0.00    -0.203 F 
ATOM     93  F   UNL A   1      41.624  37.860  26.557  1.00  0.00    -0.200 F 
ATOM     94  C   UNL A   1      42.879  38.314  28.494  1.00  0.00     0.200 A 
ATOM     95  F   UNL A   1      44.067  38.718  30.486  1.00  0.00    -0.200 F 
ATOM     96  F   UNL A   1      43.021  39.594  28.127  1.00  0.00    -0.200 F 
ENDBRANCH  63  86
ENDBRANCH  37  38
ENDBRANCH  29  32
ENDBRANCH  27  28
ENDBRANCH  26  27
ENDBRANCH   1  26
TORSDOF 14
ENDMDL
MODEL 3
REMARK VINA RESULT:     -12.9      2.474      3.595
REMARK SMILES Cc1ccc([N+](=O)[O-])c(N[C@H]2[C@@H]3CC[C@@H](C3)[C@@H]2C(=O)NCCCCNC(=O)c2ccc(-c3c4nc(c(-c5c(F)c(F)c(F)c(F)c5F)c5ccc([nH]5)c(-c5c(F)c(F)c(F)c(F)c5F)c5nc(c(-c6c(F)c(F)c(F)c(F)c6F)c6ccc3[nH]6)C=C5)C=C4)cc2)c1
REMARK SMILES IDX 22 1 21 2 20 3 18 4 19 5 17 7 11 8 12 9 13 10 16 11 15 12
REMARK SMILES IDX 14 13 10 14 9 16 1 17 2 18 3 19 91 20 4 21 5 22 6 23 7 24
REMARK SMILES IDX 8 25 23 26 24 27 25 28 26 29 27 31 28 32 29 33 90 34 30 35
REMARK SMILES IDX 89 36 31 37 32 38 33 39 83 40 34 41 88 42 82 43 84 44 35 45
REMARK SMILES IDX 87 46 81 47 80 48 36 50 68 51 48 52 67 53 49 54 52 55 66 56
REMARK SMILES IDX 85 57 50 58 51 59 65 61 86 62 53 63 37 64 38 65 46 66 39 67
REMARK SMILES IDX 40 68 44 69 47 70 41 71 42 72 45 73 43 74 69 75 70 76 78 77
REMARK SMILES IDX 71 78 72 79 76 80 79 81 73 82 74 83 77 84 75 85 54 86 55 87
REMARK SMILES IDX 63 88 56 89 57 90 61 91 64 92 58 93 59 94 62 95 60 96
REMARK H PARENT 20 6 10 15 25 30 84 49 52 60
REMARK Flexibility Score: inf
ROOT
ATOM      1  C   UNL A   1      35.219  29.336  27.592  1.00  0.00     0.023 C 
ENDROOT
BRANCH   1   2
ATOM      2  C   UNL A   1      33.911  29.598  26.825  1.00  0.00     0.116 C 
BRANCH   2   3
ATOM      3  N   UNL A   1      32.731  28.986  27.420  1.00  0.00    -0.356 N 
ATOM      4  C   UNL A   1      31.926  27.920  27.189  1.00  0.00     0.225 C 
ATOM      5  O   UNL A   1      31.047  27.775  28.054  1.00  0.00    -0.275 OA
ATOM      6  H   UNL A   1      32.433  29.488  28.213  1.00  0.00     0.163 HD
BRANCH   4   7
ATOM      7  C   UNL A   1      31.924  26.951  25.995  1.00  0.00     0.104 C 
ATOM      8  C   UNL A   1      33.209  26.673  25.227  1.00  0.00     0.095 C 
ATOM      9  C   UNL A   1      32.836  27.014  23.760  1.00  0.00     0.012 C 
ATOM     10  C   UNL A   1      32.512  28.526  23.606  1.00  0.00     0.006 C 
ATOM     11  C   UNL A   1      31.420  26.479  23.650  1.00  0.00     0.010 C 
ATOM     12  C   UNL A   1      30.911  27.275  24.860  1.00  0.00     0.004 C 
ATOM     13  C   UNL A   1      31.153  28.681  24.325  1.00  0.00     0.005 C 
BRANCH   8  14
ATOM     14  N   UNL A   1      33.793  25.330  25.460  1.00  0.00    -0.376 N 
ATOM     15  H   UNL A   1      33.438  24.942  26.292  1.00  0.00     0.161 HD
BRANCH  14  16
ATOM     16  C   UNL A   1      34.685  24.457  24.865  1.00  0.00     0.114 A 
ATOM     17  C   UNL A   1      38.074  23.053  26.080  1.00  0.00     0.044 C 
ATOM     18  C   UNL A   1      36.939  23.423  25.169  1.00  0.00    -0.049 A 
ATOM     19  C   UNL A   1      36.932  22.951  23.862  1.00  0.00     0.010 A 
ATOM     20  C   UNL A   1      35.859  24.204  25.625  1.00  0.00     0.036 A 
ATOM     21  C   UNL A   1      35.795  23.131  23.089  1.00  0.00     0.088 A 
ATOM     22  C   UNL A   1      34.670  23.807  23.618  1.00  0.00     0.292 A 
BRANCH  22  23
ATOM     23  N   UNL A   1      33.439  23.438  22.935  1.00  0.00     0.064 N 
ATOM     24  O   UNL A   1      33.478  23.341  21.697  1.00  0.00    -0.258 OA
ATOM     25  O   UNL A   1      32.479  23.104  23.641  1.00  0.00    -0.258 OA
ENDBRANCH  22  23
ENDBRANCH  14  16
ENDBRANCH   8  14
ENDBRANCH   4   7
ENDBRANCH   2   3
ENDBRANCH   1   2
BRANCH   1  26
ATOM     26  C   UNL A   1      35.703  30.481  28.480  1.00  0.00     0.023 C 
BRANCH  26  27
ATOM     27  C   UNL A   1      35.481  31.846  27.852  1.00  0.00     0.116 C 
BRANCH  27  28
ATOM     28  N   UNL A   1      34.558  32.714  28.577  1.00  0.00    -0.352 N 
ATOM     29  C   UNL A   1      34.740  33.397  29.773  1.00  0.00     0.251 C 
ATOM     30  H   UNL A   1      33.676  32.832  28.158  1.00  0.00     0.163 HD
ATOM     31  O   UNL A   1      33.823  34.029  30.268  1.00  0.00    -0.269 OA
BRANCH  29  32
ATOM     32  C   UNL A   1      36.103  33.477  30.362  1.00  0.00     0.039 A 
ATOM     33  C   UNL A   1      37.110  34.093  29.609  1.00  0.00     0.014 A 
ATOM     34  C   UNL A   1      36.430  32.718  31.477  1.00  0.00     0.014 A 
ATOM     35  C   UNL A   1      38.434  33.706  29.803  1.00  0.00     0.010 A 
ATOM     36  C   UNL A   1      37.710  32.217  31.566  1.00  0.00     0.010 A 
ATOM     37  C   UNL A   1      38.701  32.665  30.688  1.00  0.00    -0.014 A 
BRANCH  37  38
ATOM     38  C   UNL A   1      39.952  31.916  30.703  1.00  0.00     0.031 A 
ATOM     39  C   UNL A   1      40.060  30.642  29.961  1.00  0.00     0.074 A 
ATOM     40  C   UNL A   1      41.049  32.451  31.288  1.00  0.00     0.049 A 
ATOM     41  N   UNL A   1      40.931  29.726  30.219  1.00  0.00    -0.248 NA
ATOM     42  C   UNL A   1      39.163  30.283  28.871  1.00  0.00     0.031 C 
ATOM     43  C   UNL A   1      42.431  31.999  31.145  1.00  0.00     0.029 A 
ATOM     44  N   UNL A   1      41.108  33.431  32.295  1.00  0.00    -0.354 N 
ATOM     45  C   UNL A   1      40.906  28.815  29.187  1.00  0.00     0.074 A 
ATOM     46  C   UNL A   1      39.749  29.177  28.403  1.00  0.00     0.031 C 
ATOM     47  C   UNL A   1      43.143  32.441  32.193  1.00  0.00     0.029 A 
ATOM     48  C   UNL A   1      42.213  33.077  33.105  1.00  0.00     0.049 A 
ATOM     49  H   UNL A   1      40.506  34.202  32.411  1.00  0.00     0.167 HD
ATOM     50  C   UNL A   1      41.949  27.945  29.047  1.00  0.00     0.037 A 
ATOM     51  C   UNL A   1      42.057  32.739  34.416  1.00  0.00     0.037 A 
ATOM     52  C   UNL A   1      42.902  28.092  30.147  1.00  0.00     0.049 A 
ATOM     53  C   UNL A   1      42.515  31.340  34.750  1.00  0.00     0.074 A 
ATOM     54  C   UNL A   1      44.121  28.742  30.254  1.00  0.00     0.029 A 
ATOM     55  N   UNL A   1      42.504  27.791  31.447  1.00  0.00    -0.354 N 
ATOM     56  N   UNL A   1      42.688  30.401  33.863  1.00  0.00    -0.248 NA
ATOM     57  C   UNL A   1      42.788  30.884  36.109  1.00  0.00     0.031 C 
ATOM     58  C   UNL A   1      44.443  28.856  31.627  1.00  0.00     0.029 A 
ATOM     59  C   UNL A   1      43.425  28.269  32.359  1.00  0.00     0.049 A 
ATOM     60  H   UNL A   1      41.681  27.307  31.683  1.00  0.00     0.167 HD
ATOM     61  C   UNL A   1      43.051  29.237  34.491  1.00  0.00     0.074 A 
ATOM     62  C   UNL A   1      43.127  29.600  35.893  1.00  0.00     0.031 C 
ATOM     63  C   UNL A   1      43.243  28.076  33.792  1.00  0.00     0.037 A 
BRANCH  50  64
ATOM     64  C   UNL A   1      42.256  27.182  27.772  1.00  0.00     0.064 A 
ATOM     65  C   UNL A   1      41.660  25.925  27.518  1.00  0.00     0.173 A 
ATOM     66  C   UNL A   1      43.171  27.596  26.787  1.00  0.00     0.173 A 
ATOM     67  F   UNL A   1      40.673  25.447  28.286  1.00  0.00    -0.203 F 
ATOM     68  C   UNL A   1      42.052  25.103  26.456  1.00  0.00     0.198 A 
ATOM     69  C   UNL A   1      43.607  26.754  25.758  1.00  0.00     0.198 A 
ATOM     70  F   UNL A   1      43.625  28.854  26.743  1.00  0.00    -0.203 F 
ATOM     71  F   UNL A   1      41.455  23.917  26.279  1.00  0.00    -0.200 F 
ATOM     72  C   UNL A   1      43.057  25.499  25.601  1.00  0.00     0.200 A 
ATOM     73  F   UNL A   1      44.561  27.174  24.915  1.00  0.00    -0.200 F 
ATOM     74  F   UNL A   1      43.468  24.695  24.612  1.00  0.00    -0.200 F 
ENDBRANCH  50  64
BRANCH  51  75
ATOM     75  C   UNL A   1      40.942  33.464  35.076  1.00  0.00     0.064 A 
ATOM     76  C   UNL A   1      39.707  32.800  35.197  1.00  0.00     0.173 A 
ATOM     77  C   UNL A   1      41.175  34.559  35.917  1.00  0.00     0.173 A 
ATOM     78  F   UNL A   1      39.439  31.740  34.418  1.00  0.00    -0.203 F 
ATOM     79  C   UNL A   1      38.799  33.136  36.198  1.00  0.00     0.198 A 
ATOM     80  C   UNL A   1      40.258  34.900  36.913  1.00  0.00     0.198 A 
ATOM     81  F   UNL A   1      42.342  35.216  35.864  1.00  0.00    -0.203 F 
ATOM     82  F   UNL A   1      37.686  32.406  36.363  1.00  0.00    -0.200 F 
ATOM     83  C   UNL A   1      39.090  34.167  37.075  1.00  0.00     0.200 A 
ATOM     84  F   UNL A   1      40.551  35.877  37.782  1.00  0.00    -0.200 F 
ATOM     85  F   UNL A   1      38.269  34.424  38.104  1.00  0.00    -0.200 F 
ENDBRANCH  51  75
BRANCH  63  86
ATOM     86  C   UNL A   1      43.389  26.681  34.366  1.00  0.00     0.064 A 
ATOM     87  C   UNL A   1      42.323  25.902  34.846  1.00  0.00     0.173 A 
ATOM     88  C   UNL A   1      44.642  26.016  34.325  1.00  0.00     0.173 A 
ATOM     89  F   UNL A   1      41.061  26.345  34.816  1.00  0.00    -0.203 F 
ATOM     90  C   UNL A   1      42.507  24.596  35.318  1.00  0.00     0.198 A 
ATOM     91  C   UNL A   1      44.809  24.693  34.736  1.00  0.00     0.198 A 
ATOM     92  F   UNL A   1      45.746  26.617  33.855  1.00  0.00    -0.203 F 
ATOM     93  F   UNL A   1      41.461  23.919  35.812  1.00  0.00    -0.200 F 
ATOM     94  C   UNL A   1      43.745  23.989  35.253  1.00  0.00     0.200 A 
ATOM     95  F   UNL A   1      46.006  24.102  34.607  1.00  0.00    -0.200 F 
ATOM     96  F   UNL A   1      43.905  22.724  35.663  1.00  0.00    -0.200 F 
ENDBRANCH  63  86
ENDBRANCH  37  38
ENDBRANCH  29  32
ENDBRANCH  27  28
ENDBRANCH  26  27
ENDBRANCH   1  26
TORSDOF 14
ENDMDL
