MODEL 1
REMARK VINA RESULT:     -13.0      0.000      0.000
REMARK SMILES C[N@H+]1[C@H]2CC[C@@H]1[C@@H](C(=O)NCCCCNC(=O)c1ccc(-c3c4nc(c(-c5c(F)c(F)c(F)c(F)c5F)c5ccc([nH]5)c(-c5c(F)c(F)c(F)c(F)c5F)c5nc(c(-c6c(F)c(F)c(F)c(F)c6F)c6ccc3[nH]6)C=C5)C=C4)cc1)[C@@H](OC(=O)c1ccccc1)C2
REMARK SMILES IDX 12 1 11 2 10 3 8 4 9 5 7 7 1 8 2 9 3 10 6 11 4 13 91 14 5 15
REMARK SMILES IDX 81 16 82 17 83 18 84 19 85 20 86 21 90 22 87 23 89 24 88 25
REMARK SMILES IDX 13 26 14 27 15 28 16 29 17 31 18 32 19 33 80 34 20 35 79 36
REMARK SMILES IDX 21 37 22 38 23 39 73 40 24 41 78 42 72 43 74 44 25 45 77 46
REMARK SMILES IDX 71 47 70 48 26 50 58 51 38 52 57 53 39 54 42 55 56 56 75 57
REMARK SMILES IDX 40 58 41 59 55 61 76 62 43 63 27 64 28 65 36 66 29 67 30 68
REMARK SMILES IDX 34 69 37 70 31 71 32 72 35 73 33 74 59 75 60 76 68 77 61 78
REMARK SMILES IDX 62 79 66 80 69 81 63 82 64 83 67 84 65 85 44 86 45 87 53 88
REMARK SMILES IDX 46 89 47 90 51 91 54 92 48 93 49 94 52 95 50 96
REMARK H PARENT 10 6 2 12 15 30 74 49 42 60
REMARK Flexibility Score: inf
ROOT
ATOM      1  C   UNL A   1      32.219  30.515  26.175  1.00  0.00     0.023 C 
ENDROOT
BRANCH   1   2
ATOM      2  C   UNL A   1      31.943  29.196  26.877  1.00  0.00     0.116 C 
BRANCH   2   3
ATOM      3  N   UNL A   1      32.963  28.169  26.767  1.00  0.00    -0.356 N 
ATOM      4  C   UNL A   1      32.950  26.912  26.233  1.00  0.00     0.232 C 
ATOM      5  O   UNL A   1      34.066  26.465  25.924  1.00  0.00    -0.274 OA
ATOM      6  H   UNL A   1      33.832  28.430  27.150  1.00  0.00     0.163 HD
BRANCH   4   7
ATOM      7  C   UNL A   1      31.717  26.000  26.030  1.00  0.00     0.177 C 
ATOM      8  C   UNL A   1      33.581  22.980  26.804  1.00  0.00     0.333 C 
ATOM      9  N   UNL A   1      32.790  23.893  26.009  1.00  0.00    -0.332 N 
ATOM     10  C   UNL A   1      32.120  23.420  24.793  1.00  0.00     0.188 C 
ATOM     11  C   UNL A   1      31.786  24.639  26.739  1.00  0.00     0.200 C 
ATOM     12  H   UNL A   1      33.580  24.467  25.714  1.00  0.00     0.348 HD
ATOM     13  C   UNL A   1      30.831  22.853  25.353  1.00  0.00     0.071 C 
ATOM     14  C   UNL A   1      31.866  24.649  23.845  1.00  0.00     0.111 C 
ATOM     15  C   UNL A   1      30.527  23.759  26.553  1.00  0.00     0.072 C 
ATOM     16  C   UNL A   1      31.266  25.886  24.566  1.00  0.00     0.201 C 
BRANCH  16  17
ATOM     17  O   UNL A   1      31.299  27.233  23.992  1.00  0.00    -0.457 OA
BRANCH  17  18
ATOM     18  C   UNL A   1      30.657  27.592  22.868  1.00  0.00     0.338 C 
ATOM     19  O   UNL A   1      30.922  27.218  21.732  1.00  0.00    -0.246 OA
BRANCH  18  20
ATOM     20  C   UNL A   1      29.571  28.583  23.130  1.00  0.00     0.060 A 
ATOM     21  C   UNL A   1      29.948  29.906  23.413  1.00  0.00     0.015 A 
ATOM     22  C   UNL A   1      28.209  28.272  23.028  1.00  0.00     0.015 A 
ATOM     23  C   UNL A   1      28.988  30.914  23.543  1.00  0.00     0.001 A 
ATOM     24  C   UNL A   1      27.249  29.288  23.148  1.00  0.00     0.001 A 
ATOM     25  C   UNL A   1      27.638  30.607  23.391  1.00  0.00     0.000 A 
ENDBRANCH  18  20
ENDBRANCH  17  18
ENDBRANCH  16  17
ENDBRANCH   4   7
ENDBRANCH   2   3
ENDBRANCH   1   2
BRANCH   1  26
ATOM     26  C   UNL A   1      31.754  31.741  26.920  1.00  0.00     0.023 C 
BRANCH  26  27
ATOM     27  C   UNL A   1      32.899  32.595  27.427  1.00  0.00     0.116 C 
BRANCH  27  28
ATOM     28  N   UNL A   1      32.532  33.997  27.639  1.00  0.00    -0.352 N 
ATOM     29  C   UNL A   1      33.017  34.858  28.595  1.00  0.00     0.251 C 
ATOM     30  H   UNL A   1      31.857  34.366  27.024  1.00  0.00     0.163 HD
ATOM     31  O   UNL A   1      32.532  35.965  28.785  1.00  0.00    -0.269 OA
BRANCH  29  32
ATOM     32  C   UNL A   1      34.149  34.376  29.398  1.00  0.00     0.039 A 
ATOM     33  C   UNL A   1      33.912  33.557  30.501  1.00  0.00     0.014 A 
ATOM     34  C   UNL A   1      35.439  34.590  28.906  1.00  0.00     0.014 A 
ATOM     35  C   UNL A   1      34.988  32.887  31.076  1.00  0.00     0.010 A 
ATOM     36  C   UNL A   1      36.473  33.817  29.390  1.00  0.00     0.010 A 
ATOM     37  C   UNL A   1      36.266  32.981  30.496  1.00  0.00    -0.014 A 
BRANCH  37  38
ATOM     38  C   UNL A   1      37.428  32.261  31.060  1.00  0.00     0.031 A 
ATOM     39  C   UNL A   1      37.916  32.639  32.430  1.00  0.00     0.074 A 
ATOM     40  C   UNL A   1      38.069  31.334  30.324  1.00  0.00     0.049 A 
ATOM     41  N   UNL A   1      38.955  32.199  33.089  1.00  0.00    -0.248 NA
ATOM     42  C   UNL A   1      37.160  33.689  33.136  1.00  0.00     0.031 C 
ATOM     43  C   UNL A   1      37.717  30.936  28.960  1.00  0.00     0.029 A 
ATOM     44  N   UNL A   1      39.160  30.560  30.625  1.00  0.00    -0.354 N 
ATOM     45  C   UNL A   1      38.982  32.930  34.269  1.00  0.00     0.074 A 
ATOM     46  C   UNL A   1      37.917  33.902  34.198  1.00  0.00     0.031 C 
ATOM     47  C   UNL A   1      38.547  29.960  28.559  1.00  0.00     0.029 A 
ATOM     48  C   UNL A   1      39.514  29.695  29.618  1.00  0.00     0.049 A 
ATOM     49  H   UNL A   1      39.643  30.618  31.480  1.00  0.00     0.167 HD
ATOM     50  C   UNL A   1      39.795  32.772  35.338  1.00  0.00     0.037 A 
ATOM     51  C   UNL A   1      40.509  28.790  29.570  1.00  0.00     0.037 A 
ATOM     52  C   UNL A   1      40.828  31.777  35.409  1.00  0.00     0.049 A 
ATOM     53  C   UNL A   1      41.408  28.640  30.769  1.00  0.00     0.074 A 
ATOM     54  C   UNL A   1      41.678  31.489  36.459  1.00  0.00     0.029 A 
ATOM     55  N   UNL A   1      41.149  30.906  34.376  1.00  0.00    -0.354 N 
ATOM     56  N   UNL A   1      41.379  29.281  31.913  1.00  0.00    -0.248 NA
ATOM     57  C   UNL A   1      42.474  27.634  30.672  1.00  0.00     0.031 C 
ATOM     58  C   UNL A   1      42.549  30.476  36.044  1.00  0.00     0.029 A 
ATOM     59  C   UNL A   1      42.201  30.092  34.758  1.00  0.00     0.049 A 
ATOM     60  H   UNL A   1      40.695  30.872  33.504  1.00  0.00     0.167 HD
ATOM     61  C   UNL A   1      42.395  28.735  32.684  1.00  0.00     0.074 A 
ATOM     62  C   UNL A   1      43.014  27.699  31.881  1.00  0.00     0.031 C 
ATOM     63  C   UNL A   1      42.786  29.058  33.942  1.00  0.00     0.037 A 
BRANCH  50  64
ATOM     64  C   UNL A   1      39.582  33.689  36.508  1.00  0.00     0.064 A 
ATOM     65  C   UNL A   1      40.181  34.957  36.570  1.00  0.00     0.173 A 
ATOM     66  C   UNL A   1      38.769  33.295  37.581  1.00  0.00     0.173 A 
ATOM     67  F   UNL A   1      40.985  35.375  35.581  1.00  0.00    -0.203 F 
ATOM     68  C   UNL A   1      40.004  35.780  37.679  1.00  0.00     0.198 A 
ATOM     69  C   UNL A   1      38.564  34.137  38.671  1.00  0.00     0.198 A 
ATOM     70  F   UNL A   1      38.174  32.093  37.575  1.00  0.00    -0.203 F 
ATOM     71  F   UNL A   1      40.640  36.958  37.745  1.00  0.00    -0.200 F 
ATOM     72  C   UNL A   1      39.190  35.374  38.724  1.00  0.00     0.200 A 
ATOM     73  F   UNL A   1      37.767  33.747  39.675  1.00  0.00    -0.200 F 
ATOM     74  F   UNL A   1      39.016  36.169  39.789  1.00  0.00    -0.200 F 
ENDBRANCH  50  64
BRANCH  51  75
ATOM     75  C   UNL A   1      40.683  27.932  28.368  1.00  0.00     0.064 A 
ATOM     76  C   UNL A   1      41.445  28.370  27.276  1.00  0.00     0.173 A 
ATOM     77  C   UNL A   1      40.089  26.663  28.280  1.00  0.00     0.173 A 
ATOM     78  F   UNL A   1      42.020  29.581  27.305  1.00  0.00    -0.203 F 
ATOM     79  C   UNL A   1      41.583  27.587  26.131  1.00  0.00     0.198 A 
ATOM     80  C   UNL A   1      40.253  25.869  27.146  1.00  0.00     0.198 A 
ATOM     81  F   UNL A   1      39.357  26.192  29.299  1.00  0.00    -0.203 F 
ATOM     82  F   UNL A   1      42.273  28.055  25.082  1.00  0.00    -0.200 F 
ATOM     83  C   UNL A   1      40.991  26.335  26.069  1.00  0.00     0.200 A 
ATOM     84  F   UNL A   1      39.694  24.652  27.098  1.00  0.00    -0.200 F 
ATOM     85  F   UNL A   1      41.125  25.582  24.969  1.00  0.00    -0.200 F 
ENDBRANCH  51  75
BRANCH  63  86
ATOM     86  C   UNL A   1      43.901  28.255  34.543  1.00  0.00     0.064 A 
ATOM     87  C   UNL A   1      45.237  28.675  34.473  1.00  0.00     0.173 A 
ATOM     88  C   UNL A   1      43.619  27.070  35.242  1.00  0.00     0.173 A 
ATOM     89  F   UNL A   1      45.558  29.793  33.805  1.00  0.00    -0.203 F 
ATOM     90  C   UNL A   1      46.254  27.924  35.056  1.00  0.00     0.198 A 
ATOM     91  C   UNL A   1      44.633  26.342  35.855  1.00  0.00     0.198 A 
ATOM     92  F   UNL A   1      42.356  26.631  35.348  1.00  0.00    -0.203 F 
ATOM     93  F   UNL A   1      47.528  28.316  34.931  1.00  0.00    -0.200 F 
ATOM     94  C   UNL A   1      45.950  26.764  35.753  1.00  0.00     0.200 A 
ATOM     95  F   UNL A   1      44.337  25.231  36.544  1.00  0.00    -0.200 F 
ATOM     96  F   UNL A   1      46.930  26.048  36.323  1.00  0.00    -0.200 F 
ENDBRANCH  63  86
ENDBRANCH  37  38
ENDBRANCH  29  32
ENDBRANCH  27  28
ENDBRANCH  26  27
ENDBRANCH   1  26
TORSDOF 14
ENDMDL
MODEL 2
REMARK VINA RESULT:     -12.9      0.874      1.563
REMARK SMILES C[N@H+]1[C@H]2CC[C@@H]1[C@@H](C(=O)NCCCCNC(=O)c1ccc(-c3c4nc(c(-c5c(F)c(F)c(F)c(F)c5F)c5ccc([nH]5)c(-c5c(F)c(F)c(F)c(F)c5F)c5nc(c(-c6c(F)c(F)c(F)c(F)c6F)c6ccc3[nH]6)C=C5)C=C4)cc1)[C@@H](OC(=O)c1ccccc1)C2
REMARK SMILES IDX 12 1 11 2 10 3 8 4 9 5 7 7 1 8 2 9 3 10 6 11 4 13 91 14 5 15
REMARK SMILES IDX 81 16 82 17 83 18 84 19 85 20 86 21 90 22 87 23 89 24 88 25
REMARK SMILES IDX 13 26 14 27 15 28 16 29 17 31 18 32 19 33 80 34 20 35 79 36
REMARK SMILES IDX 21 37 22 38 23 39 73 40 24 41 78 42 72 43 74 44 25 45 77 46
REMARK SMILES IDX 71 47 70 48 26 50 58 51 38 52 57 53 39 54 42 55 56 56 75 57
REMARK SMILES IDX 40 58 41 59 55 61 76 62 43 63 27 64 28 65 36 66 29 67 30 68
REMARK SMILES IDX 34 69 37 70 31 71 32 72 35 73 33 74 59 75 60 76 68 77 61 78
REMARK SMILES IDX 62 79 66 80 69 81 63 82 64 83 67 84 65 85 44 86 45 87 53 88
REMARK SMILES IDX 46 89 47 90 51 91 54 92 48 93 49 94 52 95 50 96
REMARK H PARENT 10 6 2 12 15 30 74 49 42 60
REMARK Flexibility Score: inf
ROOT
ATOM      1  C   UNL A   1      32.001  30.537  26.879  1.00  0.00     0.023 C 
ENDROOT
BRANCH   1   2
ATOM      2  C   UNL A   1      33.439  30.059  26.768  1.00  0.00     0.116 C 
BRANCH   2   3
ATOM      3  N   UNL A   1      33.829  29.445  25.512  1.00  0.00    -0.356 N 
ATOM      4  C   UNL A   1      33.260  28.465  24.750  1.00  0.00     0.232 C 
ATOM      5  O   UNL A   1      33.602  28.466  23.557  1.00  0.00    -0.274 OA
ATOM      6  H   UNL A   1      34.666  29.804  25.137  1.00  0.00     0.163 HD
BRANCH   4   7
ATOM      7  C   UNL A   1      32.294  27.356  25.230  1.00  0.00     0.177 C 
ATOM      8  C   UNL A   1      34.801  24.751  24.878  1.00  0.00     0.333 C 
ATOM      9  N   UNL A   1      33.560  25.450  24.631  1.00  0.00    -0.332 N 
ATOM     10  C   UNL A   1      32.451  24.767  23.956  1.00  0.00     0.188 C 
ATOM     11  C   UNL A   1      32.971  26.094  25.787  1.00  0.00     0.200 C 
ATOM     12  H   UNL A   1      33.957  26.111  23.963  1.00  0.00     0.348 HD
ATOM     13  C   UNL A   1      31.776  24.060  25.114  1.00  0.00     0.071 C 
ATOM     14  C   UNL A   1      31.518  25.848  23.295  1.00  0.00     0.111 C 
ATOM     15  C   UNL A   1      31.987  25.014  26.296  1.00  0.00     0.072 C 
ATOM     16  C   UNL A   1      31.171  27.037  24.231  1.00  0.00     0.201 C 
BRANCH  16  17
ATOM     17  O   UNL A   1      30.652  28.312  23.735  1.00  0.00    -0.457 OA
BRANCH  17  18
ATOM     18  C   UNL A   1      29.380  28.514  23.353  1.00  0.00     0.338 C 
ATOM     19  O   UNL A   1      28.497  27.666  23.299  1.00  0.00    -0.246 OA
BRANCH  18  20
ATOM     20  C   UNL A   1      29.136  29.923  22.923  1.00  0.00     0.060 A 
ATOM     21  C   UNL A   1      28.736  30.141  21.594  1.00  0.00     0.015 A 
ATOM     22  C   UNL A   1      29.211  31.015  23.797  1.00  0.00     0.015 A 
ATOM     23  C   UNL A   1      28.368  31.416  21.156  1.00  0.00     0.001 A 
ATOM     24  C   UNL A   1      28.830  32.291  23.356  1.00  0.00     0.001 A 
ATOM     25  C   UNL A   1      28.396  32.488  22.043  1.00  0.00     0.000 A 
ENDBRANCH  18  20
ENDBRANCH  17  18
ENDBRANCH  16  17
ENDBRANCH   4   7
ENDBRANCH   2   3
ENDBRANCH   1   2
BRANCH   1  26
ATOM     26  C   UNL A   1      31.817  32.030  26.768  1.00  0.00     0.023 C 
BRANCH  26  27
ATOM     27  C   UNL A   1      32.879  32.814  27.513  1.00  0.00     0.116 C 
BRANCH  27  28
ATOM     28  N   UNL A   1      32.521  34.216  27.734  1.00  0.00    -0.352 N 
ATOM     29  C   UNL A   1      33.027  35.074  28.681  1.00  0.00     0.251 C 
ATOM     30  H   UNL A   1      31.835  34.589  27.133  1.00  0.00     0.163 HD
ATOM     31  O   UNL A   1      32.550  36.183  28.882  1.00  0.00    -0.269 OA
BRANCH  29  32
ATOM     32  C   UNL A   1      34.172  34.588  29.462  1.00  0.00     0.039 A 
ATOM     33  C   UNL A   1      33.952  33.895  30.651  1.00  0.00     0.014 A 
ATOM     34  C   UNL A   1      35.440  34.660  28.878  1.00  0.00     0.014 A 
ATOM     35  C   UNL A   1      35.015  33.204  31.226  1.00  0.00     0.010 A 
ATOM     36  C   UNL A   1      36.449  33.861  29.375  1.00  0.00     0.010 A 
ATOM     37  C   UNL A   1      36.256  33.149  30.568  1.00  0.00    -0.014 A 
BRANCH  37  38
ATOM     38  C   UNL A   1      37.400  32.402  31.132  1.00  0.00     0.031 A 
ATOM     39  C   UNL A   1      37.890  32.760  32.506  1.00  0.00     0.074 A 
ATOM     40  C   UNL A   1      38.026  31.467  30.392  1.00  0.00     0.049 A 
ATOM     41  N   UNL A   1      38.917  32.293  33.167  1.00  0.00    -0.248 NA
ATOM     42  C   UNL A   1      37.153  33.820  33.216  1.00  0.00     0.031 C 
ATOM     43  C   UNL A   1      37.671  31.085  29.024  1.00  0.00     0.029 A 
ATOM     44  N   UNL A   1      39.099  30.668  30.692  1.00  0.00    -0.354 N 
ATOM     45  C   UNL A   1      38.953  33.016  34.352  1.00  0.00     0.074 A 
ATOM     46  C   UNL A   1      37.910  34.011  34.283  1.00  0.00     0.031 C 
ATOM     47  C   UNL A   1      38.483  30.095  28.620  1.00  0.00     0.029 A 
ATOM     48  C   UNL A   1      39.440  29.803  29.681  1.00  0.00     0.049 A 
ATOM     49  H   UNL A   1      39.579  30.710  31.550  1.00  0.00     0.167 HD
ATOM     50  C   UNL A   1      39.758  32.834  35.423  1.00  0.00     0.037 A 
ATOM     51  C   UNL A   1      40.416  28.877  29.630  1.00  0.00     0.037 A 
ATOM     52  C   UNL A   1      40.770  31.818  35.491  1.00  0.00     0.049 A 
ATOM     53  C   UNL A   1      41.306  28.701  30.832  1.00  0.00     0.074 A 
ATOM     54  C   UNL A   1      41.609  31.504  36.544  1.00  0.00     0.029 A 
ATOM     55  N   UNL A   1      41.078  30.947  34.454  1.00  0.00    -0.354 N 
ATOM     56  N   UNL A   1      41.285  29.335  31.981  1.00  0.00    -0.248 NA
ATOM     57  C   UNL A   1      42.351  27.673  30.734  1.00  0.00     0.031 C 
ATOM     58  C   UNL A   1      42.461  30.477  36.125  1.00  0.00     0.029 A 
ATOM     59  C   UNL A   1      42.111  30.108  34.835  1.00  0.00     0.049 A 
ATOM     60  H   UNL A   1      40.627  30.928  33.580  1.00  0.00     0.167 HD
ATOM     61  C   UNL A   1      42.286  28.762  32.752  1.00  0.00     0.074 A 
ATOM     62  C   UNL A   1      42.887  27.719  31.945  1.00  0.00     0.031 C 
ATOM     63  C   UNL A   1      42.678  29.069  34.014  1.00  0.00     0.037 A 
BRANCH  50  64
ATOM     64  C   UNL A   1      39.559  33.747  36.598  1.00  0.00     0.064 A 
ATOM     65  C   UNL A   1      38.766  33.375  37.696  1.00  0.00     0.173 A 
ATOM     66  C   UNL A   1      40.168  35.010  36.629  1.00  0.00     0.173 A 
ATOM     67  F   UNL A   1      38.143  32.186  37.709  1.00  0.00    -0.203 F 
ATOM     68  C   UNL A   1      38.560  34.247  38.761  1.00  0.00     0.198 A 
ATOM     69  C   UNL A   1      39.990  35.865  37.714  1.00  0.00     0.198 A 
ATOM     70  F   UNL A   1      40.933  35.418  35.606  1.00  0.00    -0.203 F 
ATOM     71  F   UNL A   1      37.745  33.895  39.765  1.00  0.00    -0.200 F 
ATOM     72  C   UNL A   1      39.178  35.487  38.773  1.00  0.00     0.200 A 
ATOM     73  F   UNL A   1      40.598  37.059  37.730  1.00  0.00    -0.200 F 
ATOM     74  F   UNL A   1      38.984  36.325  39.801  1.00  0.00    -0.200 F 
ENDBRANCH  50  64
BRANCH  51  75
ATOM     75  C   UNL A   1      40.577  28.024  28.424  1.00  0.00     0.064 A 
ATOM     76  C   UNL A   1      41.352  28.454  27.338  1.00  0.00     0.173 A 
ATOM     77  C   UNL A   1      39.957  26.768  28.324  1.00  0.00     0.173 A 
ATOM     78  F   UNL A   1      41.951  29.653  27.377  1.00  0.00    -0.203 F 
ATOM     79  C   UNL A   1      41.479  27.676  26.188  1.00  0.00     0.198 A 
ATOM     80  C   UNL A   1      40.111  25.978  27.187  1.00  0.00     0.198 A 
ATOM     81  F   UNL A   1      39.212  26.305  29.338  1.00  0.00    -0.203 F 
ATOM     82  F   UNL A   1      42.183  28.137  25.145  1.00  0.00    -0.200 F 
ATOM     83  C   UNL A   1      40.862  26.437  26.116  1.00  0.00     0.200 A 
ATOM     84  F   UNL A   1      39.527  24.773  27.128  1.00  0.00    -0.200 F 
ATOM     85  F   UNL A   1      40.985  25.688  25.011  1.00  0.00    -0.200 F 
ENDBRANCH  51  75
BRANCH  63  86
ATOM     86  C   UNL A   1      43.773  28.238  34.615  1.00  0.00     0.064 A 
ATOM     87  C   UNL A   1      45.118  28.629  34.550  1.00  0.00     0.173 A 
ATOM     88  C   UNL A   1      43.463  27.057  35.308  1.00  0.00     0.173 A 
ATOM     89  F   UNL A   1      45.466  29.742  33.888  1.00  0.00    -0.203 F 
ATOM     90  C   UNL A   1      46.117  27.852  35.132  1.00  0.00     0.198 A 
ATOM     91  C   UNL A   1      44.460  26.304  35.920  1.00  0.00     0.198 A 
ATOM     92  F   UNL A   1      42.191  26.645  35.409  1.00  0.00    -0.203 F 
ATOM     93  F   UNL A   1      47.400  28.217  35.013  1.00  0.00    -0.200 F 
ATOM     94  C   UNL A   1      45.786  26.696  35.823  1.00  0.00     0.200 A 
ATOM     95  F   UNL A   1      44.137  25.197  36.604  1.00  0.00    -0.200 F 
ATOM     96  F   UNL A   1      46.748  25.957  36.392  1.00  0.00    -0.200 F 
ENDBRANCH  63  86
ENDBRANCH  37  38
ENDBRANCH  29  32
ENDBRANCH  27  28
ENDBRANCH  26  27
ENDBRANCH   1  26
TORSDOF 14
ENDMDL
MODEL 3
REMARK VINA RESULT:     -12.9      5.449     11.133
REMARK SMILES C[N@H+]1[C@H]2CC[C@@H]1[C@@H](C(=O)NCCCCNC(=O)c1ccc(-c3c4nc(c(-c5c(F)c(F)c(F)c(F)c5F)c5ccc([nH]5)c(-c5c(F)c(F)c(F)c(F)c5F)c5nc(c(-c6c(F)c(F)c(F)c(F)c6F)c6ccc3[nH]6)C=C5)C=C4)cc1)[C@@H](OC(=O)c1ccccc1)C2
REMARK SMILES IDX 12 1 11 2 10 3 8 4 9 5 7 7 1 8 2 9 3 10 6 11 4 13 91 14 5 15
REMARK SMILES IDX 81 16 82 17 83 18 84 19 85 20 86 21 90 22 87 23 89 24 88 25
REMARK SMILES IDX 13 26 14 27 15 28 16 29 17 31 18 32 19 33 80 34 20 35 79 36
REMARK SMILES IDX 21 37 22 38 23 39 73 40 24 41 78 42 72 43 74 44 25 45 77 46
REMARK SMILES IDX 71 47 70 48 26 50 58 51 38 52 57 53 39 54 42 55 56 56 75 57
REMARK SMILES IDX 40 58 41 59 55 61 76 62 43 63 27 64 28 65 36 66 29 67 30 68
REMARK SMILES IDX 34 69 37 70 31 71 32 72 35 73 33 74 59 75 60 76 68 77 61 78
REMARK SMILES IDX 62 79 66 80 69 81 63 82 64 83 67 84 65 85 44 86 45 87 53 88
REMARK SMILES IDX 46 89 47 90 51 91 54 92 48 93 49 94 52 95 50 96
REMARK H PARENT 10 6 2 12 15 30 74 49 42 60
REMARK Flexibility Score: inf
ROOT
ATOM      1  C   UNL A   1      37.324  21.426  24.730  1.00  0.00     0.023 C 
ENDROOT
BRANCH   1   2
ATOM      2  C   UNL A   1      37.599  22.574  25.687  1.00  0.00     0.116 C 
BRANCH   2   3
ATOM      3  N   UNL A   1      36.491  23.014  26.516  1.00  0.00    -0.356 N 
ATOM      4  C   UNL A   1      35.192  23.322  26.229  1.00  0.00     0.232 C 
ATOM      5  O   UNL A   1      34.413  23.255  27.192  1.00  0.00    -0.274 OA
ATOM      6  H   UNL A   1      36.720  23.107  27.469  1.00  0.00     0.163 HD
BRANCH   4   7
ATOM      7  C   UNL A   1      34.625  23.782  24.865  1.00  0.00     0.177 C 
ATOM      8  C   UNL A   1      33.300  26.873  26.239  1.00  0.00     0.333 C 
ATOM      9  N   UNL A   1      33.271  25.580  25.592  1.00  0.00    -0.332 N 
ATOM     10  C   UNL A   1      32.084  25.159  24.840  1.00  0.00     0.188 C 
ATOM     11  C   UNL A   1      34.398  25.296  24.727  1.00  0.00     0.200 C 
ATOM     12  H   UNL A   1      33.285  25.043  26.458  1.00  0.00     0.348 HD
ATOM     13  C   UNL A   1      32.340  25.788  23.485  1.00  0.00     0.071 C 
ATOM     14  C   UNL A   1      32.061  23.587  24.770  1.00  0.00     0.111 C 
ATOM     15  C   UNL A   1      33.866  25.737  23.343  1.00  0.00     0.072 C 
ATOM     16  C   UNL A   1      33.424  22.954  24.382  1.00  0.00     0.201 C 
BRANCH  16  17
ATOM     17  O   UNL A   1      33.741  21.545  24.619  1.00  0.00    -0.457 OA
BRANCH  17  18
ATOM     18  C   UNL A   1      32.821  20.578  24.772  1.00  0.00     0.338 C 
ATOM     19  O   UNL A   1      31.767  20.673  25.390  1.00  0.00    -0.246 OA
BRANCH  18  20
ATOM     20  C   UNL A   1      33.241  19.294  24.138  1.00  0.00     0.060 A 
ATOM     21  C   UNL A   1      34.399  18.669  24.631  1.00  0.00     0.015 A 
ATOM     22  C   UNL A   1      32.497  18.653  23.139  1.00  0.00     0.015 A 
ATOM     23  C   UNL A   1      34.781  17.405  24.174  1.00  0.00     0.001 A 
ATOM     24  C   UNL A   1      32.878  17.379  22.692  1.00  0.00     0.001 A 
ATOM     25  C   UNL A   1      34.009  16.751  23.218  1.00  0.00     0.000 A 
ENDBRANCH  18  20
ENDBRANCH  17  18
ENDBRANCH  16  17
ENDBRANCH   4   7
ENDBRANCH   2   3
ENDBRANCH   1   2
BRANCH   1  26
ATOM     26  C   UNL A   1      38.111  20.169  25.003  1.00  0.00     0.023 C 
BRANCH  26  27
ATOM     27  C   UNL A   1      39.350  20.416  25.840  1.00  0.00     0.116 C 
BRANCH  27  28
ATOM     28  N   UNL A   1      40.226  19.247  25.946  1.00  0.00    -0.352 N 
ATOM     29  C   UNL A   1      41.591  19.231  26.104  1.00  0.00     0.251 C 
ATOM     30  H   UNL A   1      39.784  18.368  25.898  1.00  0.00     0.163 HD
ATOM     31  O   UNL A   1      42.247  18.201  26.026  1.00  0.00    -0.269 OA
BRANCH  29  32
ATOM     32  C   UNL A   1      42.238  20.525  26.356  1.00  0.00     0.039 A 
ATOM     33  C   UNL A   1      42.570  21.351  25.285  1.00  0.00     0.014 A 
ATOM     34  C   UNL A   1      42.311  20.972  27.678  1.00  0.00     0.014 A 
ATOM     35  C   UNL A   1      42.917  22.674  25.545  1.00  0.00     0.010 A 
ATOM     36  C   UNL A   1      42.518  22.315  27.917  1.00  0.00     0.010 A 
ATOM     37  C   UNL A   1      42.851  23.172  26.858  1.00  0.00    -0.014 A 
BRANCH  37  38
ATOM     38  C   UNL A   1      43.183  24.579  27.171  1.00  0.00     0.031 A 
ATOM     39  C   UNL A   1      44.581  25.065  26.915  1.00  0.00     0.074 A 
ATOM     40  C   UNL A   1      42.261  25.380  27.737  1.00  0.00     0.049 A 
ATOM     41  N   UNL A   1      45.115  26.228  27.181  1.00  0.00    -0.248 NA
ATOM     42  C   UNL A   1      45.521  24.097  26.322  1.00  0.00     0.031 C 
ATOM     43  C   UNL A   1      40.893  24.991  28.085  1.00  0.00     0.029 A 
ATOM     44  N   UNL A   1      42.341  26.693  28.123  1.00  0.00    -0.354 N 
ATOM     45  C   UNL A   1      46.448  26.117  26.805  1.00  0.00     0.074 A 
ATOM     46  C   UNL A   1      46.665  24.755  26.382  1.00  0.00     0.031 C 
ATOM     47  C   UNL A   1      40.249  26.055  28.592  1.00  0.00     0.029 A 
ATOM     48  C   UNL A   1      41.170  27.186  28.643  1.00  0.00     0.049 A 
ATOM     49  H   UNL A   1      43.160  27.231  28.035  1.00  0.00     0.167 HD
ATOM     50  C   UNL A   1      47.394  27.082  26.773  1.00  0.00     0.037 A 
ATOM     51  C   UNL A   1      40.881  28.417  29.104  1.00  0.00     0.037 A 
ATOM     52  C   UNL A   1      47.155  28.442  27.165  1.00  0.00     0.049 A 
ATOM     53  C   UNL A   1      41.956  29.472  29.067  1.00  0.00     0.074 A 
ATOM     54  C   UNL A   1      48.021  29.518  27.124  1.00  0.00     0.029 A 
ATOM     55  N   UNL A   1      45.950  28.911  27.672  1.00  0.00    -0.354 N 
ATOM     56  N   UNL A   1      43.192  29.382  28.638  1.00  0.00    -0.248 NA
ATOM     57  C   UNL A   1      41.592  30.802  29.572  1.00  0.00     0.031 C 
ATOM     58  C   UNL A   1      47.357  30.628  27.656  1.00  0.00     0.029 A 
ATOM     59  C   UNL A   1      46.058  30.259  27.970  1.00  0.00     0.049 A 
ATOM     60  H   UNL A   1      45.141  28.367  27.800  1.00  0.00     0.167 HD
ATOM     61  C   UNL A   1      43.742  30.647  28.787  1.00  0.00     0.074 A 
ATOM     62  C   UNL A   1      42.699  31.491  29.334  1.00  0.00     0.031 C 
ATOM     63  C   UNL A   1      44.996  31.076  28.500  1.00  0.00     0.037 A 
BRANCH  50  64
ATOM     64  C   UNL A   1      48.760  26.692  26.287  1.00  0.00     0.064 A 
ATOM     65  C   UNL A   1      49.697  26.077  27.133  1.00  0.00     0.173 A 
ATOM     66  C   UNL A   1      49.139  26.935  24.958  1.00  0.00     0.173 A 
ATOM     67  F   UNL A   1      49.395  25.841  28.420  1.00  0.00    -0.203 F 
ATOM     68  C   UNL A   1      50.973  25.756  26.678  1.00  0.00     0.198 A 
ATOM     69  C   UNL A   1      50.402  26.576  24.497  1.00  0.00     0.198 A 
ATOM     70  F   UNL A   1      48.284  27.521  24.107  1.00  0.00    -0.203 F 
ATOM     71  F   UNL A   1      51.871  25.231  27.524  1.00  0.00    -0.200 F 
ATOM     72  C   UNL A   1      51.322  25.997  25.359  1.00  0.00     0.200 A 
ATOM     73  F   UNL A   1      50.735  26.800  23.218  1.00  0.00    -0.200 F 
ATOM     74  F   UNL A   1      52.549  25.682  24.920  1.00  0.00    -0.200 F 
ENDBRANCH  50  64
BRANCH  51  75
ATOM     75  C   UNL A   1      39.514  28.731  29.598  1.00  0.00     0.064 A 
ATOM     76  C   UNL A   1      39.161  28.492  30.933  1.00  0.00     0.173 A 
ATOM     77  C   UNL A   1      38.532  29.267  28.751  1.00  0.00     0.173 A 
ATOM     78  F   UNL A   1      40.058  27.966  31.779  1.00  0.00    -0.203 F 
ATOM     79  C   UNL A   1      37.871  28.749  31.396  1.00  0.00     0.198 A 
ATOM     80  C   UNL A   1      37.252  29.553  29.223  1.00  0.00     0.198 A 
ATOM     81  F   UNL A   1      38.820  29.523  27.467  1.00  0.00    -0.203 F 
ATOM     82  F   UNL A   1      37.548  28.461  32.664  1.00  0.00    -0.200 F 
ATOM     83  C   UNL A   1      36.920  29.284  30.542  1.00  0.00     0.200 A 
ATOM     84  F   UNL A   1      36.341  30.085  28.397  1.00  0.00    -0.200 F 
ATOM     85  F   UNL A   1      35.681  29.533  30.987  1.00  0.00    -0.200 F 
ENDBRANCH  51  75
BRANCH  63  86
ATOM     86  C   UNL A   1      45.295  32.529  28.727  1.00  0.00     0.064 A 
ATOM     87  C   UNL A   1      45.037  33.499  27.748  1.00  0.00     0.173 A 
ATOM     88  C   UNL A   1      45.802  32.960  29.964  1.00  0.00     0.173 A 
ATOM     89  F   UNL A   1      44.565  33.136  26.546  1.00  0.00    -0.203 F 
ATOM     90  C   UNL A   1      45.303  34.844  27.988  1.00  0.00     0.198 A 
ATOM     91  C   UNL A   1      46.031  34.309  30.212  1.00  0.00     0.198 A 
ATOM     92  F   UNL A   1      46.055  32.073  30.938  1.00  0.00    -0.203 F 
ATOM     93  F   UNL A   1      45.099  35.747  27.020  1.00  0.00    -0.200 F 
ATOM     94  C   UNL A   1      45.791  35.248  29.221  1.00  0.00     0.200 A 
ATOM     95  F   UNL A   1      46.485  34.700  31.411  1.00  0.00    -0.200 F 
ATOM     96  F   UNL A   1      46.036  36.545  29.453  1.00  0.00    -0.200 F 
ENDBRANCH  63  86
ENDBRANCH  37  38
ENDBRANCH  29  32
ENDBRANCH  27  28
ENDBRANCH  26  27
ENDBRANCH   1  26
TORSDOF 14
ENDMDL
