MODEL 1
REMARK VINA RESULT:     -11.9      0.000      0.000
REMARK SMILES CC[C@@H]1COCCN1c1nc(C(F)(F)F)ccc1C(=O)NCCCCNC(=O)c1ccc(-c2c3nc(c(-c4c(F)c(F)c(F)c(F)c4F)c4ccc([nH]4)c(-c4c(F)c(F)c(F)c(F)c4F)c4nc(c(-c5c(F)c(F)c(F)c(F)c5F)c5ccc2[nH]5)C=C4)C=C3)cc1
REMARK SMILES IDX 23 1 22 2 21 3 19 4 20 5 18 7 9 8 10 9 11 10 17 11 16 12
REMARK SMILES IDX 8 13 3 14 4 15 5 16 7 17 6 18 2 19 1 20 12 21 13 22 14 23
REMARK SMILES IDX 15 24 24 25 25 26 26 27 27 28 28 30 29 31 30 32 91 33 31 34
REMARK SMILES IDX 90 35 32 36 33 37 34 38 84 39 35 40 89 41 83 42 85 43 36 44
REMARK SMILES IDX 88 45 82 46 81 47 37 49 69 50 49 51 68 52 50 53 53 54 67 55
REMARK SMILES IDX 86 56 51 57 52 58 66 60 87 61 54 62 38 63 39 64 47 65 40 66
REMARK SMILES IDX 41 67 45 68 48 69 42 70 43 71 46 72 44 73 70 74 71 75 79 76
REMARK SMILES IDX 72 77 73 78 77 79 80 80 74 81 75 82 78 83 76 84 55 85 56 86
REMARK SMILES IDX 64 87 57 88 58 89 62 90 65 91 59 92 60 93 63 94 61 95
REMARK H PARENT 21 6 26 29 85 48 53 59
REMARK Flexibility Score: inf
ROOT
ATOM      1  C   UNL A   1      31.703  28.340  27.305  1.00  0.00     0.023 C 
ENDROOT
BRANCH   1   2
ATOM      2  C   UNL A   1      32.394  27.030  26.940  1.00  0.00     0.116 C 
BRANCH   2   3
ATOM      3  N   UNL A   1      31.553  25.848  27.020  1.00  0.00    -0.352 N 
ATOM      4  C   UNL A   1      31.821  24.518  26.769  1.00  0.00     0.255 C 
ATOM      5  O   UNL A   1      30.960  23.696  27.074  1.00  0.00    -0.269 OA
ATOM      6  H   UNL A   1      30.627  26.029  27.302  1.00  0.00     0.163 HD
BRANCH   4   7
ATOM      7  C   UNL A   1      33.111  24.087  26.172  1.00  0.00     0.082 A 
ATOM      8  C   UNL A   1      33.482  24.437  24.862  1.00  0.00     0.142 A 
ATOM      9  N   UNL A   1      34.677  24.049  24.351  1.00  0.00    -0.226 NA
ATOM     10  C   UNL A   1      35.519  23.279  25.101  1.00  0.00     0.146 A 
ATOM     11  C   UNL A   1      33.944  23.235  26.903  1.00  0.00     0.020 A 
ATOM     12  C   UNL A   1      35.164  22.837  26.373  1.00  0.00     0.034 A 
BRANCH   8  13
ATOM     13  N   UNL A   1      32.616  25.007  23.973  1.00  0.00    -0.348 N 
ATOM     14  C   UNL A   1      32.653  26.333  23.347  1.00  0.00     0.109 C 
ATOM     15  C   UNL A   1      31.218  26.909  23.445  1.00  0.00     0.185 C 
ATOM     16  O   UNL A   1      30.294  26.063  22.721  1.00  0.00    -0.377 OA
ATOM     17  C   UNL A   1      31.679  24.088  23.310  1.00  0.00     0.147 C 
ATOM     18  C   UNL A   1      30.280  24.727  23.265  1.00  0.00     0.181 C 
BRANCH  14  19
ATOM     19  C   UNL A   1      33.751  27.308  23.774  1.00  0.00     0.024 C 
ATOM     20  C   UNL A   1      34.012  28.522  22.906  1.00  0.00     0.006 C 
ENDBRANCH  14  19
ENDBRANCH   8  13
BRANCH  10  21
ATOM     21  C   UNL A   1      36.838  22.815  24.498  1.00  0.00     0.433 C 
ATOM     22  F   UNL A   1      37.035  23.290  23.236  1.00  0.00    -0.165 F 
ATOM     23  F   UNL A   1      37.935  23.178  25.220  1.00  0.00    -0.165 F 
ATOM     24  F   UNL A   1      36.914  21.453  24.386  1.00  0.00    -0.165 F 
ENDBRANCH  10  21
ENDBRANCH   4   7
ENDBRANCH   2   3
ENDBRANCH   1   2
BRANCH   1  25
ATOM     25  C   UNL A   1      31.602  29.404  26.216  1.00  0.00     0.023 C 
BRANCH  25  26
ATOM     26  C   UNL A   1      32.811  30.312  26.022  1.00  0.00     0.116 C 
BRANCH  26  27
ATOM     27  N   UNL A   1      32.651  31.648  26.570  1.00  0.00    -0.352 N 
ATOM     28  C   UNL A   1      33.458  32.349  27.441  1.00  0.00     0.251 C 
ATOM     29  H   UNL A   1      31.844  32.127  26.273  1.00  0.00     0.163 HD
ATOM     30  O   UNL A   1      33.132  33.468  27.803  1.00  0.00    -0.269 OA
BRANCH  28  31
ATOM     31  C   UNL A   1      34.688  31.726  27.986  1.00  0.00     0.039 A 
ATOM     32  C   UNL A   1      35.808  32.539  28.185  1.00  0.00     0.014 A 
ATOM     33  C   UNL A   1      34.743  30.370  28.320  1.00  0.00     0.014 A 
ATOM     34  C   UNL A   1      36.947  32.017  28.803  1.00  0.00     0.010 A 
ATOM     35  C   UNL A   1      35.851  29.870  29.000  1.00  0.00     0.010 A 
ATOM     36  C   UNL A   1      36.959  30.690  29.261  1.00  0.00    -0.014 A 
BRANCH  36  37
ATOM     37  C   UNL A   1      38.108  30.153  30.039  1.00  0.00     0.031 A 
ATOM     38  C   UNL A   1      38.338  30.597  31.456  1.00  0.00     0.074 A 
ATOM     39  C   UNL A   1      38.992  29.331  29.437  1.00  0.00     0.049 A 
ATOM     40  N   UNL A   1      39.334  30.318  32.259  1.00  0.00    -0.248 NA
ATOM     41  C   UNL A   1      37.334  31.500  32.039  1.00  0.00     0.031 C 
ATOM     42  C   UNL A   1      38.915  28.875  28.048  1.00  0.00     0.029 A 
ATOM     43  N   UNL A   1      40.142  28.751  29.911  1.00  0.00    -0.354 N 
ATOM     44  C   UNL A   1      39.091  31.030  33.425  1.00  0.00     0.074 A 
ATOM     45  C   UNL A   1      37.872  31.781  33.217  1.00  0.00     0.031 C 
ATOM     46  C   UNL A   1      39.967  28.082  27.784  1.00  0.00     0.029 A 
ATOM     47  C   UNL A   1      40.810  27.999  28.973  1.00  0.00     0.049 A 
ATOM     48  H   UNL A   1      40.460  28.863  30.836  1.00  0.00     0.167 HD
ATOM     49  C   UNL A   1      39.812  31.041  34.572  1.00  0.00     0.037 A 
ATOM     50  C   UNL A   1      41.976  27.330  29.057  1.00  0.00     0.037 A 
ATOM     51  C   UNL A   1      40.993  30.251  34.797  1.00  0.00     0.049 A 
ATOM     52  C   UNL A   1      42.733  27.332  30.358  1.00  0.00     0.074 A 
ATOM     53  C   UNL A   1      41.732  30.117  35.960  1.00  0.00     0.029 A 
ATOM     54  N   UNL A   1      41.609  29.459  33.840  1.00  0.00    -0.354 N 
ATOM     55  N   UNL A   1      42.441  27.935  31.484  1.00  0.00    -0.248 NA
ATOM     56  C   UNL A   1      43.978  26.551  30.402  1.00  0.00     0.031 C 
ATOM     57  C   UNL A   1      42.818  29.278  35.697  1.00  0.00     0.029 A 
ATOM     58  C   UNL A   1      42.731  28.853  34.381  1.00  0.00     0.049 A 
ATOM     59  H   UNL A   1      41.295  29.344  32.914  1.00  0.00     0.167 HD
ATOM     60  C   UNL A   1      43.446  27.585  32.376  1.00  0.00     0.074 A 
ATOM     61  C   UNL A   1      44.349  26.705  31.666  1.00  0.00     0.031 C 
ATOM     62  C   UNL A   1      43.609  27.964  33.666  1.00  0.00     0.037 A 
BRANCH  49  63
ATOM     63  C   UNL A   1      39.344  31.926  35.688  1.00  0.00     0.064 A 
ATOM     64  C   UNL A   1      38.402  31.486  36.629  1.00  0.00     0.173 A 
ATOM     65  C   UNL A   1      39.904  33.201  35.863  1.00  0.00     0.173 A 
ATOM     66  F   UNL A   1      37.831  30.280  36.500  1.00  0.00    -0.203 F 
ATOM     67  C   UNL A   1      38.028  32.295  37.698  1.00  0.00     0.198 A 
ATOM     68  C   UNL A   1      39.546  33.997  36.947  1.00  0.00     0.198 A 
ATOM     69  F   UNL A   1      40.814  33.665  34.994  1.00  0.00    -0.203 F 
ATOM     70  F   UNL A   1      37.104  31.867  38.569  1.00  0.00    -0.200 F 
ATOM     71  C   UNL A   1      38.606  33.546  37.861  1.00  0.00     0.200 A 
ATOM     72  F   UNL A   1      40.115  35.199  37.110  1.00  0.00    -0.200 F 
ATOM     73  F   UNL A   1      38.257  34.316  38.901  1.00  0.00    -0.200 F 
ENDBRANCH  49  63
BRANCH  50  74
ATOM     74  C   UNL A   1      42.503  26.591  27.880  1.00  0.00     0.064 A 
ATOM     75  C   UNL A   1      43.384  27.205  26.979  1.00  0.00     0.173 A 
ATOM     76  C   UNL A   1      42.109  25.272  27.611  1.00  0.00     0.173 A 
ATOM     77  F   UNL A   1      43.772  28.473  27.181  1.00  0.00    -0.203 F 
ATOM     78  C   UNL A   1      43.827  26.539  25.838  1.00  0.00     0.198 A 
ATOM     79  C   UNL A   1      42.576  24.597  26.485  1.00  0.00     0.198 A 
ATOM     80  F   UNL A   1      41.270  24.638  28.444  1.00  0.00    -0.203 F 
ATOM     81  F   UNL A   1      44.623  27.170  24.964  1.00  0.00    -0.200 F 
ATOM     82  C   UNL A   1      43.425  25.235  25.593  1.00  0.00     0.200 A 
ATOM     83  F   UNL A   1      42.195  23.333  26.259  1.00  0.00    -0.200 F 
ATOM     84  F   UNL A   1      43.846  24.597  24.493  1.00  0.00    -0.200 F 
ENDBRANCH  50  74
BRANCH  62  85
ATOM     85  C   UNL A   1      44.783  27.397  34.408  1.00  0.00     0.064 A 
ATOM     86  C   UNL A   1      46.018  28.060  34.446  1.00  0.00     0.173 A 
ATOM     87  C   UNL A   1      44.656  26.198  35.125  1.00  0.00     0.173 A 
ATOM     88  F   UNL A   1      46.192  29.202  33.763  1.00  0.00    -0.203 F 
ATOM     89  C   UNL A   1      47.091  27.530  35.157  1.00  0.00     0.198 A 
ATOM     90  C   UNL A   1      45.723  25.685  35.857  1.00  0.00     0.198 A 
ATOM     91  F   UNL A   1      43.492  25.530  35.125  1.00  0.00    -0.203 F 
ATOM     92  F   UNL A   1      48.275  28.157  35.144  1.00  0.00    -0.200 F 
ATOM     93  C   UNL A   1      46.941  26.348  35.868  1.00  0.00     0.200 A 
ATOM     94  F   UNL A   1      45.572  24.550  36.553  1.00  0.00    -0.200 F 
ATOM     95  F   UNL A   1      47.973  25.845  36.558  1.00  0.00    -0.200 F 
ENDBRANCH  62  85
ENDBRANCH  36  37
ENDBRANCH  28  31
ENDBRANCH  26  27
ENDBRANCH  25  26
ENDBRANCH   1  25
TORSDOF 14
ENDMDL
MODEL 2
REMARK VINA RESULT:     -11.9      2.851      8.140
REMARK SMILES CC[C@@H]1COCCN1c1nc(C(F)(F)F)ccc1C(=O)NCCCCNC(=O)c1ccc(-c2c3nc(c(-c4c(F)c(F)c(F)c(F)c4F)c4ccc([nH]4)c(-c4c(F)c(F)c(F)c(F)c4F)c4nc(c(-c5c(F)c(F)c(F)c(F)c5F)c5ccc2[nH]5)C=C4)C=C3)cc1
REMARK SMILES IDX 23 1 22 2 21 3 19 4 20 5 18 7 9 8 10 9 11 10 17 11 16 12
REMARK SMILES IDX 8 13 3 14 4 15 5 16 7 17 6 18 2 19 1 20 12 21 13 22 14 23
REMARK SMILES IDX 15 24 24 25 25 26 26 27 27 28 28 30 29 31 30 32 91 33 31 34
REMARK SMILES IDX 90 35 32 36 33 37 34 38 84 39 35 40 89 41 83 42 85 43 36 44
REMARK SMILES IDX 88 45 82 46 81 47 37 49 69 50 49 51 68 52 50 53 53 54 67 55
REMARK SMILES IDX 86 56 51 57 52 58 66 60 87 61 54 62 38 63 39 64 47 65 40 66
REMARK SMILES IDX 41 67 45 68 48 69 42 70 43 71 46 72 44 73 70 74 71 75 79 76
REMARK SMILES IDX 72 77 73 78 77 79 80 80 74 81 75 82 78 83 76 84 55 85 56 86
REMARK SMILES IDX 64 87 57 88 58 89 62 90 65 91 59 92 60 93 63 94 61 95
REMARK H PARENT 21 6 26 29 85 48 53 59
REMARK Flexibility Score: inf
ROOT
ATOM      1  C   UNL A   1      33.216  30.002  27.600  1.00  0.00     0.023 C 
ENDROOT
BRANCH   1   2
ATOM      2  C   UNL A   1      32.691  28.665  27.084  1.00  0.00     0.116 C 
BRANCH   2   3
ATOM      3  N   UNL A   1      33.405  28.126  25.939  1.00  0.00    -0.352 N 
ATOM      4  C   UNL A   1      33.060  28.045  24.604  1.00  0.00     0.255 C 
ATOM      5  O   UNL A   1      33.927  27.683  23.813  1.00  0.00    -0.269 OA
ATOM      6  H   UNL A   1      34.290  27.753  26.152  1.00  0.00     0.163 HD
BRANCH   4   7
ATOM      7  C   UNL A   1      31.698  28.402  24.133  1.00  0.00     0.082 A 
ATOM      8  C   UNL A   1      30.860  27.470  23.495  1.00  0.00     0.142 A 
ATOM      9  N   UNL A   1      29.611  27.817  23.096  1.00  0.00    -0.226 NA
ATOM     10  C   UNL A   1      29.170  29.096  23.282  1.00  0.00     0.146 A 
ATOM     11  C   UNL A   1      31.266  29.727  24.249  1.00  0.00     0.020 A 
ATOM     12  C   UNL A   1      29.988  30.078  23.834  1.00  0.00     0.034 A 
BRANCH   8  13
ATOM     13  N   UNL A   1      31.297  26.248  23.071  1.00  0.00    -0.348 N 
ATOM     14  C   UNL A   1      31.243  24.947  23.747  1.00  0.00     0.109 C 
ATOM     15  C   UNL A   1      32.637  24.295  23.563  1.00  0.00     0.185 C 
ATOM     16  O   UNL A   1      32.909  24.094  22.156  1.00  0.00    -0.377 OA
ATOM     17  C   UNL A   1      31.594  26.135  21.636  1.00  0.00     0.147 C 
ATOM     18  C   UNL A   1      32.903  25.347  21.443  1.00  0.00     0.181 C 
BRANCH  14  19
ATOM     19  C   UNL A   1      30.708  24.893  25.178  1.00  0.00     0.024 C 
ATOM     20  C   UNL A   1      31.704  24.934  26.319  1.00  0.00     0.006 C 
ENDBRANCH  14  19
ENDBRANCH   8  13
BRANCH  10  21
ATOM     21  C   UNL A   1      27.781  29.483  22.790  1.00  0.00     0.433 C 
ATOM     22  F   UNL A   1      27.281  30.576  23.432  1.00  0.00    -0.165 F 
ATOM     23  F   UNL A   1      27.723  29.762  21.458  1.00  0.00    -0.165 F 
ATOM     24  F   UNL A   1      26.858  28.493  22.992  1.00  0.00    -0.165 F 
ENDBRANCH  10  21
ENDBRANCH   4   7
ENDBRANCH   2   3
ENDBRANCH   1   2
BRANCH   1  25
ATOM     25  C   UNL A   1      32.385  31.244  27.294  1.00  0.00     0.023 C 
BRANCH  25  26
ATOM     26  C   UNL A   1      33.141  32.494  26.859  1.00  0.00     0.116 C 
BRANCH  26  27
ATOM     27  N   UNL A   1      32.608  33.734  27.395  1.00  0.00    -0.352 N 
ATOM     28  C   UNL A   1      33.053  34.508  28.445  1.00  0.00     0.251 C 
ATOM     29  H   UNL A   1      31.805  34.075  26.937  1.00  0.00     0.163 HD
ATOM     30  O   UNL A   1      32.444  35.519  28.755  1.00  0.00    -0.269 OA
BRANCH  28  31
ATOM     31  C   UNL A   1      34.235  34.087  29.235  1.00  0.00     0.039 A 
ATOM     32  C   UNL A   1      34.027  33.264  30.347  1.00  0.00     0.014 A 
ATOM     33  C   UNL A   1      35.531  34.472  28.885  1.00  0.00     0.014 A 
ATOM     34  C   UNL A   1      35.122  32.753  31.049  1.00  0.00     0.010 A 
ATOM     35  C   UNL A   1      36.622  33.904  29.540  1.00  0.00     0.010 A 
ATOM     36  C   UNL A   1      36.430  33.029  30.621  1.00  0.00    -0.014 A 
BRANCH  36  37
ATOM     37  C   UNL A   1      37.605  32.389  31.269  1.00  0.00     0.031 A 
ATOM     38  C   UNL A   1      38.307  31.238  30.603  1.00  0.00     0.074 A 
ATOM     39  C   UNL A   1      37.985  32.788  32.500  1.00  0.00     0.049 A 
ATOM     40  N   UNL A   1      39.282  30.491  31.054  1.00  0.00    -0.248 NA
ATOM     41  C   UNL A   1      37.829  30.856  29.265  1.00  0.00     0.031 C 
ATOM     42  C   UNL A   1      37.348  33.851  33.280  1.00  0.00     0.029 A 
ATOM     43  N   UNL A   1      38.986  32.332  33.321  1.00  0.00    -0.354 N 
ATOM     44  C   UNL A   1      39.514  29.537  30.072  1.00  0.00     0.074 A 
ATOM     45  C   UNL A   1      38.557  29.777  29.014  1.00  0.00     0.031 C 
ATOM     46  C   UNL A   1      37.976  33.970  34.461  1.00  0.00     0.029 A 
ATOM     47  C   UNL A   1      39.038  32.972  34.537  1.00  0.00     0.049 A 
ATOM     48  H   UNL A   1      39.609  31.614  33.065  1.00  0.00     0.167 HD
ATOM     49  C   UNL A   1      40.453  28.562  30.049  1.00  0.00     0.037 A 
ATOM     50  C   UNL A   1      39.842  32.768  35.599  1.00  0.00     0.037 A 
ATOM     51  C   UNL A   1      41.440  28.359  31.077  1.00  0.00     0.049 A 
ATOM     52  C   UNL A   1      40.900  31.700  35.526  1.00  0.00     0.074 A 
ATOM     53  C   UNL A   1      42.495  27.463  31.094  1.00  0.00     0.029 A 
ATOM     54  N   UNL A   1      41.494  29.063  32.270  1.00  0.00    -0.354 N 
ATOM     55  N   UNL A   1      41.168  30.866  34.551  1.00  0.00    -0.248 NA
ATOM     56  C   UNL A   1      41.773  31.550  36.699  1.00  0.00     0.031 C 
ATOM     57  C   UNL A   1      43.164  27.595  32.314  1.00  0.00     0.029 A 
ATOM     58  C   UNL A   1      42.551  28.604  33.039  1.00  0.00     0.049 A 
ATOM     59  H   UNL A   1      40.875  29.781  32.532  1.00  0.00     0.167 HD
ATOM     60  C   UNL A   1      42.256  30.116  34.980  1.00  0.00     0.074 A 
ATOM     61  C   UNL A   1      42.608  30.602  36.296  1.00  0.00     0.031 C 
ATOM     62  C   UNL A   1      42.900  29.111  34.340  1.00  0.00     0.037 A 
BRANCH  49  63
ATOM     63  C   UNL A   1      40.476  27.636  28.871  1.00  0.00     0.064 A 
ATOM     64  C   UNL A   1      39.670  26.488  28.821  1.00  0.00     0.173 A 
ATOM     65  C   UNL A   1      41.253  27.943  27.743  1.00  0.00     0.173 A 
ATOM     66  F   UNL A   1      38.916  26.147  29.877  1.00  0.00    -0.203 F 
ATOM     67  C   UNL A   1      39.652  25.675  27.692  1.00  0.00     0.198 A 
ATOM     68  C   UNL A   1      41.214  27.141  26.606  1.00  0.00     0.198 A 
ATOM     69  F   UNL A   1      42.035  29.033  27.738  1.00  0.00    -0.203 F 
ATOM     70  F   UNL A   1      38.898  24.568  27.678  1.00  0.00    -0.200 F 
ATOM     71  C   UNL A   1      40.417  26.006  26.582  1.00  0.00     0.200 A 
ATOM     72  F   UNL A   1      41.943  27.469  25.531  1.00  0.00    -0.200 F 
ATOM     73  F   UNL A   1      40.385  25.231  25.490  1.00  0.00    -0.200 F 
ENDBRANCH  49  63
BRANCH  50  74
ATOM     74  C   UNL A   1      39.690  33.595  36.824  1.00  0.00     0.064 A 
ATOM     75  C   UNL A   1      38.831  33.201  37.859  1.00  0.00     0.173 A 
ATOM     76  C   UNL A   1      40.370  34.813  36.971  1.00  0.00     0.173 A 
ATOM     77  F   UNL A   1      38.141  32.054  37.756  1.00  0.00    -0.203 F 
ATOM     78  C   UNL A   1      38.633  34.006  38.979  1.00  0.00     0.198 A 
ATOM     79  C   UNL A   1      40.195  35.604  38.105  1.00  0.00     0.198 A 
ATOM     80  F   UNL A   1      41.207  35.235  36.011  1.00  0.00    -0.203 F 
ATOM     81  F   UNL A   1      37.762  33.631  39.926  1.00  0.00    -0.200 F 
ATOM     82  C   UNL A   1      39.317  35.205  39.102  1.00  0.00     0.200 A 
ATOM     83  F   UNL A   1      40.867  36.757  38.225  1.00  0.00    -0.200 F 
ATOM     84  F   UNL A   1      39.123  35.983  40.176  1.00  0.00    -0.200 F 
ENDBRANCH  50  74
BRANCH  62  85
ATOM     85  C   UNL A   1      44.079  28.497  35.036  1.00  0.00     0.064 A 
ATOM     86  C   UNL A   1      45.373  29.018  34.888  1.00  0.00     0.173 A 
ATOM     87  C   UNL A   1      43.903  27.401  35.894  1.00  0.00     0.173 A 
ATOM     88  F   UNL A   1      45.593  30.055  34.067  1.00  0.00    -0.203 F 
ATOM     89  C   UNL A   1      46.452  28.449  35.559  1.00  0.00     0.198 A 
ATOM     90  C   UNL A   1      44.980  26.852  36.584  1.00  0.00     0.198 A 
ATOM     91  F   UNL A   1      42.684  26.871  36.073  1.00  0.00    -0.203 F 
ATOM     92  F   UNL A   1      47.686  28.935  35.370  1.00  0.00    -0.200 F 
ATOM     93  C   UNL A   1      46.254  27.372  36.412  1.00  0.00     0.200 A 
ATOM     94  F   UNL A   1      44.785  25.820  37.416  1.00  0.00    -0.200 F 
ATOM     95  F   UNL A   1      47.293  26.832  37.061  1.00  0.00    -0.200 F 
ENDBRANCH  62  85
ENDBRANCH  36  37
ENDBRANCH  28  31
ENDBRANCH  26  27
ENDBRANCH  25  26
ENDBRANCH   1  25
TORSDOF 14
ENDMDL
MODEL 3
REMARK VINA RESULT:     -11.8      0.349      1.622
REMARK SMILES CC[C@@H]1COCCN1c1nc(C(F)(F)F)ccc1C(=O)NCCCCNC(=O)c1ccc(-c2c3nc(c(-c4c(F)c(F)c(F)c(F)c4F)c4ccc([nH]4)c(-c4c(F)c(F)c(F)c(F)c4F)c4nc(c(-c5c(F)c(F)c(F)c(F)c5F)c5ccc2[nH]5)C=C4)C=C3)cc1
REMARK SMILES IDX 23 1 22 2 21 3 19 4 20 5 18 7 9 8 10 9 11 10 17 11 16 12
REMARK SMILES IDX 8 13 3 14 4 15 5 16 7 17 6 18 2 19 1 20 12 21 13 22 14 23
REMARK SMILES IDX 15 24 24 25 25 26 26 27 27 28 28 30 29 31 30 32 91 33 31 34
REMARK SMILES IDX 90 35 32 36 33 37 34 38 84 39 35 40 89 41 83 42 85 43 36 44
REMARK SMILES IDX 88 45 82 46 81 47 37 49 69 50 49 51 68 52 50 53 53 54 67 55
REMARK SMILES IDX 86 56 51 57 52 58 66 60 87 61 54 62 38 63 39 64 47 65 40 66
REMARK SMILES IDX 41 67 45 68 48 69 42 70 43 71 46 72 44 73 70 74 71 75 79 76
REMARK SMILES IDX 72 77 73 78 77 79 80 80 74 81 75 82 78 83 76 84 55 85 56 86
REMARK SMILES IDX 64 87 57 88 58 89 62 90 65 91 59 92 60 93 63 94 61 95
REMARK H PARENT 21 6 26 29 85 48 53 59
REMARK Flexibility Score: inf
ROOT
ATOM      1  C   UNL A   1      31.453  28.136  27.163  1.00  0.00     0.023 C 
ENDROOT
BRANCH   1   2
ATOM      2  C   UNL A   1      32.195  26.826  26.918  1.00  0.00     0.116 C 
BRANCH   2   3
ATOM      3  N   UNL A   1      31.372  25.631  26.991  1.00  0.00    -0.352 N 
ATOM      4  C   UNL A   1      31.685  24.296  26.833  1.00  0.00     0.255 C 
ATOM      5  O   UNL A   1      30.817  23.471  27.110  1.00  0.00    -0.269 OA
ATOM      6  H   UNL A   1      30.423  25.805  27.187  1.00  0.00     0.163 HD
BRANCH   4   7
ATOM      7  C   UNL A   1      33.026  23.864  26.366  1.00  0.00     0.082 A 
ATOM      8  C   UNL A   1      33.492  24.145  25.069  1.00  0.00     0.142 A 
ATOM      9  N   UNL A   1      34.733  23.759  24.678  1.00  0.00    -0.226 NA
ATOM     10  C   UNL A   1      35.529  23.058  25.538  1.00  0.00     0.146 A 
ATOM     11  C   UNL A   1      33.818  23.082  27.212  1.00  0.00     0.020 A 
ATOM     12  C   UNL A   1      35.085  22.685  26.804  1.00  0.00     0.034 A 
BRANCH   8  13
ATOM     13  N   UNL A   1      32.687  24.636  24.082  1.00  0.00    -0.348 N 
ATOM     14  C   UNL A   1      32.751  25.918  23.371  1.00  0.00     0.109 C 
ATOM     15  C   UNL A   1      31.304  26.470  23.323  1.00  0.00     0.185 C 
ATOM     16  O   UNL A   1      30.450  25.559  22.593  1.00  0.00    -0.377 OA
ATOM     17  C   UNL A   1      31.817  23.656  23.416  1.00  0.00     0.147 C 
ATOM     18  C   UNL A   1      30.415  24.263  23.224  1.00  0.00     0.181 C 
BRANCH  14  19
ATOM     19  C   UNL A   1      33.799  26.941  23.811  1.00  0.00     0.024 C 
ATOM     20  C   UNL A   1      33.943  28.215  23.003  1.00  0.00     0.006 C 
ENDBRANCH  14  19
ENDBRANCH   8  13
BRANCH  10  21
ATOM     21  C   UNL A   1      36.902  22.594  25.069  1.00  0.00     0.433 C 
ATOM     22  F   UNL A   1      37.759  23.631  24.846  1.00  0.00    -0.165 F 
ATOM     23  F   UNL A   1      37.531  21.758  25.941  1.00  0.00    -0.165 F 
ATOM     24  F   UNL A   1      36.849  21.909  23.886  1.00  0.00    -0.165 F 
ENDBRANCH  10  21
ENDBRANCH   4   7
ENDBRANCH   2   3
ENDBRANCH   1   2
BRANCH   1  25
ATOM     25  C   UNL A   1      31.462  29.166  26.038  1.00  0.00     0.023 C 
BRANCH  25  26
ATOM     26  C   UNL A   1      32.685  30.070  25.936  1.00  0.00     0.116 C 
BRANCH  26  27
ATOM     27  N   UNL A   1      32.488  31.407  26.470  1.00  0.00    -0.352 N 
ATOM     28  C   UNL A   1      33.282  32.144  27.322  1.00  0.00     0.251 C 
ATOM     29  H   UNL A   1      31.662  31.856  26.177  1.00  0.00     0.163 HD
ATOM     30  O   UNL A   1      32.925  33.256  27.675  1.00  0.00    -0.269 OA
BRANCH  28  31
ATOM     31  C   UNL A   1      34.538  31.568  27.860  1.00  0.00     0.039 A 
ATOM     32  C   UNL A   1      35.607  32.434  28.112  1.00  0.00     0.014 A 
ATOM     33  C   UNL A   1      34.666  30.204  28.133  1.00  0.00     0.014 A 
ATOM     34  C   UNL A   1      36.766  31.950  28.725  1.00  0.00     0.010 A 
ATOM     35  C   UNL A   1      35.792  29.737  28.809  1.00  0.00     0.010 A 
ATOM     36  C   UNL A   1      36.848  30.607  29.124  1.00  0.00    -0.014 A 
BRANCH  36  37
ATOM     37  C   UNL A   1      38.014  30.101  29.896  1.00  0.00     0.031 A 
ATOM     38  C   UNL A   1      38.242  30.554  31.311  1.00  0.00     0.074 A 
ATOM     39  C   UNL A   1      38.916  29.302  29.290  1.00  0.00     0.049 A 
ATOM     40  N   UNL A   1      39.249  30.302  32.108  1.00  0.00    -0.248 NA
ATOM     41  C   UNL A   1      37.217  31.431  31.899  1.00  0.00     0.031 C 
ATOM     42  C   UNL A   1      38.843  28.841  27.903  1.00  0.00     0.029 A 
ATOM     43  N   UNL A   1      40.084  28.752  29.759  1.00  0.00    -0.354 N 
ATOM     44  C   UNL A   1      38.995  31.010  33.275  1.00  0.00     0.074 A 
ATOM     45  C   UNL A   1      37.755  31.729  33.073  1.00  0.00     0.031 C 
ATOM     46  C   UNL A   1      39.913  28.075  27.635  1.00  0.00     0.029 A 
ATOM     47  C   UNL A   1      40.765  28.017  28.818  1.00  0.00     0.049 A 
ATOM     48  H   UNL A   1      40.404  28.874  30.682  1.00  0.00     0.167 HD
ATOM     49  C   UNL A   1      39.721  31.042  34.417  1.00  0.00     0.037 A 
ATOM     50  C   UNL A   1      41.948  27.378  28.897  1.00  0.00     0.037 A 
ATOM     51  C   UNL A   1      40.924  30.284  34.637  1.00  0.00     0.049 A 
ATOM     52  C   UNL A   1      42.713  27.402  30.193  1.00  0.00     0.074 A 
ATOM     53  C   UNL A   1      41.673  30.172  35.795  1.00  0.00     0.029 A 
ATOM     54  N   UNL A   1      41.554  29.506  33.677  1.00  0.00    -0.354 N 
ATOM     55  N   UNL A   1      42.412  28.000  31.320  1.00  0.00    -0.248 NA
ATOM     56  C   UNL A   1      43.978  26.655  30.231  1.00  0.00     0.031 C 
ATOM     57  C   UNL A   1      42.779  29.361  35.527  1.00  0.00     0.029 A 
ATOM     58  C   UNL A   1      42.695  28.931  34.213  1.00  0.00     0.049 A 
ATOM     59  H   UNL A   1      41.238  29.382  32.754  1.00  0.00     0.167 HD
ATOM     60  C   UNL A   1      43.432  27.678  32.206  1.00  0.00     0.074 A 
ATOM     61  C   UNL A   1      44.352  26.820  31.493  1.00  0.00     0.031 C 
ATOM     62  C   UNL A   1      43.592  28.064  33.495  1.00  0.00     0.037 A 
BRANCH  49  63
ATOM     63  C   UNL A   1      39.237  31.917  35.534  1.00  0.00     0.064 A 
ATOM     64  C   UNL A   1      38.420  31.417  36.559  1.00  0.00     0.173 A 
ATOM     65  C   UNL A   1      39.661  33.252  35.623  1.00  0.00     0.173 A 
ATOM     66  F   UNL A   1      37.981  30.151  36.514  1.00  0.00    -0.203 F 
ATOM     67  C   UNL A   1      38.034  32.225  37.624  1.00  0.00     0.198 A 
ATOM     68  C   UNL A   1      39.294  34.050  36.703  1.00  0.00     0.198 A 
ATOM     69  F   UNL A   1      40.449  33.776  34.672  1.00  0.00    -0.203 F 
ATOM     70  F   UNL A   1      37.229  31.735  38.577  1.00  0.00    -0.200 F 
ATOM     71  C   UNL A   1      38.478  33.537  37.700  1.00  0.00     0.200 A 
ATOM     72  F   UNL A   1      39.734  35.313  36.781  1.00  0.00    -0.200 F 
ATOM     73  F   UNL A   1      38.119  34.308  38.736  1.00  0.00    -0.200 F 
ENDBRANCH  49  63
BRANCH  50  74
ATOM     74  C   UNL A   1      42.487  26.651  27.718  1.00  0.00     0.064 A 
ATOM     75  C   UNL A   1      42.156  25.309  27.485  1.00  0.00     0.173 A 
ATOM     76  C   UNL A   1      43.372  27.269  26.822  1.00  0.00     0.173 A 
ATOM     77  F   UNL A   1      41.332  24.667  28.327  1.00  0.00    -0.203 F 
ATOM     78  C   UNL A   1      42.713  24.603  26.420  1.00  0.00     0.198 A 
ATOM     79  C   UNL A   1      43.905  26.571  25.739  1.00  0.00     0.198 A 
ATOM     80  F   UNL A   1      43.718  28.553  26.997  1.00  0.00    -0.203 F 
ATOM     81  F   UNL A   1      42.424  23.305  26.255  1.00  0.00    -0.200 F 
ATOM     82  C   UNL A   1      43.584  25.236  25.547  1.00  0.00     0.200 A 
ATOM     83  F   UNL A   1      44.737  27.190  24.891  1.00  0.00    -0.200 F 
ATOM     84  F   UNL A   1      44.124  24.556  24.526  1.00  0.00    -0.200 F 
ENDBRANCH  50  74
BRANCH  62  85
ATOM     85  C   UNL A   1      44.784  27.529  34.230  1.00  0.00     0.064 A 
ATOM     86  C   UNL A   1      44.742  26.297  34.901  1.00  0.00     0.173 A 
ATOM     87  C   UNL A   1      45.996  28.236  34.227  1.00  0.00     0.173 A 
ATOM     88  F   UNL A   1      43.602  25.592  34.945  1.00  0.00    -0.203 F 
ATOM     89  C   UNL A   1      45.864  25.804  35.560  1.00  0.00     0.198 A 
ATOM     90  C   UNL A   1      47.124  27.727  34.864  1.00  0.00     0.198 A 
ATOM     91  F   UNL A   1      46.088  29.415  33.593  1.00  0.00    -0.203 F 
ATOM     92  F   UNL A   1      45.790  24.647  36.231  1.00  0.00    -0.200 F 
ATOM     93  C   UNL A   1      47.056  26.515  35.534  1.00  0.00     0.200 A 
ATOM     94  F   UNL A   1      48.277  28.409  34.828  1.00  0.00    -0.200 F 
ATOM     95  F   UNL A   1      48.137  26.035  36.164  1.00  0.00    -0.200 F 
ENDBRANCH  62  85
ENDBRANCH  36  37
ENDBRANCH  28  31
ENDBRANCH  26  27
ENDBRANCH  25  26
ENDBRANCH   1  25
TORSDOF 14
ENDMDL
