MODEL 1
REMARK VINA RESULT:     -12.3      0.000      0.000
REMARK SMILES Cc1cc(NC(=O)c2ccc(Br)nc2)sc1C(=O)NCCCCNC(=O)c1ccc(-c2c3nc(c(-c4c(F)c(F)c(F)c(F)c4F)c4ccc([nH]4)c(-c4c(F)c(F)c(F)c(F)c4F)c4nc(c(-c5c(F)c(F)c(F)c(F)c5F)c5ccc2[nH]5)C=C4)C=C3)cc1
REMARK SMILES IDX 21 1 20 2 19 3 17 4 18 5 16 7 1 8 2 9 3 10 4 11 15 12 5 13
REMARK SMILES IDX 6 14 7 16 8 17 9 18 14 19 10 20 13 21 11 22 12 23 22 24
REMARK SMILES IDX 23 25 24 26 25 27 26 29 27 30 28 31 89 32 29 33 88 34 30 35
REMARK SMILES IDX 31 36 32 37 82 38 33 39 87 40 81 41 83 42 34 43 86 44 80 45
REMARK SMILES IDX 79 46 35 48 67 49 47 50 66 51 48 52 51 53 65 54 84 55 49 56
REMARK SMILES IDX 50 57 64 59 85 60 52 61 36 62 37 63 45 64 38 65 39 66 43 67
REMARK SMILES IDX 46 68 40 69 41 70 44 71 42 72 68 73 69 74 77 75 70 76 71 77
REMARK SMILES IDX 75 78 78 79 72 80 73 81 76 82 74 83 53 84 54 85 62 86 55 87
REMARK SMILES IDX 56 88 60 89 63 90 57 91 58 92 61 93 59 94
REMARK H PARENT 19 6 5 15 24 28 83 47 51 58
REMARK Flexibility Score: inf
ROOT
ATOM      1  C   UNL A   1      33.255  29.402  24.800  1.00  0.00     0.023 C 
ENDROOT
BRANCH   1   2
ATOM      2  C   UNL A   1      33.467  29.168  23.305  1.00  0.00     0.116 C 
BRANCH   2   3
ATOM      3  N   UNL A   1      32.225  29.218  22.577  1.00  0.00    -0.351 N 
ATOM      4  C   UNL A   1      31.151  28.375  22.462  1.00  0.00     0.261 C 
ATOM      5  O   UNL A   1      30.217  28.898  21.837  1.00  0.00    -0.268 OA
ATOM      6  H   UNL A   1      32.127  30.039  22.043  1.00  0.00     0.163 HD
BRANCH   4   7
ATOM      7  C   UNL A   1      31.067  27.003  22.985  1.00  0.00     0.097 A 
ATOM      8  C   UNL A   1      32.240  25.186  21.457  1.00  0.00     0.046 C 
ATOM      9  C   UNL A   1      31.421  25.710  22.583  1.00  0.00    -0.025 A 
ATOM     10  C   UNL A   1      30.812  24.726  23.430  1.00  0.00     0.042 A 
ATOM     11  C   UNL A   1      30.418  25.233  24.629  1.00  0.00     0.096 A 
ATOM     12  S   UNL A   1      30.273  26.907  24.561  1.00  0.00    -0.112 S 
BRANCH  11  13
ATOM     13  N   UNL A   1      30.119  24.632  25.827  1.00  0.00    -0.313 N 
ATOM     14  C   UNL A   1      30.920  23.732  26.508  1.00  0.00     0.257 C 
ATOM     15  H   UNL A   1      29.255  24.863  26.241  1.00  0.00     0.171 HD
ATOM     16  O   UNL A   1      30.499  23.093  27.467  1.00  0.00    -0.269 OA
BRANCH  14  17
ATOM     17  C   UNL A   1      32.337  23.569  26.124  1.00  0.00     0.058 A 
ATOM     18  C   UNL A   1      33.250  24.625  26.210  1.00  0.00     0.018 A 
ATOM     19  C   UNL A   1      32.750  22.380  25.542  1.00  0.00     0.126 A 
ATOM     20  C   UNL A   1      34.512  24.479  25.635  1.00  0.00     0.037 A 
ATOM     21  N   UNL A   1      33.970  22.217  24.971  1.00  0.00    -0.249 NA
ATOM     22  C   UNL A   1      34.819  23.272  25.019  1.00  0.00     0.106 A 
ATOM     23  Br  UNL A   1      36.484  23.103  24.128  1.00  0.00    -0.029 Br
ENDBRANCH  14  17
ENDBRANCH  11  13
ENDBRANCH   4   7
ENDBRANCH   2   3
ENDBRANCH   1   2
BRANCH   1  24
ATOM     24  C   UNL A   1      33.742  28.285  25.716  1.00  0.00     0.023 C 
BRANCH  24  25
ATOM     25  C   UNL A   1      33.537  28.552  27.201  1.00  0.00     0.116 C 
BRANCH  25  26
ATOM     26  N   UNL A   1      33.517  29.963  27.564  1.00  0.00    -0.352 N 
ATOM     27  C   UNL A   1      34.553  30.716  28.072  1.00  0.00     0.251 C 
ATOM     28  H   UNL A   1      32.662  30.433  27.432  1.00  0.00     0.163 HD
ATOM     29  O   UNL A   1      34.390  31.887  28.384  1.00  0.00    -0.269 OA
BRANCH  27  30
ATOM     30  C   UNL A   1      35.853  30.053  28.292  1.00  0.00     0.039 A 
ATOM     31  C   UNL A   1      36.824  30.135  27.293  1.00  0.00     0.014 A 
ATOM     32  C   UNL A   1      36.141  29.466  29.525  1.00  0.00     0.014 A 
ATOM     33  C   UNL A   1      38.123  29.709  27.568  1.00  0.00     0.010 A 
ATOM     34  C   UNL A   1      37.451  29.119  29.824  1.00  0.00     0.010 A 
ATOM     35  C   UNL A   1      38.455  29.248  28.852  1.00  0.00    -0.014 A 
BRANCH  35  36
ATOM     36  C   UNL A   1      39.852  28.901  29.211  1.00  0.00     0.031 A 
ATOM     37  C   UNL A   1      40.677  29.866  30.011  1.00  0.00     0.074 A 
ATOM     38  C   UNL A   1      40.399  27.765  28.737  1.00  0.00     0.049 A 
ATOM     39  N   UNL A   1      41.942  29.799  30.339  1.00  0.00    -0.248 NA
ATOM     40  C   UNL A   1      40.000  31.088  30.471  1.00  0.00     0.031 C 
ATOM     41  C   UNL A   1      39.715  26.781  27.896  1.00  0.00     0.029 A 
ATOM     42  N   UNL A   1      41.664  27.254  28.883  1.00  0.00    -0.354 N 
ATOM     43  C   UNL A   1      42.215  30.976  31.022  1.00  0.00     0.074 A 
ATOM     44  C   UNL A   1      41.001  31.763  31.017  1.00  0.00     0.031 C 
ATOM     45  C   UNL A   1      40.561  25.774  27.620  1.00  0.00     0.029 A 
ATOM     46  C   UNL A   1      41.853  26.057  28.236  1.00  0.00     0.049 A 
ATOM     47  H   UNL A   1      42.369  27.702  29.403  1.00  0.00     0.167 HD
ATOM     48  C   UNL A   1      43.367  31.354  31.622  1.00  0.00     0.037 A 
ATOM     49  C   UNL A   1      42.948  25.279  28.151  1.00  0.00     0.037 A 
ATOM     50  C   UNL A   1      44.558  30.549  31.662  1.00  0.00     0.049 A 
ATOM     51  C   UNL A   1      44.208  25.708  28.854  1.00  0.00     0.074 A 
ATOM     52  C   UNL A   1      45.755  30.810  32.302  1.00  0.00     0.029 A 
ATOM     53  N   UNL A   1      44.697  29.319  31.036  1.00  0.00    -0.354 N 
ATOM     54  N   UNL A   1      44.434  26.791  29.558  1.00  0.00    -0.248 NA
ATOM     55  C   UNL A   1      45.362  24.802  28.759  1.00  0.00     0.031 C 
ATOM     56  C   UNL A   1      46.631  29.751  32.039  1.00  0.00     0.029 A 
ATOM     57  C   UNL A   1      45.966  28.814  31.268  1.00  0.00     0.049 A 
ATOM     58  H   UNL A   1      43.998  28.872  30.506  1.00  0.00     0.167 HD
ATOM     59  C   UNL A   1      45.741  26.683  30.013  1.00  0.00     0.074 A 
ATOM     60  C   UNL A   1      46.255  25.425  29.514  1.00  0.00     0.031 C 
ATOM     61  C   UNL A   1      46.451  27.550  30.776  1.00  0.00     0.037 A 
BRANCH  48  62
ATOM     62  C   UNL A   1      43.387  32.694  32.296  1.00  0.00     0.064 A 
ATOM     63  C   UNL A   1      43.740  33.859  31.599  1.00  0.00     0.173 A 
ATOM     64  C   UNL A   1      43.026  32.817  33.645  1.00  0.00     0.173 A 
ATOM     65  F   UNL A   1      44.107  33.790  30.311  1.00  0.00    -0.203 F 
ATOM     66  C   UNL A   1      43.759  35.096  32.236  1.00  0.00     0.198 A 
ATOM     67  C   UNL A   1      43.019  34.061  34.272  1.00  0.00     0.198 A 
ATOM     68  F   UNL A   1      42.679  31.734  34.356  1.00  0.00    -0.203 F 
ATOM     69  F   UNL A   1      44.148  36.188  31.565  1.00  0.00    -0.200 F 
ATOM     70  C   UNL A   1      43.392  35.198  33.570  1.00  0.00     0.200 A 
ATOM     71  F   UNL A   1      42.656  34.159  35.558  1.00  0.00    -0.200 F 
ATOM     72  F   UNL A   1      43.408  36.390  34.182  1.00  0.00    -0.200 F 
ENDBRANCH  48  62
BRANCH  49  73
ATOM     73  C   UNL A   1      42.893  23.997  27.404  1.00  0.00     0.064 A 
ATOM     74  C   UNL A   1      42.491  22.814  28.040  1.00  0.00     0.173 A 
ATOM     75  C   UNL A   1      43.237  23.925  26.047  1.00  0.00     0.173 A 
ATOM     76  F   UNL A   1      42.170  22.832  29.342  1.00  0.00    -0.203 F 
ATOM     77  C   UNL A   1      42.454  21.604  27.354  1.00  0.00     0.198 A 
ATOM     78  C   UNL A   1      43.177  22.717  25.354  1.00  0.00     0.198 A 
ATOM     79  F   UNL A   1      43.621  25.029  25.391  1.00  0.00    -0.203 F 
ATOM     80  F   UNL A   1      42.106  20.481  27.997  1.00  0.00    -0.200 F 
ATOM     81  C   UNL A   1      42.792  21.557  26.009  1.00  0.00     0.200 A 
ATOM     82  F   UNL A   1      43.491  22.678  24.052  1.00  0.00    -0.200 F 
ATOM     83  F   UNL A   1      42.754  20.392  25.347  1.00  0.00    -0.200 F 
ENDBRANCH  49  73
BRANCH  61  84
ATOM     84  C   UNL A   1      47.844  27.149  31.155  1.00  0.00     0.064 A 
ATOM     85  C   UNL A   1      48.100  26.354  32.281  1.00  0.00     0.173 A 
ATOM     86  C   UNL A   1      48.931  27.523  30.350  1.00  0.00     0.173 A 
ATOM     87  F   UNL A   1      47.093  25.986  33.088  1.00  0.00    -0.203 F 
ATOM     88  C   UNL A   1      49.397  25.962  32.598  1.00  0.00     0.198 A 
ATOM     89  C   UNL A   1      50.223  27.108  30.655  1.00  0.00     0.198 A 
ATOM     90  F   UNL A   1      48.736  28.277  29.258  1.00  0.00    -0.203 F 
ATOM     91  F   UNL A   1      49.624  25.233  33.699  1.00  0.00    -0.200 F 
ATOM     92  C   UNL A   1      50.456  26.332  31.781  1.00  0.00     0.200 A 
ATOM     93  F   UNL A   1      51.243  27.456  29.859  1.00  0.00    -0.200 F 
ATOM     94  F   UNL A   1      51.703  25.945  32.083  1.00  0.00    -0.200 F 
ENDBRANCH  61  84
ENDBRANCH  35  36
ENDBRANCH  27  30
ENDBRANCH  25  26
ENDBRANCH  24  25
ENDBRANCH   1  24
TORSDOF 13
ENDMDL
MODEL 2
REMARK VINA RESULT:     -12.2      3.602      5.229
REMARK SMILES Cc1cc(NC(=O)c2ccc(Br)nc2)sc1C(=O)NCCCCNC(=O)c1ccc(-c2c3nc(c(-c4c(F)c(F)c(F)c(F)c4F)c4ccc([nH]4)c(-c4c(F)c(F)c(F)c(F)c4F)c4nc(c(-c5c(F)c(F)c(F)c(F)c5F)c5ccc2[nH]5)C=C4)C=C3)cc1
REMARK SMILES IDX 21 1 20 2 19 3 17 4 18 5 16 7 1 8 2 9 3 10 4 11 15 12 5 13
REMARK SMILES IDX 6 14 7 16 8 17 9 18 14 19 10 20 13 21 11 22 12 23 22 24
REMARK SMILES IDX 23 25 24 26 25 27 26 29 27 30 28 31 89 32 29 33 88 34 30 35
REMARK SMILES IDX 31 36 32 37 82 38 33 39 87 40 81 41 83 42 34 43 86 44 80 45
REMARK SMILES IDX 79 46 35 48 67 49 47 50 66 51 48 52 51 53 65 54 84 55 49 56
REMARK SMILES IDX 50 57 64 59 85 60 52 61 36 62 37 63 45 64 38 65 39 66 43 67
REMARK SMILES IDX 46 68 40 69 41 70 44 71 42 72 68 73 69 74 77 75 70 76 71 77
REMARK SMILES IDX 75 78 78 79 72 80 73 81 76 82 74 83 53 84 54 85 62 86 55 87
REMARK SMILES IDX 56 88 60 89 63 90 57 91 58 92 61 93 59 94
REMARK H PARENT 19 6 5 15 24 28 83 47 51 58
REMARK Flexibility Score: inf
ROOT
ATOM      1  C   UNL A   1      32.116  30.342  26.903  1.00  0.00     0.023 C 
ENDROOT
BRANCH   1   2
ATOM      2  C   UNL A   1      32.209  29.662  25.537  1.00  0.00     0.116 C 
BRANCH   2   3
ATOM      3  N   UNL A   1      31.183  30.124  24.640  1.00  0.00    -0.351 N 
ATOM      4  C   UNL A   1      30.302  29.501  23.794  1.00  0.00     0.261 C 
ATOM      5  O   UNL A   1      29.476  30.295  23.320  1.00  0.00    -0.268 OA
ATOM      6  H   UNL A   1      31.094  31.105  24.631  1.00  0.00     0.163 HD
BRANCH   4   7
ATOM      7  C   UNL A   1      30.298  28.072  23.448  1.00  0.00     0.097 A 
ATOM      8  C   UNL A   1      28.039  26.820  24.032  1.00  0.00     0.046 C 
ATOM      9  C   UNL A   1      29.452  26.966  23.591  1.00  0.00    -0.025 A 
ATOM     10  C   UNL A   1      30.145  25.749  23.284  1.00  0.00     0.042 A 
ATOM     11  C   UNL A   1      31.262  25.953  22.535  1.00  0.00     0.096 A 
ATOM     12  S   UNL A   1      31.781  27.549  22.640  1.00  0.00    -0.112 S 
BRANCH  11  13
ATOM     13  N   UNL A   1      32.011  25.107  21.752  1.00  0.00    -0.313 N 
ATOM     14  C   UNL A   1      32.978  24.225  22.203  1.00  0.00     0.257 C 
ATOM     15  H   UNL A   1      31.844  25.129  20.782  1.00  0.00     0.171 HD
ATOM     16  O   UNL A   1      33.737  23.650  21.428  1.00  0.00    -0.269 OA
BRANCH  14  17
ATOM     17  C   UNL A   1      33.075  23.909  23.642  1.00  0.00     0.058 A 
ATOM     18  C   UNL A   1      33.998  24.548  24.477  1.00  0.00     0.018 A 
ATOM     19  C   UNL A   1      32.326  22.862  24.159  1.00  0.00     0.126 A 
ATOM     20  C   UNL A   1      34.194  24.061  25.768  1.00  0.00     0.037 A 
ATOM     21  N   UNL A   1      32.505  22.368  25.410  1.00  0.00    -0.249 NA
ATOM     22  C   UNL A   1      33.442  22.969  26.182  1.00  0.00     0.106 A 
ATOM     23  Br  UNL A   1      33.786  22.221  27.891  1.00  0.00    -0.029 Br
ENDBRANCH  14  17
ENDBRANCH  11  13
ENDBRANCH   4   7
ENDBRANCH   2   3
ENDBRANCH   1   2
BRANCH   1  24
ATOM     24  C   UNL A   1      31.759  31.824  26.876  1.00  0.00     0.023 C 
BRANCH  24  25
ATOM     25  C   UNL A   1      32.874  32.750  27.344  1.00  0.00     0.116 C 
BRANCH  25  26
ATOM     26  N   UNL A   1      32.442  34.105  27.660  1.00  0.00    -0.352 N 
ATOM     27  C   UNL A   1      32.986  34.968  28.586  1.00  0.00     0.251 C 
ATOM     28  H   UNL A   1      31.669  34.443  27.153  1.00  0.00     0.163 HD
ATOM     29  O   UNL A   1      32.494  36.068  28.791  1.00  0.00    -0.269 OA
BRANCH  27  30
ATOM     30  C   UNL A   1      34.144  34.503  29.374  1.00  0.00     0.039 A 
ATOM     31  C   UNL A   1      33.913  33.872  30.597  1.00  0.00     0.014 A 
ATOM     32  C   UNL A   1      35.432  34.583  28.841  1.00  0.00     0.014 A 
ATOM     33  C   UNL A   1      34.970  33.235  31.246  1.00  0.00     0.010 A 
ATOM     34  C   UNL A   1      36.464  33.880  29.446  1.00  0.00     0.010 A 
ATOM     35  C   UNL A   1      36.240  33.190  30.648  1.00  0.00    -0.014 A 
BRANCH  35  36
ATOM     36  C   UNL A   1      37.352  32.419  31.253  1.00  0.00     0.031 A 
ATOM     37  C   UNL A   1      37.853  32.781  32.620  1.00  0.00     0.074 A 
ATOM     38  C   UNL A   1      37.967  31.460  30.533  1.00  0.00     0.049 A 
ATOM     39  N   UNL A   1      38.876  32.301  33.281  1.00  0.00    -0.248 NA
ATOM     40  C   UNL A   1      37.130  33.852  33.324  1.00  0.00     0.031 C 
ATOM     41  C   UNL A   1      37.611  31.065  29.169  1.00  0.00     0.029 A 
ATOM     42  N   UNL A   1      39.033  30.655  30.844  1.00  0.00    -0.354 N 
ATOM     43  C   UNL A   1      38.932  33.027  34.463  1.00  0.00     0.074 A 
ATOM     44  C   UNL A   1      37.874  34.012  34.409  1.00  0.00     0.031 C 
ATOM     45  C   UNL A   1      38.428  30.076  28.770  1.00  0.00     0.029 A 
ATOM     46  C   UNL A   1      39.385  29.791  29.835  1.00  0.00     0.049 A 
ATOM     47  H   UNL A   1      39.501  30.691  31.709  1.00  0.00     0.167 HD
ATOM     48  C   UNL A   1      39.773  32.865  35.511  1.00  0.00     0.037 A 
ATOM     49  C   UNL A   1      40.370  28.876  29.779  1.00  0.00     0.037 A 
ATOM     50  C   UNL A   1      40.793  31.855  35.578  1.00  0.00     0.049 A 
ATOM     51  C   UNL A   1      41.271  28.696  30.970  1.00  0.00     0.074 A 
ATOM     52  C   UNL A   1      41.652  31.564  36.622  1.00  0.00     0.029 A 
ATOM     53  N   UNL A   1      41.089  30.966  34.555  1.00  0.00    -0.354 N 
ATOM     54  N   UNL A   1      41.270  29.339  32.113  1.00  0.00    -0.248 NA
ATOM     55  C   UNL A   1      42.305  27.656  30.868  1.00  0.00     0.031 C 
ATOM     56  C   UNL A   1      42.489  30.517  36.220  1.00  0.00     0.029 A 
ATOM     57  C   UNL A   1      42.125  30.131  34.941  1.00  0.00     0.049 A 
ATOM     58  H   UNL A   1      40.630  30.933  33.684  1.00  0.00     0.167 HD
ATOM     59  C   UNL A   1      42.278  28.765  32.875  1.00  0.00     0.074 A 
ATOM     60  C   UNL A   1      42.864  27.715  32.068  1.00  0.00     0.031 C 
ATOM     61  C   UNL A   1      42.681  29.080  34.129  1.00  0.00     0.037 A 
BRANCH  48  62
ATOM     62  C   UNL A   1      39.611  33.797  36.675  1.00  0.00     0.064 A 
ATOM     63  C   UNL A   1      40.238  35.051  36.701  1.00  0.00     0.173 A 
ATOM     64  C   UNL A   1      38.801  33.443  37.763  1.00  0.00     0.173 A 
ATOM     65  F   UNL A   1      41.036  35.429  35.691  1.00  0.00    -0.203 F 
ATOM     66  C   UNL A   1      40.085  35.906  37.789  1.00  0.00     0.198 A 
ATOM     67  C   UNL A   1      38.626  34.313  38.837  1.00  0.00     0.198 A 
ATOM     68  F   UNL A   1      38.177  32.256  37.786  1.00  0.00    -0.203 F 
ATOM     69  F   UNL A   1      40.735  37.077  37.816  1.00  0.00    -0.200 F 
ATOM     70  C   UNL A   1      39.274  35.540  38.853  1.00  0.00     0.200 A 
ATOM     71  F   UNL A   1      37.836  33.961  39.860  1.00  0.00    -0.200 F 
ATOM     72  F   UNL A   1      39.124  36.364  39.899  1.00  0.00    -0.200 F 
ENDBRANCH  48  62
BRANCH  49  73
ATOM     73  C   UNL A   1      40.532  28.032  28.567  1.00  0.00     0.064 A 
ATOM     74  C   UNL A   1      41.312  28.471  27.489  1.00  0.00     0.173 A 
ATOM     75  C   UNL A   1      39.915  26.778  28.461  1.00  0.00     0.173 A 
ATOM     76  F   UNL A   1      41.906  29.672  27.539  1.00  0.00    -0.203 F 
ATOM     77  C   UNL A   1      41.454  27.696  26.341  1.00  0.00     0.198 A 
ATOM     78  C   UNL A   1      40.077  25.992  27.321  1.00  0.00     0.198 A 
ATOM     79  F   UNL A   1      39.163  26.310  29.468  1.00  0.00    -0.203 F 
ATOM     80  F   UNL A   1      42.173  28.157  25.308  1.00  0.00    -0.200 F 
ATOM     81  C   UNL A   1      40.840  26.454  26.260  1.00  0.00     0.200 A 
ATOM     82  F   UNL A   1      39.493  24.788  27.252  1.00  0.00    -0.200 F 
ATOM     83  F   UNL A   1      40.979  25.707  25.156  1.00  0.00    -0.200 F 
ENDBRANCH  49  73
BRANCH  61  84
ATOM     84  C   UNL A   1      43.780  28.254  34.726  1.00  0.00     0.064 A 
ATOM     85  C   UNL A   1      45.124  28.644  34.638  1.00  0.00     0.173 A 
ATOM     86  C   UNL A   1      43.477  27.084  35.440  1.00  0.00     0.173 A 
ATOM     87  F   UNL A   1      45.462  29.746  33.952  1.00  0.00    -0.203 F 
ATOM     88  C   UNL A   1      46.128  27.883  35.228  1.00  0.00     0.198 A 
ATOM     89  C   UNL A   1      44.481  26.340  36.051  1.00  0.00     0.198 A 
ATOM     90  F   UNL A   1      42.206  26.674  35.557  1.00  0.00    -0.203 F 
ATOM     91  F   UNL A   1      47.409  28.253  35.101  1.00  0.00    -0.200 F 
ATOM     92  C   UNL A   1      45.806  26.737  35.941  1.00  0.00     0.200 A 
ATOM     93  F   UNL A   1      44.167  25.239  36.748  1.00  0.00    -0.200 F 
ATOM     94  F   UNL A   1      46.773  26.011  36.517  1.00  0.00    -0.200 F 
ENDBRANCH  61  84
ENDBRANCH  35  36
ENDBRANCH  27  30
ENDBRANCH  25  26
ENDBRANCH  24  25
ENDBRANCH   1  24
TORSDOF 13
ENDMDL
MODEL 3
REMARK VINA RESULT:     -12.2      3.588      5.166
REMARK SMILES Cc1cc(NC(=O)c2ccc(Br)nc2)sc1C(=O)NCCCCNC(=O)c1ccc(-c2c3nc(c(-c4c(F)c(F)c(F)c(F)c4F)c4ccc([nH]4)c(-c4c(F)c(F)c(F)c(F)c4F)c4nc(c(-c5c(F)c(F)c(F)c(F)c5F)c5ccc2[nH]5)C=C4)C=C3)cc1
REMARK SMILES IDX 21 1 20 2 19 3 17 4 18 5 16 7 1 8 2 9 3 10 4 11 15 12 5 13
REMARK SMILES IDX 6 14 7 16 8 17 9 18 14 19 10 20 13 21 11 22 12 23 22 24
REMARK SMILES IDX 23 25 24 26 25 27 26 29 27 30 28 31 89 32 29 33 88 34 30 35
REMARK SMILES IDX 31 36 32 37 82 38 33 39 87 40 81 41 83 42 34 43 86 44 80 45
REMARK SMILES IDX 79 46 35 48 67 49 47 50 66 51 48 52 51 53 65 54 84 55 49 56
REMARK SMILES IDX 50 57 64 59 85 60 52 61 36 62 37 63 45 64 38 65 39 66 43 67
REMARK SMILES IDX 46 68 40 69 41 70 44 71 42 72 68 73 69 74 77 75 70 76 71 77
REMARK SMILES IDX 75 78 78 79 72 80 73 81 76 82 74 83 53 84 54 85 62 86 55 87
REMARK SMILES IDX 56 88 60 89 63 90 57 91 58 92 61 93 59 94
REMARK H PARENT 19 6 5 15 24 28 83 47 51 58
REMARK Flexibility Score: inf
ROOT
ATOM      1  C   UNL A   1      32.002  30.764  26.699  1.00  0.00     0.023 C 
ENDROOT
BRANCH   1   2
ATOM      2  C   UNL A   1      31.636  30.163  25.342  1.00  0.00     0.116 C 
BRANCH   2   3
ATOM      3  N   UNL A   1      32.753  29.479  24.744  1.00  0.00    -0.351 N 
ATOM      4  C   UNL A   1      32.937  28.223  24.225  1.00  0.00     0.261 C 
ATOM      5  O   UNL A   1      34.038  28.112  23.666  1.00  0.00    -0.268 OA
ATOM      6  H   UNL A   1      33.564  30.035  24.699  1.00  0.00     0.163 HD
BRANCH   4   7
ATOM      7  C   UNL A   1      31.985  27.106  24.304  1.00  0.00     0.097 A 
ATOM      8  C   UNL A   1      31.455  25.966  21.973  1.00  0.00     0.046 C 
ATOM      9  C   UNL A   1      31.322  26.237  23.430  1.00  0.00    -0.025 A 
ATOM     10  C   UNL A   1      30.283  25.521  24.110  1.00  0.00     0.042 A 
ATOM     11  C   UNL A   1      30.452  25.504  25.460  1.00  0.00     0.096 A 
ATOM     12  S   UNL A   1      31.486  26.732  25.958  1.00  0.00    -0.112 S 
BRANCH  11  13
ATOM     13  N   UNL A   1      29.931  24.695  26.441  1.00  0.00    -0.313 N 
ATOM     14  C   UNL A   1      30.361  23.418  26.755  1.00  0.00     0.257 C 
ATOM     15  H   UNL A   1      29.184  25.058  26.970  1.00  0.00     0.171 HD
ATOM     16  O   UNL A   1      29.721  22.688  27.506  1.00  0.00    -0.269 OA
BRANCH  14  17
ATOM     17  C   UNL A   1      31.651  22.923  26.232  1.00  0.00     0.058 A 
ATOM     18  C   UNL A   1      31.733  22.205  25.034  1.00  0.00     0.018 A 
ATOM     19  C   UNL A   1      32.794  23.058  27.005  1.00  0.00     0.126 A 
ATOM     20  C   UNL A   1      32.934  21.580  24.700  1.00  0.00     0.037 A 
ATOM     21  N   UNL A   1      33.971  22.454  26.703  1.00  0.00    -0.249 NA
ATOM     22  C   UNL A   1      34.012  21.719  25.565  1.00  0.00     0.106 A 
ATOM     23  Br  UNL A   1      35.612  20.775  25.185  1.00  0.00    -0.029 Br
ENDBRANCH  14  17
ENDBRANCH  11  13
ENDBRANCH   4   7
ENDBRANCH   2   3
ENDBRANCH   1   2
BRANCH   1  24
ATOM     24  C   UNL A   1      31.678  32.244  26.871  1.00  0.00     0.023 C 
BRANCH  24  25
ATOM     25  C   UNL A   1      32.763  33.050  27.573  1.00  0.00     0.116 C 
BRANCH  25  26
ATOM     26  N   UNL A   1      32.400  34.432  27.857  1.00  0.00    -0.352 N 
ATOM     27  C   UNL A   1      33.007  35.297  28.742  1.00  0.00     0.251 C 
ATOM     28  H   UNL A   1      31.630  34.790  27.359  1.00  0.00     0.163 HD
ATOM     29  O   UNL A   1      32.571  36.424  28.924  1.00  0.00    -0.269 OA
BRANCH  27  30
ATOM     30  C   UNL A   1      34.164  34.804  29.514  1.00  0.00     0.039 A 
ATOM     31  C   UNL A   1      33.940  34.241  30.771  1.00  0.00     0.014 A 
ATOM     32  C   UNL A   1      35.436  34.789  28.939  1.00  0.00     0.014 A 
ATOM     33  C   UNL A   1      34.982  33.575  31.416  1.00  0.00     0.010 A 
ATOM     34  C   UNL A   1      36.448  34.057  29.544  1.00  0.00     0.010 A 
ATOM     35  C   UNL A   1      36.227  33.434  30.782  1.00  0.00    -0.014 A 
BRANCH  35  36
ATOM     36  C   UNL A   1      37.315  32.630  31.387  1.00  0.00     0.031 A 
ATOM     37  C   UNL A   1      37.813  32.965  32.762  1.00  0.00     0.074 A 
ATOM     38  C   UNL A   1      37.913  31.665  30.661  1.00  0.00     0.049 A 
ATOM     39  N   UNL A   1      38.819  32.453  33.425  1.00  0.00    -0.248 NA
ATOM     40  C   UNL A   1      37.111  34.045  33.473  1.00  0.00     0.031 C 
ATOM     41  C   UNL A   1      37.559  31.293  29.290  1.00  0.00     0.029 A 
ATOM     42  N   UNL A   1      38.956  30.831  30.972  1.00  0.00    -0.354 N 
ATOM     43  C   UNL A   1      38.882  33.164  34.616  1.00  0.00     0.074 A 
ATOM     44  C   UNL A   1      37.849  34.175  34.564  1.00  0.00     0.031 C 
ATOM     45  C   UNL A   1      38.356  30.289  28.887  1.00  0.00     0.029 A 
ATOM     46  C   UNL A   1      39.296  29.970  29.956  1.00  0.00     0.049 A 
ATOM     47  H   UNL A   1      39.419  30.846  31.841  1.00  0.00     0.167 HD
ATOM     48  C   UNL A   1      39.710  32.970  35.669  1.00  0.00     0.037 A 
ATOM     49  C   UNL A   1      40.259  29.032  29.898  1.00  0.00     0.037 A 
ATOM     50  C   UNL A   1      40.706  31.936  35.733  1.00  0.00     0.049 A 
ATOM     51  C   UNL A   1      41.147  28.817  31.094  1.00  0.00     0.074 A 
ATOM     52  C   UNL A   1      41.549  31.613  36.781  1.00  0.00     0.029 A 
ATOM     53  N   UNL A   1      40.989  31.051  34.703  1.00  0.00    -0.354 N 
ATOM     54  N   UNL A   1      41.151  29.448  32.243  1.00  0.00    -0.248 NA
ATOM     55  C   UNL A   1      42.156  27.754  30.989  1.00  0.00     0.031 C 
ATOM     56  C   UNL A   1      42.364  30.551  36.374  1.00  0.00     0.029 A 
ATOM     57  C   UNL A   1      42.001  30.188  35.088  1.00  0.00     0.049 A 
ATOM     58  H   UNL A   1      40.536  31.039  33.828  1.00  0.00     0.167 HD
ATOM     59  C   UNL A   1      42.139  28.841  33.007  1.00  0.00     0.074 A 
ATOM     60  C   UNL A   1      42.707  27.786  32.194  1.00  0.00     0.031 C 
ATOM     61  C   UNL A   1      42.539  29.132  34.268  1.00  0.00     0.037 A 
BRANCH  48  62
ATOM     62  C   UNL A   1      39.561  33.893  36.842  1.00  0.00     0.064 A 
ATOM     63  C   UNL A   1      38.785  33.543  37.956  1.00  0.00     0.173 A 
ATOM     64  C   UNL A   1      40.220  35.131  36.862  1.00  0.00     0.173 A 
ATOM     65  F   UNL A   1      38.123  32.376  37.978  1.00  0.00    -0.203 F 
ATOM     66  C   UNL A   1      38.650  34.410  39.037  1.00  0.00     0.198 A 
ATOM     67  C   UNL A   1      40.106  35.984  37.957  1.00  0.00     0.198 A 
ATOM     68  F   UNL A   1      40.976  35.514  35.822  1.00  0.00    -0.203 F 
ATOM     69  F   UNL A   1      37.863  34.075  40.068  1.00  0.00    -0.200 F 
ATOM     70  C   UNL A   1      39.316  35.626  39.040  1.00  0.00     0.200 A 
ATOM     71  F   UNL A   1      40.756  37.155  37.963  1.00  0.00    -0.200 F 
ATOM     72  F   UNL A   1      39.188  36.459  40.082  1.00  0.00    -0.200 F 
ENDBRANCH  48  62
BRANCH  49  73
ATOM     73  C   UNL A   1      40.411  28.198  28.678  1.00  0.00     0.064 A 
ATOM     74  C   UNL A   1      39.761  26.960  28.572  1.00  0.00     0.173 A 
ATOM     75  C   UNL A   1      41.203  28.615  27.600  1.00  0.00     0.173 A 
ATOM     76  F   UNL A   1      39.008  26.512  29.587  1.00  0.00    -0.203 F 
ATOM     77  C   UNL A   1      39.913  26.162  27.441  1.00  0.00     0.198 A 
ATOM     78  C   UNL A   1      41.335  27.827  26.458  1.00  0.00     0.198 A 
ATOM     79  F   UNL A   1      41.840  29.794  27.649  1.00  0.00    -0.203 F 
ATOM     80  F   UNL A   1      39.313  24.965  27.383  1.00  0.00    -0.200 F 
ATOM     81  C   UNL A   1      40.696  26.598  26.382  1.00  0.00     0.200 A 
ATOM     82  F   UNL A   1      42.082  28.257  25.432  1.00  0.00    -0.200 F 
ATOM     83  F   UNL A   1      40.839  25.832  25.293  1.00  0.00    -0.200 F 
ENDBRANCH  49  73
BRANCH  61  84
ATOM     84  C   UNL A   1      43.612  28.273  34.864  1.00  0.00     0.064 A 
ATOM     85  C   UNL A   1      43.312  27.068  35.515  1.00  0.00     0.173 A 
ATOM     86  C   UNL A   1      44.961  28.636  34.736  1.00  0.00     0.173 A 
ATOM     87  F   UNL A   1      42.035  26.688  35.675  1.00  0.00    -0.203 F 
ATOM     88  C   UNL A   1      44.325  26.265  36.032  1.00  0.00     0.198 A 
ATOM     89  C   UNL A   1      45.972  27.819  35.231  1.00  0.00     0.198 A 
ATOM     90  F   UNL A   1      45.299  29.777  34.116  1.00  0.00    -0.203 F 
ATOM     91  F   UNL A   1      44.015  25.135  36.682  1.00  0.00    -0.200 F 
ATOM     92  C   UNL A   1      45.653  26.636  35.882  1.00  0.00     0.200 A 
ATOM     93  F   UNL A   1      47.255  28.173  35.076  1.00  0.00    -0.200 F 
ATOM     94  F   UNL A   1      46.627  25.856  36.372  1.00  0.00    -0.200 F 
ENDBRANCH  61  84
ENDBRANCH  35  36
ENDBRANCH  27  30
ENDBRANCH  25  26
ENDBRANCH  24  25
ENDBRANCH   1  24
TORSDOF 13
ENDMDL
