MODEL 1
REMARK VINA RESULT:     -11.7      0.000      0.000
REMARK SMILES CC[C@@](C)(NC(=O)[C@@H]1CCS(=O)(=O)C1)C(=O)NCCCCNC(=O)c1ccc(-c2c3nc(c(-c4c(F)c(F)c(F)c(F)c4F)c4ccc([nH]4)c(-c4c(F)c(F)c(F)c(F)c4F)c4nc(c(-c5c(F)c(F)c(F)c(F)c5F)c5ccc2[nH]5)C=C4)C=C3)cc1
REMARK SMILES IDX 19 1 18 2 17 3 15 4 16 5 3 7 4 8 2 9 1 10 5 11 6 12 7 14
REMARK SMILES IDX 8 15 9 16 14 17 10 18 11 19 12 20 13 21 20 22 21 23 22 24
REMARK SMILES IDX 23 25 24 27 25 28 26 29 87 30 27 31 86 32 28 33 29 34 30 35
REMARK SMILES IDX 80 36 31 37 85 38 79 39 81 40 32 41 84 42 78 43 77 44 33 46
REMARK SMILES IDX 65 47 45 48 64 49 46 50 49 51 63 52 82 53 47 54 48 55 62 57
REMARK SMILES IDX 83 58 50 59 34 60 35 61 43 62 36 63 37 64 41 65 44 66 38 67
REMARK SMILES IDX 39 68 42 69 40 70 66 71 67 72 75 73 68 74 69 75 73 76 76 77
REMARK SMILES IDX 70 78 71 79 74 80 72 81 51 82 52 83 60 84 53 85 54 86 58 87
REMARK SMILES IDX 61 88 55 89 56 90 59 91 57 92
REMARK H PARENT 17 6 5 13 22 26 81 45 49 56
REMARK Flexibility Score: inf
ROOT
ATOM      1  C   UNL A   1      31.441  30.583  25.802  1.00  0.00     0.023 C 
ENDROOT
BRANCH   1   2
ATOM      2  C   UNL A   1      32.858  30.009  25.802  1.00  0.00     0.116 C 
BRANCH   2   3
ATOM      3  N   UNL A   1      33.383  29.643  24.492  1.00  0.00    -0.354 N 
ATOM      4  C   UNL A   1      33.529  28.442  23.852  1.00  0.00     0.245 C 
ATOM      5  O   UNL A   1      34.070  28.483  22.741  1.00  0.00    -0.272 OA
ATOM      6  H   UNL A   1      33.694  30.413  23.963  1.00  0.00     0.163 HD
BRANCH   4   7
ATOM      7  C   UNL A   1      33.092  27.094  24.492  1.00  0.00     0.116 C 
ATOM      8  C   UNL A   1      33.796  26.921  25.863  1.00  0.00     0.045 C 
BRANCH   7   9
ATOM      9  C   UNL A   1      31.560  27.012  24.780  1.00  0.00     0.035 C 
ATOM     10  C   UNL A   1      31.146  26.713  26.221  1.00  0.00     0.007 C 
ENDBRANCH   7   9
BRANCH   7  11
ATOM     11  N   UNL A   1      33.455  25.974  23.577  1.00  0.00    -0.342 N 
ATOM     12  C   UNL A   1      33.988  24.736  23.817  1.00  0.00     0.225 C 
ATOM     13  H   UNL A   1      33.277  26.157  22.627  1.00  0.00     0.164 HD
ATOM     14  O   UNL A   1      34.577  24.194  22.880  1.00  0.00    -0.275 OA
BRANCH  12  15
ATOM     15  C   UNL A   1      33.828  24.009  25.157  1.00  0.00     0.094 C 
ATOM     16  C   UNL A   1      34.738  22.771  25.303  1.00  0.00     0.030 C 
ATOM     17  C   UNL A   1      32.434  23.429  25.299  1.00  0.00     0.150 C 
ATOM     18  C   UNL A   1      34.170  21.628  24.455  1.00  0.00     0.138 C 
ATOM     19  S   UNL A   1      32.415  21.904  24.386  1.00  0.00     0.151 S 
ATOM     20  O   UNL A   1      32.023  22.172  23.022  1.00  0.00    -0.229 OA
ATOM     21  O   UNL A   1      31.730  20.908  25.190  1.00  0.00    -0.229 OA
ENDBRANCH  12  15
ENDBRANCH   7  11
ENDBRANCH   4   7
ENDBRANCH   2   3
ENDBRANCH   1   2
BRANCH   1  22
ATOM     22  C   UNL A   1      31.263  31.922  26.510  1.00  0.00     0.023 C 
BRANCH  22  23
ATOM     23  C   UNL A   1      32.540  32.468  27.110  1.00  0.00     0.116 C 
BRANCH  23  24
ATOM     24  N   UNL A   1      32.412  33.876  27.428  1.00  0.00    -0.352 N 
ATOM     25  C   UNL A   1      33.020  34.580  28.439  1.00  0.00     0.251 C 
ATOM     26  H   UNL A   1      31.814  34.396  26.844  1.00  0.00     0.163 HD
ATOM     27  O   UNL A   1      32.588  35.679  28.771  1.00  0.00    -0.269 OA
BRANCH  25  28
ATOM     28  C   UNL A   1      34.200  34.006  29.121  1.00  0.00     0.039 A 
ATOM     29  C   UNL A   1      35.477  34.440  28.763  1.00  0.00     0.014 A 
ATOM     30  C   UNL A   1      34.044  33.022  30.102  1.00  0.00     0.014 A 
ATOM     31  C   UNL A   1      36.591  33.905  29.409  1.00  0.00     0.010 A 
ATOM     32  C   UNL A   1      35.141  32.588  30.831  1.00  0.00     0.010 A 
ATOM     33  C   UNL A   1      36.431  32.989  30.462  1.00  0.00    -0.014 A 
BRANCH  33  34
ATOM     34  C   UNL A   1      37.598  32.376  31.144  1.00  0.00     0.031 A 
ATOM     35  C   UNL A   1      38.357  31.266  30.465  1.00  0.00     0.074 A 
ATOM     36  C   UNL A   1      37.940  32.778  32.383  1.00  0.00     0.049 A 
ATOM     37  N   UNL A   1      39.357  30.549  30.911  1.00  0.00    -0.248 NA
ATOM     38  C   UNL A   1      37.907  30.882  29.115  1.00  0.00     0.031 C 
ATOM     39  C   UNL A   1      37.247  33.804  33.161  1.00  0.00     0.029 A 
ATOM     40  N   UNL A   1      38.955  32.364  33.206  1.00  0.00    -0.354 N 
ATOM     41  C   UNL A   1      39.637  29.627  29.910  1.00  0.00     0.074 A 
ATOM     42  C   UNL A   1      38.655  29.820  28.868  1.00  0.00     0.031 C 
ATOM     43  C   UNL A   1      37.877  33.964  34.336  1.00  0.00     0.029 A 
ATOM     44  C   UNL A   1      38.988  33.021  34.411  1.00  0.00     0.049 A 
ATOM     45  H   UNL A   1      39.600  31.662  32.957  1.00  0.00     0.167 HD
ATOM     46  C   UNL A   1      40.644  28.724  29.848  1.00  0.00     0.037 A 
ATOM     47  C   UNL A   1      39.819  32.871  35.460  1.00  0.00     0.037 A 
ATOM     48  C   UNL A   1      41.635  28.561  30.878  1.00  0.00     0.049 A 
ATOM     49  C   UNL A   1      40.927  31.857  35.371  1.00  0.00     0.074 A 
ATOM     50  C   UNL A   1      42.731  27.718  30.895  1.00  0.00     0.029 A 
ATOM     51  N   UNL A   1      41.646  29.259  32.078  1.00  0.00    -0.354 N 
ATOM     52  N   UNL A   1      41.224  31.037  34.391  1.00  0.00    -0.248 NA
ATOM     53  C   UNL A   1      41.821  31.752  36.532  1.00  0.00     0.031 C 
ATOM     54  C   UNL A   1      43.372  27.864  32.129  1.00  0.00     0.029 A 
ATOM     55  C   UNL A   1      42.715  28.846  32.854  1.00  0.00     0.049 A 
ATOM     56  H   UNL A   1      40.990  29.946  32.337  1.00  0.00     0.167 HD
ATOM     57  C   UNL A   1      42.353  30.341  34.803  1.00  0.00     0.074 A 
ATOM     58  C   UNL A   1      42.698  30.850  36.116  1.00  0.00     0.031 C 
ATOM     59  C   UNL A   1      43.043  29.370  34.156  1.00  0.00     0.037 A 
BRANCH  46  60
ATOM     60  C   UNL A   1      40.723  27.854  28.626  1.00  0.00     0.064 A 
ATOM     61  C   UNL A   1      40.051  26.623  28.548  1.00  0.00     0.173 A 
ATOM     62  C   UNL A   1      41.465  28.262  27.507  1.00  0.00     0.173 A 
ATOM     63  F   UNL A   1      39.337  26.176  29.593  1.00  0.00    -0.203 F 
ATOM     64  C   UNL A   1      40.150  25.819  27.416  1.00  0.00     0.198 A 
ATOM     65  C   UNL A   1      41.531  27.473  26.361  1.00  0.00     0.198 A 
ATOM     66  F   UNL A   1      42.125  29.430  27.521  1.00  0.00    -0.203 F 
ATOM     67  F   UNL A   1      39.551  24.620  27.393  1.00  0.00    -0.200 F 
ATOM     68  C   UNL A   1      40.883  26.248  26.320  1.00  0.00     0.200 A 
ATOM     69  F   UNL A   1      42.228  27.896  25.297  1.00  0.00    -0.200 F 
ATOM     70  F   UNL A   1      40.972  25.476  25.228  1.00  0.00    -0.200 F 
ENDBRANCH  46  60
BRANCH  47  71
ATOM     71  C   UNL A   1      39.643  33.716  36.670  1.00  0.00     0.064 A 
ATOM     72  C   UNL A   1      38.878  33.271  37.758  1.00  0.00     0.173 A 
ATOM     73  C   UNL A   1      40.236  34.984  36.767  1.00  0.00     0.173 A 
ATOM     74  F   UNL A   1      38.274  32.075  37.706  1.00  0.00    -0.203 F 
ATOM     75  C   UNL A   1      38.694  34.070  38.885  1.00  0.00     0.198 A 
ATOM     76  C   UNL A   1      40.078  35.768  37.909  1.00  0.00     0.198 A 
ATOM     77  F   UNL A   1      40.982  35.456  35.758  1.00  0.00    -0.203 F 
ATOM     78  F   UNL A   1      37.915  33.641  39.887  1.00  0.00    -0.200 F 
ATOM     79  C   UNL A   1      39.300  35.314  38.962  1.00  0.00     0.200 A 
ATOM     80  F   UNL A   1      40.678  36.964  37.985  1.00  0.00    -0.200 F 
ATOM     81  F   UNL A   1      39.126  36.081  40.048  1.00  0.00    -0.200 F 
ENDBRANCH  47  71
BRANCH  59  82
ATOM     82  C   UNL A   1      44.262  28.819  34.839  1.00  0.00     0.064 A 
ATOM     83  C   UNL A   1      44.188  27.722  35.711  1.00  0.00     0.173 A 
ATOM     84  C   UNL A   1      45.527  29.371  34.582  1.00  0.00     0.173 A 
ATOM     85  F   UNL A   1      43.002  27.167  35.998  1.00  0.00    -0.203 F 
ATOM     86  C   UNL A   1      45.333  27.218  36.323  1.00  0.00     0.198 A 
ATOM     87  C   UNL A   1      46.673  28.841  35.168  1.00  0.00     0.198 A 
ATOM     88  F   UNL A   1      45.654  30.414  33.749  1.00  0.00    -0.203 F 
ATOM     89  F   UNL A   1      45.231  26.205  37.195  1.00  0.00    -0.200 F 
ATOM     90  C   UNL A   1      46.573  27.772  36.045  1.00  0.00     0.200 A 
ATOM     91  F   UNL A   1      47.872  29.365  34.883  1.00  0.00    -0.200 F 
ATOM     92  F   UNL A   1      47.674  27.278  36.628  1.00  0.00    -0.200 F 
ENDBRANCH  59  82
ENDBRANCH  33  34
ENDBRANCH  25  28
ENDBRANCH  23  24
ENDBRANCH  22  23
ENDBRANCH   1  22
TORSDOF 14
ENDMDL
MODEL 2
REMARK VINA RESULT:     -11.7      0.056      1.612
REMARK SMILES CC[C@@](C)(NC(=O)[C@@H]1CCS(=O)(=O)C1)C(=O)NCCCCNC(=O)c1ccc(-c2c3nc(c(-c4c(F)c(F)c(F)c(F)c4F)c4ccc([nH]4)c(-c4c(F)c(F)c(F)c(F)c4F)c4nc(c(-c5c(F)c(F)c(F)c(F)c5F)c5ccc2[nH]5)C=C4)C=C3)cc1
REMARK SMILES IDX 19 1 18 2 17 3 15 4 16 5 3 7 4 8 2 9 1 10 5 11 6 12 7 14
REMARK SMILES IDX 8 15 9 16 14 17 10 18 11 19 12 20 13 21 20 22 21 23 22 24
REMARK SMILES IDX 23 25 24 27 25 28 26 29 87 30 27 31 86 32 28 33 29 34 30 35
REMARK SMILES IDX 80 36 31 37 85 38 79 39 81 40 32 41 84 42 78 43 77 44 33 46
REMARK SMILES IDX 65 47 45 48 64 49 46 50 49 51 63 52 82 53 47 54 48 55 62 57
REMARK SMILES IDX 83 58 50 59 34 60 35 61 43 62 36 63 37 64 41 65 44 66 38 67
REMARK SMILES IDX 39 68 42 69 40 70 66 71 67 72 75 73 68 74 69 75 73 76 76 77
REMARK SMILES IDX 70 78 71 79 74 80 72 81 51 82 52 83 60 84 53 85 54 86 58 87
REMARK SMILES IDX 61 88 55 89 56 90 59 91 57 92
REMARK H PARENT 17 6 5 13 22 26 81 45 49 56
REMARK Flexibility Score: inf
ROOT
ATOM      1  C   UNL A   1      31.442  30.583  25.863  1.00  0.00     0.023 C 
ENDROOT
BRANCH   1   2
ATOM      2  C   UNL A   1      32.866  30.029  25.835  1.00  0.00     0.116 C 
BRANCH   2   3
ATOM      3  N   UNL A   1      33.370  29.669  24.516  1.00  0.00    -0.354 N 
ATOM      4  C   UNL A   1      33.512  28.470  23.871  1.00  0.00     0.245 C 
ATOM      5  O   UNL A   1      34.034  28.515  22.752  1.00  0.00    -0.272 OA
ATOM      6  H   UNL A   1      33.668  30.441  23.983  1.00  0.00     0.163 HD
BRANCH   4   7
ATOM      7  C   UNL A   1      33.095  27.118  24.516  1.00  0.00     0.116 C 
ATOM      8  C   UNL A   1      33.824  26.947  25.875  1.00  0.00     0.045 C 
BRANCH   7   9
ATOM      9  C   UNL A   1      31.569  27.026  24.830  1.00  0.00     0.035 C 
ATOM     10  C   UNL A   1      31.180  26.757  26.284  1.00  0.00     0.007 C 
ENDBRANCH   7   9
BRANCH   7  11
ATOM     11  N   UNL A   1      33.450  26.001  23.593  1.00  0.00    -0.342 N 
ATOM     12  C   UNL A   1      33.984  24.762  23.823  1.00  0.00     0.225 C 
ATOM     13  H   UNL A   1      33.264  26.189  22.646  1.00  0.00     0.164 HD
ATOM     14  O   UNL A   1      34.565  24.223  22.879  1.00  0.00    -0.275 OA
BRANCH  12  15
ATOM     15  C   UNL A   1      33.834  24.029  25.162  1.00  0.00     0.094 C 
ATOM     16  C   UNL A   1      34.736  22.783  25.289  1.00  0.00     0.030 C 
ATOM     17  C   UNL A   1      32.437  23.461  25.319  1.00  0.00     0.150 C 
ATOM     18  C   UNL A   1      34.146  21.649  24.443  1.00  0.00     0.138 C 
ATOM     19  S   UNL A   1      32.393  21.941  24.398  1.00  0.00     0.151 S 
ATOM     20  O   UNL A   1      31.986  22.220  23.040  1.00  0.00    -0.229 OA
ATOM     21  O   UNL A   1      31.710  20.947  25.205  1.00  0.00    -0.229 OA
ENDBRANCH  12  15
ENDBRANCH   7  11
ENDBRANCH   4   7
ENDBRANCH   2   3
ENDBRANCH   1   2
BRANCH   1  22
ATOM     22  C   UNL A   1      31.275  31.966  26.484  1.00  0.00     0.023 C 
BRANCH  22  23
ATOM     23  C   UNL A   1      32.537  32.502  27.123  1.00  0.00     0.116 C 
BRANCH  23  24
ATOM     24  N   UNL A   1      32.409  33.911  27.440  1.00  0.00    -0.352 N 
ATOM     25  C   UNL A   1      33.015  34.615  28.452  1.00  0.00     0.251 C 
ATOM     26  H   UNL A   1      31.810  34.430  26.856  1.00  0.00     0.163 HD
ATOM     27  O   UNL A   1      32.583  35.714  28.783  1.00  0.00    -0.269 OA
BRANCH  25  28
ATOM     28  C   UNL A   1      34.195  34.041  29.135  1.00  0.00     0.039 A 
ATOM     29  C   UNL A   1      35.473  34.449  28.753  1.00  0.00     0.014 A 
ATOM     30  C   UNL A   1      34.036  33.083  30.141  1.00  0.00     0.014 A 
ATOM     31  C   UNL A   1      36.588  33.914  29.399  1.00  0.00     0.010 A 
ATOM     32  C   UNL A   1      35.136  32.652  30.869  1.00  0.00     0.010 A 
ATOM     33  C   UNL A   1      36.427  33.026  30.476  1.00  0.00    -0.014 A 
BRANCH  33  34
ATOM     34  C   UNL A   1      37.593  32.414  31.161  1.00  0.00     0.031 A 
ATOM     35  C   UNL A   1      38.357  31.308  30.480  1.00  0.00     0.074 A 
ATOM     36  C   UNL A   1      37.930  32.813  32.401  1.00  0.00     0.049 A 
ATOM     37  N   UNL A   1      39.357  30.591  30.928  1.00  0.00    -0.248 NA
ATOM     38  C   UNL A   1      37.912  30.927  29.128  1.00  0.00     0.031 C 
ATOM     39  C   UNL A   1      37.232  33.835  33.180  1.00  0.00     0.029 A 
ATOM     40  N   UNL A   1      38.943  32.399  33.227  1.00  0.00    -0.354 N 
ATOM     41  C   UNL A   1      39.642  29.673  29.925  1.00  0.00     0.074 A 
ATOM     42  C   UNL A   1      38.663  29.866  28.880  1.00  0.00     0.031 C 
ATOM     43  C   UNL A   1      37.858  33.993  34.357  1.00  0.00     0.029 A 
ATOM     44  C   UNL A   1      38.970  33.052  34.434  1.00  0.00     0.049 A 
ATOM     45  H   UNL A   1      39.591  31.699  32.978  1.00  0.00     0.167 HD
ATOM     46  C   UNL A   1      40.651  28.773  29.864  1.00  0.00     0.037 A 
ATOM     47  C   UNL A   1      39.798  32.901  35.485  1.00  0.00     0.037 A 
ATOM     48  C   UNL A   1      41.639  28.608  30.897  1.00  0.00     0.049 A 
ATOM     49  C   UNL A   1      40.909  31.890  35.397  1.00  0.00     0.074 A 
ATOM     50  C   UNL A   1      42.736  27.768  30.915  1.00  0.00     0.029 A 
ATOM     51  N   UNL A   1      41.644  29.304  32.099  1.00  0.00    -0.354 N 
ATOM     52  N   UNL A   1      41.211  31.074  34.416  1.00  0.00    -0.248 NA
ATOM     53  C   UNL A   1      41.799  31.783  36.560  1.00  0.00     0.031 C 
ATOM     54  C   UNL A   1      43.374  27.912  32.152  1.00  0.00     0.029 A 
ATOM     55  C   UNL A   1      42.712  28.890  32.877  1.00  0.00     0.049 A 
ATOM     56  H   UNL A   1      40.986  29.988  32.358  1.00  0.00     0.167 HD
ATOM     57  C   UNL A   1      42.340  30.379  34.830  1.00  0.00     0.074 A 
ATOM     58  C   UNL A   1      42.679  30.885  36.145  1.00  0.00     0.031 C 
ATOM     59  C   UNL A   1      43.035  29.411  34.182  1.00  0.00     0.037 A 
BRANCH  46  60
ATOM     60  C   UNL A   1      40.736  27.905  28.640  1.00  0.00     0.064 A 
ATOM     61  C   UNL A   1      41.500  28.276  27.521  1.00  0.00     0.173 A 
ATOM     62  C   UNL A   1      40.062  26.675  28.590  1.00  0.00     0.173 A 
ATOM     63  F   UNL A   1      42.154  29.447  27.507  1.00  0.00    -0.203 F 
ATOM     64  C   UNL A   1      41.553  27.469  26.388  1.00  0.00     0.198 A 
ATOM     65  C   UNL A   1      40.149  25.853  27.469  1.00  0.00     0.198 A 
ATOM     66  F   UNL A   1      39.321  26.266  29.631  1.00  0.00    -0.203 F 
ATOM     67  F   UNL A   1      42.236  27.877  25.309  1.00  0.00    -0.200 F 
ATOM     68  C   UNL A   1      40.885  26.254  26.365  1.00  0.00     0.200 A 
ATOM     69  F   UNL A   1      39.514  24.672  27.456  1.00  0.00    -0.200 F 
ATOM     70  F   UNL A   1      40.942  25.476  25.276  1.00  0.00    -0.200 F 
ENDBRANCH  46  60
BRANCH  47  71
ATOM     71  C   UNL A   1      39.617  33.743  36.697  1.00  0.00     0.064 A 
ATOM     72  C   UNL A   1      40.208  35.011  36.790  1.00  0.00     0.173 A 
ATOM     73  C   UNL A   1      38.850  33.301  37.785  1.00  0.00     0.173 A 
ATOM     74  F   UNL A   1      40.967  35.472  35.785  1.00  0.00    -0.203 F 
ATOM     75  C   UNL A   1      40.058  35.794  37.934  1.00  0.00     0.198 A 
ATOM     76  C   UNL A   1      38.673  34.099  38.915  1.00  0.00     0.198 A 
ATOM     77  F   UNL A   1      38.259  32.098  37.746  1.00  0.00    -0.203 F 
ATOM     78  F   UNL A   1      40.676  36.980  38.016  1.00  0.00    -0.200 F 
ATOM     79  C   UNL A   1      39.285  35.340  38.991  1.00  0.00     0.200 A 
ATOM     80  F   UNL A   1      37.914  33.661  39.928  1.00  0.00    -0.200 F 
ATOM     81  F   UNL A   1      39.138  36.095  40.090  1.00  0.00    -0.200 F 
ENDBRANCH  47  71
BRANCH  59  82
ATOM     82  C   UNL A   1      44.252  28.861  34.868  1.00  0.00     0.064 A 
ATOM     83  C   UNL A   1      44.186  27.731  35.696  1.00  0.00     0.173 A 
ATOM     84  C   UNL A   1      45.509  29.449  34.656  1.00  0.00     0.173 A 
ATOM     85  F   UNL A   1      43.007  27.140  35.940  1.00  0.00    -0.203 F 
ATOM     86  C   UNL A   1      45.330  27.228  36.312  1.00  0.00     0.198 A 
ATOM     87  C   UNL A   1      46.655  28.922  35.244  1.00  0.00     0.198 A 
ATOM     88  F   UNL A   1      45.629  30.525  33.865  1.00  0.00    -0.203 F 
ATOM     89  F   UNL A   1      45.235  26.181  37.143  1.00  0.00    -0.200 F 
ATOM     90  C   UNL A   1      46.563  27.819  36.079  1.00  0.00     0.200 A 
ATOM     91  F   UNL A   1      47.848  29.481  35.001  1.00  0.00    -0.200 F 
ATOM     92  F   UNL A   1      47.664  27.327  36.663  1.00  0.00    -0.200 F 
ENDBRANCH  59  82
ENDBRANCH  33  34
ENDBRANCH  25  28
ENDBRANCH  23  24
ENDBRANCH  22  23
ENDBRANCH   1  22
TORSDOF 14
ENDMDL
MODEL 3
REMARK VINA RESULT:     -11.6      0.480      7.507
REMARK SMILES CC[C@@](C)(NC(=O)[C@@H]1CCS(=O)(=O)C1)C(=O)NCCCCNC(=O)c1ccc(-c2c3nc(c(-c4c(F)c(F)c(F)c(F)c4F)c4ccc([nH]4)c(-c4c(F)c(F)c(F)c(F)c4F)c4nc(c(-c5c(F)c(F)c(F)c(F)c5F)c5ccc2[nH]5)C=C4)C=C3)cc1
REMARK SMILES IDX 19 1 18 2 17 3 15 4 16 5 3 7 4 8 2 9 1 10 5 11 6 12 7 14
REMARK SMILES IDX 8 15 9 16 14 17 10 18 11 19 12 20 13 21 20 22 21 23 22 24
REMARK SMILES IDX 23 25 24 27 25 28 26 29 87 30 27 31 86 32 28 33 29 34 30 35
REMARK SMILES IDX 80 36 31 37 85 38 79 39 81 40 32 41 84 42 78 43 77 44 33 46
REMARK SMILES IDX 65 47 45 48 64 49 46 50 49 51 63 52 82 53 47 54 48 55 62 57
REMARK SMILES IDX 83 58 50 59 34 60 35 61 43 62 36 63 37 64 41 65 44 66 38 67
REMARK SMILES IDX 39 68 42 69 40 70 66 71 67 72 75 73 68 74 69 75 73 76 76 77
REMARK SMILES IDX 70 78 71 79 74 80 72 81 51 82 52 83 60 84 53 85 54 86 58 87
REMARK SMILES IDX 61 88 55 89 56 90 59 91 57 92
REMARK H PARENT 17 6 5 13 22 26 81 45 49 56
REMARK Flexibility Score: inf
ROOT
ATOM      1  C   UNL A   1      31.391  30.664  25.863  1.00  0.00     0.023 C 
ENDROOT
BRANCH   1   2
ATOM      2  C   UNL A   1      32.780  30.026  25.843  1.00  0.00     0.116 C 
BRANCH   2   3
ATOM      3  N   UNL A   1      33.288  29.679  24.521  1.00  0.00    -0.354 N 
ATOM      4  C   UNL A   1      33.442  28.486  23.869  1.00  0.00     0.245 C 
ATOM      5  O   UNL A   1      33.964  28.543  22.750  1.00  0.00    -0.272 OA
ATOM      6  H   UNL A   1      33.577  30.458  23.993  1.00  0.00     0.163 HD
BRANCH   4   7
ATOM      7  C   UNL A   1      33.040  27.125  24.506  1.00  0.00     0.116 C 
ATOM      8  C   UNL A   1      33.779  26.949  25.858  1.00  0.00     0.045 C 
BRANCH   7   9
ATOM      9  C   UNL A   1      31.516  27.019  24.830  1.00  0.00     0.035 C 
ATOM     10  C   UNL A   1      31.140  26.740  26.285  1.00  0.00     0.007 C 
ENDBRANCH   7   9
BRANCH   7  11
ATOM     11  N   UNL A   1      33.396  26.019  23.572  1.00  0.00    -0.342 N 
ATOM     12  C   UNL A   1      33.939  24.781  23.788  1.00  0.00     0.225 C 
ATOM     13  H   UNL A   1      33.204  26.214  22.627  1.00  0.00     0.164 HD
ATOM     14  O   UNL A   1      34.518  24.254  22.836  1.00  0.00    -0.275 OA
BRANCH  12  15
ATOM     15  C   UNL A   1      33.801  24.035  25.121  1.00  0.00     0.094 C 
ATOM     16  C   UNL A   1      34.713  22.796  25.234  1.00  0.00     0.030 C 
ATOM     17  C   UNL A   1      32.409  23.454  25.279  1.00  0.00     0.150 C 
ATOM     18  C   UNL A   1      34.130  21.664  24.381  1.00  0.00     0.138 C 
ATOM     19  S   UNL A   1      32.374  21.942  24.346  1.00  0.00     0.151 S 
ATOM     20  O   UNL A   1      31.959  22.229  22.991  1.00  0.00    -0.229 OA
ATOM     21  O   UNL A   1      31.702  20.935  25.147  1.00  0.00    -0.229 OA
ENDBRANCH  12  15
ENDBRANCH   7  11
ENDBRANCH   4   7
ENDBRANCH   2   3
ENDBRANCH   1   2
BRANCH   1  22
ATOM     22  C   UNL A   1      31.308  32.065  26.462  1.00  0.00     0.023 C 
BRANCH  22  23
ATOM     23  C   UNL A   1      32.575  32.503  27.162  1.00  0.00     0.116 C 
BRANCH  23  24
ATOM     24  N   UNL A   1      32.499  33.892  27.568  1.00  0.00    -0.352 N 
ATOM     25  C   UNL A   1      33.158  34.515  28.600  1.00  0.00     0.251 C 
ATOM     26  H   UNL A   1      31.899  34.463  27.036  1.00  0.00     0.163 HD
ATOM     27  O   UNL A   1      32.769  35.603  29.011  1.00  0.00    -0.269 OA
BRANCH  25  28
ATOM     28  C   UNL A   1      34.340  33.868  29.208  1.00  0.00     0.039 A 
ATOM     29  C   UNL A   1      35.618  34.303  28.853  1.00  0.00     0.014 A 
ATOM     30  C   UNL A   1      34.185  32.816  30.116  1.00  0.00     0.014 A 
ATOM     31  C   UNL A   1      36.735  33.698  29.429  1.00  0.00     0.010 A 
ATOM     32  C   UNL A   1      35.290  32.307  30.783  1.00  0.00     0.010 A 
ATOM     33  C   UNL A   1      36.579  32.708  30.414  1.00  0.00    -0.014 A 
BRANCH  33  34
ATOM     34  C   UNL A   1      37.748  32.023  31.020  1.00  0.00     0.031 A 
ATOM     35  C   UNL A   1      38.203  32.414  32.402  1.00  0.00     0.074 A 
ATOM     36  C   UNL A   1      38.423  31.096  30.316  1.00  0.00     0.049 A 
ATOM     37  N   UNL A   1      39.238  31.994  33.086  1.00  0.00    -0.248 NA
ATOM     38  C   UNL A   1      37.412  33.445  33.096  1.00  0.00     0.031 C 
ATOM     39  C   UNL A   1      38.109  30.676  28.950  1.00  0.00     0.029 A 
ATOM     40  N   UNL A   1      39.520  30.345  30.652  1.00  0.00    -0.354 N 
ATOM     41  C   UNL A   1      39.227  32.720  34.270  1.00  0.00     0.074 A 
ATOM     42  C   UNL A   1      38.135  33.662  34.182  1.00  0.00     0.031 C 
ATOM     43  C   UNL A   1      38.972  29.717  28.577  1.00  0.00     0.029 A 
ATOM     44  C   UNL A   1      39.926  29.490  29.657  1.00  0.00     0.049 A 
ATOM     45  H   UNL A   1      39.974  30.412  31.524  1.00  0.00     0.167 HD
ATOM     46  C   UNL A   1      40.033  32.590  35.350  1.00  0.00     0.037 A 
ATOM     47  C   UNL A   1      40.958  28.626  29.622  1.00  0.00     0.037 A 
ATOM     48  C   UNL A   1      41.100  31.628  35.439  1.00  0.00     0.049 A 
ATOM     49  C   UNL A   1      41.845  28.503  30.831  1.00  0.00     0.074 A 
ATOM     50  C   UNL A   1      41.942  31.371  36.505  1.00  0.00     0.029 A 
ATOM     51  N   UNL A   1      41.469  30.765  34.416  1.00  0.00    -0.354 N 
ATOM     52  N   UNL A   1      41.785  29.146  31.973  1.00  0.00    -0.248 NA
ATOM     53  C   UNL A   1      42.940  27.528  30.751  1.00  0.00     0.031 C 
ATOM     54  C   UNL A   1      42.859  30.392  36.108  1.00  0.00     0.029 A 
ATOM     55  C   UNL A   1      42.545  29.992  34.818  1.00  0.00     0.049 A 
ATOM     56  H   UNL A   1      41.030  30.711  33.537  1.00  0.00     0.167 HD
ATOM     57  C   UNL A   1      42.812  28.634  32.756  1.00  0.00     0.074 A 
ATOM     58  C   UNL A   1      43.468  27.614  31.964  1.00  0.00     0.031 C 
ATOM     59  C   UNL A   1      43.180  28.977  34.015  1.00  0.00     0.037 A 
BRANCH  46  60
ATOM     60  C   UNL A   1      39.787  33.504  36.516  1.00  0.00     0.064 A 
ATOM     61  C   UNL A   1      40.448  34.736  36.646  1.00  0.00     0.173 A 
ATOM     62  C   UNL A   1      38.860  33.155  37.512  1.00  0.00     0.173 A 
ATOM     63  F   UNL A   1      41.354  35.115  35.731  1.00  0.00    -0.203 F 
ATOM     64  C   UNL A   1      40.222  35.562  37.743  1.00  0.00     0.198 A 
ATOM     65  C   UNL A   1      38.608  34.002  38.588  1.00  0.00     0.198 A 
ATOM     66  F   UNL A   1      38.195  31.993  37.440  1.00  0.00    -0.203 F 
ATOM     67  F   UNL A   1      40.915  36.702  37.874  1.00  0.00    -0.200 F 
ATOM     68  C   UNL A   1      39.296  35.199  38.709  1.00  0.00     0.200 A 
ATOM     69  F   UNL A   1      37.702  33.656  39.513  1.00  0.00    -0.200 F 
ATOM     70  F   UNL A   1      39.075  35.999  39.761  1.00  0.00    -0.200 F 
ENDBRANCH  46  60
BRANCH  47  71
ATOM     71  C   UNL A   1      41.191  27.800  28.408  1.00  0.00     0.064 A 
ATOM     72  C   UNL A   1      40.542  26.568  28.238  1.00  0.00     0.173 A 
ATOM     73  C   UNL A   1      42.064  28.221  27.395  1.00  0.00     0.173 A 
ATOM     74  F   UNL A   1      39.712  26.111  29.188  1.00  0.00    -0.203 F 
ATOM     75  C   UNL A   1      40.774  25.781  27.112  1.00  0.00     0.198 A 
ATOM     76  C   UNL A   1      42.270  27.447  26.253  1.00  0.00     0.198 A 
ATOM     77  F   UNL A   1      42.708  29.392  27.505  1.00  0.00    -0.203 F 
ATOM     78  F   UNL A   1      40.180  24.586  26.999  1.00  0.00    -0.200 F 
ATOM     79  C   UNL A   1      41.633  26.224  26.118  1.00  0.00     0.200 A 
ATOM     80  F   UNL A   1      43.090  27.888  25.288  1.00  0.00    -0.200 F 
ATOM     81  F   UNL A   1      41.853  25.469  25.033  1.00  0.00    -0.200 F 
ENDBRANCH  47  71
BRANCH  59  82
ATOM     82  C   UNL A   1      44.320  28.217  34.630  1.00  0.00     0.064 A 
ATOM     83  C   UNL A   1      45.642  28.681  34.557  1.00  0.00     0.173 A 
ATOM     84  C   UNL A   1      44.077  27.031  35.340  1.00  0.00     0.173 A 
ATOM     85  F   UNL A   1      45.928  29.802  33.880  1.00  0.00    -0.203 F 
ATOM     86  C   UNL A   1      46.683  27.968  35.146  1.00  0.00     0.198 A 
ATOM     87  C   UNL A   1      45.116  26.340  35.958  1.00  0.00     0.198 A 
ATOM     88  F   UNL A   1      42.831  26.550  35.448  1.00  0.00    -0.203 F 
ATOM     89  F   UNL A   1      47.945  28.401  35.017  1.00  0.00    -0.200 F 
ATOM     90  C   UNL A   1      46.418  26.804  35.852  1.00  0.00     0.200 A 
ATOM     91  F   UNL A   1      44.855  25.227  36.657  1.00  0.00    -0.200 F 
ATOM     92  F   UNL A   1      47.420  26.125  36.428  1.00  0.00    -0.200 F 
ENDBRANCH  59  82
ENDBRANCH  33  34
ENDBRANCH  25  28
ENDBRANCH  23  24
ENDBRANCH  22  23
ENDBRANCH   1  22
TORSDOF 14
ENDMDL
