MODEL 1
REMARK VINA RESULT:     -14.0      0.000      0.000
REMARK SMILES O=C(NCCCCNC(=O)[C@@H]1CC2(CC[NH2+]CC2)C[NH+]1Cc1cccc2nonc12)c1ccc(-c2c3nc(c(-c4c(F)c(F)c(F)c(F)c4F)c4ccc([nH]4)c(-c4c(F)c(F)c(F)c(F)c4F)c4nc(c(-c5c(F)c(F)c(F)c(F)c5F)c5ccc2[nH]5)C=C4)C=C3)cc1
REMARK SMILES IDX 5 1 4 2 3 3 1 4 2 5 31 7 32 8 93 9 33 10 92 11 34 12 35 13
REMARK SMILES IDX 36 14 86 15 37 16 91 17 85 18 87 19 38 20 90 21 84 22 83 23
REMARK SMILES IDX 39 25 71 26 51 27 70 28 52 29 55 30 69 31 88 32 53 33 54 34
REMARK SMILES IDX 68 36 89 37 56 38 40 39 41 40 49 41 42 42 43 43 47 44 50 45
REMARK SMILES IDX 44 46 45 47 48 48 46 49 72 50 73 51 81 52 74 53 75 54 79 55
REMARK SMILES IDX 82 56 76 57 77 58 80 59 78 60 57 61 58 62 66 63 59 64 60 65
REMARK SMILES IDX 64 66 67 67 61 68 62 69 65 70 63 71 6 72 7 73 8 74 9 75
REMARK SMILES IDX 10 77 11 78 12 79 20 80 13 81 19 82 14 84 18 85 15 86 17 87
REMARK SMILES IDX 16 88 21 91 22 92 23 93 30 94 24 95 26 96 29 97 25 98 27 99
REMARK SMILES IDX 28 100
REMARK H PARENT 3 6 87 24 55 35 8 76 20 83 16 89 16 90
REMARK Flexibility Score: inf
ROOT
ATOM      1  C   UNL A   1      34.890  30.450  27.251  1.00  0.00     0.023 C 
ENDROOT
BRANCH   1   2
ATOM      2  C   UNL A   1      33.989  31.340  28.114  1.00  0.00     0.116 C 
BRANCH   2   3
ATOM      3  N   UNL A   1      34.429  32.722  28.060  1.00  0.00    -0.352 N 
ATOM      4  O   UNL A   1      35.428  34.609  28.703  1.00  0.00    -0.269 OA
ATOM      5  C   UNL A   1      35.415  33.372  28.739  1.00  0.00     0.251 C 
ATOM      6  H   UNL A   1      33.931  33.284  27.425  1.00  0.00     0.163 HD
BRANCH   5   7
ATOM      7  C   UNL A   1      36.467  32.670  29.500  1.00  0.00     0.039 A 
ATOM      8  C   UNL A   1      37.599  32.250  28.791  1.00  0.00     0.014 A 
ATOM      9  C   UNL A   1      36.294  32.272  30.829  1.00  0.00     0.014 A 
ATOM     10  C   UNL A   1      38.549  31.431  29.400  1.00  0.00     0.010 A 
ATOM     11  C   UNL A   1      37.250  31.453  31.441  1.00  0.00     0.010 A 
ATOM     12  C   UNL A   1      38.372  31.015  30.725  1.00  0.00    -0.014 A 
BRANCH  12  13
ATOM     13  C   UNL A   1      39.367  30.107  31.323  1.00  0.00     0.031 A 
ATOM     14  C   UNL A   1      39.467  28.730  30.773  1.00  0.00     0.074 A 
ATOM     15  C   UNL A   1      40.434  30.562  32.011  1.00  0.00     0.049 A 
ATOM     16  N   UNL A   1      40.175  28.443  29.721  1.00  0.00    -0.248 NA
ATOM     17  C   UNL A   1      38.677  27.611  31.285  1.00  0.00     0.031 C 
ATOM     18  C   UNL A   1      40.943  31.936  31.974  1.00  0.00     0.029 A 
ATOM     19  N   UNL A   1      41.383  29.870  32.725  1.00  0.00    -0.354 N 
ATOM     20  C   UNL A   1      39.879  27.141  29.378  1.00  0.00     0.074 A 
ATOM     21  C   UNL A   1      38.972  26.651  30.394  1.00  0.00     0.031 C 
ATOM     22  C   UNL A   1      42.187  31.952  32.497  1.00  0.00     0.029 A 
ATOM     23  C   UNL A   1      42.500  30.632  33.037  1.00  0.00     0.049 A 
ATOM     24  H   UNL A   1      41.280  28.927  32.988  1.00  0.00     0.167 HD
ATOM     25  C   UNL A   1      40.379  26.545  28.266  1.00  0.00     0.037 A 
ATOM     26  C   UNL A   1      43.772  30.183  33.207  1.00  0.00     0.037 A 
ATOM     27  C   UNL A   1      41.248  27.347  27.461  1.00  0.00     0.049 A 
ATOM     28  C   UNL A   1      44.037  29.408  31.946  1.00  0.00     0.074 A 
ATOM     29  C   UNL A   1      41.093  28.260  26.440  1.00  0.00     0.029 A 
ATOM     30  N   UNL A   1      42.586  27.387  27.776  1.00  0.00    -0.354 N 
ATOM     31  N   UNL A   1      44.426  29.925  30.810  1.00  0.00    -0.248 NA
ATOM     32  C   UNL A   1      43.565  28.025  31.859  1.00  0.00     0.031 C 
ATOM     33  C   UNL A   1      42.240  29.110  26.508  1.00  0.00     0.029 A 
ATOM     34  C   UNL A   1      42.988  28.690  27.606  1.00  0.00     0.049 A 
ATOM     35  H   UNL A   1      43.146  26.631  28.067  1.00  0.00     0.167 HD
ATOM     36  C   UNL A   1      43.993  29.029  29.832  1.00  0.00     0.074 A 
ATOM     37  C   UNL A   1      43.507  27.865  30.543  1.00  0.00     0.031 C 
ATOM     38  C   UNL A   1      43.880  29.364  28.517  1.00  0.00     0.037 A 
BRANCH  25  39
ATOM     39  C   UNL A   1      40.125  25.146  27.895  1.00  0.00     0.064 A 
ATOM     40  C   UNL A   1      41.088  24.174  28.193  1.00  0.00     0.173 A 
ATOM     41  C   UNL A   1      39.038  24.787  27.093  1.00  0.00     0.173 A 
ATOM     42  F   UNL A   1      42.152  24.495  28.948  1.00  0.00    -0.203 F 
ATOM     43  C   UNL A   1      40.984  22.887  27.679  1.00  0.00     0.198 A 
ATOM     44  C   UNL A   1      38.936  23.498  26.578  1.00  0.00     0.198 A 
ATOM     45  F   UNL A   1      38.103  25.695  26.777  1.00  0.00    -0.203 F 
ATOM     46  F   UNL A   1      41.934  21.983  27.950  1.00  0.00    -0.200 F 
ATOM     47  C   UNL A   1      39.913  22.552  26.863  1.00  0.00     0.200 A 
ATOM     48  F   UNL A   1      37.906  23.174  25.785  1.00  0.00    -0.200 F 
ATOM     49  F   UNL A   1      39.830  21.322  26.340  1.00  0.00    -0.200 F 
ENDBRANCH  25  39
BRANCH  26  50
ATOM     50  C   UNL A   1      44.084  29.656  34.576  1.00  0.00     0.064 A 
ATOM     51  C   UNL A   1      45.148  30.223  35.311  1.00  0.00     0.173 A 
ATOM     52  C   UNL A   1      43.399  28.604  35.206  1.00  0.00     0.173 A 
ATOM     53  F   UNL A   1      45.933  31.159  34.754  1.00  0.00    -0.203 F 
ATOM     54  C   UNL A   1      45.429  29.841  36.624  1.00  0.00     0.198 A 
ATOM     55  C   UNL A   1      43.664  28.239  36.527  1.00  0.00     0.198 A 
ATOM     56  F   UNL A   1      42.451  27.913  34.561  1.00  0.00    -0.203 F 
ATOM     57  F   UNL A   1      46.432  30.429  37.291  1.00  0.00    -0.200 F 
ATOM     58  C   UNL A   1      44.668  28.866  37.242  1.00  0.00     0.200 A 
ATOM     59  F   UNL A   1      42.927  27.283  37.112  1.00  0.00    -0.200 F 
ATOM     60  F   UNL A   1      44.908  28.525  38.515  1.00  0.00    -0.200 F 
ENDBRANCH  26  50
BRANCH  38  61
ATOM     61  C   UNL A   1      44.502  30.659  28.129  1.00  0.00     0.064 A 
ATOM     62  C   UNL A   1      45.741  30.668  27.478  1.00  0.00     0.173 A 
ATOM     63  C   UNL A   1      43.865  31.885  28.360  1.00  0.00     0.173 A 
ATOM     64  F   UNL A   1      46.383  29.515  27.227  1.00  0.00    -0.203 F 
ATOM     65  C   UNL A   1      46.314  31.862  27.051  1.00  0.00     0.198 A 
ATOM     66  C   UNL A   1      44.432  33.077  27.916  1.00  0.00     0.198 A 
ATOM     67  F   UNL A   1      42.678  31.935  28.987  1.00  0.00    -0.203 F 
ATOM     68  F   UNL A   1      47.493  31.849  26.414  1.00  0.00    -0.200 F 
ATOM     69  C   UNL A   1      45.654  33.064  27.259  1.00  0.00     0.200 A 
ATOM     70  F   UNL A   1      43.785  34.237  28.101  1.00  0.00    -0.200 F 
ATOM     71  F   UNL A   1      46.189  34.210  26.815  1.00  0.00    -0.200 F 
ENDBRANCH  38  61
ENDBRANCH  12  13
ENDBRANCH   5   7
ENDBRANCH   2   3
ENDBRANCH   1   2
BRANCH   1  72
ATOM     72  C   UNL A   1      34.470  28.968  27.173  1.00  0.00     0.023 C 
BRANCH  72  73
ATOM     73  C   UNL A   1      33.046  28.678  27.658  1.00  0.00     0.116 C 
BRANCH  73  74
ATOM     74  N   UNL A   1      32.444  27.678  26.806  1.00  0.00    -0.351 N 
ATOM     75  C   UNL A   1      31.600  27.892  25.757  1.00  0.00     0.278 C 
ATOM     76  H   UNL A   1      32.670  26.740  27.004  1.00  0.00     0.163 HD
ATOM     77  O   UNL A   1      30.686  27.079  25.620  1.00  0.00    -0.268 OA
BRANCH  75  78
ATOM     78  C   UNL A   1      31.875  29.071  24.798  1.00  0.00     0.275 C 
ATOM     79  C   UNL A   1      30.580  29.715  24.302  1.00  0.00     0.089 C 
ATOM     80  N   UNL A   1      32.528  28.642  23.568  1.00  0.00    -0.320 N 
ATOM     81  C   UNL A   1      30.332  29.154  22.880  1.00  0.00     0.036 C 
ATOM     82  C   UNL A   1      31.757  28.877  22.372  1.00  0.00     0.270 C 
ATOM     83  H   UNL A   1      33.527  28.445  23.636  1.00  0.00     0.349 HD
ATOM     84  C   UNL A   1      29.600  30.166  21.978  1.00  0.00     0.074 C 
ATOM     85  C   UNL A   1      29.486  27.857  22.884  1.00  0.00     0.074 C 
ATOM     86  C   UNL A   1      28.142  30.359  22.401  1.00  0.00     0.261 C 
ATOM     87  C   UNL A   1      28.034  28.110  23.288  1.00  0.00     0.261 C 
ATOM     88  N   UNL A   1      27.399  29.098  22.413  1.00  0.00    -0.346 N 
ATOM     89  H   UNL A   1      27.362  28.727  21.464  1.00  0.00     0.346 HD
ATOM     90  H   UNL A   1      26.461  29.284  22.767  1.00  0.00     0.346 HD
BRANCH  80  91
ATOM     91  C   UNL A   1      33.825  28.008  23.537  1.00  0.00     0.302 C 
BRANCH  91  92
ATOM     92  C   UNL A   1      33.731  26.509  23.558  1.00  0.00     0.038 A 
ATOM     93  C   UNL A   1      34.011  25.757  24.730  1.00  0.00     0.012 A 
ATOM     94  C   UNL A   1      33.525  25.702  22.414  1.00  0.00     0.144 A 
ATOM     95  C   UNL A   1      34.130  24.342  24.757  1.00  0.00     0.003 A 
ATOM     96  C   UNL A   1      33.655  24.250  22.443  1.00  0.00     0.135 A 
ATOM     97  N   UNL A   1      33.238  26.065  21.154  1.00  0.00    -0.049 NA
ATOM     98  C   UNL A   1      33.969  23.539  23.616  1.00  0.00     0.034 A 
ATOM     99  N   UNL A   1      33.450  23.784  21.204  1.00  0.00    -0.050 NA
ATOM    100  O   UNL A   1      33.188  24.894  20.423  1.00  0.00    -0.243 OA
ENDBRANCH  91  92
ENDBRANCH  80  91
ENDBRANCH  75  78
ENDBRANCH  73  74
ENDBRANCH  72  73
ENDBRANCH   1  72
TORSDOF 13
ENDMDL
MODEL 2
REMARK VINA RESULT:     -13.5      3.217      8.172
REMARK SMILES O=C(NCCCCNC(=O)[C@@H]1CC2(CC[NH2+]CC2)C[NH+]1Cc1cccc2nonc12)c1ccc(-c2c3nc(c(-c4c(F)c(F)c(F)c(F)c4F)c4ccc([nH]4)c(-c4c(F)c(F)c(F)c(F)c4F)c4nc(c(-c5c(F)c(F)c(F)c(F)c5F)c5ccc2[nH]5)C=C4)C=C3)cc1
REMARK SMILES IDX 5 1 4 2 3 3 1 4 2 5 31 7 32 8 93 9 33 10 92 11 34 12 35 13
REMARK SMILES IDX 36 14 86 15 37 16 91 17 85 18 87 19 38 20 90 21 84 22 83 23
REMARK SMILES IDX 39 25 71 26 51 27 70 28 52 29 55 30 69 31 88 32 53 33 54 34
REMARK SMILES IDX 68 36 89 37 56 38 40 39 41 40 49 41 42 42 43 43 47 44 50 45
REMARK SMILES IDX 44 46 45 47 48 48 46 49 72 50 73 51 81 52 74 53 75 54 79 55
REMARK SMILES IDX 82 56 76 57 77 58 80 59 78 60 57 61 58 62 66 63 59 64 60 65
REMARK SMILES IDX 64 66 67 67 61 68 62 69 65 70 63 71 6 72 7 73 8 74 9 75
REMARK SMILES IDX 10 77 11 78 12 79 20 80 13 81 19 82 14 84 18 85 15 86 17 87
REMARK SMILES IDX 16 88 21 91 22 92 23 93 30 94 24 95 26 96 29 97 25 98 27 99
REMARK SMILES IDX 28 100
REMARK H PARENT 3 6 87 24 55 35 8 76 20 83 16 89 16 90
REMARK Flexibility Score: inf
ROOT
ATOM      1  C   UNL A   1      38.623  22.604  26.556  1.00  0.00     0.023 C 
ENDROOT
BRANCH   1   2
ATOM      2  C   UNL A   1      39.242  21.445  25.767  1.00  0.00     0.116 C 
BRANCH   2   3
ATOM      3  N   UNL A   1      40.414  20.928  26.450  1.00  0.00    -0.352 N 
ATOM      4  O   UNL A   1      42.499  20.866  27.238  1.00  0.00    -0.269 OA
ATOM      5  C   UNL A   1      41.525  21.559  26.920  1.00  0.00     0.251 C 
ATOM      6  H   UNL A   1      40.403  19.955  26.597  1.00  0.00     0.163 HD
BRANCH   5   7
ATOM      7  C   UNL A   1      41.611  23.024  27.079  1.00  0.00     0.039 A 
ATOM      8  C   UNL A   1      42.138  23.756  26.007  1.00  0.00     0.014 A 
ATOM      9  C   UNL A   1      41.351  23.665  28.295  1.00  0.00     0.014 A 
ATOM     10  C   UNL A   1      42.413  25.114  26.148  1.00  0.00     0.010 A 
ATOM     11  C   UNL A   1      41.625  25.030  28.434  1.00  0.00     0.010 A 
ATOM     12  C   UNL A   1      42.173  25.758  27.368  1.00  0.00    -0.014 A 
BRANCH  12  13
ATOM     13  C   UNL A   1      42.523  27.183  27.501  1.00  0.00     0.031 A 
ATOM     14  C   UNL A   1      41.415  28.173  27.486  1.00  0.00     0.074 A 
ATOM     15  C   UNL A   1      43.690  27.589  28.042  1.00  0.00     0.049 A 
ATOM     16  N   UNL A   1      40.730  28.478  28.549  1.00  0.00    -0.248 NA
ATOM     17  C   UNL A   1      40.914  28.787  26.258  1.00  0.00     0.031 C 
ATOM     18  C   UNL A   1      44.580  26.759  28.859  1.00  0.00     0.029 A 
ATOM     19  N   UNL A   1      44.225  28.852  28.138  1.00  0.00    -0.354 N 
ATOM     20  C   UNL A   1      39.670  29.256  28.137  1.00  0.00     0.074 A 
ATOM     21  C   UNL A   1      39.841  29.452  26.713  1.00  0.00     0.031 C 
ATOM     22  C   UNL A   1      45.456  27.561  29.499  1.00  0.00     0.029 A 
ATOM     23  C   UNL A   1      45.287  28.933  29.028  1.00  0.00     0.049 A 
ATOM     24  H   UNL A   1      43.888  29.622  27.626  1.00  0.00     0.167 HD
ATOM     25  C   UNL A   1      38.698  29.678  28.985  1.00  0.00     0.037 A 
ATOM     26  C   UNL A   1      45.659  30.019  29.756  1.00  0.00     0.037 A 
ATOM     27  C   UNL A   1      38.838  29.274  30.350  1.00  0.00     0.049 A 
ATOM     28  C   UNL A   1      44.391  30.414  30.461  1.00  0.00     0.074 A 
ATOM     29  C   UNL A   1      38.486  28.172  31.100  1.00  0.00     0.029 A 
ATOM     30  N   UNL A   1      39.603  30.048  31.190  1.00  0.00    -0.354 N 
ATOM     31  N   UNL A   1      43.947  29.886  31.571  1.00  0.00    -0.248 NA
ATOM     32  C   UNL A   1      43.415  31.236  29.742  1.00  0.00     0.031 C 
ATOM     33  C   UNL A   1      39.420  28.129  32.182  1.00  0.00     0.029 A 
ATOM     34  C   UNL A   1      40.314  29.178  31.982  1.00  0.00     0.049 A 
ATOM     35  H   UNL A   1      39.637  31.031  31.219  1.00  0.00     0.167 HD
ATOM     36  C   UNL A   1      42.566  30.086  31.546  1.00  0.00     0.074 A 
ATOM     37  C   UNL A   1      42.308  30.955  30.417  1.00  0.00     0.031 C 
ATOM     38  C   UNL A   1      41.701  29.381  32.327  1.00  0.00     0.037 A 
BRANCH  25  39
ATOM     39  C   UNL A   1      37.581  30.548  28.592  1.00  0.00     0.064 A 
ATOM     40  C   UNL A   1      37.655  31.919  28.861  1.00  0.00     0.173 A 
ATOM     41  C   UNL A   1      36.373  30.021  28.126  1.00  0.00     0.173 A 
ATOM     42  F   UNL A   1      38.799  32.450  29.326  1.00  0.00    -0.203 F 
ATOM     43  C   UNL A   1      36.544  32.738  28.699  1.00  0.00     0.198 A 
ATOM     44  C   UNL A   1      35.261  30.843  27.964  1.00  0.00     0.198 A 
ATOM     45  F   UNL A   1      36.262  28.710  27.869  1.00  0.00    -0.203 F 
ATOM     46  F   UNL A   1      36.628  34.042  28.993  1.00  0.00    -0.200 F 
ATOM     47  C   UNL A   1      35.344  32.198  28.260  1.00  0.00     0.200 A 
ATOM     48  F   UNL A   1      34.099  30.322  27.546  1.00  0.00    -0.200 F 
ATOM     49  F   UNL A   1      34.264  32.981  28.134  1.00  0.00    -0.200 F 
ENDBRANCH  25  39
BRANCH  26  50
ATOM     50  C   UNL A   1      46.538  30.997  29.038  1.00  0.00     0.064 A 
ATOM     51  C   UNL A   1      47.811  31.304  29.568  1.00  0.00     0.173 A 
ATOM     52  C   UNL A   1      46.192  31.668  27.854  1.00  0.00     0.173 A 
ATOM     53  F   UNL A   1      48.192  30.799  30.752  1.00  0.00    -0.203 F 
ATOM     54  C   UNL A   1      48.713  32.134  28.899  1.00  0.00     0.198 A 
ATOM     55  C   UNL A   1      47.103  32.479  27.172  1.00  0.00     0.198 A 
ATOM     56  F   UNL A   1      44.968  31.547  27.324  1.00  0.00    -0.203 F 
ATOM     57  F   UNL A   1      49.921  32.373  29.428  1.00  0.00    -0.200 F 
ATOM     58  C   UNL A   1      48.368  32.700  27.686  1.00  0.00     0.200 A 
ATOM     59  F   UNL A   1      46.752  33.033  26.003  1.00  0.00    -0.200 F 
ATOM     60  F   UNL A   1      49.244  33.464  27.020  1.00  0.00    -0.200 F 
ENDBRANCH  26  50
BRANCH  38  61
ATOM     61  C   UNL A   1      42.324  28.573  33.409  1.00  0.00     0.064 A 
ATOM     62  C   UNL A   1      42.938  27.352  33.099  1.00  0.00     0.173 A 
ATOM     63  C   UNL A   1      42.355  29.012  34.739  1.00  0.00     0.173 A 
ATOM     64  F   UNL A   1      42.941  26.897  31.835  1.00  0.00    -0.203 F 
ATOM     65  C   UNL A   1      43.581  26.607  34.083  1.00  0.00     0.198 A 
ATOM     66  C   UNL A   1      43.015  28.273  35.717  1.00  0.00     0.198 A 
ATOM     67  F   UNL A   1      41.776  30.170  35.093  1.00  0.00    -0.203 F 
ATOM     68  F   UNL A   1      44.177  25.450  33.763  1.00  0.00    -0.200 F 
ATOM     69  C   UNL A   1      43.629  27.073  35.388  1.00  0.00     0.200 A 
ATOM     70  F   UNL A   1      43.077  28.732  36.976  1.00  0.00    -0.200 F 
ATOM     71  F   UNL A   1      44.280  26.374  36.327  1.00  0.00    -0.200 F 
ENDBRANCH  38  61
ENDBRANCH  12  13
ENDBRANCH   5   7
ENDBRANCH   2   3
ENDBRANCH   1   2
BRANCH   1  72
ATOM     72  C   UNL A   1      37.836  23.628  25.712  1.00  0.00     0.023 C 
BRANCH  72  73
ATOM     73  C   UNL A   1      37.456  23.145  24.309  1.00  0.00     0.116 C 
BRANCH  73  74
ATOM     74  N   UNL A   1      36.054  23.406  24.077  1.00  0.00    -0.351 N 
ATOM     75  C   UNL A   1      35.031  22.505  24.125  1.00  0.00     0.278 C 
ATOM     76  H   UNL A   1      35.811  24.336  23.861  1.00  0.00     0.163 HD
ATOM     77  O   UNL A   1      34.140  22.647  23.287  1.00  0.00    -0.268 OA
BRANCH  75  78
ATOM     78  C   UNL A   1      35.024  21.435  25.238  1.00  0.00     0.275 C 
ATOM     79  C   UNL A   1      34.624  20.060  24.703  1.00  0.00     0.089 C 
ATOM     80  N   UNL A   1      34.018  21.703  26.258  1.00  0.00    -0.320 N 
ATOM     81  C   UNL A   1      33.133  19.865  25.076  1.00  0.00     0.036 C 
ATOM     82  C   UNL A   1      32.997  20.691  26.367  1.00  0.00     0.270 C 
ATOM     83  H   UNL A   1      34.250  22.429  26.936  1.00  0.00     0.349 HD
ATOM     84  C   UNL A   1      32.786  18.383  25.318  1.00  0.00     0.074 C 
ATOM     85  C   UNL A   1      32.166  20.385  23.984  1.00  0.00     0.074 C 
ATOM     86  C   UNL A   1      32.800  17.575  24.019  1.00  0.00     0.261 C 
ATOM     87  C   UNL A   1      32.201  19.526  22.720  1.00  0.00     0.261 C 
ATOM     88  N   UNL A   1      31.890  18.126  23.015  1.00  0.00    -0.346 N 
ATOM     89  H   UNL A   1      30.934  18.065  23.365  1.00  0.00     0.346 HD
ATOM     90  H   UNL A   1      31.997  17.586  22.156  1.00  0.00     0.346 HD
BRANCH  80  91
ATOM     91  C   UNL A   1      34.015  22.892  27.078  1.00  0.00     0.302 C 
BRANCH  91  92
ATOM     92  C   UNL A   1      33.136  23.974  26.516  1.00  0.00     0.038 A 
ATOM     93  C   UNL A   1      33.675  25.116  25.867  1.00  0.00     0.012 A 
ATOM     94  C   UNL A   1      31.737  24.053  26.712  1.00  0.00     0.144 A 
ATOM     95  C   UNL A   1      32.911  26.254  25.495  1.00  0.00     0.003 A 
ATOM     96  C   UNL A   1      30.956  25.225  26.337  1.00  0.00     0.135 A 
ATOM     97  N   UNL A   1      30.904  23.167  27.280  1.00  0.00    -0.049 NA
ATOM     98  C   UNL A   1      31.530  26.356  25.726  1.00  0.00     0.034 A 
ATOM     99  N   UNL A   1      29.683  25.015  26.693  1.00  0.00    -0.050 NA
ATOM    100  O   UNL A   1      29.653  23.755  27.260  1.00  0.00    -0.243 OA
ENDBRANCH  91  92
ENDBRANCH  80  91
ENDBRANCH  75  78
ENDBRANCH  73  74
ENDBRANCH  72  73
ENDBRANCH   1  72
TORSDOF 13
ENDMDL
MODEL 3
REMARK VINA RESULT:     -13.4      1.376      3.225
REMARK SMILES O=C(NCCCCNC(=O)[C@@H]1CC2(CC[NH2+]CC2)C[NH+]1Cc1cccc2nonc12)c1ccc(-c2c3nc(c(-c4c(F)c(F)c(F)c(F)c4F)c4ccc([nH]4)c(-c4c(F)c(F)c(F)c(F)c4F)c4nc(c(-c5c(F)c(F)c(F)c(F)c5F)c5ccc2[nH]5)C=C4)C=C3)cc1
REMARK SMILES IDX 5 1 4 2 3 3 1 4 2 5 31 7 32 8 93 9 33 10 92 11 34 12 35 13
REMARK SMILES IDX 36 14 86 15 37 16 91 17 85 18 87 19 38 20 90 21 84 22 83 23
REMARK SMILES IDX 39 25 71 26 51 27 70 28 52 29 55 30 69 31 88 32 53 33 54 34
REMARK SMILES IDX 68 36 89 37 56 38 40 39 41 40 49 41 42 42 43 43 47 44 50 45
REMARK SMILES IDX 44 46 45 47 48 48 46 49 72 50 73 51 81 52 74 53 75 54 79 55
REMARK SMILES IDX 82 56 76 57 77 58 80 59 78 60 57 61 58 62 66 63 59 64 60 65
REMARK SMILES IDX 64 66 67 67 61 68 62 69 65 70 63 71 6 72 7 73 8 74 9 75
REMARK SMILES IDX 10 77 11 78 12 79 20 80 13 81 19 82 14 84 18 85 15 86 17 87
REMARK SMILES IDX 16 88 21 91 22 92 23 93 30 94 24 95 26 96 29 97 25 98 27 99
REMARK SMILES IDX 28 100
REMARK H PARENT 3 6 87 24 55 35 8 76 20 83 16 89 16 90
REMARK Flexibility Score: inf
ROOT
ATOM      1  C   UNL A   1      32.757  30.923  27.226  1.00  0.00     0.023 C 
ENDROOT
BRANCH   1   2
ATOM      2  C   UNL A   1      34.191  31.148  27.717  1.00  0.00     0.116 C 
BRANCH   2   3
ATOM      3  N   UNL A   1      34.469  32.566  27.854  1.00  0.00    -0.352 N 
ATOM      4  O   UNL A   1      35.192  34.459  28.784  1.00  0.00    -0.269 OA
ATOM      5  C   UNL A   1      35.320  33.233  28.682  1.00  0.00     0.251 C 
ATOM      6  H   UNL A   1      33.956  33.142  27.244  1.00  0.00     0.163 HD
BRANCH   5   7
ATOM      7  C   UNL A   1      36.389  32.562  29.448  1.00  0.00     0.039 A 
ATOM      8  C   UNL A   1      37.530  32.162  28.742  1.00  0.00     0.014 A 
ATOM      9  C   UNL A   1      36.226  32.173  30.781  1.00  0.00     0.014 A 
ATOM     10  C   UNL A   1      38.498  31.371  29.357  1.00  0.00     0.010 A 
ATOM     11  C   UNL A   1      37.201  31.382  31.399  1.00  0.00     0.010 A 
ATOM     12  C   UNL A   1      38.333  30.963  30.686  1.00  0.00    -0.014 A 
BRANCH  12  13
ATOM     13  C   UNL A   1      39.349  30.084  31.292  1.00  0.00     0.031 A 
ATOM     14  C   UNL A   1      39.480  28.704  30.754  1.00  0.00     0.074 A 
ATOM     15  C   UNL A   1      40.405  30.569  31.975  1.00  0.00     0.049 A 
ATOM     16  N   UNL A   1      40.194  28.424  29.704  1.00  0.00    -0.248 NA
ATOM     17  C   UNL A   1      38.717  27.572  31.276  1.00  0.00     0.031 C 
ATOM     18  C   UNL A   1      40.882  31.954  31.925  1.00  0.00     0.029 A 
ATOM     19  N   UNL A   1      41.370  29.906  32.694  1.00  0.00    -0.354 N 
ATOM     20  C   UNL A   1      39.929  27.112  29.373  1.00  0.00     0.074 A 
ATOM     21  C   UNL A   1      39.033  26.611  30.394  1.00  0.00     0.031 C 
ATOM     22  C   UNL A   1      42.126  32.004  32.447  1.00  0.00     0.029 A 
ATOM     23  C   UNL A   1      42.470  30.696  32.998  1.00  0.00     0.049 A 
ATOM     24  H   UNL A   1      41.290  28.963  32.966  1.00  0.00     0.167 HD
ATOM     25  C   UNL A   1      40.441  26.518  28.266  1.00  0.00     0.037 A 
ATOM     26  C   UNL A   1      43.752  30.278  33.172  1.00  0.00     0.037 A 
ATOM     27  C   UNL A   1      41.291  27.333  27.453  1.00  0.00     0.049 A 
ATOM     28  C   UNL A   1      44.034  29.499  31.917  1.00  0.00     0.074 A 
ATOM     29  C   UNL A   1      41.114  28.234  26.424  1.00  0.00     0.029 A 
ATOM     30  N   UNL A   1      42.627  27.407  27.767  1.00  0.00    -0.354 N 
ATOM     31  N   UNL A   1      44.411  30.014  30.777  1.00  0.00    -0.248 NA
ATOM     32  C   UNL A   1      43.594  28.104  31.843  1.00  0.00     0.031 C 
ATOM     33  C   UNL A   1      42.241  29.110  26.483  1.00  0.00     0.029 A 
ATOM     34  C   UNL A   1      42.999  28.717  27.584  1.00  0.00     0.049 A 
ATOM     35  H   UNL A   1      43.205  26.667  28.064  1.00  0.00     0.167 HD
ATOM     36  C   UNL A   1      43.998  29.099  29.807  1.00  0.00     0.074 A 
ATOM     37  C   UNL A   1      43.539  27.931  30.528  1.00  0.00     0.031 C 
ATOM     38  C   UNL A   1      43.876  29.420  28.489  1.00  0.00     0.037 A 
BRANCH  25  39
ATOM     39  C   UNL A   1      40.219  25.110  27.908  1.00  0.00     0.064 A 
ATOM     40  C   UNL A   1      41.193  24.160  28.236  1.00  0.00     0.173 A 
ATOM     41  C   UNL A   1      39.155  24.723  27.089  1.00  0.00     0.173 A 
ATOM     42  F   UNL A   1      42.237  24.509  29.008  1.00  0.00    -0.203 F 
ATOM     43  C   UNL A   1      41.123  22.866  27.736  1.00  0.00     0.198 A 
ATOM     44  C   UNL A   1      39.086  23.426  26.589  1.00  0.00     0.198 A 
ATOM     45  F   UNL A   1      38.210  25.610  26.744  1.00  0.00    -0.203 F 
ATOM     46  F   UNL A   1      42.083  21.981  28.037  1.00  0.00    -0.200 F 
ATOM     47  C   UNL A   1      40.074  22.501  26.904  1.00  0.00     0.200 A 
ATOM     48  F   UNL A   1      38.077  23.074  25.780  1.00  0.00    -0.200 F 
ATOM     49  F   UNL A   1      40.023  21.263  26.396  1.00  0.00    -0.200 F 
ENDBRANCH  25  39
BRANCH  26  50
ATOM     50  C   UNL A   1      44.077  29.771  34.545  1.00  0.00     0.064 A 
ATOM     51  C   UNL A   1      45.136  30.361  35.269  1.00  0.00     0.173 A 
ATOM     52  C   UNL A   1      43.409  28.717  35.189  1.00  0.00     0.173 A 
ATOM     53  F   UNL A   1      45.905  31.301  34.698  1.00  0.00    -0.203 F 
ATOM     54  C   UNL A   1      45.428  29.997  36.585  1.00  0.00     0.198 A 
ATOM     55  C   UNL A   1      43.685  28.370  36.514  1.00  0.00     0.198 A 
ATOM     56  F   UNL A   1      42.467  28.005  34.556  1.00  0.00    -0.203 F 
ATOM     57  F   UNL A   1      46.425  30.607  37.242  1.00  0.00    -0.200 F 
ATOM     58  C   UNL A   1      44.683  29.019  37.217  1.00  0.00     0.200 A 
ATOM     59  F   UNL A   1      42.964  27.411  37.112  1.00  0.00    -0.200 F 
ATOM     60  F   UNL A   1      44.932  28.696  38.493  1.00  0.00    -0.200 F 
ENDBRANCH  26  50
BRANCH  38  61
ATOM     61  C   UNL A   1      44.467  30.725  28.089  1.00  0.00     0.064 A 
ATOM     62  C   UNL A   1      45.698  30.756  27.421  1.00  0.00     0.173 A 
ATOM     63  C   UNL A   1      43.810  31.940  28.325  1.00  0.00     0.173 A 
ATOM     64  F   UNL A   1      46.358  29.615  27.166  1.00  0.00    -0.203 F 
ATOM     65  C   UNL A   1      46.242  31.960  26.983  1.00  0.00     0.198 A 
ATOM     66  C   UNL A   1      44.348  33.141  27.869  1.00  0.00     0.198 A 
ATOM     67  F   UNL A   1      42.631  31.969  28.967  1.00  0.00    -0.203 F 
ATOM     68  F   UNL A   1      47.412  31.968  26.331  1.00  0.00    -0.200 F 
ATOM     69  C   UNL A   1      45.561  33.149  27.197  1.00  0.00     0.200 A 
ATOM     70  F   UNL A   1      43.681  34.289  28.060  1.00  0.00    -0.200 F 
ATOM     71  F   UNL A   1      46.067  34.304  26.742  1.00  0.00    -0.200 F 
ENDBRANCH  38  61
ENDBRANCH  12  13
ENDBRANCH   5   7
ENDBRANCH   2   3
ENDBRANCH   1   2
BRANCH   1  72
ATOM     72  C   UNL A   1      32.431  29.480  26.787  1.00  0.00     0.023 C 
BRANCH  72  73
ATOM     73  C   UNL A   1      33.651  28.568  26.622  1.00  0.00     0.116 C 
BRANCH  73  74
ATOM     74  N   UNL A   1      33.730  28.118  25.251  1.00  0.00    -0.351 N 
ATOM     75  C   UNL A   1      33.399  26.886  24.771  1.00  0.00     0.278 C 
ATOM     76  H   UNL A   1      34.058  28.773  24.593  1.00  0.00     0.163 HD
ATOM     77  O   UNL A   1      34.121  26.437  23.880  1.00  0.00    -0.268 OA
BRANCH  75  78
ATOM     78  C   UNL A   1      32.137  26.181  25.314  1.00  0.00     0.275 C 
ATOM     79  C   UNL A   1      32.470  25.215  26.452  1.00  0.00     0.089 C 
ATOM     80  N   UNL A   1      31.511  25.321  24.317  1.00  0.00    -0.320 N 
ATOM     81  C   UNL A   1      32.490  23.798  25.827  1.00  0.00     0.036 C 
ATOM     82  C   UNL A   1      31.484  23.923  24.671  1.00  0.00     0.270 C 
ATOM     83  H   UNL A   1      30.958  25.793  23.602  1.00  0.00     0.349 HD
ATOM     84  C   UNL A   1      32.057  22.716  26.835  1.00  0.00     0.074 C 
ATOM     85  C   UNL A   1      33.889  23.393  25.301  1.00  0.00     0.074 C 
ATOM     86  C   UNL A   1      33.108  22.497  27.925  1.00  0.00     0.261 C 
ATOM     87  C   UNL A   1      34.892  23.161  26.431  1.00  0.00     0.261 C 
ATOM     88  N   UNL A   1      34.415  22.143  27.370  1.00  0.00    -0.346 N 
ATOM     89  H   UNL A   1      34.337  21.251  26.881  1.00  0.00     0.346 HD
ATOM     90  H   UNL A   1      35.082  22.079  28.139  1.00  0.00     0.346 HD
BRANCH  80  91
ATOM     91  C   UNL A   1      30.984  25.810  23.064  1.00  0.00     0.302 C 
BRANCH  91  92
ATOM     92  C   UNL A   1      29.827  26.748  23.257  1.00  0.00     0.038 A 
ATOM     93  C   UNL A   1      28.640  26.348  23.927  1.00  0.00     0.012 A 
ATOM     94  C   UNL A   1      29.728  28.031  22.667  1.00  0.00     0.144 A 
ATOM     95  C   UNL A   1      27.450  27.121  23.965  1.00  0.00     0.003 A 
ATOM     96  C   UNL A   1      28.502  28.819  22.701  1.00  0.00     0.135 A 
ATOM     97  N   UNL A   1      30.643  28.722  21.969  1.00  0.00    -0.049 NA
ATOM     98  C   UNL A   1      27.333  28.376  23.345  1.00  0.00     0.034 A 
ATOM     99  N   UNL A   1      28.711  29.953  22.020  1.00  0.00    -0.050 NA
ATOM    100  O   UNL A   1      30.021  29.894  21.582  1.00  0.00    -0.243 OA
ENDBRANCH  91  92
ENDBRANCH  80  91
ENDBRANCH  75  78
ENDBRANCH  73  74
ENDBRANCH  72  73
ENDBRANCH   1  72
TORSDOF 13
ENDMDL
