MODEL 1
REMARK VINA RESULT:     -13.7      0.000      0.000
REMARK SMILES COc1cc(C(=O)NC2(C(=O)NCCCCNC(=O)c3ccc(-c4c5nc(c(-c6c(F)c(F)c(F)c(F)c6F)c6ccc([nH]6)c(-c6c(F)c(F)c(F)c(F)c6F)c6nc(c(-c7c(F)c(F)c(F)c(F)c7F)c7ccc4[nH]7)C=C6)C=C5)cc3)CCCCC2)cc2c1OCCO2
REMARK SMILES IDX 14 1 13 2 12 3 10 4 11 5 9 7 83 8 87 9 84 10 86 11 85 12
REMARK SMILES IDX 8 13 6 14 7 15 5 17 3 18 4 19 90 20 89 21 91 22 88 23 94 24
REMARK SMILES IDX 92 25 93 26 2 27 1 28 15 29 16 30 17 31 18 32 19 34 20 35
REMARK SMILES IDX 21 36 82 37 22 38 81 39 23 40 24 41 25 42 75 43 26 44 80 45
REMARK SMILES IDX 74 46 76 47 27 48 79 49 73 50 72 51 28 53 60 54 40 55 59 56
REMARK SMILES IDX 41 57 44 58 58 59 77 60 42 61 43 62 57 64 78 65 45 66 29 67
REMARK SMILES IDX 30 68 38 69 31 70 32 71 36 72 39 73 33 74 34 75 37 76 35 77
REMARK SMILES IDX 61 78 62 79 70 80 63 81 64 82 68 83 71 84 65 85 66 86 69 87
REMARK SMILES IDX 67 88 46 89 47 90 55 91 48 92 49 93 53 94 56 95 50 96 51 97
REMARK SMILES IDX 54 98 52 99
REMARK H PARENT 12 6 8 16 17 33 76 52 44 63
REMARK Flexibility Score: inf
ROOT
ATOM      1  C   UNL A   1      37.237  21.114  25.004  1.00  0.00     0.023 C 
ENDROOT
BRANCH   1   2
ATOM      2  C   UNL A   1      35.773  20.706  24.884  1.00  0.00     0.116 C 
BRANCH   2   3
ATOM      3  N   UNL A   1      35.062  20.827  26.126  1.00  0.00    -0.354 N 
ATOM      4  C   UNL A   1      34.027  21.615  26.506  1.00  0.00     0.245 C 
ATOM      5  O   UNL A   1      33.700  21.457  27.693  1.00  0.00    -0.272 OA
ATOM      6  H   UNL A   1      35.388  20.226  26.834  1.00  0.00     0.163 HD
BRANCH   4   7
ATOM      7  C   UNL A   1      33.351  22.748  25.628  1.00  0.00     0.119 C 
ATOM      8  C   UNL A   1      33.012  22.454  24.149  1.00  0.00     0.038 C 
ATOM      9  C   UNL A   1      34.200  24.036  25.759  1.00  0.00     0.038 C 
ATOM     10  C   UNL A   1      33.889  22.985  23.005  1.00  0.00     0.003 C 
ATOM     11  C   UNL A   1      35.310  24.184  24.731  1.00  0.00     0.003 C 
ATOM     12  C   UNL A   1      34.758  24.186  23.318  1.00  0.00     0.000 C 
BRANCH   7  13
ATOM     13  N   UNL A   1      32.101  23.018  26.451  1.00  0.00    -0.338 N 
ATOM     14  C   UNL A   1      31.122  23.969  26.565  1.00  0.00     0.252 C 
ATOM     15  O   UNL A   1      30.134  23.702  27.252  1.00  0.00    -0.269 OA
ATOM     16  H   UNL A   1      31.950  22.289  27.096  1.00  0.00     0.164 HD
BRANCH  14  17
ATOM     17  C   UNL A   1      31.228  25.336  26.018  1.00  0.00     0.047 A 
ATOM     18  C   UNL A   1      31.573  27.701  26.272  1.00  0.00     0.165 A 
ATOM     19  C   UNL A   1      31.774  26.397  26.730  1.00  0.00     0.064 A 
ATOM     20  C   UNL A   1      31.051  27.936  24.996  1.00  0.00     0.203 A 
ATOM     21  C   UNL A   1      30.695  26.843  24.200  1.00  0.00     0.166 A 
ATOM     22  O   UNL A   1      30.926  29.235  24.570  1.00  0.00    -0.483 OA
ATOM     23  C   UNL A   1      30.733  25.553  24.724  1.00  0.00     0.064 A 
ATOM     24  O   UNL A   1      30.264  26.969  22.903  1.00  0.00    -0.486 OA
ATOM     25  C   UNL A   1      30.190  29.338  23.345  1.00  0.00     0.271 C 
ATOM     26  C   UNL A   1      30.620  28.253  22.374  1.00  0.00     0.271 C 
BRANCH  18  27
ATOM     27  O   UNL A   1      31.864  28.706  27.161  1.00  0.00    -0.493 OA
ATOM     28  C   UNL A   1      33.278  28.929  27.228  1.00  0.00     0.278 C 
ENDBRANCH  18  27
ENDBRANCH  14  17
ENDBRANCH   7  13
ENDBRANCH   4   7
ENDBRANCH   2   3
ENDBRANCH   1   2
BRANCH   1  29
ATOM     29  C   UNL A   1      38.226  19.955  24.999  1.00  0.00     0.023 C 
BRANCH  29  30
ATOM     30  C   UNL A   1      39.502  20.186  25.800  1.00  0.00     0.116 C 
BRANCH  30  31
ATOM     31  N   UNL A   1      40.405  19.042  25.836  1.00  0.00    -0.352 N 
ATOM     32  C   UNL A   1      41.755  19.037  26.104  1.00  0.00     0.251 C 
ATOM     33  H   UNL A   1      39.999  18.165  25.644  1.00  0.00     0.163 HD
ATOM     34  O   UNL A   1      42.410  18.003  26.049  1.00  0.00    -0.269 OA
BRANCH  32  35
ATOM     35  C   UNL A   1      42.408  20.323  26.407  1.00  0.00     0.039 A 
ATOM     36  C   UNL A   1      43.048  21.015  25.377  1.00  0.00     0.014 A 
ATOM     37  C   UNL A   1      42.259  20.897  27.671  1.00  0.00     0.014 A 
ATOM     38  C   UNL A   1      43.454  22.332  25.590  1.00  0.00     0.010 A 
ATOM     39  C   UNL A   1      42.584  22.235  27.853  1.00  0.00     0.010 A 
ATOM     40  C   UNL A   1      43.173  22.969  26.810  1.00  0.00    -0.014 A 
BRANCH  40  41
ATOM     41  C   UNL A   1      43.476  24.406  27.022  1.00  0.00     0.031 A 
ATOM     42  C   UNL A   1      44.860  24.923  26.751  1.00  0.00     0.074 A 
ATOM     43  C   UNL A   1      42.537  25.219  27.543  1.00  0.00     0.049 A 
ATOM     44  N   UNL A   1      45.357  26.113  26.970  1.00  0.00    -0.248 NA
ATOM     45  C   UNL A   1      45.825  23.962  26.195  1.00  0.00     0.031 C 
ATOM     46  C   UNL A   1      41.177  24.821  27.912  1.00  0.00     0.029 A 
ATOM     47  N   UNL A   1      42.589  26.553  27.867  1.00  0.00    -0.354 N 
ATOM     48  C   UNL A   1      46.694  26.034  26.607  1.00  0.00     0.074 A 
ATOM     49  C   UNL A   1      46.945  24.668  26.206  1.00  0.00     0.031 C 
ATOM     50  C   UNL A   1      40.517  25.891  28.385  1.00  0.00     0.029 A 
ATOM     51  C   UNL A   1      41.416  27.041  28.387  1.00  0.00     0.049 A 
ATOM     52  H   UNL A   1      43.393  27.107  27.739  1.00  0.00     0.167 HD
ATOM     53  C   UNL A   1      47.622  27.020  26.582  1.00  0.00     0.037 A 
ATOM     54  C   UNL A   1      41.102  28.279  28.817  1.00  0.00     0.037 A 
ATOM     55  C   UNL A   1      47.356  28.387  26.936  1.00  0.00     0.049 A 
ATOM     56  C   UNL A   1      42.142  29.363  28.747  1.00  0.00     0.074 A 
ATOM     57  C   UNL A   1      48.207  29.476  26.873  1.00  0.00     0.029 A 
ATOM     58  N   UNL A   1      46.140  28.855  27.414  1.00  0.00    -0.354 N 
ATOM     59  N   UNL A   1      43.384  29.294  28.333  1.00  0.00    -0.248 NA
ATOM     60  C   UNL A   1      41.735  30.702  29.198  1.00  0.00     0.031 C 
ATOM     61  C   UNL A   1      47.516  30.598  27.344  1.00  0.00     0.029 A 
ATOM     62  C   UNL A   1      46.223  30.214  27.662  1.00  0.00     0.049 A 
ATOM     63  H   UNL A   1      45.339  28.302  27.556  1.00  0.00     0.167 HD
ATOM     64  C   UNL A   1      43.897  30.578  28.447  1.00  0.00     0.074 A 
ATOM     65  C   UNL A   1      42.828  31.411  28.958  1.00  0.00     0.031 C 
ATOM     66  C   UNL A   1      45.142  31.028  28.157  1.00  0.00     0.037 A 
BRANCH  53  67
ATOM     67  C   UNL A   1      49.006  26.650  26.141  1.00  0.00     0.064 A 
ATOM     68  C   UNL A   1      49.430  26.837  24.817  1.00  0.00     0.173 A 
ATOM     69  C   UNL A   1      49.929  26.121  27.057  1.00  0.00     0.173 A 
ATOM     70  F   UNL A   1      48.581  27.326  23.900  1.00  0.00    -0.203 F 
ATOM     71  C   UNL A   1      50.714  26.477  24.417  1.00  0.00     0.198 A 
ATOM     72  C   UNL A   1      51.222  25.790  26.660  1.00  0.00     0.198 A 
ATOM     73  F   UNL A   1      49.576  25.925  28.337  1.00  0.00    -0.203 F 
ATOM     74  F   UNL A   1      51.076  26.614  23.134  1.00  0.00    -0.200 F 
ATOM     75  C   UNL A   1      51.610  25.961  25.340  1.00  0.00     0.200 A 
ATOM     76  F   UNL A   1      52.090  25.300  27.555  1.00  0.00    -0.200 F 
ATOM     77  F   UNL A   1      52.847  25.617  24.955  1.00  0.00    -0.200 F 
ENDBRANCH  53  67
BRANCH  54  78
ATOM     78  C   UNL A   1      39.733  28.569  29.315  1.00  0.00     0.064 A 
ATOM     79  C   UNL A   1      39.394  28.335  30.656  1.00  0.00     0.173 A 
ATOM     80  C   UNL A   1      38.738  29.080  28.469  1.00  0.00     0.173 A 
ATOM     81  F   UNL A   1      40.308  27.829  31.497  1.00  0.00    -0.203 F 
ATOM     82  C   UNL A   1      38.106  28.579  31.126  1.00  0.00     0.198 A 
ATOM     83  C   UNL A   1      37.457  29.347  28.947  1.00  0.00     0.198 A 
ATOM     84  F   UNL A   1      39.014  29.326  27.181  1.00  0.00    -0.203 F 
ATOM     85  F   UNL A   1      37.798  28.306  32.401  1.00  0.00    -0.200 F 
ATOM     86  C   UNL A   1      37.140  29.090  30.273  1.00  0.00     0.200 A 
ATOM     87  F   UNL A   1      36.528  29.852  28.123  1.00  0.00    -0.200 F 
ATOM     88  F   UNL A   1      35.901  29.328  30.726  1.00  0.00    -0.200 F 
ENDBRANCH  54  78
BRANCH  66  89
ATOM     89  C   UNL A   1      45.407  32.491  28.350  1.00  0.00     0.064 A 
ATOM     90  C   UNL A   1      45.956  32.987  29.540  1.00  0.00     0.173 A 
ATOM     91  C   UNL A   1      45.152  33.400  27.312  1.00  0.00     0.173 A 
ATOM     92  F   UNL A   1      46.202  32.158  30.567  1.00  0.00    -0.203 F 
ATOM     93  C   UNL A   1      46.223  34.344  29.692  1.00  0.00     0.198 A 
ATOM     94  C   UNL A   1      45.444  34.753  27.457  1.00  0.00     0.198 A 
ATOM     95  F   UNL A   1      44.632  32.972  26.152  1.00  0.00    -0.203 F 
ATOM     96  F   UNL A   1      46.712  34.804  30.853  1.00  0.00    -0.200 F 
ATOM     97  C   UNL A   1      45.975  35.224  28.649  1.00  0.00     0.200 A 
ATOM     98  F   UNL A   1      45.215  35.599  26.444  1.00  0.00    -0.200 F 
ATOM     99  F   UNL A   1      46.240  36.530  28.794  1.00  0.00    -0.200 F 
ENDBRANCH  66  89
ENDBRANCH  40  41
ENDBRANCH  32  35
ENDBRANCH  30  31
ENDBRANCH  29  30
ENDBRANCH   1  29
TORSDOF 14
ENDMDL
MODEL 2
REMARK VINA RESULT:     -13.6      0.501      7.213
REMARK SMILES COc1cc(C(=O)NC2(C(=O)NCCCCNC(=O)c3ccc(-c4c5nc(c(-c6c(F)c(F)c(F)c(F)c6F)c6ccc([nH]6)c(-c6c(F)c(F)c(F)c(F)c6F)c6nc(c(-c7c(F)c(F)c(F)c(F)c7F)c7ccc4[nH]7)C=C6)C=C5)cc3)CCCCC2)cc2c1OCCO2
REMARK SMILES IDX 14 1 13 2 12 3 10 4 11 5 9 7 83 8 87 9 84 10 86 11 85 12
REMARK SMILES IDX 8 13 6 14 7 15 5 17 3 18 4 19 90 20 89 21 91 22 88 23 94 24
REMARK SMILES IDX 92 25 93 26 2 27 1 28 15 29 16 30 17 31 18 32 19 34 20 35
REMARK SMILES IDX 21 36 82 37 22 38 81 39 23 40 24 41 25 42 75 43 26 44 80 45
REMARK SMILES IDX 74 46 76 47 27 48 79 49 73 50 72 51 28 53 60 54 40 55 59 56
REMARK SMILES IDX 41 57 44 58 58 59 77 60 42 61 43 62 57 64 78 65 45 66 29 67
REMARK SMILES IDX 30 68 38 69 31 70 32 71 36 72 39 73 33 74 34 75 37 76 35 77
REMARK SMILES IDX 61 78 62 79 70 80 63 81 64 82 68 83 71 84 65 85 66 86 69 87
REMARK SMILES IDX 67 88 46 89 47 90 55 91 48 92 49 93 53 94 56 95 50 96 51 97
REMARK SMILES IDX 54 98 52 99
REMARK H PARENT 12 6 8 16 17 33 76 52 44 63
REMARK Flexibility Score: inf
ROOT
ATOM      1  C   UNL A   1      36.971  20.036  25.015  1.00  0.00     0.023 C 
ENDROOT
BRANCH   1   2
ATOM      2  C   UNL A   1      35.595  20.670  24.839  1.00  0.00     0.116 C 
BRANCH   2   3
ATOM      3  N   UNL A   1      34.874  20.777  26.076  1.00  0.00    -0.354 N 
ATOM      4  C   UNL A   1      33.875  21.601  26.477  1.00  0.00     0.245 C 
ATOM      5  O   UNL A   1      33.524  21.412  27.651  1.00  0.00    -0.272 OA
ATOM      6  H   UNL A   1      35.160  20.132  26.763  1.00  0.00     0.163 HD
BRANCH   4   7
ATOM      7  C   UNL A   1      33.269  22.801  25.637  1.00  0.00     0.119 C 
ATOM      8  C   UNL A   1      32.937  22.584  24.143  1.00  0.00     0.038 C 
ATOM      9  C   UNL A   1      34.178  24.038  25.831  1.00  0.00     0.038 C 
ATOM     10  C   UNL A   1      33.855  23.116  23.033  1.00  0.00     0.003 C 
ATOM     11  C   UNL A   1      35.309  24.172  24.825  1.00  0.00     0.003 C 
ATOM     12  C   UNL A   1      34.779  24.258  23.406  1.00  0.00     0.000 C 
BRANCH   7  13
ATOM     13  N   UNL A   1      32.022  23.099  26.455  1.00  0.00    -0.338 N 
ATOM     14  C   UNL A   1      31.053  24.063  26.551  1.00  0.00     0.252 C 
ATOM     15  O   UNL A   1      30.062  23.819  27.242  1.00  0.00    -0.269 OA
ATOM     16  H   UNL A   1      31.863  22.384  27.113  1.00  0.00     0.164 HD
BRANCH  14  17
ATOM     17  C   UNL A   1      31.174  25.418  25.979  1.00  0.00     0.047 A 
ATOM     18  C   UNL A   1      31.693  27.758  26.160  1.00  0.00     0.165 A 
ATOM     19  C   UNL A   1      31.869  26.446  26.605  1.00  0.00     0.064 A 
ATOM     20  C   UNL A   1      31.031  28.020  24.956  1.00  0.00     0.203 A 
ATOM     21  C   UNL A   1      30.511  26.949  24.224  1.00  0.00     0.166 A 
ATOM     22  O   UNL A   1      30.934  29.323  24.533  1.00  0.00    -0.483 OA
ATOM     23  C   UNL A   1      30.535  25.661  24.754  1.00  0.00     0.064 A 
ATOM     24  O   UNL A   1      29.929  27.096  22.989  1.00  0.00    -0.486 OA
ATOM     25  C   UNL A   1      30.058  29.467  23.409  1.00  0.00     0.271 C 
ATOM     26  C   UNL A   1      30.295  28.353  22.405  1.00  0.00     0.271 C 
BRANCH  18  27
ATOM     27  O   UNL A   1      32.155  28.747  26.994  1.00  0.00    -0.493 OA
ATOM     28  C   UNL A   1      33.556  28.584  27.244  1.00  0.00     0.278 C 
ENDBRANCH  18  27
ENDBRANCH  14  17
ENDBRANCH   7  13
ENDBRANCH   4   7
ENDBRANCH   2   3
ENDBRANCH   1   2
BRANCH   1  29
ATOM     29  C   UNL A   1      38.135  21.020  25.001  1.00  0.00     0.023 C 
BRANCH  29  30
ATOM     30  C   UNL A   1      39.157  20.833  26.115  1.00  0.00     0.116 C 
BRANCH  30  31
ATOM     31  N   UNL A   1      39.937  19.606  26.016  1.00  0.00    -0.352 N 
ATOM     32  C   UNL A   1      41.301  19.458  26.126  1.00  0.00     0.251 C 
ATOM     33  H   UNL A   1      39.425  18.781  25.851  1.00  0.00     0.163 HD
ATOM     34  O   UNL A   1      41.837  18.367  25.969  1.00  0.00    -0.269 OA
BRANCH  32  35
ATOM     35  C   UNL A   1      42.112  20.662  26.383  1.00  0.00     0.039 A 
ATOM     36  C   UNL A   1      42.512  21.451  25.304  1.00  0.00     0.014 A 
ATOM     37  C   UNL A   1      42.348  21.072  27.698  1.00  0.00     0.014 A 
ATOM     38  C   UNL A   1      43.063  22.709  25.547  1.00  0.00     0.010 A 
ATOM     39  C   UNL A   1      42.815  22.358  27.934  1.00  0.00     0.010 A 
ATOM     40  C   UNL A   1      43.166  23.193  26.861  1.00  0.00    -0.014 A 
BRANCH  40  41
ATOM     41  C   UNL A   1      43.629  24.575  27.144  1.00  0.00     0.031 A 
ATOM     42  C   UNL A   1      42.657  25.593  27.666  1.00  0.00     0.074 A 
ATOM     43  C   UNL A   1      44.893  24.933  26.845  1.00  0.00     0.049 A 
ATOM     44  N   UNL A   1      42.832  26.873  27.877  1.00  0.00    -0.248 NA
ATOM     45  C   UNL A   1      41.295  25.118  27.953  1.00  0.00     0.031 C 
ATOM     46  C   UNL A   1      45.913  24.052  26.270  1.00  0.00     0.029 A 
ATOM     47  N   UNL A   1      45.533  26.141  26.970  1.00  0.00    -0.354 N 
ATOM     48  C   UNL A   1      41.599  27.356  28.292  1.00  0.00     0.074 A 
ATOM     49  C   UNL A   1      40.672  26.248  28.251  1.00  0.00     0.031 C 
ATOM     50  C   UNL A   1      47.055  24.741  26.118  1.00  0.00     0.029 A 
ATOM     51  C   UNL A   1      46.841  26.119  26.550  1.00  0.00     0.049 A 
ATOM     52  H   UNL A   1      45.096  26.947  27.327  1.00  0.00     0.167 HD
ATOM     53  C   UNL A   1      41.276  28.607  28.698  1.00  0.00     0.037 A 
ATOM     54  C   UNL A   1      47.762  27.102  26.519  1.00  0.00     0.037 A 
ATOM     55  C   UNL A   1      42.211  29.694  28.784  1.00  0.00     0.049 A 
ATOM     56  C   UNL A   1      47.385  28.474  27.008  1.00  0.00     0.074 A 
ATOM     57  C   UNL A   1      42.001  30.979  29.253  1.00  0.00     0.029 A 
ATOM     58  N   UNL A   1      43.541  29.622  28.393  1.00  0.00    -0.354 N 
ATOM     59  N   UNL A   1      46.235  28.902  27.467  1.00  0.00    -0.248 NA
ATOM     60  C   UNL A   1      48.439  29.499  26.981  1.00  0.00     0.031 C 
ATOM     61  C   UNL A   1      43.196  31.693  29.118  1.00  0.00     0.029 A 
ATOM     62  C   UNL A   1      44.160  30.842  28.601  1.00  0.00     0.049 A 
ATOM     63  H   UNL A   1      43.978  28.821  28.024  1.00  0.00     0.167 HD
ATOM     64  C   UNL A   1      46.431  30.233  27.808  1.00  0.00     0.074 A 
ATOM     65  C   UNL A   1      47.816  30.539  27.515  1.00  0.00     0.031 C 
ATOM     66  C   UNL A   1      45.544  31.122  28.316  1.00  0.00     0.037 A 
BRANCH  53  67
ATOM     67  C   UNL A   1      39.851  28.854  29.096  1.00  0.00     0.064 A 
ATOM     68  C   UNL A   1      39.419  28.684  30.420  1.00  0.00     0.173 A 
ATOM     69  C   UNL A   1      38.910  29.284  28.149  1.00  0.00     0.173 A 
ATOM     70  F   UNL A   1      40.277  28.260  31.361  1.00  0.00    -0.203 F 
ATOM     71  C   UNL A   1      38.091  28.904  30.775  1.00  0.00     0.198 A 
ATOM     72  C   UNL A   1      37.590  29.532  28.513  1.00  0.00     0.198 A 
ATOM     73  F   UNL A   1      39.272  29.465  26.869  1.00  0.00    -0.203 F 
ATOM     74  F   UNL A   1      37.690  28.682  32.035  1.00  0.00    -0.200 F 
ATOM     75  C   UNL A   1      37.179  29.334  29.823  1.00  0.00     0.200 A 
ATOM     76  F   UNL A   1      36.711  29.956  27.594  1.00  0.00    -0.200 F 
ATOM     77  F   UNL A   1      35.901  29.548  30.165  1.00  0.00    -0.200 F 
ENDBRANCH  53  67
BRANCH  54  78
ATOM     78  C   UNL A   1      49.139  26.816  26.042  1.00  0.00     0.064 A 
ATOM     79  C   UNL A   1      50.114  26.325  26.924  1.00  0.00     0.173 A 
ATOM     80  C   UNL A   1      49.514  27.030  24.708  1.00  0.00     0.173 A 
ATOM     81  F   UNL A   1      49.807  26.124  28.214  1.00  0.00    -0.203 F 
ATOM     82  C   UNL A   1      51.416  26.079  26.494  1.00  0.00     0.198 A 
ATOM     83  C   UNL A   1      50.810  26.760  24.274  1.00  0.00     0.198 A 
ATOM     84  F   UNL A   1      48.617  27.493  23.826  1.00  0.00    -0.203 F 
ATOM     85  F   UNL A   1      52.337  25.651  27.366  1.00  0.00    -0.200 F 
ATOM     86  C   UNL A   1      51.761  26.292  25.168  1.00  0.00     0.200 A 
ATOM     87  F   UNL A   1      51.137  26.955  22.988  1.00  0.00    -0.200 F 
ATOM     88  F   UNL A   1      53.013  26.053  24.753  1.00  0.00    -0.200 F 
ENDBRANCH  54  78
BRANCH  66  89
ATOM     89  C   UNL A   1      46.050  32.500  28.623  1.00  0.00     0.064 A 
ATOM     90  C   UNL A   1      45.988  33.532  27.676  1.00  0.00     0.173 A 
ATOM     91  C   UNL A   1      46.560  32.800  29.895  1.00  0.00     0.173 A 
ATOM     92  F   UNL A   1      45.524  33.288  26.441  1.00  0.00    -0.203 F 
ATOM     93  C   UNL A   1      46.436  34.812  27.987  1.00  0.00     0.198 A 
ATOM     94  C   UNL A   1      46.983  34.088  30.210  1.00  0.00     0.198 A 
ATOM     95  F   UNL A   1      46.634  31.847  30.836  1.00  0.00    -0.203 F 
ATOM     96  F   UNL A   1      46.404  35.776  27.055  1.00  0.00    -0.200 F 
ATOM     97  C   UNL A   1      46.925  35.092  29.255  1.00  0.00     0.200 A 
ATOM     98  F   UNL A   1      47.444  34.359  31.440  1.00  0.00    -0.200 F 
ATOM     99  F   UNL A   1      47.348  36.327  29.554  1.00  0.00    -0.200 F 
ENDBRANCH  66  89
ENDBRANCH  40  41
ENDBRANCH  32  35
ENDBRANCH  30  31
ENDBRANCH  29  30
ENDBRANCH   1  29
TORSDOF 14
ENDMDL
MODEL 3
REMARK VINA RESULT:     -13.6      0.085      1.552
REMARK SMILES COc1cc(C(=O)NC2(C(=O)NCCCCNC(=O)c3ccc(-c4c5nc(c(-c6c(F)c(F)c(F)c(F)c6F)c6ccc([nH]6)c(-c6c(F)c(F)c(F)c(F)c6F)c6nc(c(-c7c(F)c(F)c(F)c(F)c7F)c7ccc4[nH]7)C=C6)C=C5)cc3)CCCCC2)cc2c1OCCO2
REMARK SMILES IDX 14 1 13 2 12 3 10 4 11 5 9 7 83 8 87 9 84 10 86 11 85 12
REMARK SMILES IDX 8 13 6 14 7 15 5 17 3 18 4 19 90 20 89 21 91 22 88 23 94 24
REMARK SMILES IDX 92 25 93 26 2 27 1 28 15 29 16 30 17 31 18 32 19 34 20 35
REMARK SMILES IDX 21 36 82 37 22 38 81 39 23 40 24 41 25 42 75 43 26 44 80 45
REMARK SMILES IDX 74 46 76 47 27 48 79 49 73 50 72 51 28 53 60 54 40 55 59 56
REMARK SMILES IDX 41 57 44 58 58 59 77 60 42 61 43 62 57 64 78 65 45 66 29 67
REMARK SMILES IDX 30 68 38 69 31 70 32 71 36 72 39 73 33 74 34 75 37 76 35 77
REMARK SMILES IDX 61 78 62 79 70 80 63 81 64 82 68 83 71 84 65 85 66 86 69 87
REMARK SMILES IDX 67 88 46 89 47 90 55 91 48 92 49 93 53 94 56 95 50 96 51 97
REMARK SMILES IDX 54 98 52 99
REMARK H PARENT 12 6 8 16 17 33 76 52 44 63
REMARK Flexibility Score: inf
ROOT
ATOM      1  C   UNL A   1      37.220  21.114  25.024  1.00  0.00     0.023 C 
ENDROOT
BRANCH   1   2
ATOM      2  C   UNL A   1      35.748  20.749  24.861  1.00  0.00     0.116 C 
BRANCH   2   3
ATOM      3  N   UNL A   1      35.016  20.845  26.093  1.00  0.00    -0.354 N 
ATOM      4  C   UNL A   1      33.965  21.615  26.467  1.00  0.00     0.245 C 
ATOM      5  O   UNL A   1      33.621  21.437  27.646  1.00  0.00    -0.272 OA
ATOM      6  H   UNL A   1      35.338  20.239  26.799  1.00  0.00     0.163 HD
BRANCH   4   7
ATOM      7  C   UNL A   1      33.288  22.750  25.592  1.00  0.00     0.119 C 
ATOM      8  C   UNL A   1      32.934  22.455  24.116  1.00  0.00     0.038 C 
ATOM      9  C   UNL A   1      34.145  24.033  25.713  1.00  0.00     0.038 C 
ATOM     10  C   UNL A   1      33.804  22.978  22.964  1.00  0.00     0.003 C 
ATOM     11  C   UNL A   1      35.247  24.173  24.676  1.00  0.00     0.003 C 
ATOM     12  C   UNL A   1      34.683  24.175  23.268  1.00  0.00     0.000 C 
BRANCH   7  13
ATOM     13  N   UNL A   1      32.046  23.028  26.425  1.00  0.00    -0.338 N 
ATOM     14  C   UNL A   1      31.079  23.990  26.553  1.00  0.00     0.252 C 
ATOM     15  O   UNL A   1      30.093  23.729  27.244  1.00  0.00    -0.269 OA
ATOM     16  H   UNL A   1      31.891  22.297  27.067  1.00  0.00     0.164 HD
BRANCH  14  17
ATOM     17  C   UNL A   1      31.197  25.359  26.014  1.00  0.00     0.047 A 
ATOM     18  C   UNL A   1      31.539  27.722  26.286  1.00  0.00     0.165 A 
ATOM     19  C   UNL A   1      31.729  26.416  26.742  1.00  0.00     0.064 A 
ATOM     20  C   UNL A   1      31.043  27.964  25.001  1.00  0.00     0.203 A 
ATOM     21  C   UNL A   1      30.702  26.875  24.192  1.00  0.00     0.166 A 
ATOM     22  O   UNL A   1      30.928  29.265  24.578  1.00  0.00    -0.483 OA
ATOM     23  C   UNL A   1      30.729  25.583  24.711  1.00  0.00     0.064 A 
ATOM     24  O   UNL A   1      30.297  27.007  22.888  1.00  0.00    -0.486 OA
ATOM     25  C   UNL A   1      30.217  29.374  23.339  1.00  0.00     0.271 C 
ATOM     26  C   UNL A   1      30.665  28.293  22.372  1.00  0.00     0.271 C 
BRANCH  18  27
ATOM     27  O   UNL A   1      31.813  28.723  27.185  1.00  0.00    -0.493 OA
ATOM     28  C   UNL A   1      33.201  29.076  27.142  1.00  0.00     0.278 C 
ENDBRANCH  18  27
ENDBRANCH  14  17
ENDBRANCH   7  13
ENDBRANCH   4   7
ENDBRANCH   2   3
ENDBRANCH   1   2
BRANCH   1  29
ATOM     29  C   UNL A   1      38.165  19.924  25.131  1.00  0.00     0.023 C 
BRANCH  29  30
ATOM     30  C   UNL A   1      39.523  20.226  25.752  1.00  0.00     0.116 C 
BRANCH  30  31
ATOM     31  N   UNL A   1      40.416  19.077  25.834  1.00  0.00    -0.352 N 
ATOM     32  C   UNL A   1      41.763  19.070  26.121  1.00  0.00     0.251 C 
ATOM     33  H   UNL A   1      40.006  18.198  25.662  1.00  0.00     0.163 HD
ATOM     34  O   UNL A   1      42.410  18.029  26.105  1.00  0.00    -0.269 OA
BRANCH  32  35
ATOM     35  C   UNL A   1      42.422  20.359  26.395  1.00  0.00     0.039 A 
ATOM     36  C   UNL A   1      42.960  21.082  25.329  1.00  0.00     0.014 A 
ATOM     37  C   UNL A   1      42.375  20.903  27.680  1.00  0.00     0.014 A 
ATOM     38  C   UNL A   1      43.364  22.401  25.537  1.00  0.00     0.010 A 
ATOM     39  C   UNL A   1      42.696  22.242  27.863  1.00  0.00     0.010 A 
ATOM     40  C   UNL A   1      43.182  23.007  26.791  1.00  0.00    -0.014 A 
BRANCH  40  41
ATOM     41  C   UNL A   1      43.483  24.444  27.008  1.00  0.00     0.031 A 
ATOM     42  C   UNL A   1      44.865  24.965  26.736  1.00  0.00     0.074 A 
ATOM     43  C   UNL A   1      42.543  25.253  27.533  1.00  0.00     0.049 A 
ATOM     44  N   UNL A   1      45.360  26.155  26.960  1.00  0.00    -0.248 NA
ATOM     45  C   UNL A   1      45.831  24.008  26.175  1.00  0.00     0.031 C 
ATOM     46  C   UNL A   1      41.184  24.851  27.903  1.00  0.00     0.029 A 
ATOM     47  N   UNL A   1      42.593  26.586  27.863  1.00  0.00    -0.354 N 
ATOM     48  C   UNL A   1      46.696  26.080  26.594  1.00  0.00     0.074 A 
ATOM     49  C   UNL A   1      46.950  24.717  26.187  1.00  0.00     0.031 C 
ATOM     50  C   UNL A   1      40.523  25.917  28.382  1.00  0.00     0.029 A 
ATOM     51  C   UNL A   1      41.419  27.069  28.387  1.00  0.00     0.049 A 
ATOM     52  H   UNL A   1      43.395  27.141  27.736  1.00  0.00     0.167 HD
ATOM     53  C   UNL A   1      47.622  27.068  26.572  1.00  0.00     0.037 A 
ATOM     54  C   UNL A   1      41.104  28.304  28.822  1.00  0.00     0.037 A 
ATOM     55  C   UNL A   1      47.354  28.433  26.931  1.00  0.00     0.049 A 
ATOM     56  C   UNL A   1      42.142  29.392  28.755  1.00  0.00     0.074 A 
ATOM     57  C   UNL A   1      48.203  29.525  26.872  1.00  0.00     0.029 A 
ATOM     58  N   UNL A   1      46.138  28.896  27.414  1.00  0.00    -0.354 N 
ATOM     59  N   UNL A   1      43.382  29.327  28.338  1.00  0.00    -0.248 NA
ATOM     60  C   UNL A   1      41.732  30.727  29.213  1.00  0.00     0.031 C 
ATOM     61  C   UNL A   1      47.510  30.642  27.348  1.00  0.00     0.029 A 
ATOM     62  C   UNL A   1      46.219  30.255  27.667  1.00  0.00     0.049 A 
ATOM     63  H   UNL A   1      45.338  28.341  27.555  1.00  0.00     0.167 HD
ATOM     64  C   UNL A   1      43.894  30.611  28.458  1.00  0.00     0.074 A 
ATOM     65  C   UNL A   1      42.824  31.440  28.973  1.00  0.00     0.031 C 
ATOM     66  C   UNL A   1      45.137  31.065  28.168  1.00  0.00     0.037 A 
BRANCH  53  67
ATOM     67  C   UNL A   1      49.007  26.703  26.127  1.00  0.00     0.064 A 
ATOM     68  C   UNL A   1      49.945  26.162  27.018  1.00  0.00     0.173 A 
ATOM     69  C   UNL A   1      49.396  26.876  24.790  1.00  0.00     0.173 A 
ATOM     70  F   UNL A   1      49.628  25.991  28.311  1.00  0.00    -0.203 F 
ATOM     71  C   UNL A   1      51.232  25.839  26.597  1.00  0.00     0.198 A 
ATOM     72  C   UNL A   1      50.674  26.525  24.365  1.00  0.00     0.198 A 
ATOM     73  F   UNL A   1      48.536  27.387  23.896  1.00  0.00    -0.203 F 
ATOM     74  F   UNL A   1      52.128  25.376  27.480  1.00  0.00    -0.200 F 
ATOM     75  C   UNL A   1      51.593  26.015  25.270  1.00  0.00     0.200 A 
ATOM     76  F   UNL A   1      51.019  26.685  23.080  1.00  0.00    -0.200 F 
ATOM     77  F   UNL A   1      52.831  25.701  24.864  1.00  0.00    -0.200 F 
ENDBRANCH  53  67
BRANCH  54  78
ATOM     78  C   UNL A   1      39.735  28.590  29.323  1.00  0.00     0.064 A 
ATOM     79  C   UNL A   1      39.404  28.367  30.668  1.00  0.00     0.173 A 
ATOM     80  C   UNL A   1      38.732  29.085  28.478  1.00  0.00     0.173 A 
ATOM     81  F   UNL A   1      40.325  27.876  31.510  1.00  0.00    -0.203 F 
ATOM     82  C   UNL A   1      38.117  28.607  31.143  1.00  0.00     0.198 A 
ATOM     83  C   UNL A   1      37.452  29.348  28.959  1.00  0.00     0.198 A 
ATOM     84  F   UNL A   1      39.000  29.320  27.186  1.00  0.00    -0.203 F 
ATOM     85  F   UNL A   1      37.817  28.344  32.421  1.00  0.00    -0.200 F 
ATOM     86  C   UNL A   1      37.142  29.101  30.288  1.00  0.00     0.200 A 
ATOM     87  F   UNL A   1      36.516  29.838  28.134  1.00  0.00    -0.200 F 
ATOM     88  F   UNL A   1      35.904  29.335  30.745  1.00  0.00    -0.200 F 
ENDBRANCH  54  78
BRANCH  66  89
ATOM     89  C   UNL A   1      45.399  32.527  28.365  1.00  0.00     0.064 A 
ATOM     90  C   UNL A   1      45.107  33.467  27.367  1.00  0.00     0.173 A 
ATOM     91  C   UNL A   1      45.905  32.998  29.587  1.00  0.00     0.173 A 
ATOM     92  F   UNL A   1      44.637  33.063  26.177  1.00  0.00    -0.203 F 
ATOM     93  C   UNL A   1      45.330  34.824  27.578  1.00  0.00     0.198 A 
ATOM     94  C   UNL A   1      46.102  34.358  29.804  1.00  0.00     0.198 A 
ATOM     95  F   UNL A   1      46.195  32.138  30.575  1.00  0.00    -0.203 F 
ATOM     96  F   UNL A   1      45.080  35.703  26.596  1.00  0.00    -0.200 F 
ATOM     97  C   UNL A   1      45.819  35.270  28.797  1.00  0.00     0.200 A 
ATOM     98  F   UNL A   1      46.563  34.787  30.986  1.00  0.00    -0.200 F 
ATOM     99  F   UNL A   1      46.025  36.578  29.001  1.00  0.00    -0.200 F 
ENDBRANCH  66  89
ENDBRANCH  40  41
ENDBRANCH  32  35
ENDBRANCH  30  31
ENDBRANCH  29  30
ENDBRANCH   1  29
TORSDOF 14
ENDMDL
