MODEL 1
REMARK VINA RESULT:     -12.9      0.000      0.000
REMARK SMILES O=C(NCCCCNC(=O)[C@H]1C=C[C@@H](NC(=O)c2ccc(Cl)cn2)C1)c1ccc(-c2c3nc(c(-c4c(F)c(F)c(F)c(F)c4F)c4ccc([nH]4)c(-c4c(F)c(F)c(F)c(F)c4F)c4nc(c(-c5c(F)c(F)c(F)c(F)c5F)c5ccc2[nH]5)C=C4)C=C3)cc1
REMARK SMILES IDX 5 1 4 2 3 3 1 4 2 5 26 7 27 8 88 9 28 10 87 11 29 12 30 13
REMARK SMILES IDX 31 14 81 15 32 16 86 17 80 18 82 19 33 20 85 21 79 22 78 23
REMARK SMILES IDX 34 25 66 26 46 27 65 28 47 29 50 30 64 31 83 32 48 33 49 34
REMARK SMILES IDX 63 36 84 37 51 38 35 39 36 40 44 41 37 42 38 43 42 44 45 45
REMARK SMILES IDX 39 46 40 47 43 48 41 49 67 50 68 51 76 52 69 53 70 54 74 55
REMARK SMILES IDX 77 56 71 57 72 58 75 59 73 60 52 61 53 62 61 63 54 64 55 65
REMARK SMILES IDX 59 66 62 67 56 68 57 69 60 70 58 71 6 72 7 73 8 74 9 75
REMARK SMILES IDX 10 77 11 78 12 79 25 80 13 81 14 82 15 83 16 84 17 86 18 87
REMARK SMILES IDX 19 88 24 89 20 90 23 91 21 92 22 93
REMARK H PARENT 3 6 82 24 50 35 8 76 15 85
REMARK Flexibility Score: inf
ROOT
ATOM      1  C   UNL A   1      31.771  31.886  26.930  1.00  0.00     0.023 C 
ENDROOT
BRANCH   1   2
ATOM      2  C   UNL A   1      32.897  32.813  27.353  1.00  0.00     0.116 C 
BRANCH   2   3
ATOM      3  N   UNL A   1      32.458  34.160  27.687  1.00  0.00    -0.352 N 
ATOM      4  O   UNL A   1      32.465  36.101  28.855  1.00  0.00    -0.269 OA
ATOM      5  C   UNL A   1      32.984  35.014  28.629  1.00  0.00     0.251 C 
ATOM      6  H   UNL A   1      31.690  34.502  27.176  1.00  0.00     0.163 HD
BRANCH   5   7
ATOM      7  C   UNL A   1      34.158  34.572  29.408  1.00  0.00     0.039 A 
ATOM      8  C   UNL A   1      35.446  34.779  28.911  1.00  0.00     0.014 A 
ATOM      9  C   UNL A   1      33.959  33.869  30.597  1.00  0.00     0.014 A 
ATOM     10  C   UNL A   1      36.518  34.131  29.508  1.00  0.00     0.010 A 
ATOM     11  C   UNL A   1      35.053  33.295  31.248  1.00  0.00     0.010 A 
ATOM     12  C   UNL A   1      36.333  33.378  30.680  1.00  0.00    -0.014 A 
BRANCH  12  13
ATOM     13  C   UNL A   1      37.504  32.699  31.289  1.00  0.00     0.031 A 
ATOM     14  C   UNL A   1      37.951  33.028  32.686  1.00  0.00     0.074 A 
ATOM     15  C   UNL A   1      38.127  31.736  30.585  1.00  0.00     0.049 A 
ATOM     16  N   UNL A   1      38.922  32.498  33.385  1.00  0.00    -0.248 NA
ATOM     17  C   UNL A   1      37.223  34.095  33.389  1.00  0.00     0.031 C 
ATOM     18  C   UNL A   1      37.782  31.338  29.218  1.00  0.00     0.029 A 
ATOM     19  N   UNL A   1      39.152  30.895  30.928  1.00  0.00    -0.354 N 
ATOM     20  C   UNL A   1      38.945  33.186  34.591  1.00  0.00     0.074 A 
ATOM     21  C   UNL A   1      37.897  34.182  34.528  1.00  0.00     0.031 C 
ATOM     22  C   UNL A   1      38.538  30.290  28.862  1.00  0.00     0.029 A 
ATOM     23  C   UNL A   1      39.458  29.980  29.951  1.00  0.00     0.049 A 
ATOM     24  H   UNL A   1      39.625  30.942  31.790  1.00  0.00     0.167 HD
ATOM     25  C   UNL A   1      39.763  32.998  35.655  1.00  0.00     0.037 A 
ATOM     26  C   UNL A   1      40.378  29.000  29.933  1.00  0.00     0.037 A 
ATOM     27  C   UNL A   1      40.779  31.978  35.728  1.00  0.00     0.049 A 
ATOM     28  C   UNL A   1      41.254  28.801  31.135  1.00  0.00     0.074 A 
ATOM     29  C   UNL A   1      41.634  31.684  36.777  1.00  0.00     0.029 A 
ATOM     30  N   UNL A   1      41.070  31.081  34.711  1.00  0.00    -0.354 N 
ATOM     31  N   UNL A   1      41.251  29.446  32.275  1.00  0.00    -0.248 NA
ATOM     32  C   UNL A   1      42.264  27.738  31.044  1.00  0.00     0.031 C 
ATOM     33  C   UNL A   1      42.465  30.629  36.381  1.00  0.00     0.029 A 
ATOM     34  C   UNL A   1      42.101  30.241  35.103  1.00  0.00     0.049 A 
ATOM     35  H   UNL A   1      40.613  31.045  33.840  1.00  0.00     0.167 HD
ATOM     36  C   UNL A   1      42.245  28.861  33.045  1.00  0.00     0.074 A 
ATOM     37  C   UNL A   1      42.817  27.794  32.248  1.00  0.00     0.031 C 
ATOM     38  C   UNL A   1      42.651  29.182  34.297  1.00  0.00     0.037 A 
BRANCH  25  39
ATOM     39  C   UNL A   1      39.613  33.926  36.824  1.00  0.00     0.064 A 
ATOM     40  C   UNL A   1      38.845  33.585  37.947  1.00  0.00     0.173 A 
ATOM     41  C   UNL A   1      40.287  35.158  36.839  1.00  0.00     0.173 A 
ATOM     42  F   UNL A   1      38.171  32.425  37.976  1.00  0.00    -0.203 F 
ATOM     43  C   UNL A   1      38.743  34.450  39.034  1.00  0.00     0.198 A 
ATOM     44  C   UNL A   1      40.201  36.009  37.938  1.00  0.00     0.198 A 
ATOM     45  F   UNL A   1      41.039  35.529  35.793  1.00  0.00    -0.203 F 
ATOM     46  F   UNL A   1      37.975  34.118  40.081  1.00  0.00    -0.200 F 
ATOM     47  C   UNL A   1      39.425  35.657  39.032  1.00  0.00     0.200 A 
ATOM     48  F   UNL A   1      40.870  37.170  37.939  1.00  0.00    -0.200 F 
ATOM     49  F   UNL A   1      39.331  36.484  40.082  1.00  0.00    -0.200 F 
ENDBRANCH  25  39
BRANCH  26  50
ATOM     50  C   UNL A   1      40.495  28.126  28.740  1.00  0.00     0.064 A 
ATOM     51  C   UNL A   1      39.802  26.910  28.670  1.00  0.00     0.173 A 
ATOM     52  C   UNL A   1      41.275  28.501  27.637  1.00  0.00     0.173 A 
ATOM     53  F   UNL A   1      39.057  26.503  29.708  1.00  0.00    -0.203 F 
ATOM     54  C   UNL A   1      39.894  26.096  27.544  1.00  0.00     0.198 A 
ATOM     55  C   UNL A   1      41.344  27.699  26.501  1.00  0.00     0.198 A 
ATOM     56  F   UNL A   1      41.951  29.659  27.654  1.00  0.00    -0.203 F 
ATOM     57  F   UNL A   1      39.247  24.923  27.514  1.00  0.00    -0.200 F 
ATOM     58  C   UNL A   1      40.658  26.494  26.457  1.00  0.00     0.200 A 
ATOM     59  F   UNL A   1      42.070  28.096  25.446  1.00  0.00    -0.200 F 
ATOM     60  F   UNL A   1      40.736  25.717  25.369  1.00  0.00    -0.200 F 
ENDBRANCH  26  50
BRANCH  38  61
ATOM     61  C   UNL A   1      43.746  28.346  34.888  1.00  0.00     0.064 A 
ATOM     62  C   UNL A   1      45.090  28.739  34.811  1.00  0.00     0.173 A 
ATOM     63  C   UNL A   1      43.445  27.147  35.550  1.00  0.00     0.173 A 
ATOM     64  F   UNL A   1      45.427  29.870  34.171  1.00  0.00    -0.203 F 
ATOM     65  C   UNL A   1      46.097  27.946  35.353  1.00  0.00     0.198 A 
ATOM     66  C   UNL A   1      44.453  26.370  36.113  1.00  0.00     0.198 A 
ATOM     67  F   UNL A   1      42.173  26.732  35.652  1.00  0.00    -0.203 F 
ATOM     68  F   UNL A   1      47.379  28.315  35.226  1.00  0.00    -0.200 F 
ATOM     69  C   UNL A   1      45.778  26.765  36.006  1.00  0.00     0.200 A 
ATOM     70  F   UNL A   1      44.143  25.232  36.750  1.00  0.00    -0.200 F 
ATOM     71  F   UNL A   1      46.750  26.002  36.526  1.00  0.00    -0.200 F 
ENDBRANCH  38  61
ENDBRANCH  12  13
ENDBRANCH   5   7
ENDBRANCH   2   3
ENDBRANCH   1   2
BRANCH   1  72
ATOM     72  C   UNL A   1      32.142  30.408  26.862  1.00  0.00     0.023 C 
BRANCH  72  73
ATOM     73  C   UNL A   1      32.539  29.899  25.473  1.00  0.00     0.116 C 
BRANCH  73  74
ATOM     74  N   UNL A   1      31.398  29.845  24.584  1.00  0.00    -0.356 N 
ATOM     75  C   UNL A   1      30.697  28.801  24.069  1.00  0.00     0.227 C 
ATOM     76  H   UNL A   1      31.069  30.728  24.300  1.00  0.00     0.163 HD
ATOM     77  O   UNL A   1      29.781  29.108  23.297  1.00  0.00    -0.274 OA
BRANCH  75  78
ATOM     78  C   UNL A   1      30.914  27.332  24.493  1.00  0.00     0.103 C 
ATOM     79  C   UNL A   1      29.695  26.527  24.115  1.00  0.00    -0.016 C 
ATOM     80  C   UNL A   1      32.032  26.511  23.846  1.00  0.00     0.047 C 
ATOM     81  C   UNL A   1      29.997  25.353  23.552  1.00  0.00    -0.006 C 
ATOM     82  C   UNL A   1      31.463  25.134  23.496  1.00  0.00     0.106 C 
BRANCH  82  83
ATOM     83  N   UNL A   1      31.830  24.743  22.151  1.00  0.00    -0.344 N 
ATOM     84  C   UNL A   1      32.962  24.073  21.744  1.00  0.00     0.270 C 
ATOM     85  H   UNL A   1      31.192  24.986  21.442  1.00  0.00     0.164 HD
ATOM     86  O   UNL A   1      33.281  24.082  20.558  1.00  0.00    -0.267 OA
BRANCH  84  87
ATOM     87  C   UNL A   1      33.768  23.313  22.742  1.00  0.00     0.128 A 
ATOM     88  C   UNL A   1      33.191  22.241  23.418  1.00  0.00     0.036 A 
ATOM     89  N   UNL A   1      35.059  23.701  22.909  1.00  0.00    -0.250 NA
ATOM     90  C   UNL A   1      33.966  21.545  24.342  1.00  0.00     0.024 A 
ATOM     91  C   UNL A   1      35.793  22.982  23.792  1.00  0.00     0.132 A 
ATOM     92  C   UNL A   1      35.293  21.918  24.530  1.00  0.00     0.059 A 
ATOM     93  Cl  UNL A   1      36.281  21.077  25.651  1.00  0.00    -0.083 Cl
ENDBRANCH  84  87
ENDBRANCH  82  83
ENDBRANCH  75  78
ENDBRANCH  73  74
ENDBRANCH  72  73
ENDBRANCH   1  72
TORSDOF 13
ENDMDL
MODEL 2
REMARK VINA RESULT:     -12.9      1.121      2.050
REMARK SMILES O=C(NCCCCNC(=O)[C@H]1C=C[C@@H](NC(=O)c2ccc(Cl)cn2)C1)c1ccc(-c2c3nc(c(-c4c(F)c(F)c(F)c(F)c4F)c4ccc([nH]4)c(-c4c(F)c(F)c(F)c(F)c4F)c4nc(c(-c5c(F)c(F)c(F)c(F)c5F)c5ccc2[nH]5)C=C4)C=C3)cc1
REMARK SMILES IDX 5 1 4 2 3 3 1 4 2 5 26 7 27 8 88 9 28 10 87 11 29 12 30 13
REMARK SMILES IDX 31 14 81 15 32 16 86 17 80 18 82 19 33 20 85 21 79 22 78 23
REMARK SMILES IDX 34 25 66 26 46 27 65 28 47 29 50 30 64 31 83 32 48 33 49 34
REMARK SMILES IDX 63 36 84 37 51 38 35 39 36 40 44 41 37 42 38 43 42 44 45 45
REMARK SMILES IDX 39 46 40 47 43 48 41 49 67 50 68 51 76 52 69 53 70 54 74 55
REMARK SMILES IDX 77 56 71 57 72 58 75 59 73 60 52 61 53 62 61 63 54 64 55 65
REMARK SMILES IDX 59 66 62 67 56 68 57 69 60 70 58 71 6 72 7 73 8 74 9 75
REMARK SMILES IDX 10 77 11 78 12 79 25 80 13 81 14 82 15 83 16 84 17 86 18 87
REMARK SMILES IDX 19 88 24 89 20 90 23 91 21 92 22 93
REMARK H PARENT 3 6 82 24 50 35 8 76 15 85
REMARK Flexibility Score: inf
ROOT
ATOM      1  C   UNL A   1      31.613  31.965  26.866  1.00  0.00     0.023 C 
ENDROOT
BRANCH   1   2
ATOM      2  C   UNL A   1      32.743  32.813  27.421  1.00  0.00     0.116 C 
BRANCH   2   3
ATOM      3  N   UNL A   1      32.366  34.192  27.694  1.00  0.00    -0.352 N 
ATOM      4  O   UNL A   1      32.485  36.192  28.751  1.00  0.00    -0.269 OA
ATOM      5  C   UNL A   1      32.955  35.075  28.569  1.00  0.00     0.251 C 
ATOM      6  H   UNL A   1      31.594  34.535  27.190  1.00  0.00     0.163 HD
BRANCH   5   7
ATOM      7  C   UNL A   1      34.139  34.632  29.332  1.00  0.00     0.039 A 
ATOM      8  C   UNL A   1      35.407  34.685  28.751  1.00  0.00     0.014 A 
ATOM      9  C   UNL A   1      33.961  34.077  30.601  1.00  0.00     0.014 A 
ATOM     10  C   UNL A   1      36.464  34.025  29.361  1.00  0.00     0.010 A 
ATOM     11  C   UNL A   1      35.048  33.494  31.255  1.00  0.00     0.010 A 
ATOM     12  C   UNL A   1      36.295  33.418  30.618  1.00  0.00    -0.014 A 
BRANCH  12  13
ATOM     13  C   UNL A   1      37.449  32.722  31.239  1.00  0.00     0.031 A 
ATOM     14  C   UNL A   1      37.877  33.033  32.646  1.00  0.00     0.074 A 
ATOM     15  C   UNL A   1      38.073  31.758  30.536  1.00  0.00     0.049 A 
ATOM     16  N   UNL A   1      38.832  32.486  33.356  1.00  0.00    -0.248 NA
ATOM     17  C   UNL A   1      37.150  34.101  33.347  1.00  0.00     0.031 C 
ATOM     18  C   UNL A   1      37.746  31.377  29.160  1.00  0.00     0.029 A 
ATOM     19  N   UNL A   1      39.084  30.904  30.887  1.00  0.00    -0.354 N 
ATOM     20  C   UNL A   1      38.843  33.163  34.568  1.00  0.00     0.074 A 
ATOM     21  C   UNL A   1      37.806  34.171  34.497  1.00  0.00     0.031 C 
ATOM     22  C   UNL A   1      38.496  30.324  28.806  1.00  0.00     0.029 A 
ATOM     23  C   UNL A   1      39.395  29.995  29.907  1.00  0.00     0.049 A 
ATOM     24  H   UNL A   1      39.544  30.938  31.757  1.00  0.00     0.167 HD
ATOM     25  C   UNL A   1      39.642  32.956  35.642  1.00  0.00     0.037 A 
ATOM     26  C   UNL A   1      40.306  29.005  29.894  1.00  0.00     0.037 A 
ATOM     27  C   UNL A   1      40.646  31.925  35.722  1.00  0.00     0.049 A 
ATOM     28  C   UNL A   1      41.161  28.785  31.108  1.00  0.00     0.074 A 
ATOM     29  C   UNL A   1      41.480  31.612  36.781  1.00  0.00     0.029 A 
ATOM     30  N   UNL A   1      40.943  31.034  34.702  1.00  0.00    -0.354 N 
ATOM     31  N   UNL A   1      41.146  29.420  32.253  1.00  0.00    -0.248 NA
ATOM     32  C   UNL A   1      42.161  27.713  31.023  1.00  0.00     0.031 C 
ATOM     33  C   UNL A   1      42.307  30.552  36.389  1.00  0.00     0.029 A 
ATOM     34  C   UNL A   1      41.959  30.180  35.102  1.00  0.00     0.049 A 
ATOM     35  H   UNL A   1      40.500  31.012  33.824  1.00  0.00     0.167 HD
ATOM     36  C   UNL A   1      42.122  28.818  33.033  1.00  0.00     0.074 A 
ATOM     37  C   UNL A   1      42.695  27.753  32.236  1.00  0.00     0.031 C 
ATOM     38  C   UNL A   1      42.511  29.123  34.295  1.00  0.00     0.037 A 
BRANCH  25  39
ATOM     39  C   UNL A   1      39.482  33.876  36.818  1.00  0.00     0.064 A 
ATOM     40  C   UNL A   1      38.698  33.530  37.927  1.00  0.00     0.173 A 
ATOM     41  C   UNL A   1      40.165  35.102  36.853  1.00  0.00     0.173 A 
ATOM     42  F   UNL A   1      38.015  32.375  37.937  1.00  0.00    -0.203 F 
ATOM     43  C   UNL A   1      38.587  34.386  39.021  1.00  0.00     0.198 A 
ATOM     44  C   UNL A   1      40.071  35.944  37.959  1.00  0.00     0.198 A 
ATOM     45  F   UNL A   1      40.935  35.477  35.820  1.00  0.00    -0.203 F 
ATOM     46  F   UNL A   1      37.803  34.051  40.055  1.00  0.00    -0.200 F 
ATOM     47  C   UNL A   1      39.278  35.588  39.038  1.00  0.00     0.200 A 
ATOM     48  F   UNL A   1      40.749  37.100  37.979  1.00  0.00    -0.200 F 
ATOM     49  F   UNL A   1      39.176  36.406  40.095  1.00  0.00    -0.200 F 
ENDBRANCH  25  39
BRANCH  26  50
ATOM     50  C   UNL A   1      40.432  28.141  28.695  1.00  0.00     0.064 A 
ATOM     51  C   UNL A   1      41.251  28.515  27.622  1.00  0.00     0.173 A 
ATOM     52  C   UNL A   1      39.761  26.912  28.610  1.00  0.00     0.173 A 
ATOM     53  F   UNL A   1      41.899  29.689  27.652  1.00  0.00    -0.203 F 
ATOM     54  C   UNL A   1      41.386  27.697  26.503  1.00  0.00     0.198 A 
ATOM     55  C   UNL A   1      39.919  26.083  27.503  1.00  0.00     0.198 A 
ATOM     56  F   UNL A   1      38.971  26.507  29.616  1.00  0.00    -0.203 F 
ATOM     57  F   UNL A   1      42.152  28.093  25.476  1.00  0.00    -0.200 F 
ATOM     58  C   UNL A   1      40.727  26.479  26.448  1.00  0.00     0.200 A 
ATOM     59  F   UNL A   1      39.293  24.898  27.462  1.00  0.00    -0.200 F 
ATOM     60  F   UNL A   1      40.868  25.686  25.377  1.00  0.00    -0.200 F 
ENDBRANCH  26  50
BRANCH  38  61
ATOM     61  C   UNL A   1      43.588  28.270  34.896  1.00  0.00     0.064 A 
ATOM     62  C   UNL A   1      43.286  27.081  35.574  1.00  0.00     0.173 A 
ATOM     63  C   UNL A   1      44.935  28.641  34.778  1.00  0.00     0.173 A 
ATOM     64  F   UNL A   1      42.010  26.696  35.728  1.00  0.00    -0.203 F 
ATOM     65  C   UNL A   1      44.295  26.306  36.138  1.00  0.00     0.198 A 
ATOM     66  C   UNL A   1      45.943  27.850  35.321  1.00  0.00     0.198 A 
ATOM     67  F   UNL A   1      45.272  29.769  34.134  1.00  0.00    -0.203 F 
ATOM     68  F   UNL A   1      43.983  25.198  36.825  1.00  0.00    -0.200 F 
ATOM     69  C   UNL A   1      45.623  26.689  36.008  1.00  0.00     0.200 A 
ATOM     70  F   UNL A   1      47.225  28.217  35.189  1.00  0.00    -0.200 F 
ATOM     71  F   UNL A   1      46.593  25.942  36.553  1.00  0.00    -0.200 F 
ENDBRANCH  38  61
ENDBRANCH  12  13
ENDBRANCH   5   7
ENDBRANCH   2   3
ENDBRANCH   1   2
BRANCH   1  72
ATOM     72  C   UNL A   1      31.902  30.468  26.797  1.00  0.00     0.023 C 
BRANCH  72  73
ATOM     73  C   UNL A   1      33.352  30.098  26.468  1.00  0.00     0.116 C 
BRANCH  73  74
ATOM     74  N   UNL A   1      33.463  29.529  25.142  1.00  0.00    -0.356 N 
ATOM     75  C   UNL A   1      33.655  28.252  24.715  1.00  0.00     0.227 C 
ATOM     76  H   UNL A   1      33.385  30.187  24.414  1.00  0.00     0.163 HD
ATOM     77  O   UNL A   1      33.741  28.112  23.489  1.00  0.00    -0.274 OA
BRANCH  75  78
ATOM     78  C   UNL A   1      33.642  27.026  25.652  1.00  0.00     0.103 C 
ATOM     79  C   UNL A   1      32.228  26.784  26.124  1.00  0.00    -0.016 C 
ATOM     80  C   UNL A   1      34.019  25.647  25.106  1.00  0.00     0.047 C 
ATOM     81  C   UNL A   1      31.878  25.494  26.086  1.00  0.00    -0.006 C 
ATOM     82  C   UNL A   1      33.000  24.635  25.634  1.00  0.00     0.106 C 
BRANCH  82  83
ATOM     83  N   UNL A   1      32.530  23.764  24.578  1.00  0.00    -0.344 N 
ATOM     84  C   UNL A   1      33.274  22.917  23.787  1.00  0.00     0.270 C 
ATOM     85  H   UNL A   1      31.562  23.780  24.404  1.00  0.00     0.164 HD
ATOM     86  O   UNL A   1      32.793  22.478  22.745  1.00  0.00    -0.267 OA
BRANCH  84  87
ATOM     87  C   UNL A   1      34.640  22.512  24.222  1.00  0.00     0.128 A 
ATOM     88  C   UNL A   1      35.749  22.945  23.498  1.00  0.00     0.036 A 
ATOM     89  N   UNL A   1      34.726  21.755  25.347  1.00  0.00    -0.250 NA
ATOM     90  C   UNL A   1      37.015  22.556  23.929  1.00  0.00     0.024 A 
ATOM     91  C   UNL A   1      35.974  21.421  25.755  1.00  0.00     0.132 A 
ATOM     92  C   UNL A   1      37.132  21.784  25.080  1.00  0.00     0.059 A 
ATOM     93  Cl  UNL A   1      38.675  21.297  25.646  1.00  0.00    -0.083 Cl
ENDBRANCH  84  87
ENDBRANCH  82  83
ENDBRANCH  75  78
ENDBRANCH  73  74
ENDBRANCH  72  73
ENDBRANCH   1  72
TORSDOF 13
ENDMDL
MODEL 3
REMARK VINA RESULT:     -12.8      1.162      7.638
REMARK SMILES O=C(NCCCCNC(=O)[C@H]1C=C[C@@H](NC(=O)c2ccc(Cl)cn2)C1)c1ccc(-c2c3nc(c(-c4c(F)c(F)c(F)c(F)c4F)c4ccc([nH]4)c(-c4c(F)c(F)c(F)c(F)c4F)c4nc(c(-c5c(F)c(F)c(F)c(F)c5F)c5ccc2[nH]5)C=C4)C=C3)cc1
REMARK SMILES IDX 5 1 4 2 3 3 1 4 2 5 26 7 27 8 88 9 28 10 87 11 29 12 30 13
REMARK SMILES IDX 31 14 81 15 32 16 86 17 80 18 82 19 33 20 85 21 79 22 78 23
REMARK SMILES IDX 34 25 66 26 46 27 65 28 47 29 50 30 64 31 83 32 48 33 49 34
REMARK SMILES IDX 63 36 84 37 51 38 35 39 36 40 44 41 37 42 38 43 42 44 45 45
REMARK SMILES IDX 39 46 40 47 43 48 41 49 67 50 68 51 76 52 69 53 70 54 74 55
REMARK SMILES IDX 77 56 71 57 72 58 75 59 73 60 52 61 53 62 61 63 54 64 55 65
REMARK SMILES IDX 59 66 62 67 56 68 57 69 60 70 58 71 6 72 7 73 8 74 9 75
REMARK SMILES IDX 10 77 11 78 12 79 25 80 13 81 14 82 15 83 16 84 17 86 18 87
REMARK SMILES IDX 19 88 24 89 20 90 23 91 21 92 22 93
REMARK H PARENT 3 6 82 24 50 35 8 76 15 85
REMARK Flexibility Score: inf
ROOT
ATOM      1  C   UNL A   1      31.608  31.989  26.779  1.00  0.00     0.023 C 
ENDROOT
BRANCH   1   2
ATOM      2  C   UNL A   1      32.759  32.800  27.346  1.00  0.00     0.116 C 
BRANCH   2   3
ATOM      3  N   UNL A   1      32.418  34.185  27.637  1.00  0.00    -0.352 N 
ATOM      4  O   UNL A   1      32.544  36.147  28.761  1.00  0.00    -0.269 OA
ATOM      5  C   UNL A   1      32.982  35.019  28.575  1.00  0.00     0.251 C 
ATOM      6  H   UNL A   1      31.694  34.573  27.096  1.00  0.00     0.163 HD
BRANCH   5   7
ATOM      7  C   UNL A   1      34.096  34.506  29.397  1.00  0.00     0.039 A 
ATOM      8  C   UNL A   1      35.410  34.605  28.937  1.00  0.00     0.014 A 
ATOM      9  C   UNL A   1      33.810  33.845  30.594  1.00  0.00     0.014 A 
ATOM     10  C   UNL A   1      36.412  33.891  29.578  1.00  0.00     0.010 A 
ATOM     11  C   UNL A   1      34.837  33.204  31.288  1.00  0.00     0.010 A 
ATOM     12  C   UNL A   1      36.136  33.179  30.758  1.00  0.00    -0.014 A 
BRANCH  12  13
ATOM     13  C   UNL A   1      37.234  32.427  31.416  1.00  0.00     0.031 A 
ATOM     14  C   UNL A   1      37.980  31.347  30.684  1.00  0.00     0.074 A 
ATOM     15  C   UNL A   1      37.591  32.773  32.667  1.00  0.00     0.049 A 
ATOM     16  N   UNL A   1      38.995  30.626  31.093  1.00  0.00    -0.248 NA
ATOM     17  C   UNL A   1      37.528  31.024  29.323  1.00  0.00     0.031 C 
ATOM     18  C   UNL A   1      36.932  33.803  33.474  1.00  0.00     0.029 A 
ATOM     19  N   UNL A   1      38.610  32.325  33.464  1.00  0.00    -0.354 N 
ATOM     20  C   UNL A   1      39.279  29.745  30.058  1.00  0.00     0.074 A 
ATOM     21  C   UNL A   1      38.324  30.011  29.003  1.00  0.00     0.031 C 
ATOM     22  C   UNL A   1      37.602  33.952  34.625  1.00  0.00     0.029 A 
ATOM     23  C   UNL A   1      38.699  32.992  34.661  1.00  0.00     0.049 A 
ATOM     24  H   UNL A   1      39.219  31.597  33.206  1.00  0.00     0.167 HD
ATOM     25  C   UNL A   1      40.252  28.805  29.994  1.00  0.00     0.037 A 
ATOM     26  C   UNL A   1      39.567  32.845  35.678  1.00  0.00     0.037 A 
ATOM     27  C   UNL A   1      41.226  28.571  31.030  1.00  0.00     0.049 A 
ATOM     28  C   UNL A   1      40.650  31.810  35.568  1.00  0.00     0.074 A 
ATOM     29  C   UNL A   1      42.274  27.667  31.043  1.00  0.00     0.029 A 
ATOM     30  N   UNL A   1      41.273  29.255  32.236  1.00  0.00    -0.354 N 
ATOM     31  N   UNL A   1      40.918  30.999  34.576  1.00  0.00    -0.248 NA
ATOM     32  C   UNL A   1      41.546  31.672  36.722  1.00  0.00     0.031 C 
ATOM     33  C   UNL A   1      42.936  27.781  32.272  1.00  0.00     0.029 A 
ATOM     34  C   UNL A   1      42.324  28.783  33.006  1.00  0.00     0.049 A 
ATOM     35  H   UNL A   1      40.652  29.969  32.505  1.00  0.00     0.167 HD
ATOM     36  C   UNL A   1      42.022  30.262  34.976  1.00  0.00     0.074 A 
ATOM     37  C   UNL A   1      42.386  30.739  36.295  1.00  0.00     0.031 C 
ATOM     38  C   UNL A   1      42.673  29.275  34.313  1.00  0.00     0.037 A 
BRANCH  25  39
ATOM     39  C   UNL A   1      40.306  27.938  28.769  1.00  0.00     0.064 A 
ATOM     40  C   UNL A   1      41.054  28.298  27.639  1.00  0.00     0.173 A 
ATOM     41  C   UNL A   1      39.635  26.705  28.747  1.00  0.00     0.173 A 
ATOM     42  F   UNL A   1      41.702  29.472  27.606  1.00  0.00    -0.203 F 
ATOM     43  C   UNL A   1      41.113  27.464  26.525  1.00  0.00     0.198 A 
ATOM     44  C   UNL A   1      39.716  25.863  27.641  1.00  0.00     0.198 A 
ATOM     45  F   UNL A   1      38.910  26.311  29.806  1.00  0.00    -0.203 F 
ATOM     46  F   UNL A   1      41.805  27.845  25.442  1.00  0.00    -0.200 F 
ATOM     47  C   UNL A   1      40.450  26.246  26.529  1.00  0.00     0.200 A 
ATOM     48  F   UNL A   1      39.084  24.681  27.651  1.00  0.00    -0.200 F 
ATOM     49  F   UNL A   1      40.515  25.442  25.459  1.00  0.00    -0.200 F 
ENDBRANCH  25  39
BRANCH  26  50
ATOM     50  C   UNL A   1      39.452  33.717  36.872  1.00  0.00     0.064 A 
ATOM     51  C   UNL A   1      40.124  34.945  36.931  1.00  0.00     0.173 A 
ATOM     52  C   UNL A   1      38.648  33.355  37.962  1.00  0.00     0.173 A 
ATOM     53  F   UNL A   1      40.917  35.324  35.919  1.00  0.00    -0.203 F 
ATOM     54  C   UNL A   1      40.003  35.775  38.043  1.00  0.00     0.198 A 
ATOM     55  C   UNL A   1      38.506  34.200  39.061  1.00  0.00     0.198 A 
ATOM     56  F   UNL A   1      37.979  32.193  37.948  1.00  0.00    -0.203 F 
ATOM     57  F   UNL A   1      40.681  36.931  38.089  1.00  0.00    -0.200 F 
ATOM     58  C   UNL A   1      39.189  35.406  39.103  1.00  0.00     0.200 A 
ATOM     59  F   UNL A   1      37.705  33.846  40.075  1.00  0.00    -0.200 F 
ATOM     60  F   UNL A   1      39.063  36.211  40.166  1.00  0.00    -0.200 F 
ENDBRANCH  26  50
BRANCH  38  61
ATOM     61  C   UNL A   1      43.863  28.672  34.997  1.00  0.00     0.064 A 
ATOM     62  C   UNL A   1      43.732  27.574  35.860  1.00  0.00     0.173 A 
ATOM     63  C   UNL A   1      45.147  29.189  34.775  1.00  0.00     0.173 A 
ATOM     64  F   UNL A   1      42.520  27.058  36.118  1.00  0.00    -0.203 F 
ATOM     65  C   UNL A   1      44.844  27.033  36.499  1.00  0.00     0.198 A 
ATOM     66  C   UNL A   1      46.260  28.629  35.395  1.00  0.00     0.198 A 
ATOM     67  F   UNL A   1      45.321  30.236  33.954  1.00  0.00    -0.203 F 
ATOM     68  F   UNL A   1      44.692  26.015  37.357  1.00  0.00    -0.200 F 
ATOM     69  C   UNL A   1      46.107  27.558  36.263  1.00  0.00     0.200 A 
ATOM     70  F   UNL A   1      47.479  29.131  35.161  1.00  0.00    -0.200 F 
ATOM     71  F   UNL A   1      47.176  27.036  36.879  1.00  0.00    -0.200 F 
ENDBRANCH  38  61
ENDBRANCH  12  13
ENDBRANCH   5   7
ENDBRANCH   2   3
ENDBRANCH   1   2
BRANCH   1  72
ATOM     72  C   UNL A   1      31.859  30.486  26.689  1.00  0.00     0.023 C 
BRANCH  72  73
ATOM     73  C   UNL A   1      33.304  30.084  26.380  1.00  0.00     0.116 C 
BRANCH  73  74
ATOM     74  N   UNL A   1      33.418  29.492  25.064  1.00  0.00    -0.356 N 
ATOM     75  C   UNL A   1      33.604  28.208  24.659  1.00  0.00     0.227 C 
ATOM     76  H   UNL A   1      33.346  30.139  24.326  1.00  0.00     0.163 HD
ATOM     77  O   UNL A   1      33.695  28.047  23.436  1.00  0.00    -0.274 OA
BRANCH  75  78
ATOM     78  C   UNL A   1      33.581  26.997  25.617  1.00  0.00     0.103 C 
ATOM     79  C   UNL A   1      32.161  26.755  26.068  1.00  0.00    -0.016 C 
ATOM     80  C   UNL A   1      33.974  25.612  25.100  1.00  0.00     0.047 C 
ATOM     81  C   UNL A   1      31.817  25.464  26.045  1.00  0.00    -0.006 C 
ATOM     82  C   UNL A   1      32.951  24.603  25.628  1.00  0.00     0.106 C 
BRANCH  82  83
ATOM     83  N   UNL A   1      32.505  23.712  24.578  1.00  0.00    -0.344 N 
ATOM     84  C   UNL A   1      33.270  22.879  23.793  1.00  0.00     0.270 C 
ATOM     85  H   UNL A   1      31.536  23.701  24.405  1.00  0.00     0.164 HD
ATOM     86  O   UNL A   1      32.802  22.420  22.755  1.00  0.00    -0.267 OA
BRANCH  84  87
ATOM     87  C   UNL A   1      34.648  22.514  24.231  1.00  0.00     0.128 A 
ATOM     88  C   UNL A   1      35.743  22.955  23.492  1.00  0.00     0.036 A 
ATOM     89  N   UNL A   1      34.754  21.784  25.372  1.00  0.00    -0.250 NA
ATOM     90  C   UNL A   1      37.020  22.604  23.925  1.00  0.00     0.024 A 
ATOM     91  C   UNL A   1      36.011  21.488  25.781  1.00  0.00     0.132 A 
ATOM     92  C   UNL A   1      37.158  21.861  25.093  1.00  0.00     0.059 A 
ATOM     93  Cl  UNL A   1      38.715  21.420  25.662  1.00  0.00    -0.083 Cl
ENDBRANCH  84  87
ENDBRANCH  82  83
ENDBRANCH  75  78
ENDBRANCH  73  74
ENDBRANCH  72  73
ENDBRANCH   1  72
TORSDOF 13
ENDMDL
