MODEL 1
REMARK VINA RESULT:     -13.1      0.000      0.000
REMARK SMILES O=C(NCCCCNC(=O)[C@H]1C[C@H](O)CN1S(=O)(=O)c1ccc2c(c1)OCCO2)c1ccc(-c2c3nc(c(-c4c(F)c(F)c(F)c(F)c4F)c4ccc([nH]4)c(-c4c(F)c(F)c(F)c(F)c4F)c4nc(c(-c5c(F)c(F)c(F)c(F)c5F)c5ccc2[nH]5)C=C4)C=C3)cc1
REMARK SMILES IDX 5 1 4 2 3 3 1 4 2 5 30 7 31 8 92 9 32 10 91 11 33 12 34 13
REMARK SMILES IDX 35 14 85 15 36 16 90 17 84 18 86 19 37 20 89 21 83 22 82 23
REMARK SMILES IDX 38 25 70 26 50 27 69 28 51 29 54 30 68 31 87 32 52 33 53 34
REMARK SMILES IDX 67 36 88 37 55 38 39 39 40 40 48 41 41 42 42 43 46 44 49 45
REMARK SMILES IDX 43 46 44 47 47 48 45 49 71 50 72 51 80 52 73 53 74 54 78 55
REMARK SMILES IDX 81 56 75 57 76 58 79 59 77 60 56 61 57 62 65 63 58 64 59 65
REMARK SMILES IDX 63 66 66 67 60 68 61 69 64 70 62 71 6 72 7 73 8 74 9 75
REMARK SMILES IDX 10 77 11 78 12 79 16 80 13 81 15 82 17 83 18 84 19 85 20 86
REMARK SMILES IDX 21 87 25 88 22 89 24 90 23 91 26 92 29 93 27 94 28 95 14 96
REMARK H PARENT 3 6 86 24 54 35 8 76 14 97
REMARK Flexibility Score: inf
ROOT
ATOM      1  C   UNL A   1      31.391  31.577  26.500  1.00  0.00     0.023 C 
ENDROOT
BRANCH   1   2
ATOM      2  C   UNL A   1      32.656  32.259  26.977  1.00  0.00     0.116 C 
BRANCH   2   3
ATOM      3  N   UNL A   1      32.416  33.648  27.385  1.00  0.00    -0.352 N 
ATOM      4  O   UNL A   1      32.531  35.451  28.754  1.00  0.00    -0.269 OA
ATOM      5  C   UNL A   1      33.016  34.392  28.375  1.00  0.00     0.251 C 
ATOM      6  H   UNL A   1      31.720  34.119  26.873  1.00  0.00     0.163 HD
BRANCH   5   7
ATOM      7  C   UNL A   1      34.266  33.884  28.961  1.00  0.00     0.039 A 
ATOM      8  C   UNL A   1      34.182  32.784  29.809  1.00  0.00     0.014 A 
ATOM      9  C   UNL A   1      35.492  34.507  28.721  1.00  0.00     0.014 A 
ATOM     10  C   UNL A   1      35.248  32.477  30.620  1.00  0.00     0.010 A 
ATOM     11  C   UNL A   1      36.629  34.046  29.390  1.00  0.00     0.010 A 
ATOM     12  C   UNL A   1      36.505  33.039  30.358  1.00  0.00    -0.014 A 
BRANCH  12  13
ATOM     13  C   UNL A   1      37.659  32.396  31.020  1.00  0.00     0.031 A 
ATOM     14  C   UNL A   1      38.038  32.714  32.430  1.00  0.00     0.074 A 
ATOM     15  C   UNL A   1      38.290  31.431  30.319  1.00  0.00     0.049 A 
ATOM     16  N   UNL A   1      39.006  32.199  33.145  1.00  0.00    -0.248 NA
ATOM     17  C   UNL A   1      37.253  33.741  33.132  1.00  0.00     0.031 C 
ATOM     18  C   UNL A   1      37.977  31.067  28.928  1.00  0.00     0.029 A 
ATOM     19  N   UNL A   1      39.264  30.540  30.672  1.00  0.00    -0.354 N 
ATOM     20  C   UNL A   1      38.979  32.871  34.358  1.00  0.00     0.074 A 
ATOM     21  C   UNL A   1      37.892  33.824  34.294  1.00  0.00     0.031 C 
ATOM     22  C   UNL A   1      38.657  29.966  28.591  1.00  0.00     0.029 A 
ATOM     23  C   UNL A   1      39.559  29.635  29.680  1.00  0.00     0.049 A 
ATOM     24  H   UNL A   1      39.711  30.545  31.549  1.00  0.00     0.167 HD
ATOM     25  C   UNL A   1      39.808  32.700  35.413  1.00  0.00     0.037 A 
ATOM     26  C   UNL A   1      40.495  28.672  29.629  1.00  0.00     0.037 A 
ATOM     27  C   UNL A   1      40.854  31.709  35.455  1.00  0.00     0.049 A 
ATOM     28  C   UNL A   1      41.391  28.516  30.817  1.00  0.00     0.074 A 
ATOM     29  C   UNL A   1      41.720  31.411  36.492  1.00  0.00     0.029 A 
ATOM     30  N   UNL A   1      41.174  30.853  34.408  1.00  0.00    -0.354 N 
ATOM     31  N   UNL A   1      41.356  29.156  31.961  1.00  0.00    -0.248 NA
ATOM     32  C   UNL A   1      42.475  27.538  30.700  1.00  0.00     0.031 C 
ATOM     33  C   UNL A   1      42.594  30.410  36.057  1.00  0.00     0.029 A 
ATOM     34  C   UNL A   1      42.247  30.051  34.764  1.00  0.00     0.049 A 
ATOM     35  H   UNL A   1      40.708  30.820  33.542  1.00  0.00     0.167 HD
ATOM     36  C   UNL A   1      42.425  28.675  32.695  1.00  0.00     0.074 A 
ATOM     37  C   UNL A   1      43.058  27.652  31.884  1.00  0.00     0.031 C 
ATOM     38  C   UNL A   1      42.859  29.057  33.919  1.00  0.00     0.037 A 
BRANCH  25  39
ATOM     39  C   UNL A   1      39.661  33.616  36.591  1.00  0.00     0.064 A 
ATOM     40  C   UNL A   1      40.256  34.885  36.628  1.00  0.00     0.173 A 
ATOM     41  C   UNL A   1      38.834  33.247  37.665  1.00  0.00     0.173 A 
ATOM     42  F   UNL A   1      41.064  35.280  35.635  1.00  0.00    -0.203 F 
ATOM     43  C   UNL A   1      40.029  35.749  37.699  1.00  0.00     0.198 A 
ATOM     44  C   UNL A   1      38.593  34.121  38.721  1.00  0.00     0.198 A 
ATOM     45  F   UNL A   1      38.240  32.044  37.676  1.00  0.00    -0.203 F 
ATOM     46  F   UNL A   1      40.621  36.952  37.723  1.00  0.00    -0.200 F 
ATOM     47  C   UNL A   1      39.190  35.371  38.737  1.00  0.00     0.200 A 
ATOM     48  F   UNL A   1      37.774  33.757  39.717  1.00  0.00    -0.200 F 
ATOM     49  F   UNL A   1      38.957  36.213  39.754  1.00  0.00    -0.200 F 
ENDBRANCH  25  39
BRANCH  26  50
ATOM     50  C   UNL A   1      40.671  27.873  28.389  1.00  0.00     0.064 A 
ATOM     51  C   UNL A   1      41.448  28.340  27.323  1.00  0.00     0.173 A 
ATOM     52  C   UNL A   1      40.082  26.604  28.258  1.00  0.00     0.173 A 
ATOM     53  F   UNL A   1      42.020  29.552  27.390  1.00  0.00    -0.203 F 
ATOM     54  C   UNL A   1      41.620  27.575  26.171  1.00  0.00     0.198 A 
ATOM     55  C   UNL A   1      40.288  25.824  27.125  1.00  0.00     0.198 A 
ATOM     56  F   UNL A   1      39.333  26.104  29.252  1.00  0.00    -0.203 F 
ATOM     57  F   UNL A   1      42.334  28.062  25.147  1.00  0.00    -0.200 F 
ATOM     58  C   UNL A   1      41.049  26.314  26.077  1.00  0.00     0.200 A 
ATOM     59  F   UNL A   1      39.756  24.597  27.054  1.00  0.00    -0.200 F 
ATOM     60  F   UNL A   1      41.228  25.573  24.975  1.00  0.00    -0.200 F 
ENDBRANCH  26  50
BRANCH  38  61
ATOM     61  C   UNL A   1      44.082  28.364  34.431  1.00  0.00     0.064 A 
ATOM     62  C   UNL A   1      43.987  27.152  35.129  1.00  0.00     0.173 A 
ATOM     63  C   UNL A   1      45.355  28.910  34.216  1.00  0.00     0.173 A 
ATOM     64  F   UNL A   1      42.788  26.607  35.377  1.00  0.00    -0.203 F 
ATOM     65  C   UNL A   1      45.128  26.522  35.617  1.00  0.00     0.198 A 
ATOM     66  C   UNL A   1      46.494  28.263  34.681  1.00  0.00     0.198 A 
ATOM     67  F   UNL A   1      45.491  30.069  33.553  1.00  0.00    -0.203 F 
ATOM     68  F   UNL A   1      45.014  25.391  36.327  1.00  0.00    -0.200 F 
ATOM     69  C   UNL A   1      46.379  27.075  35.386  1.00  0.00     0.200 A 
ATOM     70  F   UNL A   1      47.702  28.794  34.452  1.00  0.00    -0.200 F 
ATOM     71  F   UNL A   1      47.476  26.467  35.857  1.00  0.00    -0.200 F 
ENDBRANCH  38  61
ENDBRANCH  12  13
ENDBRANCH   5   7
ENDBRANCH   2   3
ENDBRANCH   1   2
BRANCH   1  72
ATOM     72  C   UNL A   1      31.685  30.188  25.977  1.00  0.00     0.023 C 
BRANCH  72  73
ATOM     73  C   UNL A   1      32.274  29.236  27.016  1.00  0.00     0.116 C 
BRANCH  73  74
ATOM     74  N   UNL A   1      31.468  28.046  27.130  1.00  0.00    -0.355 N 
ATOM     75  C   UNL A   1      31.523  26.892  26.398  1.00  0.00     0.238 C 
ATOM     76  H   UNL A   1      30.781  28.066  27.834  1.00  0.00     0.163 HD
ATOM     77  O   UNL A   1      30.654  26.049  26.631  1.00  0.00    -0.273 OA
BRANCH  75  78
ATOM     78  C   UNL A   1      32.714  26.610  25.488  1.00  0.00     0.165 C 
ATOM     79  C   UNL A   1      33.584  25.443  26.000  1.00  0.00     0.063 C 
ATOM     80  N   UNL A   1      32.642  26.436  23.993  1.00  0.00    -0.183 NA
ATOM     81  C   UNL A   1      34.053  24.701  24.758  1.00  0.00     0.131 C 
ATOM     82  C   UNL A   1      33.931  25.756  23.658  1.00  0.00     0.135 C 
BRANCH  80  83
ATOM     83  S   UNL A   1      31.296  25.648  23.283  1.00  0.00     0.244 S 
ATOM     84  O   UNL A   1      31.635  25.305  21.920  1.00  0.00    -0.207 OA
ATOM     85  O   UNL A   1      30.782  24.648  24.184  1.00  0.00    -0.207 OA
BRANCH  83  86
ATOM     86  C   UNL A   1      30.091  26.972  23.194  1.00  0.00     0.086 A 
ATOM     87  C   UNL A   1      28.811  26.818  23.741  1.00  0.00     0.026 A 
ATOM     88  C   UNL A   1      30.447  28.183  22.596  1.00  0.00     0.072 A 
ATOM     89  C   UNL A   1      27.840  27.806  23.567  1.00  0.00     0.052 A 
ATOM     90  C   UNL A   1      29.499  29.204  22.510  1.00  0.00     0.162 A 
ATOM     91  C   UNL A   1      28.180  28.995  22.936  1.00  0.00     0.161 A 
ATOM     92  O   UNL A   1      29.926  30.409  22.007  1.00  0.00    -0.486 OA
ATOM     93  O   UNL A   1      27.182  29.925  22.802  1.00  0.00    -0.486 OA
ATOM     94  C   UNL A   1      29.003  31.452  22.355  1.00  0.00     0.271 C 
ATOM     95  C   UNL A   1      27.591  31.030  21.987  1.00  0.00     0.271 C 
ENDBRANCH  83  86
ENDBRANCH  80  83
BRANCH  81  96
ATOM     96  O   UNL A   1      35.374  24.221  24.913  1.00  0.00    -0.392 OA
ATOM     97  H   UNL A   1      35.409  23.284  24.666  1.00  0.00     0.211 HD
ENDBRANCH  81  96
ENDBRANCH  75  78
ENDBRANCH  73  74
ENDBRANCH  72  73
ENDBRANCH   1  72
TORSDOF 14
ENDMDL
MODEL 2
REMARK VINA RESULT:     -13.0      0.509      7.327
REMARK SMILES O=C(NCCCCNC(=O)[C@H]1C[C@H](O)CN1S(=O)(=O)c1ccc2c(c1)OCCO2)c1ccc(-c2c3nc(c(-c4c(F)c(F)c(F)c(F)c4F)c4ccc([nH]4)c(-c4c(F)c(F)c(F)c(F)c4F)c4nc(c(-c5c(F)c(F)c(F)c(F)c5F)c5ccc2[nH]5)C=C4)C=C3)cc1
REMARK SMILES IDX 5 1 4 2 3 3 1 4 2 5 30 7 31 8 92 9 32 10 91 11 33 12 34 13
REMARK SMILES IDX 35 14 85 15 36 16 90 17 84 18 86 19 37 20 89 21 83 22 82 23
REMARK SMILES IDX 38 25 70 26 50 27 69 28 51 29 54 30 68 31 87 32 52 33 53 34
REMARK SMILES IDX 67 36 88 37 55 38 39 39 40 40 48 41 41 42 42 43 46 44 49 45
REMARK SMILES IDX 43 46 44 47 47 48 45 49 71 50 72 51 80 52 73 53 74 54 78 55
REMARK SMILES IDX 81 56 75 57 76 58 79 59 77 60 56 61 57 62 65 63 58 64 59 65
REMARK SMILES IDX 63 66 66 67 60 68 61 69 64 70 62 71 6 72 7 73 8 74 9 75
REMARK SMILES IDX 10 77 11 78 12 79 16 80 13 81 15 82 17 83 18 84 19 85 20 86
REMARK SMILES IDX 21 87 25 88 22 89 24 90 23 91 26 92 29 93 27 94 28 95 14 96
REMARK H PARENT 3 6 86 24 54 35 8 76 14 97
REMARK Flexibility Score: inf
ROOT
ATOM      1  C   UNL A   1      31.141  31.836  26.501  1.00  0.00     0.023 C 
ENDROOT
BRANCH   1   2
ATOM      2  C   UNL A   1      32.475  32.443  26.877  1.00  0.00     0.116 C 
BRANCH   2   3
ATOM      3  N   UNL A   1      32.342  33.828  27.343  1.00  0.00    -0.352 N 
ATOM      4  O   UNL A   1      32.590  35.558  28.787  1.00  0.00    -0.269 OA
ATOM      5  C   UNL A   1      32.993  34.481  28.364  1.00  0.00     0.251 C 
ATOM      6  H   UNL A   1      31.687  34.372  26.850  1.00  0.00     0.163 HD
BRANCH   5   7
ATOM      7  C   UNL A   1      34.198  33.853  28.930  1.00  0.00     0.039 A 
ATOM      8  C   UNL A   1      34.028  32.707  29.699  1.00  0.00     0.014 A 
ATOM      9  C   UNL A   1      35.465  34.410  28.749  1.00  0.00     0.014 A 
ATOM     10  C   UNL A   1      35.057  32.276  30.501  1.00  0.00     0.010 A 
ATOM     11  C   UNL A   1      36.558  33.831  29.399  1.00  0.00     0.010 A 
ATOM     12  C   UNL A   1      36.352  32.770  30.294  1.00  0.00    -0.014 A 
BRANCH  12  13
ATOM     13  C   UNL A   1      37.451  32.010  30.925  1.00  0.00     0.031 A 
ATOM     14  C   UNL A   1      38.263  31.016  30.160  1.00  0.00     0.074 A 
ATOM     15  C   UNL A   1      37.750  32.336  32.200  1.00  0.00     0.049 A 
ATOM     16  N   UNL A   1      39.278  30.304  30.580  1.00  0.00    -0.248 NA
ATOM     17  C   UNL A   1      37.896  30.770  28.757  1.00  0.00     0.031 C 
ATOM     18  C   UNL A   1      36.994  33.298  33.016  1.00  0.00     0.029 A 
ATOM     19  N   UNL A   1      38.781  31.963  33.016  1.00  0.00    -0.354 N 
ATOM     20  C   UNL A   1      39.639  29.493  29.514  1.00  0.00     0.074 A 
ATOM     21  C   UNL A   1      38.746  29.806  28.419  1.00  0.00     0.031 C 
ATOM     22  C   UNL A   1      37.647  33.523  34.161  1.00  0.00     0.029 A 
ATOM     23  C   UNL A   1      38.781  32.617  34.226  1.00  0.00     0.049 A 
ATOM     24  H   UNL A   1      39.456  31.292  32.764  1.00  0.00     0.167 HD
ATOM     25  C   UNL A   1      40.623  28.567  29.479  1.00  0.00     0.037 A 
ATOM     26  C   UNL A   1      39.576  32.466  35.298  1.00  0.00     0.037 A 
ATOM     27  C   UNL A   1      41.522  28.314  30.578  1.00  0.00     0.049 A 
ATOM     28  C   UNL A   1      40.654  31.431  35.218  1.00  0.00     0.074 A 
ATOM     29  C   UNL A   1      42.590  27.437  30.636  1.00  0.00     0.029 A 
ATOM     30  N   UNL A   1      41.453  28.944  31.815  1.00  0.00    -0.354 N 
ATOM     31  N   UNL A   1      40.987  30.671  34.203  1.00  0.00    -0.248 NA
ATOM     32  C   UNL A   1      41.439  31.203  36.433  1.00  0.00     0.031 C 
ATOM     33  C   UNL A   1      43.137  27.499  31.922  1.00  0.00     0.029 A 
ATOM     34  C   UNL A   1      42.440  28.448  32.654  1.00  0.00     0.049 A 
ATOM     35  H   UNL A   1      40.802  29.639  32.060  1.00  0.00     0.167 HD
ATOM     36  C   UNL A   1      42.008  29.857  34.661  1.00  0.00     0.074 A 
ATOM     37  C   UNL A   1      42.272  30.255  36.031  1.00  0.00     0.031 C 
ATOM     38  C   UNL A   1      42.656  28.858  34.018  1.00  0.00     0.037 A 
BRANCH  25  39
ATOM     39  C   UNL A   1      40.769  27.726  28.247  1.00  0.00     0.064 A 
ATOM     40  C   UNL A   1      41.570  28.119  27.166  1.00  0.00     0.173 A 
ATOM     41  C   UNL A   1      40.162  26.460  28.187  1.00  0.00     0.173 A 
ATOM     42  F   UNL A   1      42.162  29.321  27.167  1.00  0.00    -0.203 F 
ATOM     43  C   UNL A   1      41.757  27.275  26.070  1.00  0.00     0.198 A 
ATOM     44  C   UNL A   1      40.367  25.613  27.103  1.00  0.00     0.198 A 
ATOM     45  F   UNL A   1      39.386  26.037  29.198  1.00  0.00    -0.203 F 
ATOM     46  F   UNL A   1      42.514  27.676  25.040  1.00  0.00    -0.200 F 
ATOM     47  C   UNL A   1      41.164  26.021  26.045  1.00  0.00     0.200 A 
ATOM     48  F   UNL A   1      39.802  24.398  27.087  1.00  0.00    -0.200 F 
ATOM     49  F   UNL A   1      41.363  25.204  25.001  1.00  0.00    -0.200 F 
ENDBRANCH  25  39
BRANCH  26  50
ATOM     50  C   UNL A   1      39.312  33.245  36.534  1.00  0.00     0.064 A 
ATOM     51  C   UNL A   1      38.490  32.745  37.552  1.00  0.00     0.173 A 
ATOM     52  C   UNL A   1      39.902  34.505  36.735  1.00  0.00     0.173 A 
ATOM     53  F   UNL A   1      37.890  31.555  37.403  1.00  0.00    -0.203 F 
ATOM     54  C   UNL A   1      38.262  33.477  38.715  1.00  0.00     0.198 A 
ATOM     55  C   UNL A   1      39.706  35.216  37.913  1.00  0.00     0.198 A 
ATOM     56  F   UNL A   1      40.703  35.029  35.796  1.00  0.00    -0.203 F 
ATOM     57  F   UNL A   1      37.439  32.995  39.656  1.00  0.00    -0.200 F 
ATOM     58  C   UNL A   1      38.878  34.707  38.900  1.00  0.00     0.200 A 
ATOM     59  F   UNL A   1      40.326  36.389  38.096  1.00  0.00    -0.200 F 
ATOM     60  F   UNL A   1      38.669  35.402  40.026  1.00  0.00    -0.200 F 
ENDBRANCH  26  50
BRANCH  38  61
ATOM     61  C   UNL A   1      43.697  28.131  34.808  1.00  0.00     0.064 A 
ATOM     62  C   UNL A   1      45.024  28.586  34.847  1.00  0.00     0.173 A 
ATOM     63  C   UNL A   1      43.368  26.979  35.535  1.00  0.00     0.173 A 
ATOM     64  F   UNL A   1      45.387  29.669  34.146  1.00  0.00    -0.203 F 
ATOM     65  C   UNL A   1      45.991  27.894  35.570  1.00  0.00     0.198 A 
ATOM     66  C   UNL A   1      44.331  26.308  36.279  1.00  0.00     0.198 A 
ATOM     67  F   UNL A   1      42.111  26.510  35.525  1.00  0.00    -0.203 F 
ATOM     68  F   UNL A   1      47.263  28.314  35.553  1.00  0.00    -0.200 F 
ATOM     69  C   UNL A   1      45.642  26.761  36.290  1.00  0.00     0.200 A 
ATOM     70  F   UNL A   1      43.992  25.218  36.980  1.00  0.00    -0.200 F 
ATOM     71  F   UNL A   1      46.574  26.097  36.985  1.00  0.00    -0.200 F 
ENDBRANCH  38  61
ENDBRANCH  12  13
ENDBRANCH   5   7
ENDBRANCH   2   3
ENDBRANCH   1   2
BRANCH   1  72
ATOM     72  C   UNL A   1      31.325  30.610  25.632  1.00  0.00     0.023 C 
BRANCH  72  73
ATOM     73  C   UNL A   1      32.312  29.587  26.189  1.00  0.00     0.116 C 
BRANCH  73  74
ATOM     74  N   UNL A   1      31.615  28.435  26.704  1.00  0.00    -0.355 N 
ATOM     75  C   UNL A   1      31.725  27.122  26.335  1.00  0.00     0.238 C 
ATOM     76  H   UNL A   1      30.967  28.618  27.421  1.00  0.00     0.163 HD
ATOM     77  O   UNL A   1      30.942  26.331  26.867  1.00  0.00    -0.273 OA
BRANCH  75  78
ATOM     78  C   UNL A   1      32.885  26.661  25.459  1.00  0.00     0.165 C 
ATOM     79  C   UNL A   1      33.721  25.548  26.124  1.00  0.00     0.063 C 
ATOM     80  N   UNL A   1      32.773  26.271  24.008  1.00  0.00    -0.183 NA
ATOM     81  C   UNL A   1      34.135  24.612  24.999  1.00  0.00     0.131 C 
ATOM     82  C   UNL A   1      34.028  25.496  23.756  1.00  0.00     0.135 C 
BRANCH  80  83
ATOM     83  S   UNL A   1      31.384  25.442  23.443  1.00  0.00     0.244 S 
ATOM     84  O   UNL A   1      31.655  24.951  22.110  1.00  0.00    -0.207 OA
ATOM     85  O   UNL A   1      30.894  24.553  24.466  1.00  0.00    -0.207 OA
BRANCH  83  86
ATOM     86  C   UNL A   1      30.198  26.775  23.268  1.00  0.00     0.086 A 
ATOM     87  C   UNL A   1      28.939  26.703  23.876  1.00  0.00     0.026 A 
ATOM     88  C   UNL A   1      30.550  27.912  22.537  1.00  0.00     0.072 A 
ATOM     89  C   UNL A   1      27.978  27.689  23.640  1.00  0.00     0.052 A 
ATOM     90  C   UNL A   1      29.617  28.939  22.385  1.00  0.00     0.162 A 
ATOM     91  C   UNL A   1      28.313  28.801  22.880  1.00  0.00     0.161 A 
ATOM     92  O   UNL A   1      30.044  30.078  21.747  1.00  0.00    -0.486 OA
ATOM     93  O   UNL A   1      27.326  29.734  22.691  1.00  0.00    -0.486 OA
ATOM     94  C   UNL A   1      29.153  31.170  22.022  1.00  0.00     0.271 C 
ATOM     95  C   UNL A   1      27.721  30.742  21.753  1.00  0.00     0.271 C 
ENDBRANCH  83  86
ENDBRANCH  80  83
BRANCH  81  96
ATOM     96  O   UNL A   1      35.440  24.107  25.202  1.00  0.00    -0.392 OA
ATOM     97  H   UNL A   1      35.547  23.855  26.133  1.00  0.00     0.211 HD
ENDBRANCH  81  96
ENDBRANCH  75  78
ENDBRANCH  73  74
ENDBRANCH  72  73
ENDBRANCH   1  72
TORSDOF 14
ENDMDL
MODEL 3
REMARK VINA RESULT:     -12.9      5.568      9.843
REMARK SMILES O=C(NCCCCNC(=O)[C@H]1C[C@H](O)CN1S(=O)(=O)c1ccc2c(c1)OCCO2)c1ccc(-c2c3nc(c(-c4c(F)c(F)c(F)c(F)c4F)c4ccc([nH]4)c(-c4c(F)c(F)c(F)c(F)c4F)c4nc(c(-c5c(F)c(F)c(F)c(F)c5F)c5ccc2[nH]5)C=C4)C=C3)cc1
REMARK SMILES IDX 5 1 4 2 3 3 1 4 2 5 30 7 31 8 92 9 32 10 91 11 33 12 34 13
REMARK SMILES IDX 35 14 85 15 36 16 90 17 84 18 86 19 37 20 89 21 83 22 82 23
REMARK SMILES IDX 38 25 70 26 50 27 69 28 51 29 54 30 68 31 87 32 52 33 53 34
REMARK SMILES IDX 67 36 88 37 55 38 39 39 40 40 48 41 41 42 42 43 46 44 49 45
REMARK SMILES IDX 43 46 44 47 47 48 45 49 71 50 72 51 80 52 73 53 74 54 78 55
REMARK SMILES IDX 81 56 75 57 76 58 79 59 77 60 56 61 57 62 65 63 58 64 59 65
REMARK SMILES IDX 63 66 66 67 60 68 61 69 64 70 62 71 6 72 7 73 8 74 9 75
REMARK SMILES IDX 10 77 11 78 12 79 16 80 13 81 15 82 17 83 18 84 19 85 20 86
REMARK SMILES IDX 21 87 25 88 22 89 24 90 23 91 26 92 29 93 27 94 28 95 14 96
REMARK H PARENT 3 6 86 24 54 35 8 76 14 97
REMARK Flexibility Score: inf
ROOT
ATOM      1  C   UNL A   1      37.768  19.572  24.990  1.00  0.00     0.023 C 
ENDROOT
BRANCH   1   2
ATOM      2  C   UNL A   1      38.936  20.159  25.753  1.00  0.00     0.116 C 
BRANCH   2   3
ATOM      3  N   UNL A   1      40.045  19.208  25.887  1.00  0.00    -0.352 N 
ATOM      4  O   UNL A   1      42.214  18.549  25.913  1.00  0.00    -0.269 OA
ATOM      5  C   UNL A   1      41.388  19.440  26.071  1.00  0.00     0.251 C 
ATOM      6  H   UNL A   1      39.788  18.259  25.838  1.00  0.00     0.163 HD
BRANCH   5   7
ATOM      7  C   UNL A   1      41.808  20.791  26.475  1.00  0.00     0.039 A 
ATOM      8  C   UNL A   1      41.825  21.781  25.498  1.00  0.00     0.014 A 
ATOM      9  C   UNL A   1      42.225  21.068  27.778  1.00  0.00     0.014 A 
ATOM     10  C   UNL A   1      42.502  22.952  25.739  1.00  0.00     0.010 A 
ATOM     11  C   UNL A   1      42.714  22.342  28.076  1.00  0.00     0.010 A 
ATOM     12  C   UNL A   1      42.872  23.284  27.049  1.00  0.00    -0.014 A 
BRANCH  12  13
ATOM     13  C   UNL A   1      43.255  24.692  27.284  1.00  0.00     0.031 A 
ATOM     14  C   UNL A   1      42.324  25.665  27.932  1.00  0.00     0.074 A 
ATOM     15  C   UNL A   1      44.526  25.026  26.977  1.00  0.00     0.049 A 
ATOM     16  N   UNL A   1      42.542  26.920  28.229  1.00  0.00    -0.248 NA
ATOM     17  C   UNL A   1      40.976  25.190  28.282  1.00  0.00     0.031 C 
ATOM     18  C   UNL A   1      45.495  24.126  26.334  1.00  0.00     0.029 A 
ATOM     19  N   UNL A   1      45.248  26.163  27.209  1.00  0.00    -0.354 N 
ATOM     20  C   UNL A   1      41.351  27.399  28.754  1.00  0.00     0.074 A 
ATOM     21  C   UNL A   1      40.411  26.298  28.749  1.00  0.00     0.031 C 
ATOM     22  C   UNL A   1      46.703  24.700  26.330  1.00  0.00     0.029 A 
ATOM     23  C   UNL A   1      46.565  26.057  26.830  1.00  0.00     0.049 A 
ATOM     24  H   UNL A   1      44.864  26.977  27.608  1.00  0.00     0.167 HD
ATOM     25  C   UNL A   1      41.084  28.653  29.182  1.00  0.00     0.037 A 
ATOM     26  C   UNL A   1      47.549  26.972  26.832  1.00  0.00     0.037 A 
ATOM     27  C   UNL A   1      42.061  29.713  29.212  1.00  0.00     0.049 A 
ATOM     28  C   UNL A   1      47.211  28.348  27.314  1.00  0.00     0.074 A 
ATOM     29  C   UNL A   1      41.916  31.008  29.675  1.00  0.00     0.029 A 
ATOM     30  N   UNL A   1      43.368  29.594  28.756  1.00  0.00    -0.354 N 
ATOM     31  N   UNL A   1      46.081  28.789  27.810  1.00  0.00    -0.248 NA
ATOM     32  C   UNL A   1      48.265  29.360  27.206  1.00  0.00     0.031 C 
ATOM     33  C   UNL A   1      43.119  31.687  29.455  1.00  0.00     0.029 A 
ATOM     34  C   UNL A   1      44.029  30.805  28.896  1.00  0.00     0.049 A 
ATOM     35  H   UNL A   1      43.766  28.773  28.388  1.00  0.00     0.167 HD
ATOM     36  C   UNL A   1      46.276  30.136  28.055  1.00  0.00     0.074 A 
ATOM     37  C   UNL A   1      47.653  30.426  27.699  1.00  0.00     0.031 C 
ATOM     38  C   UNL A   1      45.395  31.057  28.512  1.00  0.00     0.037 A 
BRANCH  25  39
ATOM     39  C   UNL A   1      39.685  28.976  29.616  1.00  0.00     0.064 A 
ATOM     40  C   UNL A   1      38.712  29.432  28.715  1.00  0.00     0.173 A 
ATOM     41  C   UNL A   1      39.291  28.738  30.943  1.00  0.00     0.173 A 
ATOM     42  F   UNL A   1      39.038  29.686  27.441  1.00  0.00    -0.203 F 
ATOM     43  C   UNL A   1      37.396  29.640  29.129  1.00  0.00     0.198 A 
ATOM     44  C   UNL A   1      37.973  28.926  31.347  1.00  0.00     0.198 A 
ATOM     45  F   UNL A   1      40.185  28.299  31.843  1.00  0.00    -0.203 F 
ATOM     46  F   UNL A   1      36.485  30.092  28.257  1.00  0.00    -0.200 F 
ATOM     47  C   UNL A   1      37.026  29.377  30.441  1.00  0.00     0.200 A 
ATOM     48  F   UNL A   1      37.617  28.661  32.612  1.00  0.00    -0.200 F 
ATOM     49  F   UNL A   1      35.756  29.556  30.830  1.00  0.00    -0.200 F 
ENDBRANCH  25  39
BRANCH  26  50
ATOM     50  C   UNL A   1      48.885  26.628  26.281  1.00  0.00     0.064 A 
ATOM     51  C   UNL A   1      49.225  26.915  24.954  1.00  0.00     0.173 A 
ATOM     52  C   UNL A   1      49.865  26.024  27.088  1.00  0.00     0.173 A 
ATOM     53  F   UNL A   1      48.320  27.477  24.137  1.00  0.00    -0.203 F 
ATOM     54  C   UNL A   1      50.487  26.602  24.452  1.00  0.00     0.198 A 
ATOM     55  C   UNL A   1      51.137  25.750  26.597  1.00  0.00     0.198 A 
ATOM     56  F   UNL A   1      49.596  25.733  28.368  1.00  0.00    -0.203 F 
ATOM     57  F   UNL A   1      50.773  26.849  23.166  1.00  0.00    -0.200 F 
ATOM     58  C   UNL A   1      51.445  26.030  25.276  1.00  0.00     0.200 A 
ATOM     59  F   UNL A   1      52.065  25.223  27.407  1.00  0.00    -0.200 F 
ATOM     60  F   UNL A   1      52.663  25.744  24.796  1.00  0.00    -0.200 F 
ENDBRANCH  26  50
BRANCH  38  61
ATOM     61  C   UNL A   1      45.907  32.457  28.633  1.00  0.00     0.064 A 
ATOM     62  C   UNL A   1      46.535  32.898  29.806  1.00  0.00     0.173 A 
ATOM     63  C   UNL A   1      45.776  33.359  27.569  1.00  0.00     0.173 A 
ATOM     64  F   UNL A   1      46.660  32.074  30.857  1.00  0.00    -0.203 F 
ATOM     65  C   UNL A   1      46.994  34.207  29.918  1.00  0.00     0.198 A 
ATOM     66  C   UNL A   1      46.260  34.658  27.675  1.00  0.00     0.198 A 
ATOM     67  F   UNL A   1      45.180  32.979  26.428  1.00  0.00    -0.203 F 
ATOM     68  F   UNL A   1      47.544  34.625  31.066  1.00  0.00    -0.200 F 
ATOM     69  C   UNL A   1      46.861  35.082  28.850  1.00  0.00     0.200 A 
ATOM     70  F   UNL A   1      46.139  35.501  26.641  1.00  0.00    -0.200 F 
ATOM     71  F   UNL A   1      47.303  36.342  28.960  1.00  0.00    -0.200 F 
ENDBRANCH  38  61
ENDBRANCH  12  13
ENDBRANCH   5   7
ENDBRANCH   2   3
ENDBRANCH   1   2
BRANCH   1  72
ATOM     72  C   UNL A   1      36.621  20.555  24.908  1.00  0.00     0.023 C 
BRANCH  72  73
ATOM     73  C   UNL A   1      37.043  21.990  24.597  1.00  0.00     0.116 C 
BRANCH  73  74
ATOM     74  N   UNL A   1      36.292  22.511  23.482  1.00  0.00    -0.355 N 
ATOM     75  C   UNL A   1      35.097  23.176  23.481  1.00  0.00     0.238 C 
ATOM     76  H   UNL A   1      36.696  22.368  22.596  1.00  0.00     0.163 HD
ATOM     77  O   UNL A   1      34.611  23.437  22.377  1.00  0.00    -0.273 OA
BRANCH  75  78
ATOM     78  C   UNL A   1      34.514  23.720  24.781  1.00  0.00     0.165 C 
ATOM     79  C   UNL A   1      34.494  25.262  24.819  1.00  0.00     0.063 C 
ATOM     80  N   UNL A   1      33.210  23.283  25.396  1.00  0.00    -0.183 NA
ATOM     81  C   UNL A   1      33.213  25.642  25.545  1.00  0.00     0.131 C 
ATOM     82  C   UNL A   1      32.888  24.386  26.354  1.00  0.00     0.135 C 
BRANCH  80  83
ATOM     83  S   UNL A   1      31.874  22.892  24.397  1.00  0.00     0.244 S 
ATOM     84  O   UNL A   1      30.697  22.784  25.229  1.00  0.00    -0.207 OA
ATOM     85  O   UNL A   1      31.871  23.738  23.230  1.00  0.00    -0.207 OA
BRANCH  83  86
ATOM     86  C   UNL A   1      32.280  21.230  23.863  1.00  0.00     0.086 A 
ATOM     87  C   UNL A   1      32.002  20.805  22.558  1.00  0.00     0.026 A 
ATOM     88  C   UNL A   1      32.909  20.358  24.755  1.00  0.00     0.072 A 
ATOM     89  C   UNL A   1      32.212  19.476  22.183  1.00  0.00     0.052 A 
ATOM     90  C   UNL A   1      33.204  19.058  24.343  1.00  0.00     0.162 A 
ATOM     91  C   UNL A   1      32.800  18.598  23.083  1.00  0.00     0.161 A 
ATOM     92  O   UNL A   1      33.913  18.274  25.219  1.00  0.00    -0.486 OA
ATOM     93  O   UNL A   1      32.984  17.309  22.650  1.00  0.00    -0.486 OA
ATOM     94  C   UNL A   1      34.493  17.154  24.532  1.00  0.00     0.271 C 
ATOM     95  C   UNL A   1      33.429  16.452  23.708  1.00  0.00     0.271 C 
ENDBRANCH  83  86
ENDBRANCH  80  83
BRANCH  81  96
ATOM     96  O   UNL A   1      33.401  26.784  26.357  1.00  0.00    -0.392 OA
ATOM     97  H   UNL A   1      32.770  27.473  26.097  1.00  0.00     0.211 HD
ENDBRANCH  81  96
ENDBRANCH  75  78
ENDBRANCH  73  74
ENDBRANCH  72  73
ENDBRANCH   1  72
TORSDOF 14
ENDMDL
