MODEL 1
REMARK VINA RESULT:     -11.5      0.000      0.000
REMARK SMILES CCC(CC)Oc1ccc(OC)cc1/C=C/C(=O)NCCCCNC(=O)c1ccc(-c2c3nc(c(-c4c(F)c(F)c(F)c(F)c4F)c4ccc([nH]4)c(-c4c(F)c(F)c(F)c(F)c4F)c4nc(c(-c5c(F)c(F)c(F)c(F)c5F)c5ccc2[nH]5)C=C4)C=C3)cc1
REMARK SMILES IDX 20 1 19 2 17 3 18 4 16 6 15 7 14 8 7 9 8 10 9 11 13 12 10 13
REMARK SMILES IDX 6 14 3 15 2 16 1 17 4 18 5 19 11 20 12 21 21 22 22 23 23 24
REMARK SMILES IDX 24 25 25 26 26 28 27 29 28 30 89 31 29 32 88 33 30 34 31 35
REMARK SMILES IDX 32 36 82 37 33 38 87 39 81 40 83 41 34 42 86 43 80 44 79 45
REMARK SMILES IDX 35 47 67 48 47 49 66 50 48 51 51 52 65 53 84 54 49 55 50 56
REMARK SMILES IDX 64 58 85 59 52 60 36 61 37 62 45 63 38 64 39 65 43 66 46 67
REMARK SMILES IDX 40 68 41 69 44 70 42 71 68 72 69 73 77 74 70 75 71 76 75 77
REMARK SMILES IDX 78 78 72 79 73 80 76 81 74 82 53 83 54 84 62 85 55 86 56 87
REMARK SMILES IDX 60 88 63 89 57 90 58 91 61 92 59 93
REMARK H PARENT 19 5 24 27 83 46 51 57
REMARK Flexibility Score: inf
ROOT
ATOM      1  C   UNL A   1      33.106  29.190  23.062  1.00  0.00     0.116 C 
ENDROOT
BRANCH   1   2
ATOM      2  N   UNL A   1      33.405  28.178  22.076  1.00  0.00    -0.353 N 
ATOM      3  C   UNL A   1      33.516  26.835  22.242  1.00  0.00     0.244 C 
ATOM      4  O   UNL A   1      33.434  26.095  21.264  1.00  0.00    -0.270 OA
ATOM      5  H   UNL A   1      33.548  28.508  21.159  1.00  0.00     0.163 HD
BRANCH   3   6
ATOM      6  C   UNL A   1      33.676  26.228  23.585  1.00  0.00     0.072 C 
ATOM      7  C   UNL A   1      33.843  24.913  23.814  1.00  0.00     0.018 C 
BRANCH   7   8
ATOM      8  C   UNL A   1      33.739  24.318  25.164  1.00  0.00     0.020 A 
ATOM      9  C   UNL A   1      34.844  23.801  25.864  1.00  0.00     0.127 A 
ATOM     10  C   UNL A   1      34.651  23.042  27.023  1.00  0.00     0.051 A 
ATOM     11  C   UNL A   1      33.373  22.886  27.558  1.00  0.00     0.050 A 
ATOM     12  C   UNL A   1      32.455  24.139  25.721  1.00  0.00     0.058 A 
ATOM     13  C   UNL A   1      32.272  23.457  26.927  1.00  0.00     0.119 A 
BRANCH   9  14
ATOM     14  O   UNL A   1      36.121  23.890  25.389  1.00  0.00    -0.490 OA
BRANCH  14  15
ATOM     15  C   UNL A   1      36.985  22.737  25.543  1.00  0.00     0.172 C 
BRANCH  15  16
ATOM     16  C   UNL A   1      37.034  21.991  24.208  1.00  0.00     0.042 C 
ATOM     17  C   UNL A   1      36.708  22.796  22.965  1.00  0.00     0.008 C 
ENDBRANCH  15  16
BRANCH  15  18
ATOM     18  C   UNL A   1      38.348  22.906  26.246  1.00  0.00     0.042 C 
ATOM     19  C   UNL A   1      38.774  24.327  26.603  1.00  0.00     0.008 C 
ENDBRANCH  15  18
ENDBRANCH  14  15
ENDBRANCH   9  14
BRANCH  13  20
ATOM     20  O   UNL A   1      31.074  23.249  27.552  1.00  0.00    -0.497 OA
ATOM     21  C   UNL A   1      30.040  22.666  26.764  1.00  0.00     0.278 C 
ENDBRANCH  13  20
ENDBRANCH   7   8
ENDBRANCH   3   6
ENDBRANCH   1   2
BRANCH   1  22
ATOM     22  C   UNL A   1      31.719  29.026  23.684  1.00  0.00     0.023 C 
BRANCH  22  23
ATOM     23  C   UNL A   1      31.748  28.985  25.214  1.00  0.00     0.023 C 
BRANCH  23  24
ATOM     24  C   UNL A   1      32.951  29.668  25.860  1.00  0.00     0.116 C 
BRANCH  24  25
ATOM     25  N   UNL A   1      32.657  30.968  26.442  1.00  0.00    -0.352 N 
ATOM     26  C   UNL A   1      33.424  31.707  27.321  1.00  0.00     0.251 C 
ATOM     27  H   UNL A   1      31.801  31.373  26.175  1.00  0.00     0.163 HD
ATOM     28  O   UNL A   1      33.016  32.771  27.765  1.00  0.00    -0.269 OA
BRANCH  26  29
ATOM     29  C   UNL A   1      34.729  31.169  27.770  1.00  0.00     0.039 A 
ATOM     30  C   UNL A   1      35.802  32.052  27.922  1.00  0.00     0.014 A 
ATOM     31  C   UNL A   1      34.872  29.823  28.115  1.00  0.00     0.014 A 
ATOM     32  C   UNL A   1      36.985  31.606  28.518  1.00  0.00     0.010 A 
ATOM     33  C   UNL A   1      36.022  29.400  28.776  1.00  0.00     0.010 A 
ATOM     34  C   UNL A   1      37.084  30.291  29.002  1.00  0.00    -0.014 A 
BRANCH  34  35
ATOM     35  C   UNL A   1      38.269  29.841  29.780  1.00  0.00     0.031 A 
ATOM     36  C   UNL A   1      38.519  30.374  31.163  1.00  0.00     0.074 A 
ATOM     37  C   UNL A   1      39.167  29.013  29.209  1.00  0.00     0.049 A 
ATOM     38  N   UNL A   1      39.535  30.162  31.961  1.00  0.00    -0.248 NA
ATOM     39  C   UNL A   1      37.507  31.291  31.708  1.00  0.00     0.031 C 
ATOM     40  C   UNL A   1      39.075  28.468  27.854  1.00  0.00     0.029 A 
ATOM     41  N   UNL A   1      40.343  28.494  29.694  1.00  0.00    -0.354 N 
ATOM     42  C   UNL A   1      39.295  30.931  33.091  1.00  0.00     0.074 A 
ATOM     43  C   UNL A   1      38.061  31.653  32.856  1.00  0.00     0.031 C 
ATOM     44  C   UNL A   1      40.134  27.674  27.625  1.00  0.00     0.029 A 
ATOM     45  C   UNL A   1      40.998  27.681  28.801  1.00  0.00     0.049 A 
ATOM     46  H   UNL A   1      40.684  28.687  30.598  1.00  0.00     0.167 HD
ATOM     47  C   UNL A   1      40.022  31.012  34.231  1.00  0.00     0.037 A 
ATOM     48  C   UNL A   1      42.166  27.019  28.914  1.00  0.00     0.037 A 
ATOM     49  C   UNL A   1      41.230  30.270  34.480  1.00  0.00     0.049 A 
ATOM     50  C   UNL A   1      42.950  27.118  30.195  1.00  0.00     0.074 A 
ATOM     51  C   UNL A   1      41.996  30.230  35.632  1.00  0.00     0.029 A 
ATOM     52  N   UNL A   1      41.848  29.437  33.560  1.00  0.00    -0.354 N 
ATOM     53  N   UNL A   1      42.673  27.791  31.285  1.00  0.00    -0.248 NA
ATOM     54  C   UNL A   1      44.207  26.360  30.262  1.00  0.00     0.031 C 
ATOM     55  C   UNL A   1      43.100  29.403  35.395  1.00  0.00     0.029 A 
ATOM     56  C   UNL A   1      42.998  28.894  34.112  1.00  0.00     0.049 A 
ATOM     57  H   UNL A   1      41.520  29.257  32.649  1.00  0.00     0.167 HD
ATOM     58  C   UNL A   1      43.703  27.519  32.174  1.00  0.00     0.074 A 
ATOM     59  C   UNL A   1      44.606  26.607  31.502  1.00  0.00     0.031 C 
ATOM     60  C   UNL A   1      43.884  27.983  33.434  1.00  0.00     0.037 A 
BRANCH  47  61
ATOM     61  C   UNL A   1      39.523  31.934  35.305  1.00  0.00     0.064 A 
ATOM     62  C   UNL A   1      39.933  33.274  35.370  1.00  0.00     0.173 A 
ATOM     63  C   UNL A   1      38.599  31.483  36.258  1.00  0.00     0.173 A 
ATOM     64  F   UNL A   1      40.825  33.751  34.488  1.00  0.00    -0.203 F 
ATOM     65  C   UNL A   1      39.462  34.120  36.371  1.00  0.00     0.198 A 
ATOM     66  C   UNL A   1      38.106  32.338  37.239  1.00  0.00     0.198 A 
ATOM     67  F   UNL A   1      38.168  30.212  36.236  1.00  0.00    -0.203 F 
ATOM     68  F   UNL A   1      39.906  35.381  36.444  1.00  0.00    -0.200 F 
ATOM     69  C   UNL A   1      38.544  33.653  37.300  1.00  0.00     0.200 A 
ATOM     70  F   UNL A   1      37.210  31.891  38.130  1.00  0.00    -0.200 F 
ATOM     71  F   UNL A   1      38.087  34.470  38.260  1.00  0.00    -0.200 F 
ENDBRANCH  47  61
BRANCH  48  72
ATOM     72  C   UNL A   1      42.654  26.177  27.793  1.00  0.00     0.064 A 
ATOM     73  C   UNL A   1      42.263  24.834  27.683  1.00  0.00     0.173 A 
ATOM     74  C   UNL A   1      43.519  26.687  26.815  1.00  0.00     0.173 A 
ATOM     75  F   UNL A   1      41.454  24.295  28.607  1.00  0.00    -0.203 F 
ATOM     76  C   UNL A   1      42.734  24.030  26.647  1.00  0.00     0.198 A 
ATOM     77  C   UNL A   1      43.970  25.889  25.765  1.00  0.00     0.198 A 
ATOM     78  F   UNL A   1      43.919  27.966  26.875  1.00  0.00    -0.203 F 
ATOM     79  F   UNL A   1      42.380  22.739  26.590  1.00  0.00    -0.200 F 
ATOM     80  C   UNL A   1      43.583  24.559  25.686  1.00  0.00     0.200 A 
ATOM     81  F   UNL A   1      44.780  26.408  24.832  1.00  0.00    -0.200 F 
ATOM     82  F   UNL A   1      44.034  23.787  24.689  1.00  0.00    -0.200 F 
ENDBRANCH  48  72
BRANCH  60  83
ATOM     83  C   UNL A   1      45.089  27.491  34.182  1.00  0.00     0.064 A 
ATOM     84  C   UNL A   1      46.306  28.186  34.154  1.00  0.00     0.173 A 
ATOM     85  C   UNL A   1      45.010  26.332  34.969  1.00  0.00     0.173 A 
ATOM     86  F   UNL A   1      46.435  29.290  33.402  1.00  0.00    -0.203 F 
ATOM     87  C   UNL A   1      47.408  27.727  34.869  1.00  0.00     0.198 A 
ATOM     88  C   UNL A   1      46.106  25.891  35.706  1.00  0.00     0.198 A 
ATOM     89  F   UNL A   1      43.866  25.634  35.034  1.00  0.00    -0.203 F 
ATOM     90  F   UNL A   1      48.574  28.384  34.795  1.00  0.00    -0.200 F 
ATOM     91  C   UNL A   1      47.305  26.586  35.651  1.00  0.00     0.200 A 
ATOM     92  F   UNL A   1      46.002  24.795  36.469  1.00  0.00    -0.200 F 
ATOM     93  F   UNL A   1      48.365  26.150  36.345  1.00  0.00    -0.200 F 
ENDBRANCH  60  83
ENDBRANCH  34  35
ENDBRANCH  26  29
ENDBRANCH  24  25
ENDBRANCH  23  24
ENDBRANCH  22  23
ENDBRANCH   1  22
TORSDOF 17
ENDMDL
MODEL 2
REMARK VINA RESULT:     -11.3      1.956      3.059
REMARK SMILES CCC(CC)Oc1ccc(OC)cc1/C=C/C(=O)NCCCCNC(=O)c1ccc(-c2c3nc(c(-c4c(F)c(F)c(F)c(F)c4F)c4ccc([nH]4)c(-c4c(F)c(F)c(F)c(F)c4F)c4nc(c(-c5c(F)c(F)c(F)c(F)c5F)c5ccc2[nH]5)C=C4)C=C3)cc1
REMARK SMILES IDX 20 1 19 2 17 3 18 4 16 6 15 7 14 8 7 9 8 10 9 11 13 12 10 13
REMARK SMILES IDX 6 14 3 15 2 16 1 17 4 18 5 19 11 20 12 21 21 22 22 23 23 24
REMARK SMILES IDX 24 25 25 26 26 28 27 29 28 30 89 31 29 32 88 33 30 34 31 35
REMARK SMILES IDX 32 36 82 37 33 38 87 39 81 40 83 41 34 42 86 43 80 44 79 45
REMARK SMILES IDX 35 47 67 48 47 49 66 50 48 51 51 52 65 53 84 54 49 55 50 56
REMARK SMILES IDX 64 58 85 59 52 60 36 61 37 62 45 63 38 64 39 65 43 66 46 67
REMARK SMILES IDX 40 68 41 69 44 70 42 71 68 72 69 73 77 74 70 75 71 76 75 77
REMARK SMILES IDX 78 78 72 79 73 80 76 81 74 82 53 83 54 84 62 85 55 86 56 87
REMARK SMILES IDX 60 88 63 89 57 90 58 91 61 92 59 93
REMARK H PARENT 19 5 24 27 83 46 51 57
REMARK Flexibility Score: inf
ROOT
ATOM      1  C   UNL A   1      33.381  30.175  26.920  1.00  0.00     0.116 C 
ENDROOT
BRANCH   1   2
ATOM      2  N   UNL A   1      33.968  29.730  25.679  1.00  0.00    -0.353 N 
ATOM      3  C   UNL A   1      33.904  28.503  25.099  1.00  0.00     0.244 C 
ATOM      4  O   UNL A   1      34.161  28.385  23.903  1.00  0.00    -0.270 OA
ATOM      5  H   UNL A   1      34.486  30.408  25.187  1.00  0.00     0.163 HD
BRANCH   3   6
ATOM      6  C   UNL A   1      33.475  27.305  25.859  1.00  0.00     0.072 C 
ATOM      7  C   UNL A   1      33.841  26.044  25.567  1.00  0.00     0.018 C 
BRANCH   7   8
ATOM      8  C   UNL A   1      33.194  24.863  26.179  1.00  0.00     0.020 A 
ATOM      9  C   UNL A   1      33.860  23.642  26.384  1.00  0.00     0.127 A 
ATOM     10  C   UNL A   1      33.137  22.498  26.742  1.00  0.00     0.051 A 
ATOM     11  C   UNL A   1      31.771  22.581  27.009  1.00  0.00     0.050 A 
ATOM     12  C   UNL A   1      31.809  24.921  26.446  1.00  0.00     0.058 A 
ATOM     13  C   UNL A   1      31.105  23.798  26.891  1.00  0.00     0.119 A 
BRANCH   9  14
ATOM     14  O   UNL A   1      35.188  23.476  26.119  1.00  0.00    -0.490 OA
BRANCH  14  15
ATOM     15  C   UNL A   1      35.615  23.521  24.735  1.00  0.00     0.172 C 
BRANCH  15  16
ATOM     16  C   UNL A   1      37.144  23.478  24.701  1.00  0.00     0.042 C 
ATOM     17  C   UNL A   1      37.820  22.508  25.650  1.00  0.00     0.008 C 
ENDBRANCH  15  16
BRANCH  15  18
ATOM     18  C   UNL A   1      34.914  22.614  23.701  1.00  0.00     0.042 C 
ATOM     19  C   UNL A   1      33.953  23.287  22.726  1.00  0.00     0.008 C 
ENDBRANCH  15  18
ENDBRANCH  14  15
ENDBRANCH   9  14
BRANCH  13  20
ATOM     20  O   UNL A   1      29.772  23.760  27.191  1.00  0.00    -0.497 OA
ATOM     21  C   UNL A   1      29.181  22.468  27.289  1.00  0.00     0.278 C 
ENDBRANCH  13  20
ENDBRANCH   7   8
ENDBRANCH   3   6
ENDBRANCH   1   2
BRANCH   1  22
ATOM     22  C   UNL A   1      31.894  30.508  26.792  1.00  0.00     0.023 C 
BRANCH  22  23
ATOM     23  C   UNL A   1      31.606  32.009  26.872  1.00  0.00     0.023 C 
BRANCH  23  24
ATOM     24  C   UNL A   1      32.758  32.866  27.392  1.00  0.00     0.116 C 
BRANCH  24  25
ATOM     25  N   UNL A   1      32.380  34.229  27.732  1.00  0.00    -0.352 N 
ATOM     26  C   UNL A   1      32.975  35.083  28.639  1.00  0.00     0.251 C 
ATOM     27  H   UNL A   1      31.599  34.589  27.254  1.00  0.00     0.163 HD
ATOM     28  O   UNL A   1      32.508  36.193  28.853  1.00  0.00    -0.269 OA
BRANCH  26  29
ATOM     29  C   UNL A   1      34.160  34.619  29.398  1.00  0.00     0.039 A 
ATOM     30  C   UNL A   1      33.973  34.098  30.681  1.00  0.00     0.014 A 
ATOM     31  C   UNL A   1      35.432  34.623  28.818  1.00  0.00     0.014 A 
ATOM     32  C   UNL A   1      35.042  33.485  31.341  1.00  0.00     0.010 A 
ATOM     33  C   UNL A   1      36.476  33.947  29.445  1.00  0.00     0.010 A 
ATOM     34  C   UNL A   1      36.289  33.355  30.704  1.00  0.00    -0.014 A 
BRANCH  34  35
ATOM     35  C   UNL A   1      37.392  32.569  31.319  1.00  0.00     0.031 A 
ATOM     36  C   UNL A   1      37.907  32.922  32.686  1.00  0.00     0.074 A 
ATOM     37  C   UNL A   1      37.986  31.587  30.613  1.00  0.00     0.049 A 
ATOM     38  N   UNL A   1      38.909  32.407  33.352  1.00  0.00    -0.248 NA
ATOM     39  C   UNL A   1      37.222  34.021  33.385  1.00  0.00     0.031 C 
ATOM     40  C   UNL A   1      37.623  31.181  29.254  1.00  0.00     0.029 A 
ATOM     41  N   UNL A   1      39.033  30.757  30.936  1.00  0.00    -0.354 N 
ATOM     42  C   UNL A   1      38.988  33.128  34.535  1.00  0.00     0.074 A 
ATOM     43  C   UNL A   1      37.963  34.149  34.476  1.00  0.00     0.031 C 
ATOM     44  C   UNL A   1      38.415  30.166  28.870  1.00  0.00     0.029 A 
ATOM     45  C   UNL A   1      39.366  29.873  29.938  1.00  0.00     0.049 A 
ATOM     46  H   UNL A   1      39.501  30.794  31.802  1.00  0.00     0.167 HD
ATOM     47  C   UNL A   1      39.822  32.943  35.586  1.00  0.00     0.037 A 
ATOM     48  C   UNL A   1      40.330  28.935  29.887  1.00  0.00     0.037 A 
ATOM     49  C   UNL A   1      40.819  31.908  35.661  1.00  0.00     0.049 A 
ATOM     50  C   UNL A   1      41.238  28.744  31.072  1.00  0.00     0.074 A 
ATOM     51  C   UNL A   1      41.660  31.595  36.714  1.00  0.00     0.029 A 
ATOM     52  N   UNL A   1      41.109  31.015  34.640  1.00  0.00    -0.354 N 
ATOM     53  N   UNL A   1      41.253  29.384  32.215  1.00  0.00    -0.248 NA
ATOM     54  C   UNL A   1      42.260  27.693  30.960  1.00  0.00     0.031 C 
ATOM     55  C   UNL A   1      42.488  30.538  36.316  1.00  0.00     0.029 A 
ATOM     56  C   UNL A   1      42.131  30.164  35.031  1.00  0.00     0.049 A 
ATOM     57  H   UNL A   1      40.655  30.989  33.766  1.00  0.00     0.167 HD
ATOM     58  C   UNL A   1      42.263  28.800  32.966  1.00  0.00     0.074 A 
ATOM     59  C   UNL A   1      42.831  27.743  32.155  1.00  0.00     0.031 C 
ATOM     60  C   UNL A   1      42.682  29.113  34.217  1.00  0.00     0.037 A 
BRANCH  47  61
ATOM     61  C   UNL A   1      39.685  33.881  36.750  1.00  0.00     0.064 A 
ATOM     62  C   UNL A   1      40.319  35.132  36.762  1.00  0.00     0.173 A 
ATOM     63  C   UNL A   1      38.885  33.538  37.850  1.00  0.00     0.173 A 
ATOM     64  F   UNL A   1      41.104  35.501  35.739  1.00  0.00    -0.203 F 
ATOM     65  C   UNL A   1      40.183  35.993  37.848  1.00  0.00     0.198 A 
ATOM     66  C   UNL A   1      38.727  34.414  38.921  1.00  0.00     0.198 A 
ATOM     67  F   UNL A   1      38.252  32.356  37.885  1.00  0.00    -0.203 F 
ATOM     68  F   UNL A   1      40.838  37.162  37.860  1.00  0.00    -0.200 F 
ATOM     69  C   UNL A   1      39.382  35.637  38.923  1.00  0.00     0.200 A 
ATOM     70  F   UNL A   1      37.944  34.074  39.954  1.00  0.00    -0.200 F 
ATOM     71  F   UNL A   1      39.249  36.469  39.965  1.00  0.00    -0.200 F 
ENDBRANCH  47  61
BRANCH  48  72
ATOM     72  C   UNL A   1      40.472  28.081  28.680  1.00  0.00     0.064 A 
ATOM     73  C   UNL A   1      41.258  28.498  27.596  1.00  0.00     0.173 A 
ATOM     74  C   UNL A   1      39.827  26.840  28.580  1.00  0.00     0.173 A 
ATOM     75  F   UNL A   1      41.877  29.687  27.637  1.00  0.00    -0.203 F 
ATOM     76  C   UNL A   1      41.379  27.714  26.451  1.00  0.00     0.198 A 
ATOM     77  C   UNL A   1      39.968  26.046  27.444  1.00  0.00     0.198 A 
ATOM     78  F   UNL A   1      39.066  26.397  29.591  1.00  0.00    -0.203 F 
ATOM     79  F   UNL A   1      42.101  28.156  25.412  1.00  0.00    -0.200 F 
ATOM     80  C   UNL A   1      40.738  26.486  26.377  1.00  0.00     0.200 A 
ATOM     81  F   UNL A   1      39.356  24.855  27.382  1.00  0.00    -0.200 F 
ATOM     82  F   UNL A   1      40.855  25.732  25.277  1.00  0.00    -0.200 F 
ENDBRANCH  48  72
BRANCH  60  83
ATOM     83  C   UNL A   1      43.790  28.284  34.799  1.00  0.00     0.064 A 
ATOM     84  C   UNL A   1      45.135  28.658  34.669  1.00  0.00     0.173 A 
ATOM     85  C   UNL A   1      43.497  27.122  35.530  1.00  0.00     0.173 A 
ATOM     86  F   UNL A   1      45.465  29.752  33.965  1.00  0.00    -0.203 F 
ATOM     87  C   UNL A   1      46.148  27.889  35.232  1.00  0.00     0.198 A 
ATOM     88  C   UNL A   1      44.512  26.370  36.115  1.00  0.00     0.198 A 
ATOM     89  F   UNL A   1      42.226  26.724  35.687  1.00  0.00    -0.203 F 
ATOM     90  F   UNL A   1      47.430  28.243  35.060  1.00  0.00    -0.200 F 
ATOM     91  C   UNL A   1      45.836  26.751  35.960  1.00  0.00     0.200 A 
ATOM     92  F   UNL A   1      44.208  25.277  36.828  1.00  0.00    -0.200 F 
ATOM     93  F   UNL A   1      46.814  26.015  36.508  1.00  0.00    -0.200 F 
ENDBRANCH  60  83
ENDBRANCH  34  35
ENDBRANCH  26  29
ENDBRANCH  24  25
ENDBRANCH  23  24
ENDBRANCH  22  23
ENDBRANCH   1  22
TORSDOF 17
ENDMDL
MODEL 3
REMARK VINA RESULT:     -10.8      1.841      3.313
REMARK SMILES CCC(CC)Oc1ccc(OC)cc1/C=C/C(=O)NCCCCNC(=O)c1ccc(-c2c3nc(c(-c4c(F)c(F)c(F)c(F)c4F)c4ccc([nH]4)c(-c4c(F)c(F)c(F)c(F)c4F)c4nc(c(-c5c(F)c(F)c(F)c(F)c5F)c5ccc2[nH]5)C=C4)C=C3)cc1
REMARK SMILES IDX 20 1 19 2 17 3 18 4 16 6 15 7 14 8 7 9 8 10 9 11 13 12 10 13
REMARK SMILES IDX 6 14 3 15 2 16 1 17 4 18 5 19 11 20 12 21 21 22 22 23 23 24
REMARK SMILES IDX 24 25 25 26 26 28 27 29 28 30 89 31 29 32 88 33 30 34 31 35
REMARK SMILES IDX 32 36 82 37 33 38 87 39 81 40 83 41 34 42 86 43 80 44 79 45
REMARK SMILES IDX 35 47 67 48 47 49 66 50 48 51 51 52 65 53 84 54 49 55 50 56
REMARK SMILES IDX 64 58 85 59 52 60 36 61 37 62 45 63 38 64 39 65 43 66 46 67
REMARK SMILES IDX 40 68 41 69 44 70 42 71 68 72 69 73 77 74 70 75 71 76 75 77
REMARK SMILES IDX 78 78 72 79 73 80 76 81 74 82 53 83 54 84 62 85 55 86 56 87
REMARK SMILES IDX 60 88 63 89 57 90 58 91 61 92 59 93
REMARK H PARENT 19 5 24 27 83 46 51 57
REMARK Flexibility Score: inf
ROOT
ATOM      1  C   UNL A   1      33.256  29.610  26.578  1.00  0.00     0.116 C 
ENDROOT
BRANCH   1   2
ATOM      2  N   UNL A   1      33.269  29.357  25.156  1.00  0.00    -0.353 N 
ATOM      3  C   UNL A   1      33.364  28.169  24.504  1.00  0.00     0.244 C 
ATOM      4  O   UNL A   1      33.020  28.096  23.326  1.00  0.00    -0.270 OA
ATOM      5  H   UNL A   1      33.199  30.154  24.582  1.00  0.00     0.163 HD
BRANCH   3   6
ATOM      6  C   UNL A   1      33.820  26.938  25.193  1.00  0.00     0.072 C 
ATOM      7  C   UNL A   1      34.129  25.786  24.573  1.00  0.00     0.018 C 
BRANCH   7   8
ATOM      8  C   UNL A   1      34.326  24.514  25.302  1.00  0.00     0.020 A 
ATOM      9  C   UNL A   1      33.412  24.021  26.250  1.00  0.00     0.127 A 
ATOM     10  C   UNL A   1      33.764  22.947  27.074  1.00  0.00     0.051 A 
ATOM     11  C   UNL A   1      34.976  22.282  26.888  1.00  0.00     0.050 A 
ATOM     12  C   UNL A   1      35.550  23.831  25.138  1.00  0.00     0.058 A 
ATOM     13  C   UNL A   1      35.862  22.702  25.900  1.00  0.00     0.119 A 
BRANCH   9  14
ATOM     14  O   UNL A   1      32.220  24.634  26.509  1.00  0.00    -0.490 OA
BRANCH  14  15
ATOM     15  C   UNL A   1      31.146  24.459  25.552  1.00  0.00     0.172 C 
BRANCH  15  16
ATOM     16  C   UNL A   1      30.472  23.113  25.825  1.00  0.00     0.042 C 
ATOM     17  C   UNL A   1      29.719  22.980  27.135  1.00  0.00     0.008 C 
ENDBRANCH  15  16
BRANCH  15  18
ATOM     18  C   UNL A   1      30.177  25.631  25.285  1.00  0.00     0.042 C 
ATOM     19  C   UNL A   1      30.057  26.119  23.845  1.00  0.00     0.008 C 
ENDBRANCH  15  18
ENDBRANCH  14  15
ENDBRANCH   9  14
BRANCH  13  20
ATOM     20  O   UNL A   1      37.010  21.965  25.801  1.00  0.00    -0.497 OA
ATOM     21  C   UNL A   1      37.350  21.490  24.503  1.00  0.00     0.278 C 
ENDBRANCH  13  20
ENDBRANCH   7   8
ENDBRANCH   3   6
ENDBRANCH   1   2
BRANCH   1  22
ATOM     22  C   UNL A   1      31.934  30.202  27.067  1.00  0.00     0.023 C 
BRANCH  22  23
ATOM     23  C   UNL A   1      31.781  31.687  26.731  1.00  0.00     0.023 C 
BRANCH  23  24
ATOM     24  C   UNL A   1      32.914  32.586  27.221  1.00  0.00     0.116 C 
BRANCH  24  25
ATOM     25  N   UNL A   1      32.497  33.935  27.569  1.00  0.00    -0.352 N 
ATOM     26  C   UNL A   1      33.040  34.785  28.511  1.00  0.00     0.251 C 
ATOM     27  H   UNL A   1      31.726  34.288  27.067  1.00  0.00     0.163 HD
ATOM     28  O   UNL A   1      32.543  35.881  28.726  1.00  0.00    -0.269 OA
BRANCH  26  29
ATOM     29  C   UNL A   1      34.204  34.331  29.307  1.00  0.00     0.039 A 
ATOM     30  C   UNL A   1      33.975  33.603  30.477  1.00  0.00     0.014 A 
ATOM     31  C   UNL A   1      35.510  34.551  28.860  1.00  0.00     0.014 A 
ATOM     32  C   UNL A   1      35.050  33.007  31.143  1.00  0.00     0.010 A 
ATOM     33  C   UNL A   1      36.570  33.895  29.481  1.00  0.00     0.010 A 
ATOM     34  C   UNL A   1      36.350  33.101  30.617  1.00  0.00    -0.014 A 
BRANCH  34  35
ATOM     35  C   UNL A   1      37.482  32.345  31.217  1.00  0.00     0.031 A 
ATOM     36  C   UNL A   1      37.990  32.695  32.588  1.00  0.00     0.074 A 
ATOM     37  C   UNL A   1      38.107  31.394  30.495  1.00  0.00     0.049 A 
ATOM     38  N   UNL A   1      39.012  32.205  33.243  1.00  0.00    -0.248 NA
ATOM     39  C   UNL A   1      37.271  33.759  33.305  1.00  0.00     0.031 C 
ATOM     40  C   UNL A   1      37.753  30.996  29.131  1.00  0.00     0.029 A 
ATOM     41  N   UNL A   1      39.183  30.597  30.802  1.00  0.00    -0.354 N 
ATOM     42  C   UNL A   1      39.071  32.911  34.436  1.00  0.00     0.074 A 
ATOM     43  C   UNL A   1      38.010  33.897  34.395  1.00  0.00     0.031 C 
ATOM     44  C   UNL A   1      38.578  30.015  28.729  1.00  0.00     0.029 A 
ATOM     45  C   UNL A   1      39.542  29.740  29.790  1.00  0.00     0.049 A 
ATOM     46  H   UNL A   1      39.653  30.636  31.666  1.00  0.00     0.167 HD
ATOM     47  C   UNL A   1      39.914  32.739  35.481  1.00  0.00     0.037 A 
ATOM     48  C   UNL A   1      40.539  28.836  29.721  1.00  0.00     0.037 A 
ATOM     49  C   UNL A   1      40.947  31.738  35.538  1.00  0.00     0.049 A 
ATOM     50  C   UNL A   1      41.457  28.658  30.900  1.00  0.00     0.074 A 
ATOM     51  C   UNL A   1      41.802  31.438  36.583  1.00  0.00     0.029 A 
ATOM     52  N   UNL A   1      41.263  30.871  34.503  1.00  0.00    -0.354 N 
ATOM     53  N   UNL A   1      41.454  29.282  32.053  1.00  0.00    -0.248 NA
ATOM     54  C   UNL A   1      42.514  27.645  30.770  1.00  0.00     0.031 C 
ATOM     55  C   UNL A   1      42.664  30.417  36.167  1.00  0.00     0.029 A 
ATOM     56  C   UNL A   1      42.315  30.050  34.878  1.00  0.00     0.049 A 
ATOM     57  H   UNL A   1      40.807  30.842  33.630  1.00  0.00     0.167 HD
ATOM     58  C   UNL A   1      42.486  28.722  32.792  1.00  0.00     0.074 A 
ATOM     59  C   UNL A   1      43.087  27.697  31.963  1.00  0.00     0.031 C 
ATOM     60  C   UNL A   1      42.899  29.030  34.046  1.00  0.00     0.037 A 
BRANCH  47  61
ATOM     61  C   UNL A   1      39.750  33.654  36.660  1.00  0.00     0.064 A 
ATOM     62  C   UNL A   1      40.390  34.901  36.715  1.00  0.00     0.173 A 
ATOM     63  C   UNL A   1      38.917  33.295  37.729  1.00  0.00     0.173 A 
ATOM     64  F   UNL A   1      41.207  35.286  35.722  1.00  0.00    -0.203 F 
ATOM     65  C   UNL A   1      40.228  35.741  37.814  1.00  0.00     0.198 A 
ATOM     66  C   UNL A   1      38.733  34.150  38.812  1.00  0.00     0.198 A 
ATOM     67  F   UNL A   1      38.276  32.117  37.722  1.00  0.00    -0.203 F 
ATOM     68  F   UNL A   1      40.889  36.905  37.868  1.00  0.00    -0.200 F 
ATOM     69  C   UNL A   1      39.395  35.368  38.858  1.00  0.00     0.200 A 
ATOM     70  F   UNL A   1      37.919  33.795  39.815  1.00  0.00    -0.200 F 
ATOM     71  F   UNL A   1      39.236  36.180  39.912  1.00  0.00    -0.200 F 
ENDBRANCH  47  61
BRANCH  48  72
ATOM     72  C   UNL A   1      40.705  28.005  28.501  1.00  0.00     0.064 A 
ATOM     73  C   UNL A   1      40.079  26.754  28.396  1.00  0.00     0.173 A 
ATOM     74  C   UNL A   1      41.491  28.435  27.423  1.00  0.00     0.173 A 
ATOM     75  F   UNL A   1      39.335  26.291  29.411  1.00  0.00    -0.203 F 
ATOM     76  C   UNL A   1      40.248  25.958  27.265  1.00  0.00     0.198 A 
ATOM     77  C   UNL A   1      41.639  27.648  26.282  1.00  0.00     0.198 A 
ATOM     78  F   UNL A   1      42.108  29.625  27.475  1.00  0.00    -0.203 F 
ATOM     79  F   UNL A   1      39.674  24.749  27.209  1.00  0.00    -0.200 F 
ATOM     80  C   UNL A   1      41.024  26.407  26.207  1.00  0.00     0.200 A 
ATOM     81  F   UNL A   1      42.380  28.092  25.257  1.00  0.00    -0.200 F 
ATOM     82  F   UNL A   1      41.185  25.643  25.119  1.00  0.00    -0.200 F 
ENDBRANCH  48  72
BRANCH  60  83
ATOM     83  C   UNL A   1      44.037  28.231  34.612  1.00  0.00     0.064 A 
ATOM     84  C   UNL A   1      45.365  28.669  34.509  1.00  0.00     0.173 A 
ATOM     85  C   UNL A   1      43.789  27.034  35.300  1.00  0.00     0.173 A 
ATOM     86  F   UNL A   1      45.653  29.799  33.845  1.00  0.00    -0.203 F 
ATOM     87  C   UNL A   1      46.406  27.926  35.057  1.00  0.00     0.198 A 
ATOM     88  C   UNL A   1      44.830  26.308  35.871  1.00  0.00     0.198 A 
ATOM     89  F   UNL A   1      42.535  26.575  35.430  1.00  0.00    -0.203 F 
ATOM     90  F   UNL A   1      47.673  28.341  34.911  1.00  0.00    -0.200 F 
ATOM     91  C   UNL A   1      46.138  26.751  35.744  1.00  0.00     0.200 A 
ATOM     92  F   UNL A   1      44.568  25.179  36.543  1.00  0.00    -0.200 F 
ATOM     93  F   UNL A   1      47.142  26.041  36.277  1.00  0.00    -0.200 F 
ENDBRANCH  60  83
ENDBRANCH  34  35
ENDBRANCH  26  29
ENDBRANCH  24  25
ENDBRANCH  23  24
ENDBRANCH  22  23
ENDBRANCH   1  22
TORSDOF 17
ENDMDL
