MODEL 1
REMARK VINA RESULT:     -12.9      0.000      0.000
REMARK SMILES O=C(NCCCCNC(=O)c1cc(NC(=S)NC(=O)c2ccccc2F)ccc1Cl)c1ccc(-c2c3nc(c(-c4c(F)c(F)c(F)c(F)c4F)c4ccc([nH]4)c(-c4c(F)c(F)c(F)c(F)c4F)c4nc(c(-c5c(F)c(F)c(F)c(F)c5F)c5ccc2[nH]5)C=C4)C=C3)cc1
REMARK SMILES IDX 6 1 5 2 4 3 3 4 1 5 2 6 31 8 32 9 93 10 33 11 92 12 34 13
REMARK SMILES IDX 35 14 36 15 86 16 37 17 91 18 85 19 87 20 38 21 90 22 84 23
REMARK SMILES IDX 83 24 39 26 71 27 51 28 70 29 52 30 55 31 69 32 88 33 53 34
REMARK SMILES IDX 54 35 68 37 89 38 56 39 40 40 41 41 49 42 42 43 43 44 47 45
REMARK SMILES IDX 50 46 44 47 45 48 48 49 46 50 72 51 73 52 81 53 74 54 75 55
REMARK SMILES IDX 79 56 82 57 76 58 77 59 80 60 78 61 57 62 58 63 66 64 59 65
REMARK SMILES IDX 60 66 64 67 67 68 61 69 62 70 65 71 63 72 7 73 8 74 9 75
REMARK SMILES IDX 10 77 11 78 12 79 29 80 13 81 28 82 30 83 27 84 14 85 15 87
REMARK SMILES IDX 16 88 17 89 18 90 19 92 20 93 21 94 25 95 22 96 24 97 26 98
REMARK SMILES IDX 23 99
REMARK H PARENT 3 7 87 25 55 36 8 76 14 86 17 91
REMARK Flexibility Score: inf
ROOT
ATOM      1  C   UNL A   1      37.270  21.102  24.815  1.00  0.00     0.023 C 
ENDROOT
BRANCH   1   2
ATOM      2  C   UNL A   1      38.191  19.899  25.005  1.00  0.00     0.023 C 
BRANCH   2   3
ATOM      3  C   UNL A   1      39.329  20.140  25.980  1.00  0.00     0.116 C 
BRANCH   3   4
ATOM      4  N   UNL A   1      40.325  19.075  25.957  1.00  0.00    -0.352 N 
ATOM      5  O   UNL A   1      42.415  18.205  25.930  1.00  0.00    -0.269 OA
ATOM      6  C   UNL A   1      41.684  19.171  26.115  1.00  0.00     0.251 C 
ATOM      7  H   UNL A   1      39.976  18.167  25.807  1.00  0.00     0.163 HD
BRANCH   6   8
ATOM      8  C   UNL A   1      42.242  20.483  26.479  1.00  0.00     0.039 A 
ATOM      9  C   UNL A   1      42.319  20.842  27.825  1.00  0.00     0.014 A 
ATOM     10  C   UNL A   1      42.587  21.386  25.473  1.00  0.00     0.014 A 
ATOM     11  C   UNL A   1      42.557  22.164  28.157  1.00  0.00     0.010 A 
ATOM     12  C   UNL A   1      42.966  22.682  25.823  1.00  0.00     0.010 A 
ATOM     13  C   UNL A   1      42.925  23.089  27.166  1.00  0.00    -0.014 A 
BRANCH  13  14
ATOM     14  C   UNL A   1      43.360  24.442  27.588  1.00  0.00     0.031 A 
ATOM     15  C   UNL A   1      44.808  24.835  27.613  1.00  0.00     0.074 A 
ATOM     16  C   UNL A   1      42.400  25.333  27.911  1.00  0.00     0.049 A 
ATOM     17  N   UNL A   1      45.335  25.988  27.945  1.00  0.00    -0.248 NA
ATOM     18  C   UNL A   1      45.796  23.817  27.228  1.00  0.00     0.031 C 
ATOM     19  C   UNL A   1      40.961  25.051  27.919  1.00  0.00     0.029 A 
ATOM     20  N   UNL A   1      42.476  26.655  28.260  1.00  0.00    -0.354 N 
ATOM     21  C   UNL A   1      46.708  25.832  27.815  1.00  0.00     0.074 A 
ATOM     22  C   UNL A   1      46.942  24.464  27.410  1.00  0.00     0.031 C 
ATOM     23  C   UNL A   1      40.290  26.178  28.181  1.00  0.00     0.029 A 
ATOM     24  C   UNL A   1      41.248  27.239  28.458  1.00  0.00     0.049 A 
ATOM     25  H   UNL A   1      43.327  27.140  28.361  1.00  0.00     0.167 HD
ATOM     26  C   UNL A   1      47.676  26.760  28.005  1.00  0.00     0.037 A 
ATOM     27  C   UNL A   1      40.924  28.485  28.846  1.00  0.00     0.037 A 
ATOM     28  C   UNL A   1      47.425  28.125  28.398  1.00  0.00     0.049 A 
ATOM     29  C   UNL A   1      42.030  29.464  29.112  1.00  0.00     0.074 A 
ATOM     30  C   UNL A   1      48.342  29.142  28.599  1.00  0.00     0.029 A 
ATOM     31  N   UNL A   1      46.171  28.664  28.647  1.00  0.00    -0.354 N 
ATOM     32  N   UNL A   1      43.322  29.310  28.962  1.00  0.00    -0.248 NA
ATOM     33  C   UNL A   1      41.633  30.789  29.603  1.00  0.00     0.031 C 
ATOM     34  C   UNL A   1      47.651  30.274  29.033  1.00  0.00     0.029 A 
ATOM     35  C   UNL A   1      46.296  29.990  29.028  1.00  0.00     0.049 A 
ATOM     36  H   UNL A   1      45.319  28.176  28.567  1.00  0.00     0.167 HD
ATOM     37  C   UNL A   1      43.892  30.525  29.313  1.00  0.00     0.074 A 
ATOM     38  C   UNL A   1      42.801  31.412  29.659  1.00  0.00     0.031 C 
ATOM     39  C   UNL A   1      45.200  30.870  29.354  1.00  0.00     0.037 A 
BRANCH  26  40
ATOM     40  C   UNL A   1      49.107  26.358  27.791  1.00  0.00     0.064 A 
ATOM     41  C   UNL A   1      49.959  26.153  28.889  1.00  0.00     0.173 A 
ATOM     42  C   UNL A   1      49.672  26.317  26.508  1.00  0.00     0.173 A 
ATOM     43  F   UNL A   1      49.473  26.190  30.139  1.00  0.00    -0.203 F 
ATOM     44  C   UNL A   1      51.326  25.959  28.710  1.00  0.00     0.198 A 
ATOM     45  C   UNL A   1      51.035  26.093  26.332  1.00  0.00     0.198 A 
ATOM     46  F   UNL A   1      48.901  26.498  25.425  1.00  0.00    -0.203 F 
ATOM     47  F   UNL A   1      52.128  25.824  29.777  1.00  0.00    -0.200 F 
ATOM     48  C   UNL A   1      51.863  25.931  27.433  1.00  0.00     0.200 A 
ATOM     49  F   UNL A   1      51.550  26.048  25.095  1.00  0.00    -0.200 F 
ATOM     50  F   UNL A   1      53.181  25.754  27.263  1.00  0.00    -0.200 F 
ENDBRANCH  26  40
BRANCH  27  51
ATOM     51  C   UNL A   1      39.497  28.865  29.009  1.00  0.00     0.064 A 
ATOM     52  C   UNL A   1      38.848  28.765  30.250  1.00  0.00     0.173 A 
ATOM     53  C   UNL A   1      38.748  29.332  27.920  1.00  0.00     0.173 A 
ATOM     54  F   UNL A   1      39.514  28.315  31.323  1.00  0.00    -0.203 F 
ATOM     55  C   UNL A   1      37.504  29.101  30.391  1.00  0.00     0.198 A 
ATOM     56  C   UNL A   1      37.415  29.709  28.072  1.00  0.00     0.198 A 
ATOM     57  F   UNL A   1      39.324  29.458  26.715  1.00  0.00    -0.203 F 
ATOM     58  F   UNL A   1      36.901  28.956  31.578  1.00  0.00    -0.200 F 
ATOM     59  C   UNL A   1      36.792  29.585  29.305  1.00  0.00     0.200 A 
ATOM     60  F   UNL A   1      36.740  30.206  27.027  1.00  0.00    -0.200 F 
ATOM     61  F   UNL A   1      35.508  29.940  29.448  1.00  0.00    -0.200 F 
ENDBRANCH  27  51
BRANCH  39  62
ATOM     62  C   UNL A   1      45.535  32.280  29.745  1.00  0.00     0.064 A 
ATOM     63  C   UNL A   1      45.629  33.285  28.768  1.00  0.00     0.173 A 
ATOM     64  C   UNL A   1      45.824  32.629  31.073  1.00  0.00     0.173 A 
ATOM     65  F   UNL A   1      45.370  33.003  27.482  1.00  0.00    -0.203 F 
ATOM     66  C   UNL A   1      46.018  34.577  29.103  1.00  0.00     0.198 A 
ATOM     67  C   UNL A   1      46.173  33.933  31.411  1.00  0.00     0.198 A 
ATOM     68  F   UNL A   1      45.736  31.710  32.047  1.00  0.00    -0.203 F 
ATOM     69  F   UNL A   1      46.144  35.506  28.145  1.00  0.00    -0.200 F 
ATOM     70  C   UNL A   1      46.282  34.902  30.425  1.00  0.00     0.200 A 
ATOM     71  F   UNL A   1      46.397  34.253  32.692  1.00  0.00    -0.200 F 
ATOM     72  F   UNL A   1      46.639  36.153  30.749  1.00  0.00    -0.200 F 
ENDBRANCH  39  62
ENDBRANCH  13  14
ENDBRANCH   6   8
ENDBRANCH   3   4
ENDBRANCH   2   3
ENDBRANCH   1   2
BRANCH   1  73
ATOM     73  C   UNL A   1      35.810  20.822  25.168  1.00  0.00     0.116 C 
BRANCH  73  74
ATOM     74  N   UNL A   1      35.352  21.700  26.221  1.00  0.00    -0.352 N 
ATOM     75  C   UNL A   1      34.548  22.799  26.178  1.00  0.00     0.252 C 
ATOM     76  H   UNL A   1      35.676  21.465  27.119  1.00  0.00     0.163 HD
ATOM     77  O   UNL A   1      34.234  23.321  27.245  1.00  0.00    -0.269 OA
BRANCH  75  78
ATOM     78  C   UNL A   1      33.979  23.308  24.860  1.00  0.00     0.060 A 
ATOM     79  C   UNL A   1      34.433  24.755  23.531  1.00  0.00     0.041 A 
ATOM     80  C   UNL A   1      32.367  22.511  24.604  1.00  0.00     0.053 A 
ATOM     81  C   UNL A   1      33.347  25.307  22.347  1.00  0.00     0.041 A 
ATOM     82  C   UNL A   1      31.349  23.089  23.254  1.00  0.00     0.023 A 
ATOM     83  Cl  UNL A   1      31.776  21.243  25.601  1.00  0.00    -0.083 Cl
ATOM     84  C   UNL A   1      31.828  24.452  22.178  1.00  0.00     0.028 A 
BRANCH  81  85
ATOM     85  N   UNL A   1      33.699  26.614  21.973  1.00  0.00    -0.332 N 
ATOM     86  H   UNL A   1      34.396  26.675  21.279  1.00  0.00     0.169 HD
BRANCH  85  87
ATOM     87  C   UNL A   1      33.218  27.831  22.429  1.00  0.00     0.177 C 
ATOM     88  S   UNL A   1      34.243  28.693  23.449  1.00  0.00    -0.040 S 
BRANCH  87  89
ATOM     89  N   UNL A   1      31.957  28.473  22.140  1.00  0.00    -0.299 N 
ATOM     90  C   UNL A   1      30.567  28.970  22.449  1.00  0.00     0.260 C 
ATOM     91  H   UNL A   1      32.069  28.738  21.198  1.00  0.00     0.172 HD
ATOM     92  O   UNL A   1      29.942  29.575  21.582  1.00  0.00    -0.269 OA
BRANCH  90  93
ATOM     93  C   UNL A   1      29.928  28.764  23.815  1.00  0.00     0.075 A 
ATOM     94  C   UNL A   1      29.253  27.152  23.710  1.00  0.00     0.017 A 
ATOM     95  C   UNL A   1      31.041  29.287  25.132  1.00  0.00     0.135 A 
ATOM     96  C   UNL A   1      29.905  25.909  24.794  1.00  0.00     0.001 A 
ATOM     97  C   UNL A   1      31.790  28.145  26.283  1.00  0.00     0.040 A 
ATOM     98  F   UNL A   1      31.668  30.466  24.989  1.00  0.00    -0.206 F 
ATOM     99  C   UNL A   1      31.318  26.399  26.157  1.00  0.00     0.003 A 
ENDBRANCH  90  93
ENDBRANCH  87  89
ENDBRANCH  85  87
ENDBRANCH  81  85
ENDBRANCH  75  78
ENDBRANCH  73  74
ENDBRANCH   1  73
TORSDOF 15
ENDMDL
MODEL 2
REMARK VINA RESULT:     -12.8      1.644      2.395
REMARK SMILES O=C(NCCCCNC(=O)c1cc(NC(=S)NC(=O)c2ccccc2F)ccc1Cl)c1ccc(-c2c3nc(c(-c4c(F)c(F)c(F)c(F)c4F)c4ccc([nH]4)c(-c4c(F)c(F)c(F)c(F)c4F)c4nc(c(-c5c(F)c(F)c(F)c(F)c5F)c5ccc2[nH]5)C=C4)C=C3)cc1
REMARK SMILES IDX 6 1 5 2 4 3 3 4 1 5 2 6 31 8 32 9 93 10 33 11 92 12 34 13
REMARK SMILES IDX 35 14 36 15 86 16 37 17 91 18 85 19 87 20 38 21 90 22 84 23
REMARK SMILES IDX 83 24 39 26 71 27 51 28 70 29 52 30 55 31 69 32 88 33 53 34
REMARK SMILES IDX 54 35 68 37 89 38 56 39 40 40 41 41 49 42 42 43 43 44 47 45
REMARK SMILES IDX 50 46 44 47 45 48 48 49 46 50 72 51 73 52 81 53 74 54 75 55
REMARK SMILES IDX 79 56 82 57 76 58 77 59 80 60 78 61 57 62 58 63 66 64 59 65
REMARK SMILES IDX 60 66 64 67 67 68 61 69 62 70 65 71 63 72 7 73 8 74 9 75
REMARK SMILES IDX 10 77 11 78 12 79 29 80 13 81 28 82 30 83 27 84 14 85 15 87
REMARK SMILES IDX 16 88 17 89 18 90 19 92 20 93 21 94 25 95 22 96 24 97 26 98
REMARK SMILES IDX 23 99
REMARK H PARENT 3 7 87 25 55 36 8 76 14 86 17 91
REMARK Flexibility Score: inf
ROOT
ATOM      1  C   UNL A   1      39.205  22.650  26.425  1.00  0.00     0.023 C 
ENDROOT
BRANCH   1   2
ATOM      2  C   UNL A   1      39.357  21.282  25.764  1.00  0.00     0.023 C 
BRANCH   2   3
ATOM      3  C   UNL A   1      39.768  20.177  26.719  1.00  0.00     0.116 C 
BRANCH   3   4
ATOM      4  N   UNL A   1      40.813  19.319  26.173  1.00  0.00    -0.352 N 
ATOM      5  O   UNL A   1      42.854  18.843  25.318  1.00  0.00    -0.269 OA
ATOM      6  C   UNL A   1      42.124  19.627  25.912  1.00  0.00     0.251 C 
ATOM      7  H   UNL A   1      40.541  18.396  25.962  1.00  0.00     0.163 HD
BRANCH   6   8
ATOM      8  C   UNL A   1      42.617  20.947  26.336  1.00  0.00     0.039 A 
ATOM      9  C   UNL A   1      42.644  21.260  27.696  1.00  0.00     0.014 A 
ATOM     10  C   UNL A   1      42.948  21.899  25.372  1.00  0.00     0.014 A 
ATOM     11  C   UNL A   1      42.819  22.577  28.080  1.00  0.00     0.010 A 
ATOM     12  C   UNL A   1      43.264  23.196  25.777  1.00  0.00     0.010 A 
ATOM     13  C   UNL A   1      43.172  23.552  27.132  1.00  0.00    -0.014 A 
BRANCH  13  14
ATOM     14  C   UNL A   1      43.538  24.905  27.613  1.00  0.00     0.031 A 
ATOM     15  C   UNL A   1      44.967  25.357  27.690  1.00  0.00     0.074 A 
ATOM     16  C   UNL A   1      42.534  25.743  27.942  1.00  0.00     0.049 A 
ATOM     17  N   UNL A   1      45.437  26.518  28.075  1.00  0.00    -0.248 NA
ATOM     18  C   UNL A   1      46.007  24.396  27.295  1.00  0.00     0.031 C 
ATOM     19  C   UNL A   1      41.109  25.402  27.902  1.00  0.00     0.029 A 
ATOM     20  N   UNL A   1      42.546  27.054  28.340  1.00  0.00    -0.354 N 
ATOM     21  C   UNL A   1      46.818  26.424  27.976  1.00  0.00     0.074 A 
ATOM     22  C   UNL A   1      47.119  25.082  27.529  1.00  0.00     0.031 C 
ATOM     23  C   UNL A   1      40.384  26.491  28.186  1.00  0.00     0.029 A 
ATOM     24  C   UNL A   1      41.289  27.579  28.526  1.00  0.00     0.049 A 
ATOM     25  H   UNL A   1      43.372  27.570  28.479  1.00  0.00     0.167 HD
ATOM     26  C   UNL A   1      47.741  27.383  28.224  1.00  0.00     0.037 A 
ATOM     27  C   UNL A   1      40.903  28.796  28.949  1.00  0.00     0.037 A 
ATOM     28  C   UNL A   1      47.423  28.722  28.658  1.00  0.00     0.049 A 
ATOM     29  C   UNL A   1      41.960  29.809  29.278  1.00  0.00     0.074 A 
ATOM     30  C   UNL A   1      48.291  29.768  28.919  1.00  0.00     0.029 A 
ATOM     31  N   UNL A   1      46.141  29.199  28.894  1.00  0.00    -0.354 N 
ATOM     32  N   UNL A   1      43.261  29.715  29.157  1.00  0.00    -0.248 NA
ATOM     33  C   UNL A   1      41.495  31.098  29.806  1.00  0.00     0.031 C 
ATOM     34  C   UNL A   1      47.542  30.854  29.374  1.00  0.00     0.029 A 
ATOM     35  C   UNL A   1      46.200  30.514  29.325  1.00  0.00     0.049 A 
ATOM     36  H   UNL A   1      45.313  28.679  28.774  1.00  0.00     0.167 HD
ATOM     37  C   UNL A   1      43.770  30.938  29.566  1.00  0.00     0.074 A 
ATOM     38  C   UNL A   1      42.634  31.767  29.913  1.00  0.00     0.031 C 
ATOM     39  C   UNL A   1      45.061  31.335  29.652  1.00  0.00     0.037 A 
BRANCH  26  40
ATOM     40  C   UNL A   1      49.193  27.050  28.033  1.00  0.00     0.064 A 
ATOM     41  C   UNL A   1      49.765  27.076  26.751  1.00  0.00     0.173 A 
ATOM     42  C   UNL A   1      49.978  26.568  29.091  1.00  0.00     0.173 A 
ATOM     43  F   UNL A   1      49.056  27.519  25.703  1.00  0.00    -0.203 F 
ATOM     44  C   UNL A   1      51.054  26.598  26.531  1.00  0.00     0.198 A 
ATOM     45  C   UNL A   1      51.278  26.119  28.871  1.00  0.00     0.198 A 
ATOM     46  F   UNL A   1      49.483  26.531  30.337  1.00  0.00    -0.203 F 
ATOM     47  F   UNL A   1      51.557  26.579  25.288  1.00  0.00    -0.200 F 
ATOM     48  C   UNL A   1      51.808  26.119  27.590  1.00  0.00     0.200 A 
ATOM     49  F   UNL A   1      52.013  25.673  29.900  1.00  0.00    -0.200 F 
ATOM     50  F   UNL A   1      53.046  25.649  27.374  1.00  0.00    -0.200 F 
ENDBRANCH  26  40
BRANCH  27  51
ATOM     51  C   UNL A   1      39.458  29.110  29.088  1.00  0.00     0.064 A 
ATOM     52  C   UNL A   1      38.801  29.013  30.325  1.00  0.00     0.173 A 
ATOM     53  C   UNL A   1      38.699  29.510  27.980  1.00  0.00     0.173 A 
ATOM     54  F   UNL A   1      39.477  28.626  31.417  1.00  0.00    -0.203 F 
ATOM     55  C   UNL A   1      37.442  29.287  30.445  1.00  0.00     0.198 A 
ATOM     56  C   UNL A   1      37.348  29.826  28.109  1.00  0.00     0.198 A 
ATOM     57  F   UNL A   1      39.281  29.631  26.777  1.00  0.00    -0.203 F 
ATOM     58  F   UNL A   1      36.834  29.145  31.630  1.00  0.00    -0.200 F 
ATOM     59  C   UNL A   1      36.719  29.705  29.339  1.00  0.00     0.200 A 
ATOM     60  F   UNL A   1      36.661  30.260  27.044  1.00  0.00    -0.200 F 
ATOM     61  F   UNL A   1      35.418  30.001  29.460  1.00  0.00    -0.200 F 
ENDBRANCH  27  51
BRANCH  39  62
ATOM     62  C   UNL A   1      45.326  32.743  30.102  1.00  0.00     0.064 A 
ATOM     63  C   UNL A   1      45.411  33.784  29.163  1.00  0.00     0.173 A 
ATOM     64  C   UNL A   1      45.558  33.056  31.449  1.00  0.00     0.173 A 
ATOM     65  F   UNL A   1      45.206  33.538  27.860  1.00  0.00    -0.203 F 
ATOM     66  C   UNL A   1      45.737  35.079  29.554  1.00  0.00     0.198 A 
ATOM     67  C   UNL A   1      45.843  34.361  31.842  1.00  0.00     0.198 A 
ATOM     68  F   UNL A   1      45.475  32.101  32.389  1.00  0.00    -0.203 F 
ATOM     69  F   UNL A   1      45.857  36.045  28.633  1.00  0.00    -0.200 F 
ATOM     70  C   UNL A   1      45.945  35.367  30.894  1.00  0.00     0.200 A 
ATOM     71  F   UNL A   1      46.012  34.645  33.140  1.00  0.00    -0.200 F 
ATOM     72  F   UNL A   1      46.240  36.619  31.272  1.00  0.00    -0.200 F 
ENDBRANCH  39  62
ENDBRANCH  13  14
ENDBRANCH   6   8
ENDBRANCH   3   4
ENDBRANCH   2   3
ENDBRANCH   1   2
BRANCH   1  73
ATOM     73  C   UNL A   1      37.912  23.373  26.054  1.00  0.00     0.116 C 
BRANCH  73  74
ATOM     74  N   UNL A   1      37.664  23.298  24.632  1.00  0.00    -0.352 N 
ATOM     75  C   UNL A   1      36.497  23.211  23.934  1.00  0.00     0.252 C 
ATOM     76  H   UNL A   1      38.474  23.312  24.074  1.00  0.00     0.163 HD
ATOM     77  O   UNL A   1      36.558  23.254  22.708  1.00  0.00    -0.269 OA
BRANCH  75  78
ATOM     78  C   UNL A   1      35.153  23.160  24.650  1.00  0.00     0.060 A 
ATOM     79  C   UNL A   1      33.753  24.489  25.230  1.00  0.00     0.041 A 
ATOM     80  C   UNL A   1      34.935  21.481  25.307  1.00  0.00     0.053 A 
ATOM     81  C   UNL A   1      32.540  24.130  26.365  1.00  0.00     0.041 A 
ATOM     82  C   UNL A   1      33.556  21.180  26.402  1.00  0.00     0.023 A 
ATOM     83  Cl  UNL A   1      35.995  20.181  24.936  1.00  0.00    -0.083 Cl
ATOM     84  C   UNL A   1      32.412  22.473  26.918  1.00  0.00     0.028 A 
BRANCH  81  85
ATOM     85  N   UNL A   1      32.100  25.322  26.962  1.00  0.00    -0.332 N 
ATOM     86  H   UNL A   1      32.402  25.460  27.890  1.00  0.00     0.169 HD
BRANCH  85  87
ATOM     87  C   UNL A   1      31.308  26.337  26.447  1.00  0.00     0.177 C 
ATOM     88  S   UNL A   1      29.953  25.843  25.579  1.00  0.00    -0.040 S 
BRANCH  87  89
ATOM     89  N   UNL A   1      31.477  27.766  26.562  1.00  0.00    -0.299 N 
ATOM     90  C   UNL A   1      31.751  29.161  26.059  1.00  0.00     0.260 C 
ATOM     91  H   UNL A   1      31.326  27.916  27.524  1.00  0.00     0.172 HD
ATOM     92  O   UNL A   1      31.696  30.102  26.845  1.00  0.00    -0.269 OA
BRANCH  90  93
ATOM     93  C   UNL A   1      32.072  29.436  24.597  1.00  0.00     0.075 A 
ATOM     94  C   UNL A   1      33.590  28.599  24.348  1.00  0.00     0.017 A 
ATOM     95  C   UNL A   1      30.620  29.181  23.560  1.00  0.00     0.135 A 
ATOM     96  C   UNL A   1      33.614  27.251  23.197  1.00  0.00     0.001 A 
ATOM     97  C   UNL A   1      30.493  27.852  22.374  1.00  0.00     0.040 A 
ATOM     98  F   UNL A   1      29.455  29.703  23.977  1.00  0.00    -0.206 F 
ATOM     99  C   UNL A   1      31.942  26.784  22.155  1.00  0.00     0.003 A 
ENDBRANCH  90  93
ENDBRANCH  87  89
ENDBRANCH  85  87
ENDBRANCH  81  85
ENDBRANCH  75  78
ENDBRANCH  73  74
ENDBRANCH   1  73
TORSDOF 15
ENDMDL
MODEL 3
REMARK VINA RESULT:     -12.6      1.040      2.103
REMARK SMILES O=C(NCCCCNC(=O)c1cc(NC(=S)NC(=O)c2ccccc2F)ccc1Cl)c1ccc(-c2c3nc(c(-c4c(F)c(F)c(F)c(F)c4F)c4ccc([nH]4)c(-c4c(F)c(F)c(F)c(F)c4F)c4nc(c(-c5c(F)c(F)c(F)c(F)c5F)c5ccc2[nH]5)C=C4)C=C3)cc1
REMARK SMILES IDX 6 1 5 2 4 3 3 4 1 5 2 6 31 8 32 9 93 10 33 11 92 12 34 13
REMARK SMILES IDX 35 14 36 15 86 16 37 17 91 18 85 19 87 20 38 21 90 22 84 23
REMARK SMILES IDX 83 24 39 26 71 27 51 28 70 29 52 30 55 31 69 32 88 33 53 34
REMARK SMILES IDX 54 35 68 37 89 38 56 39 40 40 41 41 49 42 42 43 43 44 47 45
REMARK SMILES IDX 50 46 44 47 45 48 48 49 46 50 72 51 73 52 81 53 74 54 75 55
REMARK SMILES IDX 79 56 82 57 76 58 77 59 80 60 78 61 57 62 58 63 66 64 59 65
REMARK SMILES IDX 60 66 64 67 67 68 61 69 62 70 65 71 63 72 7 73 8 74 9 75
REMARK SMILES IDX 10 77 11 78 12 79 29 80 13 81 28 82 30 83 27 84 14 85 15 87
REMARK SMILES IDX 16 88 17 89 18 90 19 92 20 93 21 94 25 95 22 96 24 97 26 98
REMARK SMILES IDX 23 99
REMARK H PARENT 3 7 87 25 55 36 8 76 14 86 17 91
REMARK Flexibility Score: inf
ROOT
ATOM      1  C   UNL A   1      37.459  20.810  24.808  1.00  0.00     0.023 C 
ENDROOT
BRANCH   1   2
ATOM      2  C   UNL A   1      38.394  19.636  25.085  1.00  0.00     0.023 C 
BRANCH   2   3
ATOM      3  C   UNL A   1      39.596  19.991  25.941  1.00  0.00     0.116 C 
BRANCH   3   4
ATOM      4  N   UNL A   1      40.598  18.932  25.974  1.00  0.00    -0.352 N 
ATOM      5  O   UNL A   1      42.692  18.073  26.023  1.00  0.00    -0.269 OA
ATOM      6  C   UNL A   1      41.952  19.040  26.162  1.00  0.00     0.251 C 
ATOM      7  H   UNL A   1      40.257  18.018  25.842  1.00  0.00     0.163 HD
BRANCH   6   8
ATOM      8  C   UNL A   1      42.495  20.365  26.500  1.00  0.00     0.039 A 
ATOM      9  C   UNL A   1      42.414  20.820  27.817  1.00  0.00     0.014 A 
ATOM     10  C   UNL A   1      42.985  21.187  25.484  1.00  0.00     0.014 A 
ATOM     11  C   UNL A   1      42.644  22.158  28.083  1.00  0.00     0.010 A 
ATOM     12  C   UNL A   1      43.352  22.498  25.788  1.00  0.00     0.010 A 
ATOM     13  C   UNL A   1      43.156  23.002  27.083  1.00  0.00    -0.014 A 
BRANCH  13  14
ATOM     14  C   UNL A   1      43.570  24.374  27.461  1.00  0.00     0.031 A 
ATOM     15  C   UNL A   1      45.008  24.801  27.435  1.00  0.00     0.074 A 
ATOM     16  C   UNL A   1      42.599  25.250  27.791  1.00  0.00     0.049 A 
ATOM     17  N   UNL A   1      45.517  25.974  27.724  1.00  0.00    -0.248 NA
ATOM     18  C   UNL A   1      46.009  23.797  27.044  1.00  0.00     0.031 C 
ATOM     19  C   UNL A   1      41.168  24.935  27.847  1.00  0.00     0.029 A 
ATOM     20  N   UNL A   1      42.654  26.582  28.107  1.00  0.00    -0.354 N 
ATOM     21  C   UNL A   1      46.889  25.846  27.558  1.00  0.00     0.074 A 
ATOM     22  C   UNL A   1      47.144  24.474  27.178  1.00  0.00     0.031 C 
ATOM     23  C   UNL A   1      40.478  26.053  28.102  1.00  0.00     0.029 A 
ATOM     24  C   UNL A   1      41.418  27.142  28.327  1.00  0.00     0.049 A 
ATOM     25  H   UNL A   1      43.495  27.088  28.171  1.00  0.00     0.167 HD
ATOM     26  C   UNL A   1      47.840  26.800  27.698  1.00  0.00     0.037 A 
ATOM     27  C   UNL A   1      41.076  28.389  28.695  1.00  0.00     0.037 A 
ATOM     28  C   UNL A   1      47.568  28.168  28.066  1.00  0.00     0.049 A 
ATOM     29  C   UNL A   1      42.165  29.399  28.906  1.00  0.00     0.074 A 
ATOM     30  C   UNL A   1      48.466  29.211  28.217  1.00  0.00     0.029 A 
ATOM     31  N   UNL A   1      46.309  28.684  28.339  1.00  0.00    -0.354 N 
ATOM     32  N   UNL A   1      43.456  29.272  28.722  1.00  0.00    -0.248 NA
ATOM     33  C   UNL A   1      41.751  30.726  29.378  1.00  0.00     0.031 C 
ATOM     34  C   UNL A   1      47.761  30.337  28.644  1.00  0.00     0.029 A 
ATOM     35  C   UNL A   1      46.413  30.022  28.685  1.00  0.00     0.049 A 
ATOM     36  H   UNL A   1      45.467  28.175  28.295  1.00  0.00     0.167 HD
ATOM     37  C   UNL A   1      44.006  30.507  29.028  1.00  0.00     0.074 A 
ATOM     38  C   UNL A   1      42.905  31.377  29.384  1.00  0.00     0.031 C 
ATOM     39  C   UNL A   1      45.307  30.883  29.022  1.00  0.00     0.037 A 
BRANCH  26  40
ATOM     40  C   UNL A   1      49.274  26.427  27.451  1.00  0.00     0.064 A 
ATOM     41  C   UNL A   1      50.136  26.170  28.529  1.00  0.00     0.173 A 
ATOM     42  C   UNL A   1      49.829  26.463  26.164  1.00  0.00     0.173 A 
ATOM     43  F   UNL A   1      49.659  26.133  29.783  1.00  0.00    -0.203 F 
ATOM     44  C   UNL A   1      51.504  26.002  28.331  1.00  0.00     0.198 A 
ATOM     45  C   UNL A   1      51.193  26.264  25.966  1.00  0.00     0.198 A 
ATOM     46  F   UNL A   1      49.047  26.696  25.098  1.00  0.00    -0.203 F 
ATOM     47  F   UNL A   1      52.315  25.816  29.382  1.00  0.00    -0.200 F 
ATOM     48  C   UNL A   1      52.031  26.050  27.050  1.00  0.00     0.200 A 
ATOM     49  F   UNL A   1      51.698  26.293  24.725  1.00  0.00    -0.200 F 
ATOM     50  F   UNL A   1      53.349  25.898  26.860  1.00  0.00    -0.200 F 
ENDBRANCH  26  40
BRANCH  27  51
ATOM     51  C   UNL A   1      39.645  28.739  28.890  1.00  0.00     0.064 A 
ATOM     52  C   UNL A   1      38.876  29.291  27.854  1.00  0.00     0.173 A 
ATOM     53  C   UNL A   1      39.017  28.533  30.126  1.00  0.00     0.173 A 
ATOM     54  F   UNL A   1      39.429  29.518  26.653  1.00  0.00    -0.203 F 
ATOM     55  C   UNL A   1      37.542  29.637  28.050  1.00  0.00     0.198 A 
ATOM     56  C   UNL A   1      37.670  28.840  30.309  1.00  0.00     0.198 A 
ATOM     57  F   UNL A   1      39.704  27.997  31.146  1.00  0.00    -0.203 F 
ATOM     58  F   UNL A   1      36.845  30.201  27.055  1.00  0.00    -0.200 F 
ATOM     59  C   UNL A   1      36.937  29.400  29.274  1.00  0.00     0.200 A 
ATOM     60  F   UNL A   1      37.081  28.580  31.484  1.00  0.00    -0.200 F 
ATOM     61  F   UNL A   1      35.644  29.703  29.454  1.00  0.00    -0.200 F 
ENDBRANCH  27  51
BRANCH  39  62
ATOM     62  C   UNL A   1      45.619  32.310  29.371  1.00  0.00     0.064 A 
ATOM     63  C   UNL A   1      45.857  32.679  30.705  1.00  0.00     0.173 A 
ATOM     64  C   UNL A   1      45.620  33.323  28.401  1.00  0.00     0.173 A 
ATOM     65  F   UNL A   1      45.859  31.750  31.673  1.00  0.00    -0.203 F 
ATOM     66  C   UNL A   1      46.065  34.009  31.055  1.00  0.00     0.198 A 
ATOM     67  C   UNL A   1      45.870  34.648  28.749  1.00  0.00     0.198 A 
ATOM     68  F   UNL A   1      45.412  33.022  27.109  1.00  0.00    -0.203 F 
ATOM     69  F   UNL A   1      46.245  34.340  32.341  1.00  0.00    -0.200 F 
ATOM     70  C   UNL A   1      46.079  34.990  30.077  1.00  0.00     0.200 A 
ATOM     71  F   UNL A   1      45.915  35.590  27.799  1.00  0.00    -0.200 F 
ATOM     72  F   UNL A   1      46.299  36.269  30.413  1.00  0.00    -0.200 F 
ENDBRANCH  39  62
ENDBRANCH  13  14
ENDBRANCH   6   8
ENDBRANCH   3   4
ENDBRANCH   2   3
ENDBRANCH   1   2
BRANCH   1  73
ATOM     73  C   UNL A   1      35.991  20.512  25.103  1.00  0.00     0.116 C 
BRANCH  73  74
ATOM     74  N   UNL A   1      35.529  21.259  26.251  1.00  0.00    -0.352 N 
ATOM     75  C   UNL A   1      34.729  22.358  26.336  1.00  0.00     0.252 C 
ATOM     76  H   UNL A   1      35.845  20.915  27.117  1.00  0.00     0.163 HD
ATOM     77  O   UNL A   1      34.409  22.749  27.456  1.00  0.00    -0.269 OA
BRANCH  75  78
ATOM     78  C   UNL A   1      34.171  23.025  25.085  1.00  0.00     0.060 A 
ATOM     79  C   UNL A   1      34.692  24.564  23.892  1.00  0.00     0.041 A 
ATOM     80  C   UNL A   1      32.510  22.353  24.789  1.00  0.00     0.053 A 
ATOM     81  C   UNL A   1      33.623  25.293  22.789  1.00  0.00     0.041 A 
ATOM     82  C   UNL A   1      31.508  23.119  23.522  1.00  0.00     0.023 A 
ATOM     83  Cl  UNL A   1      31.859  21.031  25.672  1.00  0.00    -0.083 Cl
ATOM     84  C   UNL A   1      32.052  24.548  22.572  1.00  0.00     0.028 A 
BRANCH  81  85
ATOM     85  N   UNL A   1      34.048  26.606  22.535  1.00  0.00    -0.332 N 
ATOM     86  H   UNL A   1      34.584  26.719  21.716  1.00  0.00     0.169 HD
BRANCH  85  87
ATOM     87  C   UNL A   1      33.830  27.768  23.259  1.00  0.00     0.177 C 
ATOM     88  S   UNL A   1      33.488  29.145  22.353  1.00  0.00    -0.040 S 
BRANCH  87  89
ATOM     89  N   UNL A   1      33.843  27.961  24.689  1.00  0.00    -0.299 N 
ATOM     90  C   UNL A   1      33.231  28.170  26.052  1.00  0.00     0.260 C 
ATOM     91  H   UNL A   1      34.806  27.951  24.892  1.00  0.00     0.172 HD
ATOM     92  O   UNL A   1      33.965  28.233  27.034  1.00  0.00    -0.269 OA
BRANCH  90  93
ATOM     93  C   UNL A   1      31.725  28.280  26.246  1.00  0.00     0.075 A 
ATOM     94  C   UNL A   1      31.313  29.755  25.396  1.00  0.00     0.017 A 
ATOM     95  C   UNL A   1      30.918  26.699  25.933  1.00  0.00     0.135 A 
ATOM     96  C   UNL A   1      30.245  29.628  23.986  1.00  0.00     0.001 A 
ATOM     97  C   UNL A   1      29.837  26.419  24.540  1.00  0.00     0.040 A 
ATOM     98  F   UNL A   1      31.466  25.600  26.477  1.00  0.00    -0.206 F 
ATOM     99  C   UNL A   1      29.476  27.831  23.461  1.00  0.00     0.003 A 
ENDBRANCH  90  93
ENDBRANCH  87  89
ENDBRANCH  85  87
ENDBRANCH  81  85
ENDBRANCH  75  78
ENDBRANCH  73  74
ENDBRANCH   1  73
TORSDOF 15
ENDMDL
