MODEL 1
REMARK VINA RESULT:     -12.3      0.000      0.000
REMARK SMILES CCC1(C(=O)NCCc2ccc(C(=O)NCCCCNC(=O)c3ccc(-c4c5nc(c(-c6c(F)c(F)c(F)c(F)c6F)c6ccc([nH]6)c(-c6c(F)c(F)c(F)c(F)c6F)c6nc(c(-c7c(F)c(F)c(F)c(F)c7F)c7ccc4[nH]7)C=C6)C=C5)cc3)cc2)CCCC1
REMARK SMILES IDX 16 1 15 2 13 3 14 4 12 6 9 7 10 8 87 9 11 10 86 11 8 12 7 13
REMARK SMILES IDX 6 14 4 15 5 16 3 18 88 19 91 20 89 21 90 22 2 23 1 24 17 25
REMARK SMILES IDX 18 26 19 27 20 28 21 29 22 31 23 32 24 33 85 34 25 35 84 36
REMARK SMILES IDX 26 37 27 38 28 39 78 40 29 41 83 42 77 43 79 44 30 45 82 46
REMARK SMILES IDX 76 47 75 48 31 50 63 51 43 52 62 53 44 54 47 55 61 56 80 57
REMARK SMILES IDX 45 58 46 59 60 61 81 62 48 63 32 64 33 65 41 66 34 67 35 68
REMARK SMILES IDX 39 69 42 70 36 71 37 72 40 73 38 74 64 75 65 76 73 77 66 78
REMARK SMILES IDX 67 79 71 80 74 81 68 82 69 83 72 84 70 85 49 86 50 87 58 88
REMARK SMILES IDX 51 89 52 90 56 91 59 92 53 93 54 94 57 95 55 96
REMARK H PARENT 15 5 6 17 20 30 79 49 47 60
REMARK Flexibility Score: inf
ROOT
ATOM      1  C   UNL A   1      35.846  21.522  25.562  1.00  0.00     0.116 C 
ENDROOT
BRANCH   1   2
ATOM      2  N   UNL A   1      35.017  20.336  25.531  1.00  0.00    -0.352 N 
ATOM      3  C   UNL A   1      33.699  20.174  25.189  1.00  0.00     0.251 C 
ATOM      4  O   UNL A   1      33.228  19.037  25.211  1.00  0.00    -0.269 OA
ATOM      5  H   UNL A   1      35.475  19.508  25.801  1.00  0.00     0.163 HD
BRANCH   3   6
ATOM      6  C   UNL A   1      32.844  21.307  24.746  1.00  0.00     0.039 A 
ATOM      7  C   UNL A   1      31.265  23.399  23.736  1.00  0.00    -0.046 A 
ATOM      8  C   UNL A   1      32.282  22.840  22.953  1.00  0.00     0.004 A 
ATOM      9  C   UNL A   1      31.043  22.910  25.024  1.00  0.00     0.004 A 
ATOM     10  C   UNL A   1      33.065  21.802  23.456  1.00  0.00     0.014 A 
ATOM     11  C   UNL A   1      31.809  21.852  25.512  1.00  0.00     0.014 A 
BRANCH   7  12
ATOM     12  C   UNL A   1      30.331  24.423  23.143  1.00  0.00     0.056 C 
BRANCH  12  13
ATOM     13  C   UNL A   1      30.360  25.711  23.973  1.00  0.00     0.120 C 
BRANCH  13  14
ATOM     14  N   UNL A   1      31.467  26.575  23.599  1.00  0.00    -0.355 N 
ATOM     15  C   UNL A   1      32.476  27.169  24.277  1.00  0.00     0.226 C 
ATOM     16  O   UNL A   1      33.151  27.960  23.607  1.00  0.00    -0.274 OA
ATOM     17  H   UNL A   1      31.488  26.773  22.635  1.00  0.00     0.163 HD
BRANCH  15  18
ATOM     18  C   UNL A   1      32.752  26.964  25.790  1.00  0.00     0.049 C 
ATOM     19  C   UNL A   1      31.599  27.373  26.724  1.00  0.00     0.017 C 
ATOM     20  C   UNL A   1      33.964  27.823  26.220  1.00  0.00     0.017 C 
ATOM     21  C   UNL A   1      32.101  28.505  27.619  1.00  0.00     0.001 C 
ATOM     22  C   UNL A   1      33.432  28.972  27.059  1.00  0.00     0.001 C 
BRANCH  18  23
ATOM     23  C   UNL A   1      33.119  25.462  26.020  1.00  0.00     0.013 C 
ATOM     24  C   UNL A   1      34.432  24.999  25.389  1.00  0.00     0.005 C 
ENDBRANCH  18  23
ENDBRANCH  15  18
ENDBRANCH  13  14
ENDBRANCH  12  13
ENDBRANCH   7  12
ENDBRANCH   3   6
ENDBRANCH   1   2
BRANCH   1  25
ATOM     25  C   UNL A   1      37.079  21.338  24.675  1.00  0.00     0.023 C 
BRANCH  25  26
ATOM     26  C   UNL A   1      37.907  20.095  25.001  1.00  0.00     0.023 C 
BRANCH  26  27
ATOM     27  C   UNL A   1      39.167  20.368  25.806  1.00  0.00     0.116 C 
BRANCH  27  28
ATOM     28  N   UNL A   1      40.062  19.223  25.880  1.00  0.00    -0.352 N 
ATOM     29  C   UNL A   1      41.417  19.223  26.105  1.00  0.00     0.251 C 
ATOM     30  H   UNL A   1      39.645  18.340  25.752  1.00  0.00     0.163 HD
ATOM     31  O   UNL A   1      42.067  18.190  26.038  1.00  0.00    -0.269 OA
BRANCH  29  32
ATOM     32  C   UNL A   1      42.084  20.509  26.382  1.00  0.00     0.039 A 
ATOM     33  C   UNL A   1      42.538  21.276  25.308  1.00  0.00     0.014 A 
ATOM     34  C   UNL A   1      42.200  20.978  27.694  1.00  0.00     0.014 A 
ATOM     35  C   UNL A   1      43.052  22.550  25.544  1.00  0.00     0.010 A 
ATOM     36  C   UNL A   1      42.647  22.273  27.921  1.00  0.00     0.010 A 
ATOM     37  C   UNL A   1      43.077  23.071  26.849  1.00  0.00    -0.014 A 
BRANCH  37  38
ATOM     38  C   UNL A   1      43.555  24.448  27.115  1.00  0.00     0.031 A 
ATOM     39  C   UNL A   1      42.591  25.494  27.594  1.00  0.00     0.074 A 
ATOM     40  C   UNL A   1      44.838  24.769  26.860  1.00  0.00     0.049 A 
ATOM     41  N   UNL A   1      42.793  26.770  27.811  1.00  0.00    -0.248 NA
ATOM     42  C   UNL A   1      41.205  25.057  27.833  1.00  0.00     0.031 C 
ATOM     43  C   UNL A   1      45.854  23.849  26.344  1.00  0.00     0.029 A 
ATOM     44  N   UNL A   1      45.505  25.961  26.990  1.00  0.00    -0.354 N 
ATOM     45  C   UNL A   1      41.563  27.284  28.199  1.00  0.00     0.074 A 
ATOM     46  C   UNL A   1      40.608  26.200  28.134  1.00  0.00     0.031 C 
ATOM     47  C   UNL A   1      47.019  24.505  26.219  1.00  0.00     0.029 A 
ATOM     48  C   UNL A   1      46.824  25.898  26.614  1.00  0.00     0.049 A 
ATOM     49  H   UNL A   1      45.077  26.783  27.321  1.00  0.00     0.167 HD
ATOM     50  C   UNL A   1      41.265  28.543  28.596  1.00  0.00     0.037 A 
ATOM     51  C   UNL A   1      47.767  26.858  26.587  1.00  0.00     0.037 A 
ATOM     52  C   UNL A   1      42.225  29.611  28.686  1.00  0.00     0.049 A 
ATOM     53  C   UNL A   1      47.408  28.248  27.040  1.00  0.00     0.074 A 
ATOM     54  C   UNL A   1      42.035  30.908  29.129  1.00  0.00     0.029 A 
ATOM     55  N   UNL A   1      43.560  29.501  28.325  1.00  0.00    -0.354 N 
ATOM     56  N   UNL A   1      46.258  28.708  27.469  1.00  0.00    -0.248 NA
ATOM     57  C   UNL A   1      48.482  29.251  27.013  1.00  0.00     0.031 C 
ATOM     58  C   UNL A   1      43.247  31.594  29.003  1.00  0.00     0.029 A 
ATOM     59  C   UNL A   1      44.203  30.713  28.523  1.00  0.00     0.049 A 
ATOM     60  H   UNL A   1      43.987  28.685  27.980  1.00  0.00     0.167 HD
ATOM     61  C   UNL A   1      46.475  30.040  27.789  1.00  0.00     0.074 A 
ATOM     62  C   UNL A   1      47.872  30.312  27.520  1.00  0.00     0.031 C 
ATOM     63  C   UNL A   1      45.598  30.958  28.263  1.00  0.00     0.037 A 
BRANCH  50  64
ATOM     64  C   UNL A   1      39.843  28.832  28.978  1.00  0.00     0.064 A 
ATOM     65  C   UNL A   1      38.905  29.269  28.031  1.00  0.00     0.173 A 
ATOM     66  C   UNL A   1      39.402  28.629  30.294  1.00  0.00     0.173 A 
ATOM     67  F   UNL A   1      39.280  29.491  26.762  1.00  0.00    -0.203 F 
ATOM     68  C   UNL A   1      37.584  29.516  28.393  1.00  0.00     0.198 A 
ATOM     69  C   UNL A   1      38.074  28.850  30.646  1.00  0.00     0.198 A 
ATOM     70  F   UNL A   1      40.258  28.209  31.237  1.00  0.00    -0.203 F 
ATOM     71  F   UNL A   1      36.715  29.976  27.481  1.00  0.00    -0.200 F 
ATOM     72  C   UNL A   1      37.167  29.299  29.697  1.00  0.00     0.200 A 
ATOM     73  F   UNL A   1      37.669  28.628  31.905  1.00  0.00    -0.200 F 
ATOM     74  F   UNL A   1      35.892  29.528  30.042  1.00  0.00    -0.200 F 
ENDBRANCH  50  64
BRANCH  51  75
ATOM     75  C   UNL A   1      49.147  26.538  26.140  1.00  0.00     0.064 A 
ATOM     76  C   UNL A   1      50.082  25.992  27.032  1.00  0.00     0.173 A 
ATOM     77  C   UNL A   1      49.565  26.782  24.825  1.00  0.00     0.173 A 
ATOM     78  F   UNL A   1      49.736  25.759  28.305  1.00  0.00    -0.203 F 
ATOM     79  C   UNL A   1      51.391  25.729  26.630  1.00  0.00     0.198 A 
ATOM     80  C   UNL A   1      50.865  26.492  24.417  1.00  0.00     0.198 A 
ATOM     81  F   UNL A   1      48.707  27.297  23.932  1.00  0.00    -0.203 F 
ATOM     82  F   UNL A   1      52.278  25.256  27.516  1.00  0.00    -0.200 F 
ATOM     83  C   UNL A   1      51.780  25.975  25.322  1.00  0.00     0.200 A 
ATOM     84  F   UNL A   1      51.234  26.720  23.149  1.00  0.00    -0.200 F 
ATOM     85  F   UNL A   1      53.038  25.724  24.937  1.00  0.00    -0.200 F 
ENDBRANCH  51  75
BRANCH  63  86
ATOM     86  C   UNL A   1      46.129  32.330  28.558  1.00  0.00     0.064 A 
ATOM     87  C   UNL A   1      46.112  33.348  27.593  1.00  0.00     0.173 A 
ATOM     88  C   UNL A   1      46.622  32.638  29.834  1.00  0.00     0.173 A 
ATOM     89  F   UNL A   1      45.663  33.097  26.354  1.00  0.00    -0.203 F 
ATOM     90  C   UNL A   1      46.591  34.621  27.891  1.00  0.00     0.198 A 
ATOM     91  C   UNL A   1      47.075  33.919  30.136  1.00  0.00     0.198 A 
ATOM     92  F   UNL A   1      46.654  31.700  30.793  1.00  0.00    -0.203 F 
ATOM     93  F   UNL A   1      46.607  35.566  26.942  1.00  0.00    -0.200 F 
ATOM     94  C   UNL A   1      47.065  34.907  29.163  1.00  0.00     0.200 A 
ATOM     95  F   UNL A   1      47.520  34.198  31.368  1.00  0.00    -0.200 F 
ATOM     96  F   UNL A   1      47.519  36.135  29.448  1.00  0.00    -0.200 F 
ENDBRANCH  63  86
ENDBRANCH  37  38
ENDBRANCH  29  32
ENDBRANCH  27  28
ENDBRANCH  26  27
ENDBRANCH  25  26
ENDBRANCH   1  25
TORSDOF 16
ENDMDL
MODEL 2
REMARK VINA RESULT:     -12.1      3.512      8.587
REMARK SMILES CCC1(C(=O)NCCc2ccc(C(=O)NCCCCNC(=O)c3ccc(-c4c5nc(c(-c6c(F)c(F)c(F)c(F)c6F)c6ccc([nH]6)c(-c6c(F)c(F)c(F)c(F)c6F)c6nc(c(-c7c(F)c(F)c(F)c(F)c7F)c7ccc4[nH]7)C=C6)C=C5)cc3)cc2)CCCC1
REMARK SMILES IDX 16 1 15 2 13 3 14 4 12 6 9 7 10 8 87 9 11 10 86 11 8 12 7 13
REMARK SMILES IDX 6 14 4 15 5 16 3 18 88 19 91 20 89 21 90 22 2 23 1 24 17 25
REMARK SMILES IDX 18 26 19 27 20 28 21 29 22 31 23 32 24 33 85 34 25 35 84 36
REMARK SMILES IDX 26 37 27 38 28 39 78 40 29 41 83 42 77 43 79 44 30 45 82 46
REMARK SMILES IDX 76 47 75 48 31 50 63 51 43 52 62 53 44 54 47 55 61 56 80 57
REMARK SMILES IDX 45 58 46 59 60 61 81 62 48 63 32 64 33 65 41 66 34 67 35 68
REMARK SMILES IDX 39 69 42 70 36 71 37 72 40 73 38 74 64 75 65 76 73 77 66 78
REMARK SMILES IDX 67 79 71 80 74 81 68 82 69 83 72 84 70 85 49 86 50 87 58 88
REMARK SMILES IDX 51 89 52 90 56 91 59 92 53 93 54 94 57 95 55 96
REMARK H PARENT 15 5 6 17 20 30 79 49 47 60
REMARK Flexibility Score: inf
ROOT
ATOM      1  C   UNL A   1      34.635  21.447  26.754  1.00  0.00     0.116 C 
ENDROOT
BRANCH   1   2
ATOM      2  N   UNL A   1      33.799  20.334  26.357  1.00  0.00    -0.352 N 
ATOM      3  C   UNL A   1      32.745  20.274  25.481  1.00  0.00     0.251 C 
ATOM      4  O   UNL A   1      32.212  19.182  25.286  1.00  0.00    -0.269 OA
ATOM      5  H   UNL A   1      34.023  19.478  26.787  1.00  0.00     0.163 HD
BRANCH   3   6
ATOM      6  C   UNL A   1      32.264  21.462  24.729  1.00  0.00     0.039 A 
ATOM      7  C   UNL A   1      31.322  23.790  23.470  1.00  0.00    -0.046 A 
ATOM      8  C   UNL A   1      30.941  23.494  24.784  1.00  0.00     0.004 A 
ATOM      9  C   UNL A   1      32.172  22.917  22.788  1.00  0.00     0.004 A 
ATOM     10  C   UNL A   1      31.409  22.339  25.408  1.00  0.00     0.014 A 
ATOM     11  C   UNL A   1      32.661  21.778  23.426  1.00  0.00     0.014 A 
BRANCH   7  12
ATOM     12  C   UNL A   1      30.930  25.105  22.846  1.00  0.00     0.056 C 
BRANCH  12  13
ATOM     13  C   UNL A   1      30.024  25.895  23.798  1.00  0.00     0.120 C 
BRANCH  13  14
ATOM     14  N   UNL A   1      30.126  27.329  23.581  1.00  0.00    -0.355 N 
ATOM     15  C   UNL A   1      30.864  28.320  24.133  1.00  0.00     0.226 C 
ATOM     16  O   UNL A   1      30.554  29.459  23.764  1.00  0.00    -0.274 OA
ATOM     17  H   UNL A   1      29.522  27.652  22.874  1.00  0.00     0.163 HD
BRANCH  15  18
ATOM     18  C   UNL A   1      31.965  28.099  25.203  1.00  0.00     0.049 C 
ATOM     19  C   UNL A   1      31.517  27.302  26.442  1.00  0.00     0.017 C 
ATOM     20  C   UNL A   1      32.454  29.464  25.739  1.00  0.00     0.017 C 
ATOM     21  C   UNL A   1      31.661  28.213  27.661  1.00  0.00     0.001 C 
ATOM     22  C   UNL A   1      31.918  29.618  27.151  1.00  0.00     0.001 C 
BRANCH  18  23
ATOM     23  C   UNL A   1      33.176  27.385  24.519  1.00  0.00     0.013 C 
ATOM     24  C   UNL A   1      33.690  26.132  25.228  1.00  0.00     0.005 C 
ENDBRANCH  18  23
ENDBRANCH  15  18
ENDBRANCH  13  14
ENDBRANCH  12  13
ENDBRANCH   7  12
ENDBRANCH   3   6
ENDBRANCH   1   2
BRANCH   1  25
ATOM     25  C   UNL A   1      35.714  21.708  25.700  1.00  0.00     0.023 C 
BRANCH  25  26
ATOM     26  C   UNL A   1      35.768  23.152  25.202  1.00  0.00     0.023 C 
BRANCH  26  27
ATOM     27  C   UNL A   1      37.124  23.823  25.353  1.00  0.00     0.116 C 
BRANCH  27  28
ATOM     28  N   UNL A   1      38.210  22.880  25.572  1.00  0.00    -0.352 N 
ATOM     29  C   UNL A   1      39.395  23.095  26.233  1.00  0.00     0.251 C 
ATOM     30  H   UNL A   1      38.081  21.978  25.199  1.00  0.00     0.163 HD
ATOM     31  O   UNL A   1      40.269  22.241  26.254  1.00  0.00    -0.269 OA
BRANCH  29  32
ATOM     32  C   UNL A   1      39.611  24.402  26.880  1.00  0.00     0.039 A 
ATOM     33  C   UNL A   1      39.205  24.572  28.205  1.00  0.00     0.014 A 
ATOM     34  C   UNL A   1      40.270  25.430  26.197  1.00  0.00     0.014 A 
ATOM     35  C   UNL A   1      39.519  25.756  28.871  1.00  0.00     0.010 A 
ATOM     36  C   UNL A   1      40.641  26.579  26.883  1.00  0.00     0.010 A 
ATOM     37  C   UNL A   1      40.270  26.753  28.225  1.00  0.00    -0.014 A 
BRANCH  37  38
ATOM     38  C   UNL A   1      40.673  27.989  28.936  1.00  0.00     0.031 A 
ATOM     39  C   UNL A   1      42.075  28.128  29.456  1.00  0.00     0.074 A 
ATOM     40  C   UNL A   1      39.760  28.951  29.170  1.00  0.00     0.049 A 
ATOM     41  N   UNL A   1      42.603  29.093  30.166  1.00  0.00    -0.248 NA
ATOM     42  C   UNL A   1      43.001  27.022  29.165  1.00  0.00     0.031 C 
ATOM     43  C   UNL A   1      38.356  28.903  28.759  1.00  0.00     0.029 A 
ATOM     44  N   UNL A   1      39.874  30.153  29.823  1.00  0.00    -0.354 N 
ATOM     45  C   UNL A   1      43.912  28.704  30.414  1.00  0.00     0.074 A 
ATOM     46  C   UNL A   1      44.085  27.393  29.829  1.00  0.00     0.031 C 
ATOM     47  C   UNL A   1      37.744  30.032  29.150  1.00  0.00     0.029 A 
ATOM     48  C   UNL A   1      38.702  30.867  29.870  1.00  0.00     0.049 A 
ATOM     49  H   UNL A   1      40.716  30.471  30.219  1.00  0.00     0.167 HD
ATOM     50  C   UNL A   1      44.888  29.392  31.052  1.00  0.00     0.037 A 
ATOM     51  C   UNL A   1      38.434  32.059  30.434  1.00  0.00     0.037 A 
ATOM     52  C   UNL A   1      44.718  30.708  31.607  1.00  0.00     0.049 A 
ATOM     53  C   UNL A   1      39.540  32.803  31.132  1.00  0.00     0.074 A 
ATOM     54  C   UNL A   1      45.659  31.513  32.225  1.00  0.00     0.029 A 
ATOM     55  N   UNL A   1      43.524  31.414  31.609  1.00  0.00    -0.354 N 
ATOM     56  N   UNL A   1      40.792  32.457  31.303  1.00  0.00    -0.248 NA
ATOM     57  C   UNL A   1      39.196  34.111  31.710  1.00  0.00     0.031 C 
ATOM     58  C   UNL A   1      45.026  32.691  32.633  1.00  0.00     0.029 A 
ATOM     59  C   UNL A   1      43.701  32.640  32.230  1.00  0.00     0.049 A 
ATOM     60  H   UNL A   1      42.676  31.092  31.226  1.00  0.00     0.167 HD
ATOM     61  C   UNL A   1      41.391  33.510  31.978  1.00  0.00     0.074 A 
ATOM     62  C   UNL A   1      40.369  34.517  32.173  1.00  0.00     0.031 C 
ATOM     63  C   UNL A   1      42.673  33.634  32.400  1.00  0.00     0.037 A 
BRANCH  50  64
ATOM     64  C   UNL A   1      46.233  28.738  31.172  1.00  0.00     0.064 A 
ATOM     65  C   UNL A   1      46.560  27.935  32.274  1.00  0.00     0.173 A 
ATOM     66  C   UNL A   1      47.189  28.881  30.155  1.00  0.00     0.173 A 
ATOM     67  F   UNL A   1      45.686  27.778  33.279  1.00  0.00    -0.203 F 
ATOM     68  C   UNL A   1      47.805  27.318  32.365  1.00  0.00     0.198 A 
ATOM     69  C   UNL A   1      48.421  28.240  30.237  1.00  0.00     0.198 A 
ATOM     70  F   UNL A   1      46.924  29.636  29.078  1.00  0.00    -0.203 F 
ATOM     71  F   UNL A   1      48.113  26.591  33.449  1.00  0.00    -0.200 F 
ATOM     72  C   UNL A   1      48.731  27.464  31.344  1.00  0.00     0.200 A 
ATOM     73  F   UNL A   1      49.311  28.371  29.243  1.00  0.00    -0.200 F 
ATOM     74  F   UNL A   1      49.925  26.861  31.429  1.00  0.00    -0.200 F 
ENDBRANCH  50  64
BRANCH  51  75
ATOM     75  C   UNL A   1      37.067  32.637  30.344  1.00  0.00     0.064 A 
ATOM     76  C   UNL A   1      36.693  33.426  29.246  1.00  0.00     0.173 A 
ATOM     77  C   UNL A   1      36.117  32.429  31.352  1.00  0.00     0.173 A 
ATOM     78  F   UNL A   1      37.574  33.670  28.266  1.00  0.00    -0.203 F 
ATOM     79  C   UNL A   1      35.428  34.007  29.176  1.00  0.00     0.198 A 
ATOM     80  C   UNL A   1      34.843  32.986  31.267  1.00  0.00     0.198 A 
ATOM     81  F   UNL A   1      36.424  31.677  32.420  1.00  0.00    -0.203 F 
ATOM     82  F   UNL A   1      35.114  34.799  28.141  1.00  0.00    -0.200 F 
ATOM     83  C   UNL A   1      34.502  33.783  30.183  1.00  0.00     0.200 A 
ATOM     84  F   UNL A   1      33.947  32.758  32.237  1.00  0.00    -0.200 F 
ATOM     85  F   UNL A   1      33.287  34.343  30.116  1.00  0.00    -0.200 F 
ENDBRANCH  51  75
BRANCH  63  86
ATOM     86  C   UNL A   1      43.053  34.917  33.080  1.00  0.00     0.064 A 
ATOM     87  C   UNL A   1      43.477  36.037  32.350  1.00  0.00     0.173 A 
ATOM     88  C   UNL A   1      42.950  35.037  34.473  1.00  0.00     0.173 A 
ATOM     89  F   UNL A   1      43.605  35.967  31.017  1.00  0.00    -0.203 F 
ATOM     90  C   UNL A   1      43.806  37.226  32.997  1.00  0.00     0.198 A 
ATOM     91  C   UNL A   1      43.253  36.235  35.113  1.00  0.00     0.198 A 
ATOM     92  F   UNL A   1      42.542  33.995  35.214  1.00  0.00    -0.203 F 
ATOM     93  F   UNL A   1      44.251  38.270  32.285  1.00  0.00    -0.200 F 
ATOM     94  C   UNL A   1      43.687  37.326  34.374  1.00  0.00     0.200 A 
ATOM     95  F   UNL A   1      43.125  36.335  36.442  1.00  0.00    -0.200 F 
ATOM     96  F   UNL A   1      43.997  38.474  34.993  1.00  0.00    -0.200 F 
ENDBRANCH  63  86
ENDBRANCH  37  38
ENDBRANCH  29  32
ENDBRANCH  27  28
ENDBRANCH  26  27
ENDBRANCH  25  26
ENDBRANCH   1  25
TORSDOF 16
ENDMDL
MODEL 3
REMARK VINA RESULT:     -12.1      0.949      7.348
REMARK SMILES CCC1(C(=O)NCCc2ccc(C(=O)NCCCCNC(=O)c3ccc(-c4c5nc(c(-c6c(F)c(F)c(F)c(F)c6F)c6ccc([nH]6)c(-c6c(F)c(F)c(F)c(F)c6F)c6nc(c(-c7c(F)c(F)c(F)c(F)c7F)c7ccc4[nH]7)C=C6)C=C5)cc3)cc2)CCCC1
REMARK SMILES IDX 16 1 15 2 13 3 14 4 12 6 9 7 10 8 87 9 11 10 86 11 8 12 7 13
REMARK SMILES IDX 6 14 4 15 5 16 3 18 88 19 91 20 89 21 90 22 2 23 1 24 17 25
REMARK SMILES IDX 18 26 19 27 20 28 21 29 22 31 23 32 24 33 85 34 25 35 84 36
REMARK SMILES IDX 26 37 27 38 28 39 78 40 29 41 83 42 77 43 79 44 30 45 82 46
REMARK SMILES IDX 76 47 75 48 31 50 63 51 43 52 62 53 44 54 47 55 61 56 80 57
REMARK SMILES IDX 45 58 46 59 60 61 81 62 48 63 32 64 33 65 41 66 34 67 35 68
REMARK SMILES IDX 39 69 42 70 36 71 37 72 40 73 38 74 64 75 65 76 73 77 66 78
REMARK SMILES IDX 67 79 71 80 74 81 68 82 69 83 72 84 70 85 49 86 50 87 58 88
REMARK SMILES IDX 51 89 52 90 56 91 59 92 53 93 54 94 57 95 55 96
REMARK H PARENT 15 5 6 17 20 30 79 49 47 60
REMARK Flexibility Score: inf
ROOT
ATOM      1  C   UNL A   1      35.990  21.619  25.595  1.00  0.00     0.116 C 
ENDROOT
BRANCH   1   2
ATOM      2  N   UNL A   1      35.124  20.462  25.676  1.00  0.00    -0.352 N 
ATOM      3  C   UNL A   1      33.790  20.320  25.388  1.00  0.00     0.251 C 
ATOM      4  O   UNL A   1      33.285  19.205  25.506  1.00  0.00    -0.269 OA
ATOM      5  H   UNL A   1      35.564  19.640  25.991  1.00  0.00     0.163 HD
BRANCH   3   6
ATOM      6  C   UNL A   1      32.957  21.447  24.892  1.00  0.00     0.039 A 
ATOM      7  C   UNL A   1      31.432  23.529  23.782  1.00  0.00    -0.046 A 
ATOM      8  C   UNL A   1      32.510  22.987  23.072  1.00  0.00     0.004 A 
ATOM      9  C   UNL A   1      31.123  23.029  25.048  1.00  0.00     0.004 A 
ATOM     10  C   UNL A   1      33.265  21.953  23.624  1.00  0.00     0.014 A 
ATOM     11  C   UNL A   1      31.863  21.975  25.583  1.00  0.00     0.014 A 
BRANCH   7  12
ATOM     12  C   UNL A   1      30.532  24.547  23.130  1.00  0.00     0.056 C 
BRANCH  12  13
ATOM     13  C   UNL A   1      30.582  25.872  23.899  1.00  0.00     0.120 C 
BRANCH  13  14
ATOM     14  N   UNL A   1      31.768  26.646  23.572  1.00  0.00    -0.355 N 
ATOM     15  C   UNL A   1      32.784  27.172  24.295  1.00  0.00     0.226 C 
ATOM     16  O   UNL A   1      33.548  27.903  23.652  1.00  0.00    -0.274 OA
ATOM     17  H   UNL A   1      31.850  26.829  22.609  1.00  0.00     0.163 HD
BRANCH  15  18
ATOM     18  C   UNL A   1      32.970  26.967  25.821  1.00  0.00     0.049 C 
ATOM     19  C   UNL A   1      31.701  27.178  26.666  1.00  0.00     0.017 C 
ATOM     20  C   UNL A   1      34.006  27.980  26.361  1.00  0.00     0.017 C 
ATOM     21  C   UNL A   1      31.961  28.345  27.617  1.00  0.00     0.001 C 
ATOM     22  C   UNL A   1      33.248  29.015  27.174  1.00  0.00     0.001 C 
BRANCH  18  23
ATOM     23  C   UNL A   1      33.535  25.528  26.055  1.00  0.00     0.013 C 
ATOM     24  C   UNL A   1      34.638  25.087  25.092  1.00  0.00     0.005 C 
ENDBRANCH  18  23
ENDBRANCH  15  18
ENDBRANCH  13  14
ENDBRANCH  12  13
ENDBRANCH   7  12
ENDBRANCH   3   6
ENDBRANCH   1   2
BRANCH   1  25
ATOM     25  C   UNL A   1      37.141  21.359  24.621  1.00  0.00     0.023 C 
BRANCH  25  26
ATOM     26  C   UNL A   1      37.988  20.133  24.962  1.00  0.00     0.023 C 
BRANCH  26  27
ATOM     27  C   UNL A   1      39.175  20.417  25.868  1.00  0.00     0.116 C 
BRANCH  27  28
ATOM     28  N   UNL A   1      40.168  19.353  25.865  1.00  0.00    -0.352 N 
ATOM     29  C   UNL A   1      41.519  19.458  26.090  1.00  0.00     0.251 C 
ATOM     30  H   UNL A   1      39.830  18.447  25.677  1.00  0.00     0.163 HD
ATOM     31  O   UNL A   1      42.258  18.494  25.954  1.00  0.00    -0.269 OA
BRANCH  29  32
ATOM     32  C   UNL A   1      42.071  20.777  26.454  1.00  0.00     0.039 A 
ATOM     33  C   UNL A   1      42.434  21.658  25.434  1.00  0.00     0.014 A 
ATOM     34  C   UNL A   1      42.166  21.158  27.796  1.00  0.00     0.014 A 
ATOM     35  C   UNL A   1      42.834  22.953  25.759  1.00  0.00     0.010 A 
ATOM     36  C   UNL A   1      42.498  22.469  28.113  1.00  0.00     0.010 A 
ATOM     37  C   UNL A   1      42.835  23.378  27.098  1.00  0.00    -0.014 A 
BRANCH  37  38
ATOM     38  C   UNL A   1      43.190  24.771  27.459  1.00  0.00     0.031 A 
ATOM     39  C   UNL A   1      44.632  25.184  27.515  1.00  0.00     0.074 A 
ATOM     40  C   UNL A   1      42.218  25.640  27.799  1.00  0.00     0.049 A 
ATOM     41  N   UNL A   1      45.152  26.329  27.880  1.00  0.00    -0.248 NA
ATOM     42  C   UNL A   1      45.627  24.165  27.140  1.00  0.00     0.031 C 
ATOM     43  C   UNL A   1      40.786  25.337  27.831  1.00  0.00     0.029 A 
ATOM     44  N   UNL A   1      42.289  26.952  28.194  1.00  0.00    -0.354 N 
ATOM     45  C   UNL A   1      46.528  26.162  27.789  1.00  0.00     0.074 A 
ATOM     46  C   UNL A   1      46.766  24.793  27.389  1.00  0.00     0.031 C 
ATOM     47  C   UNL A   1      40.112  26.437  28.205  1.00  0.00     0.029 A 
ATOM     48  C   UNL A   1      41.066  27.510  28.472  1.00  0.00     0.049 A 
ATOM     49  H   UNL A   1      43.137  27.445  28.271  1.00  0.00     0.167 HD
ATOM     50  C   UNL A   1      47.502  27.079  27.997  1.00  0.00     0.037 A 
ATOM     51  C   UNL A   1      40.753  28.747  28.899  1.00  0.00     0.037 A 
ATOM     52  C   UNL A   1      47.258  28.448  28.367  1.00  0.00     0.049 A 
ATOM     53  C   UNL A   1      41.856  29.747  29.116  1.00  0.00     0.074 A 
ATOM     54  C   UNL A   1      48.174  29.469  28.548  1.00  0.00     0.029 A 
ATOM     55  N   UNL A   1      46.003  28.985  28.610  1.00  0.00    -0.354 N 
ATOM     56  N   UNL A   1      43.150  29.600  28.963  1.00  0.00    -0.248 NA
ATOM     57  C   UNL A   1      41.455  31.090  29.559  1.00  0.00     0.031 C 
ATOM     58  C   UNL A   1      47.475  30.617  28.936  1.00  0.00     0.029 A 
ATOM     59  C   UNL A   1      46.122  30.323  28.954  1.00  0.00     0.049 A 
ATOM     60  H   UNL A   1      45.154  28.492  28.548  1.00  0.00     0.167 HD
ATOM     61  C   UNL A   1      43.712  30.832  29.260  1.00  0.00     0.074 A 
ATOM     62  C   UNL A   1      42.619  31.723  29.589  1.00  0.00     0.031 C 
ATOM     63  C   UNL A   1      45.018  31.196  29.262  1.00  0.00     0.037 A 
BRANCH  50  64
ATOM     64  C   UNL A   1      48.923  26.634  27.816  1.00  0.00     0.064 A 
ATOM     65  C   UNL A   1      49.731  26.299  28.913  1.00  0.00     0.173 A 
ATOM     66  C   UNL A   1      49.471  26.499  26.532  1.00  0.00     0.173 A 
ATOM     67  F   UNL A   1      49.258  26.424  30.162  1.00  0.00    -0.203 F 
ATOM     68  C   UNL A   1      51.043  25.870  28.732  1.00  0.00     0.198 A 
ATOM     69  C   UNL A   1      50.773  26.043  26.353  1.00  0.00     0.198 A 
ATOM     70  F   UNL A   1      48.740  26.803  25.449  1.00  0.00    -0.203 F 
ATOM     71  F   UNL A   1      51.810  25.598  29.797  1.00  0.00    -0.200 F 
ATOM     72  C   UNL A   1      51.561  25.734  27.453  1.00  0.00     0.200 A 
ATOM     73  F   UNL A   1      51.269  25.900  25.116  1.00  0.00    -0.200 F 
ATOM     74  F   UNL A   1      52.820  25.311  27.280  1.00  0.00    -0.200 F 
ENDBRANCH  50  64
BRANCH  51  75
ATOM     75  C   UNL A   1      39.332  29.122  29.125  1.00  0.00     0.064 A 
ATOM     76  C   UNL A   1      38.758  29.022  30.401  1.00  0.00     0.173 A 
ATOM     77  C   UNL A   1      38.518  29.571  28.077  1.00  0.00     0.173 A 
ATOM     78  F   UNL A   1      39.491  28.579  31.432  1.00  0.00    -0.203 F 
ATOM     79  C   UNL A   1      37.416  29.332  30.612  1.00  0.00     0.198 A 
ATOM     80  C   UNL A   1      37.184  29.907  28.294  1.00  0.00     0.198 A 
ATOM     81  F   UNL A   1      39.021  29.689  26.839  1.00  0.00    -0.203 F 
ATOM     82  F   UNL A   1      36.879  29.178  31.831  1.00  0.00    -0.200 F 
ATOM     83  C   UNL A   1      36.631  29.778  29.560  1.00  0.00     0.200 A 
ATOM     84  F   UNL A   1      36.431  30.349  27.277  1.00  0.00    -0.200 F 
ATOM     85  F   UNL A   1      35.340  30.073  29.763  1.00  0.00    -0.200 F 
ENDBRANCH  51  75
BRANCH  63  86
ATOM     86  C   UNL A   1      45.334  32.625  29.592  1.00  0.00     0.064 A 
ATOM     87  C   UNL A   1      45.638  33.027  30.901  1.00  0.00     0.173 A 
ATOM     88  C   UNL A   1      45.373  33.593  28.579  1.00  0.00     0.173 A 
ATOM     89  F   UNL A   1      45.599  32.139  31.907  1.00  0.00    -0.203 F 
ATOM     90  C   UNL A   1      45.947  34.354  31.186  1.00  0.00     0.198 A 
ATOM     91  C   UNL A   1      45.711  34.913  28.863  1.00  0.00     0.198 A 
ATOM     92  F   UNL A   1      45.097  33.256  27.310  1.00  0.00    -0.203 F 
ATOM     93  F   UNL A   1      46.191  34.726  32.450  1.00  0.00    -0.200 F 
ATOM     94  C   UNL A   1      45.991  35.293  30.167  1.00  0.00     0.200 A 
ATOM     95  F   UNL A   1      45.766  35.817  27.875  1.00  0.00    -0.200 F 
ATOM     96  F   UNL A   1      46.297  36.568  30.443  1.00  0.00    -0.200 F 
ENDBRANCH  63  86
ENDBRANCH  37  38
ENDBRANCH  29  32
ENDBRANCH  27  28
ENDBRANCH  26  27
ENDBRANCH  25  26
ENDBRANCH   1  25
TORSDOF 16
ENDMDL
