MODEL 1
REMARK VINA RESULT:     -13.4      0.000      0.000
REMARK SMILES O=C(NCCCCNC(=O)[C@H]1CCCN(C(=O)c2ccc(NC(=O)c3ccccc3)cc2)C1)c1ccc(-c2c3nc(c(-c4c(F)c(F)c(F)c(F)c4F)c4ccc([nH]4)c(-c4c(F)c(F)c(F)c(F)c4F)c4nc(c(-c5c(F)c(F)c(F)c(F)c5F)c5ccc2[nH]5)C=C4)C=C3)cc1
REMARK SMILES IDX 6 1 5 2 4 3 3 4 1 5 2 6 34 8 35 9 96 10 36 11 95 12 37 13
REMARK SMILES IDX 38 14 39 15 89 16 40 17 94 18 88 19 90 20 41 21 93 22 87 23
REMARK SMILES IDX 86 24 42 26 74 27 54 28 73 29 55 30 58 31 72 32 91 33 56 34
REMARK SMILES IDX 57 35 71 37 92 38 59 39 43 40 44 41 52 42 45 43 46 44 50 45
REMARK SMILES IDX 53 46 47 47 48 48 51 49 49 50 75 51 76 52 84 53 77 54 78 55
REMARK SMILES IDX 82 56 85 57 79 58 80 59 83 60 81 61 60 62 61 63 69 64 62 65
REMARK SMILES IDX 63 66 67 67 70 68 64 69 65 70 68 71 66 72 7 73 8 74 9 75
REMARK SMILES IDX 10 77 11 78 12 79 33 80 13 81 15 82 14 83 16 84 17 85 18 86
REMARK SMILES IDX 19 87 32 88 20 89 31 90 21 91 22 92 23 93 24 95 25 96 26 97
REMARK SMILES IDX 30 98 27 99 29 100 28 101
REMARK H PARENT 3 7 90 25 58 36 8 76 22 94
REMARK Flexibility Score: inf
ROOT
ATOM      1  C   UNL A   1      37.416  20.809  24.576  1.00  0.00     0.023 C 
ENDROOT
BRANCH   1   2
ATOM      2  C   UNL A   1      38.255  19.625  25.050  1.00  0.00     0.023 C 
BRANCH   2   3
ATOM      3  C   UNL A   1      39.414  19.956  25.980  1.00  0.00     0.116 C 
BRANCH   3   4
ATOM      4  N   UNL A   1      40.492  18.984  25.930  1.00  0.00    -0.352 N 
ATOM      5  O   UNL A   1      42.625  18.246  25.902  1.00  0.00    -0.269 OA
ATOM      6  C   UNL A   1      41.845  19.179  26.074  1.00  0.00     0.251 C 
ATOM      7  H   UNL A   1      40.214  18.053  25.770  1.00  0.00     0.163 HD
BRANCH   6   8
ATOM      8  C   UNL A   1      42.365  20.524  26.397  1.00  0.00     0.039 A 
ATOM      9  C   UNL A   1      42.456  20.961  27.720  1.00  0.00     0.014 A 
ATOM     10  C   UNL A   1      42.750  21.368  25.351  1.00  0.00     0.014 A 
ATOM     11  C   UNL A   1      42.783  22.286  27.988  1.00  0.00     0.010 A 
ATOM     12  C   UNL A   1      43.161  22.675  25.627  1.00  0.00     0.010 A 
ATOM     13  C   UNL A   1      43.142  23.156  26.946  1.00  0.00    -0.014 A 
BRANCH  13  14
ATOM     14  C   UNL A   1      43.530  24.554  27.262  1.00  0.00     0.031 A 
ATOM     15  C   UNL A   1      44.918  25.057  26.978  1.00  0.00     0.074 A 
ATOM     16  C   UNL A   1      42.606  25.378  27.788  1.00  0.00     0.049 A 
ATOM     17  N   UNL A   1      45.418  26.252  27.173  1.00  0.00    -0.248 NA
ATOM     18  C   UNL A   1      45.872  24.094  26.411  1.00  0.00     0.031 C 
ATOM     19  C   UNL A   1      41.231  24.998  28.114  1.00  0.00     0.029 A 
ATOM     20  N   UNL A   1      42.674  26.706  28.122  1.00  0.00    -0.354 N 
ATOM     21  C   UNL A   1      46.746  26.180  26.776  1.00  0.00     0.074 A 
ATOM     22  C   UNL A   1      46.983  24.815  26.350  1.00  0.00     0.031 C 
ATOM     23  C   UNL A   1      40.570  26.079  28.554  1.00  0.00     0.029 A 
ATOM     24  C   UNL A   1      41.490  27.211  28.595  1.00  0.00     0.049 A 
ATOM     25  H   UNL A   1      43.494  27.245  28.032  1.00  0.00     0.167 HD
ATOM     26  C   UNL A   1      47.679  27.163  26.761  1.00  0.00     0.037 A 
ATOM     27  C   UNL A   1      41.178  28.448  29.023  1.00  0.00     0.037 A 
ATOM     28  C   UNL A   1      47.431  28.524  27.166  1.00  0.00     0.049 A 
ATOM     29  C   UNL A   1      42.234  29.515  29.010  1.00  0.00     0.074 A 
ATOM     30  C   UNL A   1      48.298  29.603  27.145  1.00  0.00     0.029 A 
ATOM     31  N   UNL A   1      46.226  28.992  27.669  1.00  0.00    -0.354 N 
ATOM     32  N   UNL A   1      43.476  29.441  28.601  1.00  0.00    -0.248 NA
ATOM     33  C   UNL A   1      41.843  30.834  29.523  1.00  0.00     0.031 C 
ATOM     34  C   UNL A   1      47.630  30.713  27.677  1.00  0.00     0.029 A 
ATOM     35  C   UNL A   1      46.332  30.337  27.985  1.00  0.00     0.049 A 
ATOM     36  H   UNL A   1      45.413  28.447  27.785  1.00  0.00     0.167 HD
ATOM     37  C   UNL A   1      44.013  30.706  28.786  1.00  0.00     0.074 A 
ATOM     38  C   UNL A   1      42.954  31.532  29.333  1.00  0.00     0.031 C 
ATOM     39  C   UNL A   1      45.269  31.145  28.527  1.00  0.00     0.037 A 
BRANCH  26  40
ATOM     40  C   UNL A   1      49.066  26.798  26.315  1.00  0.00     0.064 A 
ATOM     41  C   UNL A   1      50.007  26.244  27.197  1.00  0.00     0.173 A 
ATOM     42  C   UNL A   1      49.451  26.978  24.977  1.00  0.00     0.173 A 
ATOM     43  F   UNL A   1      49.694  26.061  28.488  1.00  0.00    -0.203 F 
ATOM     44  C   UNL A   1      51.288  25.914  26.763  1.00  0.00     0.198 A 
ATOM     45  C   UNL A   1      50.724  26.621  24.541  1.00  0.00     0.198 A 
ATOM     46  F   UNL A   1      48.588  27.496  24.090  1.00  0.00    -0.203 F 
ATOM     47  F   UNL A   1      52.186  25.434  27.634  1.00  0.00    -0.200 F 
ATOM     48  C   UNL A   1      51.644  26.098  25.435  1.00  0.00     0.200 A 
ATOM     49  F   UNL A   1      51.062  26.788  23.254  1.00  0.00    -0.200 F 
ATOM     50  F   UNL A   1      52.878  25.778  25.020  1.00  0.00    -0.200 F 
ENDBRANCH  26  40
BRANCH  27  51
ATOM     51  C   UNL A   1      39.795  28.736  29.478  1.00  0.00     0.064 A 
ATOM     52  C   UNL A   1      38.843  29.261  28.593  1.00  0.00     0.173 A 
ATOM     53  C   UNL A   1      39.386  28.457  30.790  1.00  0.00     0.173 A 
ATOM     54  F   UNL A   1      39.194  29.560  27.333  1.00  0.00    -0.203 F 
ATOM     55  C   UNL A   1      37.536  29.501  29.006  1.00  0.00     0.198 A 
ATOM     56  C   UNL A   1      38.071  28.672  31.195  1.00  0.00     0.198 A 
ATOM     57  F   UNL A   1      40.259  27.946  31.672  1.00  0.00    -0.203 F 
ATOM     58  F   UNL A   1      36.651  30.030  28.149  1.00  0.00    -0.200 F 
ATOM     59  C   UNL A   1      37.148  29.198  30.304  1.00  0.00     0.200 A 
ATOM     60  F   UNL A   1      37.697  28.362  32.443  1.00  0.00    -0.200 F 
ATOM     61  F   UNL A   1      35.886  29.415  30.695  1.00  0.00    -0.200 F 
ENDBRANCH  27  51
BRANCH  39  62
ATOM     62  C   UNL A   1      45.557  32.591  28.805  1.00  0.00     0.064 A 
ATOM     63  C   UNL A   1      46.075  33.013  30.037  1.00  0.00     0.173 A 
ATOM     64  C   UNL A   1      45.330  33.561  27.818  1.00  0.00     0.173 A 
ATOM     65  F   UNL A   1      46.292  32.125  31.019  1.00  0.00    -0.203 F 
ATOM     66  C   UNL A   1      46.333  34.360  30.280  1.00  0.00     0.198 A 
ATOM     67  C   UNL A   1      45.614  34.902  28.054  1.00  0.00     0.198 A 
ATOM     68  F   UNL A   1      44.838  33.206  26.621  1.00  0.00    -0.203 F 
ATOM     69  F   UNL A   1      46.782  34.748  31.482  1.00  0.00    -0.200 F 
ATOM     70  C   UNL A   1      46.108  35.301  29.287  1.00  0.00     0.200 A 
ATOM     71  F   UNL A   1      45.405  35.810  27.091  1.00  0.00    -0.200 F 
ATOM     72  F   UNL A   1      46.357  36.598  29.522  1.00  0.00    -0.200 F 
ENDBRANCH  39  62
ENDBRANCH  13  14
ENDBRANCH   6   8
ENDBRANCH   3   4
ENDBRANCH   2   3
ENDBRANCH   1   2
BRANCH   1  73
ATOM     73  C   UNL A   1      37.325  21.997  25.526  1.00  0.00     0.116 C 
BRANCH  73  74
ATOM     74  N   UNL A   1      36.207  21.929  26.442  1.00  0.00    -0.356 N 
ATOM     75  C   UNL A   1      34.919  21.532  26.309  1.00  0.00     0.224 C 
ATOM     76  H   UNL A   1      36.429  22.236  27.350  1.00  0.00     0.163 HD
ATOM     77  O   UNL A   1      34.290  21.457  27.371  1.00  0.00    -0.275 OA
BRANCH  75  78
ATOM     78  C   UNL A   1      34.248  21.279  24.959  1.00  0.00     0.098 C 
ATOM     79  C   UNL A   1      33.268  20.099  24.902  1.00  0.00     0.017 C 
ATOM     80  C   UNL A   1      33.477  22.567  24.593  1.00  0.00     0.133 C 
ATOM     81  C   UNL A   1      32.561  20.026  23.548  1.00  0.00     0.022 C 
ATOM     82  N   UNL A   1      32.779  22.462  23.310  1.00  0.00    -0.338 N 
ATOM     83  C   UNL A   1      31.864  21.331  23.193  1.00  0.00     0.120 C 
BRANCH  82  84
ATOM     84  C   UNL A   1      33.039  23.440  22.351  1.00  0.00     0.253 C 
ATOM     85  O   UNL A   1      33.712  23.223  21.344  1.00  0.00    -0.269 OA
BRANCH  84  86
ATOM     86  C   UNL A   1      32.453  24.795  22.467  1.00  0.00     0.040 A 
ATOM     87  C   UNL A   1      31.148  24.880  22.954  1.00  0.00     0.016 A 
ATOM     88  C   UNL A   1      33.103  25.957  22.047  1.00  0.00     0.016 A 
ATOM     89  C   UNL A   1      30.538  26.123  23.114  1.00  0.00     0.027 A 
ATOM     90  C   UNL A   1      32.502  27.206  22.257  1.00  0.00     0.027 A 
ATOM     91  C   UNL A   1      31.236  27.300  22.848  1.00  0.00     0.041 A 
BRANCH  91  92
ATOM     92  N   UNL A   1      30.742  28.590  23.121  1.00  0.00    -0.322 N 
ATOM     93  C   UNL A   1      30.843  29.397  24.237  1.00  0.00     0.255 C 
ATOM     94  H   UNL A   1      30.232  28.990  22.381  1.00  0.00     0.170 HD
ATOM     95  O   UNL A   1      30.180  30.430  24.312  1.00  0.00    -0.269 OA
BRANCH  93  96
ATOM     96  C   UNL A   1      31.773  29.075  25.335  1.00  0.00     0.040 A 
ATOM     97  C   UNL A   1      33.067  29.601  25.291  1.00  0.00     0.014 A 
ATOM     98  C   UNL A   1      31.356  28.299  26.426  1.00  0.00     0.014 A 
ATOM     99  C   UNL A   1      33.922  29.417  26.379  1.00  0.00     0.001 A 
ATOM    100  C   UNL A   1      32.214  28.125  27.513  1.00  0.00     0.001 A 
ATOM    101  C   UNL A   1      33.489  28.695  27.493  1.00  0.00     0.000 A 
ENDBRANCH  93  96
ENDBRANCH  91  92
ENDBRANCH  84  86
ENDBRANCH  82  84
ENDBRANCH  75  78
ENDBRANCH  73  74
ENDBRANCH   1  73
TORSDOF 15
ENDMDL
MODEL 2
REMARK VINA RESULT:     -13.3      0.098      1.537
REMARK SMILES O=C(NCCCCNC(=O)[C@H]1CCCN(C(=O)c2ccc(NC(=O)c3ccccc3)cc2)C1)c1ccc(-c2c3nc(c(-c4c(F)c(F)c(F)c(F)c4F)c4ccc([nH]4)c(-c4c(F)c(F)c(F)c(F)c4F)c4nc(c(-c5c(F)c(F)c(F)c(F)c5F)c5ccc2[nH]5)C=C4)C=C3)cc1
REMARK SMILES IDX 6 1 5 2 4 3 3 4 1 5 2 6 34 8 35 9 96 10 36 11 95 12 37 13
REMARK SMILES IDX 38 14 39 15 89 16 40 17 94 18 88 19 90 20 41 21 93 22 87 23
REMARK SMILES IDX 86 24 42 26 74 27 54 28 73 29 55 30 58 31 72 32 91 33 56 34
REMARK SMILES IDX 57 35 71 37 92 38 59 39 43 40 44 41 52 42 45 43 46 44 50 45
REMARK SMILES IDX 53 46 47 47 48 48 51 49 49 50 75 51 76 52 84 53 77 54 78 55
REMARK SMILES IDX 82 56 85 57 79 58 80 59 83 60 81 61 60 62 61 63 69 64 62 65
REMARK SMILES IDX 63 66 67 67 70 68 64 69 65 70 68 71 66 72 7 73 8 74 9 75
REMARK SMILES IDX 10 77 11 78 12 79 33 80 13 81 15 82 14 83 16 84 17 85 18 86
REMARK SMILES IDX 19 87 32 88 20 89 31 90 21 91 22 92 23 93 24 95 25 96 26 97
REMARK SMILES IDX 30 98 27 99 29 100 28 101
REMARK H PARENT 3 7 90 25 58 36 8 76 22 94
REMARK Flexibility Score: inf
ROOT
ATOM      1  C   UNL A   1      37.371  20.924  24.616  1.00  0.00     0.023 C 
ENDROOT
BRANCH   1   2
ATOM      2  C   UNL A   1      38.255  19.732  24.968  1.00  0.00     0.023 C 
BRANCH   2   3
ATOM      3  C   UNL A   1      39.368  19.997  25.973  1.00  0.00     0.116 C 
BRANCH   3   4
ATOM      4  N   UNL A   1      40.445  19.024  25.915  1.00  0.00    -0.352 N 
ATOM      5  O   UNL A   1      42.576  18.283  25.878  1.00  0.00    -0.269 OA
ATOM      6  C   UNL A   1      41.798  19.216  26.056  1.00  0.00     0.251 C 
ATOM      7  H   UNL A   1      40.165  18.094  25.752  1.00  0.00     0.163 HD
BRANCH   6   8
ATOM      8  C   UNL A   1      42.321  20.559  26.383  1.00  0.00     0.039 A 
ATOM      9  C   UNL A   1      42.399  20.997  27.706  1.00  0.00     0.014 A 
ATOM     10  C   UNL A   1      42.723  21.399  25.340  1.00  0.00     0.014 A 
ATOM     11  C   UNL A   1      42.729  22.321  27.976  1.00  0.00     0.010 A 
ATOM     12  C   UNL A   1      43.137  22.704  25.620  1.00  0.00     0.010 A 
ATOM     13  C   UNL A   1      43.105  23.187  26.937  1.00  0.00    -0.014 A 
BRANCH  13  14
ATOM     14  C   UNL A   1      43.497  24.584  27.255  1.00  0.00     0.031 A 
ATOM     15  C   UNL A   1      44.884  25.086  26.968  1.00  0.00     0.074 A 
ATOM     16  C   UNL A   1      42.576  25.408  27.788  1.00  0.00     0.049 A 
ATOM     17  N   UNL A   1      45.387  26.280  27.164  1.00  0.00    -0.248 NA
ATOM     18  C   UNL A   1      45.834  24.124  26.393  1.00  0.00     0.031 C 
ATOM     19  C   UNL A   1      41.202  25.030  28.119  1.00  0.00     0.029 A 
ATOM     20  N   UNL A   1      42.648  26.735  28.126  1.00  0.00    -0.354 N 
ATOM     21  C   UNL A   1      46.713  26.207  26.760  1.00  0.00     0.074 A 
ATOM     22  C   UNL A   1      46.946  24.843  26.330  1.00  0.00     0.031 C 
ATOM     23  C   UNL A   1      40.545  26.110  28.566  1.00  0.00     0.029 A 
ATOM     24  C   UNL A   1      41.466  27.241  28.606  1.00  0.00     0.049 A 
ATOM     25  H   UNL A   1      43.468  27.273  28.034  1.00  0.00     0.167 HD
ATOM     26  C   UNL A   1      47.648  27.189  26.745  1.00  0.00     0.037 A 
ATOM     27  C   UNL A   1      41.158  28.477  29.039  1.00  0.00     0.037 A 
ATOM     28  C   UNL A   1      47.403  28.549  27.154  1.00  0.00     0.049 A 
ATOM     29  C   UNL A   1      42.215  29.542  29.025  1.00  0.00     0.074 A 
ATOM     30  C   UNL A   1      48.271  29.627  27.133  1.00  0.00     0.029 A 
ATOM     31  N   UNL A   1      46.201  29.017  27.664  1.00  0.00    -0.354 N 
ATOM     32  N   UNL A   1      43.456  29.468  28.610  1.00  0.00    -0.248 NA
ATOM     33  C   UNL A   1      41.829  30.860  29.543  1.00  0.00     0.031 C 
ATOM     34  C   UNL A   1      47.608  30.736  27.671  1.00  0.00     0.029 A 
ATOM     35  C   UNL A   1      46.310  30.361  27.984  1.00  0.00     0.049 A 
ATOM     36  H   UNL A   1      45.387  28.473  27.782  1.00  0.00     0.167 HD
ATOM     37  C   UNL A   1      43.995  30.731  28.796  1.00  0.00     0.074 A 
ATOM     38  C   UNL A   1      42.940  31.557  29.351  1.00  0.00     0.031 C 
ATOM     39  C   UNL A   1      45.251  31.169  28.533  1.00  0.00     0.037 A 
BRANCH  26  40
ATOM     40  C   UNL A   1      49.032  26.823  26.291  1.00  0.00     0.064 A 
ATOM     41  C   UNL A   1      49.447  26.999  24.962  1.00  0.00     0.173 A 
ATOM     42  C   UNL A   1      49.966  26.314  27.206  1.00  0.00     0.173 A 
ATOM     43  F   UNL A   1      48.591  27.472  24.045  1.00  0.00    -0.203 F 
ATOM     44  C   UNL A   1      50.735  26.652  24.562  1.00  0.00     0.198 A 
ATOM     45  C   UNL A   1      51.262  25.993  26.808  1.00  0.00     0.198 A 
ATOM     46  F   UNL A   1      49.624  26.131  28.491  1.00  0.00    -0.203 F 
ATOM     47  F   UNL A   1      51.094  26.783  23.278  1.00  0.00    -0.200 F 
ATOM     48  C   UNL A   1      51.642  26.154  25.486  1.00  0.00     0.200 A 
ATOM     49  F   UNL A   1      52.141  25.523  27.706  1.00  0.00    -0.200 F 
ATOM     50  F   UNL A   1      52.881  25.821  25.098  1.00  0.00    -0.200 F 
ENDBRANCH  26  40
BRANCH  27  51
ATOM     51  C   UNL A   1      39.778  28.765  29.501  1.00  0.00     0.064 A 
ATOM     52  C   UNL A   1      38.815  29.267  28.615  1.00  0.00     0.173 A 
ATOM     53  C   UNL A   1      39.382  28.509  30.822  1.00  0.00     0.173 A 
ATOM     54  F   UNL A   1      39.152  29.543  27.346  1.00  0.00    -0.203 F 
ATOM     55  C   UNL A   1      37.509  29.507  29.035  1.00  0.00     0.198 A 
ATOM     56  C   UNL A   1      38.070  28.725  31.234  1.00  0.00     0.198 A 
ATOM     57  F   UNL A   1      40.266  28.022  31.705  1.00  0.00    -0.203 F 
ATOM     58  F   UNL A   1      36.614  30.013  28.176  1.00  0.00    -0.200 F 
ATOM     59  C   UNL A   1      37.135  29.228  30.341  1.00  0.00     0.200 A 
ATOM     60  F   UNL A   1      37.709  28.438  32.492  1.00  0.00    -0.200 F 
ATOM     61  F   UNL A   1      35.875  29.445  30.740  1.00  0.00    -0.200 F 
ENDBRANCH  27  51
BRANCH  39  62
ATOM     62  C   UNL A   1      45.542  32.614  28.814  1.00  0.00     0.064 A 
ATOM     63  C   UNL A   1      45.287  33.612  27.864  1.00  0.00     0.173 A 
ATOM     64  C   UNL A   1      46.063  33.003  30.056  1.00  0.00     0.173 A 
ATOM     65  F   UNL A   1      44.806  33.287  26.655  1.00  0.00    -0.203 F 
ATOM     66  C   UNL A   1      45.567  34.948  28.139  1.00  0.00     0.198 A 
ATOM     67  C   UNL A   1      46.316  34.343  30.338  1.00  0.00     0.198 A 
ATOM     68  F   UNL A   1      46.320  32.085  31.000  1.00  0.00    -0.203 F 
ATOM     69  F   UNL A   1      45.362  35.881  27.199  1.00  0.00    -0.200 F 
ATOM     70  C   UNL A   1      46.076  35.312  29.376  1.00  0.00     0.200 A 
ATOM     71  F   UNL A   1      46.798  34.694  31.538  1.00  0.00    -0.200 F 
ATOM     72  F   UNL A   1      46.344  36.599  29.640  1.00  0.00    -0.200 F 
ENDBRANCH  39  62
ENDBRANCH  13  14
ENDBRANCH   6   8
ENDBRANCH   3   4
ENDBRANCH   2   3
ENDBRANCH   1   2
BRANCH   1  73
ATOM     73  C   UNL A   1      37.346  22.070  25.621  1.00  0.00     0.116 C 
BRANCH  73  74
ATOM     74  N   UNL A   1      36.201  22.046  26.505  1.00  0.00    -0.356 N 
ATOM     75  C   UNL A   1      34.917  21.641  26.353  1.00  0.00     0.224 C 
ATOM     76  H   UNL A   1      36.394  22.400  27.402  1.00  0.00     0.163 HD
ATOM     77  O   UNL A   1      34.256  21.620  27.396  1.00  0.00    -0.275 OA
BRANCH  75  78
ATOM     78  C   UNL A   1      34.287  21.318  24.997  1.00  0.00     0.098 C 
ATOM     79  C   UNL A   1      33.377  20.084  24.951  1.00  0.00     0.017 C 
ATOM     80  C   UNL A   1      33.453  22.552  24.585  1.00  0.00     0.133 C 
ATOM     81  C   UNL A   1      32.702  19.939  23.586  1.00  0.00     0.022 C 
ATOM     82  N   UNL A   1      32.788  22.377  23.293  1.00  0.00    -0.338 N 
ATOM     83  C   UNL A   1      31.940  21.193  23.187  1.00  0.00     0.120 C 
BRANCH  82  84
ATOM     84  C   UNL A   1      33.010  23.345  22.314  1.00  0.00     0.253 C 
ATOM     85  O   UNL A   1      33.651  23.120  21.288  1.00  0.00    -0.269 OA
BRANCH  84  86
ATOM     86  C   UNL A   1      32.423  24.699  22.435  1.00  0.00     0.040 A 
ATOM     87  C   UNL A   1      31.180  24.795  23.062  1.00  0.00     0.016 A 
ATOM     88  C   UNL A   1      33.004  25.846  21.892  1.00  0.00     0.016 A 
ATOM     89  C   UNL A   1      30.574  26.038  23.234  1.00  0.00     0.027 A 
ATOM     90  C   UNL A   1      32.413  27.098  22.111  1.00  0.00     0.027 A 
ATOM     91  C   UNL A   1      31.220  27.208  22.838  1.00  0.00     0.041 A 
BRANCH  91  92
ATOM     92  N   UNL A   1      30.743  28.505  23.106  1.00  0.00    -0.322 N 
ATOM     93  C   UNL A   1      30.875  29.325  24.209  1.00  0.00     0.255 C 
ATOM     94  H   UNL A   1      30.218  28.900  22.373  1.00  0.00     0.170 HD
ATOM     95  O   UNL A   1      30.221  30.363  24.287  1.00  0.00    -0.269 OA
BRANCH  93  96
ATOM     96  C   UNL A   1      31.828  29.009  25.290  1.00  0.00     0.040 A 
ATOM     97  C   UNL A   1      33.169  29.366  25.123  1.00  0.00     0.014 A 
ATOM     98  C   UNL A   1      31.393  28.409  26.479  1.00  0.00     0.014 A 
ATOM     99  C   UNL A   1      34.063  29.195  26.181  1.00  0.00     0.001 A 
ATOM    100  C   UNL A   1      32.291  28.246  27.535  1.00  0.00     0.001 A 
ATOM    101  C   UNL A   1      33.619  28.652  27.390  1.00  0.00     0.000 A 
ENDBRANCH  93  96
ENDBRANCH  91  92
ENDBRANCH  84  86
ENDBRANCH  82  84
ENDBRANCH  75  78
ENDBRANCH  73  74
ENDBRANCH   1  73
TORSDOF 15
ENDMDL
MODEL 3
REMARK VINA RESULT:     -13.3      0.414      7.230
REMARK SMILES O=C(NCCCCNC(=O)[C@H]1CCCN(C(=O)c2ccc(NC(=O)c3ccccc3)cc2)C1)c1ccc(-c2c3nc(c(-c4c(F)c(F)c(F)c(F)c4F)c4ccc([nH]4)c(-c4c(F)c(F)c(F)c(F)c4F)c4nc(c(-c5c(F)c(F)c(F)c(F)c5F)c5ccc2[nH]5)C=C4)C=C3)cc1
REMARK SMILES IDX 6 1 5 2 4 3 3 4 1 5 2 6 34 8 35 9 96 10 36 11 95 12 37 13
REMARK SMILES IDX 38 14 39 15 89 16 40 17 94 18 88 19 90 20 41 21 93 22 87 23
REMARK SMILES IDX 86 24 42 26 74 27 54 28 73 29 55 30 58 31 72 32 91 33 56 34
REMARK SMILES IDX 57 35 71 37 92 38 59 39 43 40 44 41 52 42 45 43 46 44 50 45
REMARK SMILES IDX 53 46 47 47 48 48 51 49 49 50 75 51 76 52 84 53 77 54 78 55
REMARK SMILES IDX 82 56 85 57 79 58 80 59 83 60 81 61 60 62 61 63 69 64 62 65
REMARK SMILES IDX 63 66 67 67 70 68 64 69 65 70 68 71 66 72 7 73 8 74 9 75
REMARK SMILES IDX 10 77 11 78 12 79 33 80 13 81 15 82 14 83 16 84 17 85 18 86
REMARK SMILES IDX 19 87 32 88 20 89 31 90 21 91 22 92 23 93 24 95 25 96 26 97
REMARK SMILES IDX 30 98 27 99 29 100 28 101
REMARK H PARENT 3 7 90 25 58 36 8 76 22 94
REMARK Flexibility Score: inf
ROOT
ATOM      1  C   UNL A   1      37.637  20.332  24.606  1.00  0.00     0.023 C 
ENDROOT
BRANCH   1   2
ATOM      2  C   UNL A   1      38.473  19.289  25.342  1.00  0.00     0.023 C 
BRANCH   2   3
ATOM      3  C   UNL A   1      39.734  19.801  26.024  1.00  0.00     0.116 C 
BRANCH   3   4
ATOM      4  N   UNL A   1      40.825  18.842  26.021  1.00  0.00    -0.352 N 
ATOM      5  O   UNL A   1      42.967  18.132  26.023  1.00  0.00    -0.269 OA
ATOM      6  C   UNL A   1      42.175  19.061  26.149  1.00  0.00     0.251 C 
ATOM      7  H   UNL A   1      40.559  17.901  25.911  1.00  0.00     0.163 HD
BRANCH   6   8
ATOM      8  C   UNL A   1      42.679  20.429  26.398  1.00  0.00     0.039 A 
ATOM      9  C   UNL A   1      42.698  20.963  27.688  1.00  0.00     0.014 A 
ATOM     10  C   UNL A   1      43.123  21.193  25.315  1.00  0.00     0.014 A 
ATOM     11  C   UNL A   1      43.011  22.306  27.874  1.00  0.00     0.010 A 
ATOM     12  C   UNL A   1      43.519  22.518  25.515  1.00  0.00     0.010 A 
ATOM     13  C   UNL A   1      43.429  23.096  26.791  1.00  0.00    -0.014 A 
BRANCH  13  14
ATOM     14  C   UNL A   1      43.801  24.515  27.022  1.00  0.00     0.031 A 
ATOM     15  C   UNL A   1      42.806  25.499  27.569  1.00  0.00     0.074 A 
ATOM     16  C   UNL A   1      45.062  24.904  26.755  1.00  0.00     0.049 A 
ATOM     17  N   UNL A   1      42.970  26.769  27.850  1.00  0.00    -0.248 NA
ATOM     18  C   UNL A   1      41.448  25.000  27.828  1.00  0.00     0.031 C 
ATOM     19  C   UNL A   1      46.110  24.039  26.213  1.00  0.00     0.029 A 
ATOM     20  N   UNL A   1      45.681  26.116  26.920  1.00  0.00    -0.354 N 
ATOM     21  C   UNL A   1      41.736  27.224  28.294  1.00  0.00     0.074 A 
ATOM     22  C   UNL A   1      40.824  26.101  28.224  1.00  0.00     0.031 C 
ATOM     23  C   UNL A   1      47.255  24.733  26.137  1.00  0.00     0.029 A 
ATOM     24  C   UNL A   1      47.007  26.104  26.570  1.00  0.00     0.049 A 
ATOM     25  H   UNL A   1      45.217  26.918  27.257  1.00  0.00     0.167 HD
ATOM     26  C   UNL A   1      41.398  28.463  28.727  1.00  0.00     0.037 A 
ATOM     27  C   UNL A   1      47.922  27.089  26.587  1.00  0.00     0.037 A 
ATOM     28  C   UNL A   1      42.315  29.571  28.814  1.00  0.00     0.049 A 
ATOM     29  C   UNL A   1      47.518  28.456  27.057  1.00  0.00     0.074 A 
ATOM     30  C   UNL A   1      42.081  30.853  29.282  1.00  0.00     0.029 A 
ATOM     31  N   UNL A   1      43.645  29.529  28.421  1.00  0.00    -0.354 N 
ATOM     32  N   UNL A   1      46.357  28.864  27.506  1.00  0.00    -0.248 NA
ATOM     33  C   UNL A   1      48.552  29.498  27.018  1.00  0.00     0.031 C 
ATOM     34  C   UNL A   1      43.256  31.598  29.130  1.00  0.00     0.029 A 
ATOM     35  C   UNL A   1      44.237  30.767  28.612  1.00  0.00     0.049 A 
ATOM     36  H   UNL A   1      44.102  28.734  28.059  1.00  0.00     0.167 HD
ATOM     37  C   UNL A   1      46.521  30.204  27.823  1.00  0.00     0.074 A 
ATOM     38  C   UNL A   1      47.902  30.536  27.526  1.00  0.00     0.031 C 
ATOM     39  C   UNL A   1      45.612  31.081  28.313  1.00  0.00     0.037 A 
BRANCH  26  40
ATOM     40  C   UNL A   1      39.966  28.696  29.117  1.00  0.00     0.064 A 
ATOM     41  C   UNL A   1      39.013  29.160  28.197  1.00  0.00     0.173 A 
ATOM     42  C   UNL A   1      39.535  28.424  30.424  1.00  0.00     0.173 A 
ATOM     43  F   UNL A   1      39.375  29.445  26.937  1.00  0.00    -0.203 F 
ATOM     44  C   UNL A   1      37.691  29.370  28.580  1.00  0.00     0.198 A 
ATOM     45  C   UNL A   1      38.206  28.609  30.797  1.00  0.00     0.198 A 
ATOM     46  F   UNL A   1      40.403  27.972  31.342  1.00  0.00    -0.203 F 
ATOM     47  F   UNL A   1      36.810  29.861  27.698  1.00  0.00    -0.200 F 
ATOM     48  C   UNL A   1      37.287  29.091  29.877  1.00  0.00     0.200 A 
ATOM     49  F   UNL A   1      37.815  28.327  32.048  1.00  0.00    -0.200 F 
ATOM     50  F   UNL A   1      36.014  29.293  30.243  1.00  0.00    -0.200 F 
ENDBRANCH  26  40
BRANCH  27  51
ATOM     51  C   UNL A   1      49.314  26.800  26.161  1.00  0.00     0.064 A 
ATOM     52  C   UNL A   1      50.247  26.275  27.066  1.00  0.00     0.173 A 
ATOM     53  C   UNL A   1      49.729  27.003  24.837  1.00  0.00     0.173 A 
ATOM     54  F   UNL A   1      49.899  26.081  28.348  1.00  0.00    -0.203 F 
ATOM     55  C   UNL A   1      51.544  25.970  26.664  1.00  0.00     0.198 A 
ATOM     56  C   UNL A   1      51.019  26.672  24.429  1.00  0.00     0.198 A 
ATOM     57  F   UNL A   1      48.870  27.496  23.932  1.00  0.00    -0.203 F 
ATOM     58  F   UNL A   1      52.426  25.496  27.554  1.00  0.00    -0.200 F 
ATOM     59  C   UNL A   1      51.927  26.160  25.344  1.00  0.00     0.200 A 
ATOM     60  F   UNL A   1      51.379  26.841  23.150  1.00  0.00    -0.200 F 
ATOM     61  F   UNL A   1      53.170  25.852  24.954  1.00  0.00    -0.200 F 
ENDBRANCH  27  51
BRANCH  39  62
ATOM     62  C   UNL A   1      46.091  32.476  28.590  1.00  0.00     0.064 A 
ATOM     63  C   UNL A   1      46.005  33.487  27.622  1.00  0.00     0.173 A 
ATOM     64  C   UNL A   1      46.621  32.808  29.845  1.00  0.00     0.173 A 
ATOM     65  F   UNL A   1      45.522  33.214  26.401  1.00  0.00    -0.203 F 
ATOM     66  C   UNL A   1      46.458  34.776  27.894  1.00  0.00     0.198 A 
ATOM     67  C   UNL A   1      47.047  34.103  30.122  1.00  0.00     0.198 A 
ATOM     68  F   UNL A   1      46.721  31.875  30.805  1.00  0.00    -0.203 F 
ATOM     69  F   UNL A   1      46.413  35.715  26.939  1.00  0.00    -0.200 F 
ATOM     70  C   UNL A   1      46.973  35.083  29.144  1.00  0.00     0.200 A 
ATOM     71  F   UNL A   1      47.536  34.401  31.333  1.00  0.00    -0.200 F 
ATOM     72  F   UNL A   1      47.407  36.325  29.404  1.00  0.00    -0.200 F 
ENDBRANCH  39  62
ENDBRANCH  13  14
ENDBRANCH   6   8
ENDBRANCH   3   4
ENDBRANCH   2   3
ENDBRANCH   1   2
BRANCH   1  73
ATOM     73  C   UNL A   1      37.528  21.702  25.267  1.00  0.00     0.116 C 
BRANCH  73  74
ATOM     74  N   UNL A   1      36.446  21.806  26.222  1.00  0.00    -0.356 N 
ATOM     75  C   UNL A   1      35.119  21.544  26.155  1.00  0.00     0.224 C 
ATOM     76  H   UNL A   1      36.734  22.137  27.102  1.00  0.00     0.163 HD
ATOM     77  O   UNL A   1      34.527  21.597  27.238  1.00  0.00    -0.275 OA
BRANCH  75  78
ATOM     78  C   UNL A   1      34.372  21.290  24.844  1.00  0.00     0.098 C 
ATOM     79  C   UNL A   1      33.390  20.112  24.843  1.00  0.00     0.017 C 
ATOM     80  C   UNL A   1      33.583  22.580  24.521  1.00  0.00     0.133 C 
ATOM     81  C   UNL A   1      32.608  20.039  23.531  1.00  0.00     0.022 C 
ATOM     82  N   UNL A   1      32.815  22.474  23.280  1.00  0.00    -0.338 N 
ATOM     83  C   UNL A   1      31.893  21.344  23.215  1.00  0.00     0.120 C 
BRANCH  82  84
ATOM     84  C   UNL A   1      33.021  23.452  22.307  1.00  0.00     0.253 C 
ATOM     85  O   UNL A   1      33.671  23.245  21.282  1.00  0.00    -0.269 OA
BRANCH  84  86
ATOM     86  C   UNL A   1      32.404  24.792  22.431  1.00  0.00     0.040 A 
ATOM     87  C   UNL A   1      31.182  24.865  23.100  1.00  0.00     0.016 A 
ATOM     88  C   UNL A   1      32.937  25.946  21.853  1.00  0.00     0.016 A 
ATOM     89  C   UNL A   1      30.551  26.095  23.278  1.00  0.00     0.027 A 
ATOM     90  C   UNL A   1      32.322  27.185  22.078  1.00  0.00     0.027 A 
ATOM     91  C   UNL A   1      31.154  27.276  22.844  1.00  0.00     0.041 A 
BRANCH  91  92
ATOM     92  N   UNL A   1      30.653  28.564  23.113  1.00  0.00    -0.322 N 
ATOM     93  C   UNL A   1      30.810  29.405  24.196  1.00  0.00     0.255 C 
ATOM     94  H   UNL A   1      30.087  28.932  22.398  1.00  0.00     0.170 HD
ATOM     95  O   UNL A   1      30.133  30.427  24.287  1.00  0.00    -0.269 OA
BRANCH  93  96
ATOM     96  C   UNL A   1      31.818  29.133  25.239  1.00  0.00     0.040 A 
ATOM     97  C   UNL A   1      31.390  28.608  26.462  1.00  0.00     0.014 A 
ATOM     98  C   UNL A   1      33.181  29.348  24.995  1.00  0.00     0.014 A 
ATOM     99  C   UNL A   1      32.335  28.222  27.413  1.00  0.00     0.001 A 
ATOM    100  C   UNL A   1      34.121  28.955  25.949  1.00  0.00     0.001 A 
ATOM    101  C   UNL A   1      33.697  28.380  27.149  1.00  0.00     0.000 A 
ENDBRANCH  93  96
ENDBRANCH  91  92
ENDBRANCH  84  86
ENDBRANCH  82  84
ENDBRANCH  75  78
ENDBRANCH  73  74
ENDBRANCH   1  73
TORSDOF 15
ENDMDL
