MODEL 1
REMARK VINA RESULT:     -13.0      0.000      0.000
REMARK SMILES C[NH2+][C@]1(C(=O)NCCCCNC(=O)c2ccc(-c3c4nc(c(-c5c(F)c(F)c(F)c(F)c5F)c5ccc([nH]5)c(-c5c(F)c(F)c(F)c(F)c5F)c5nc(c(-c6c(F)c(F)c(F)c(F)c6F)c6ccc3[nH]6)C=C5)C=C4)cc2)CCC[C@H]([N@H+]2CCC[C@@H]2C2CCCC2)C1
REMARK SMILES IDX 8 1 7 2 6 3 4 4 5 5 3 7 77 8 91 9 78 10 80 11 79 12 2 13
REMARK SMILES IDX 1 14 81 17 82 18 85 19 83 21 84 22 86 23 87 24 90 25 88 26
REMARK SMILES IDX 89 27 9 28 10 29 11 30 12 31 13 33 14 34 15 35 76 36 16 37
REMARK SMILES IDX 75 38 17 39 18 40 19 41 69 42 20 43 74 44 68 45 70 46 21 47
REMARK SMILES IDX 73 48 67 49 66 50 22 52 54 53 34 54 53 55 35 56 38 57 52 58
REMARK SMILES IDX 71 59 36 60 37 61 51 63 72 64 39 65 23 66 24 67 32 68 25 69
REMARK SMILES IDX 26 70 30 71 33 72 27 73 28 74 31 75 29 76 55 77 56 78 64 79
REMARK SMILES IDX 57 80 58 81 62 82 65 83 59 84 60 85 63 86 61 87 40 88 41 89
REMARK SMILES IDX 49 90 42 91 43 92 47 93 50 94 44 95 45 96 48 97 46 98
REMARK H PARENT 6 6 2 15 2 16 81 20 11 32 70 51 38 62
REMARK Flexibility Score: inf
ROOT
ATOM      1  C   UNL A   1      31.972  30.358  26.851  1.00  0.00     0.023 C 
ENDROOT
BRANCH   1   2
ATOM      2  C   UNL A   1      33.351  29.877  26.340  1.00  0.00     0.116 C 
BRANCH   2   3
ATOM      3  N   UNL A   1      33.404  29.732  24.899  1.00  0.00    -0.351 N 
ATOM      4  C   UNL A   1      33.220  28.693  24.041  1.00  0.00     0.281 C 
ATOM      5  O   UNL A   1      33.350  29.028  22.852  1.00  0.00    -0.268 OA
ATOM      6  H   UNL A   1      33.621  30.574  24.438  1.00  0.00     0.163 HD
BRANCH   4   7
ATOM      7  C   UNL A   1      32.961  27.149  24.430  1.00  0.00     0.181 C 
ATOM      8  C   UNL A   1      33.337  26.237  23.204  1.00  0.00     0.079 C 
ATOM      9  C   UNL A   1      33.748  26.620  25.624  1.00  0.00     0.144 C 
ATOM     10  C   UNL A   1      33.975  24.838  23.328  1.00  0.00     0.013 C 
ATOM     11  C   UNL A   1      33.748  25.061  25.754  1.00  0.00     0.191 C 
ATOM     12  C   UNL A   1      34.683  24.593  24.637  1.00  0.00     0.065 C 
BRANCH   7  13
ATOM     13  N   UNL A   1      31.495  27.126  24.780  1.00  0.00    -0.336 N 
ATOM     14  C   UNL A   1      30.566  26.915  23.661  1.00  0.00     0.331 C 
ATOM     15  H   UNL A   1      31.347  26.374  25.453  1.00  0.00     0.346 HD
ATOM     16  H   UNL A   1      31.285  28.057  25.139  1.00  0.00     0.346 HD
ENDBRANCH   7  13
BRANCH  11  17
ATOM     17  N   UNL A   1      32.635  24.086  25.748  1.00  0.00    -0.330 N 
ATOM     18  C   UNL A   1      31.429  24.596  26.395  1.00  0.00     0.262 C 
ATOM     19  C   UNL A   1      32.267  22.878  24.957  1.00  0.00     0.187 C 
ATOM     20  H   UNL A   1      33.481  23.561  25.970  1.00  0.00     0.348 HD
ATOM     21  C   UNL A   1      30.787  23.313  26.851  1.00  0.00     0.067 C 
ATOM     22  C   UNL A   1      30.967  22.403  25.652  1.00  0.00     0.071 C 
BRANCH  19  23
ATOM     23  C   UNL A   1      33.180  21.631  24.700  1.00  0.00     0.047 C 
ATOM     24  C   UNL A   1      34.286  21.125  25.644  1.00  0.00     0.010 C 
ATOM     25  C   UNL A   1      32.423  20.307  24.482  1.00  0.00     0.010 C 
ATOM     26  C   UNL A   1      34.788  19.875  24.905  1.00  0.00     0.001 C 
ATOM     27  C   UNL A   1      33.551  19.303  24.207  1.00  0.00     0.001 C 
ENDBRANCH  19  23
ENDBRANCH  11  17
ENDBRANCH   4   7
ENDBRANCH   2   3
ENDBRANCH   1   2
BRANCH   1  28
ATOM     28  C   UNL A   1      31.702  31.853  26.798  1.00  0.00     0.023 C 
BRANCH  28  29
ATOM     29  C   UNL A   1      32.830  32.700  27.332  1.00  0.00     0.116 C 
BRANCH  29  30
ATOM     30  N   UNL A   1      32.439  34.070  27.632  1.00  0.00    -0.352 N 
ATOM     31  C   UNL A   1      33.019  34.916  28.545  1.00  0.00     0.251 C 
ATOM     32  H   UNL A   1      31.674  34.428  27.126  1.00  0.00     0.163 HD
ATOM     33  O   UNL A   1      32.566  36.033  28.760  1.00  0.00    -0.269 OA
BRANCH  31  34
ATOM     34  C   UNL A   1      34.169  34.403  29.304  1.00  0.00     0.039 A 
ATOM     35  C   UNL A   1      33.927  33.569  30.393  1.00  0.00     0.014 A 
ATOM     36  C   UNL A   1      35.466  34.635  28.841  1.00  0.00     0.014 A 
ATOM     37  C   UNL A   1      34.997  32.911  30.991  1.00  0.00     0.010 A 
ATOM     38  C   UNL A   1      36.517  33.906  29.375  1.00  0.00     0.010 A 
ATOM     39  C   UNL A   1      36.291  33.047  30.461  1.00  0.00    -0.014 A 
BRANCH  39  40
ATOM     40  C   UNL A   1      37.436  32.319  31.050  1.00  0.00     0.031 A 
ATOM     41  C   UNL A   1      37.919  32.692  32.422  1.00  0.00     0.074 A 
ATOM     42  C   UNL A   1      38.069  31.376  30.329  1.00  0.00     0.049 A 
ATOM     43  N   UNL A   1      38.937  32.224  33.096  1.00  0.00    -0.248 NA
ATOM     44  C   UNL A   1      37.177  33.757  33.117  1.00  0.00     0.031 C 
ATOM     45  C   UNL A   1      37.719  30.974  28.964  1.00  0.00     0.029 A 
ATOM     46  N   UNL A   1      39.146  30.586  30.641  1.00  0.00    -0.354 N 
ATOM     47  C   UNL A   1      38.963  32.946  34.281  1.00  0.00     0.074 A 
ATOM     48  C   UNL A   1      37.904  33.927  34.209  1.00  0.00     0.031 C 
ATOM     49  C   UNL A   1      38.546  29.992  28.570  1.00  0.00     0.029 A 
ATOM     50  C   UNL A   1      39.504  29.721  29.638  1.00  0.00     0.049 A 
ATOM     51  H   UNL A   1      39.617  30.635  31.504  1.00  0.00     0.167 HD
ATOM     52  C   UNL A   1      39.780  32.782  35.347  1.00  0.00     0.037 A 
ATOM     53  C   UNL A   1      40.496  28.813  29.591  1.00  0.00     0.037 A 
ATOM     54  C   UNL A   1      40.809  31.782  35.420  1.00  0.00     0.049 A 
ATOM     55  C   UNL A   1      41.389  28.649  30.791  1.00  0.00     0.074 A 
ATOM     56  C   UNL A   1      41.655  31.490  36.475  1.00  0.00     0.029 A 
ATOM     57  N   UNL A   1      41.132  30.908  34.392  1.00  0.00    -0.354 N 
ATOM     58  N   UNL A   1      41.361  29.288  31.936  1.00  0.00    -0.248 NA
ATOM     59  C   UNL A   1      42.445  27.633  30.696  1.00  0.00     0.031 C 
ATOM     60  C   UNL A   1      42.518  30.466  36.069  1.00  0.00     0.029 A 
ATOM     61  C   UNL A   1      42.176  30.087  34.781  1.00  0.00     0.049 A 
ATOM     62  H   UNL A   1      40.683  30.875  33.516  1.00  0.00     0.167 HD
ATOM     63  C   UNL A   1      42.373  28.733  32.708  1.00  0.00     0.074 A 
ATOM     64  C   UNL A   1      42.986  27.695  31.904  1.00  0.00     0.031 C 
ATOM     65  C   UNL A   1      42.762  29.053  33.965  1.00  0.00     0.037 A 
BRANCH  52  66
ATOM     66  C   UNL A   1      39.580  33.699  36.518  1.00  0.00     0.064 A 
ATOM     67  C   UNL A   1      40.162  34.975  36.559  1.00  0.00     0.173 A 
ATOM     68  C   UNL A   1      38.780  33.307  37.600  1.00  0.00     0.173 A 
ATOM     69  F   UNL A   1      40.950  35.392  35.557  1.00  0.00    -0.203 F 
ATOM     70  C   UNL A   1      39.974  35.814  37.656  1.00  0.00     0.198 A 
ATOM     71  C   UNL A   1      38.568  34.160  38.680  1.00  0.00     0.198 A 
ATOM     72  F   UNL A   1      38.200  32.097  37.611  1.00  0.00    -0.203 F 
ATOM     73  F   UNL A   1      40.585  37.006  37.697  1.00  0.00    -0.200 F 
ATOM     74  C   UNL A   1      39.172  35.408  38.711  1.00  0.00     0.200 A 
ATOM     75  F   UNL A   1      37.784  33.772  39.695  1.00  0.00    -0.200 F 
ATOM     76  F   UNL A   1      38.987  36.218  39.763  1.00  0.00    -0.200 F 
ENDBRANCH  52  66
BRANCH  53  77
ATOM     77  C   UNL A   1      40.676  27.966  28.382  1.00  0.00     0.064 A 
ATOM     78  C   UNL A   1      41.449  28.413  27.302  1.00  0.00     0.173 A 
ATOM     79  C   UNL A   1      40.079  26.702  28.279  1.00  0.00     0.173 A 
ATOM     80  F   UNL A   1      42.026  29.624  27.347  1.00  0.00    -0.203 F 
ATOM     81  C   UNL A   1      41.600  27.638  26.154  1.00  0.00     0.198 A 
ATOM     82  C   UNL A   1      40.254  25.915  27.142  1.00  0.00     0.198 A 
ATOM     83  F   UNL A   1      39.337  26.224  29.287  1.00  0.00    -0.203 F 
ATOM     84  F   UNL A   1      42.307  28.110  25.118  1.00  0.00    -0.200 F 
ATOM     85  C   UNL A   1      41.007  26.387  26.077  1.00  0.00     0.200 A 
ATOM     86  F   UNL A   1      39.692  24.700  27.077  1.00  0.00    -0.200 F 
ATOM     87  F   UNL A   1      41.154  25.640  24.974  1.00  0.00    -0.200 F 
ENDBRANCH  53  77
BRANCH  65  88
ATOM     88  C   UNL A   1      43.877  28.247  34.565  1.00  0.00     0.064 A 
ATOM     89  C   UNL A   1      43.632  27.044  35.242  1.00  0.00     0.173 A 
ATOM     90  C   UNL A   1      45.209  28.664  34.421  1.00  0.00     0.173 A 
ATOM     91  F   UNL A   1      42.375  26.612  35.418  1.00  0.00    -0.203 F 
ATOM     92  C   UNL A   1      44.681  26.299  35.774  1.00  0.00     0.198 A 
ATOM     93  C   UNL A   1      46.256  27.901  34.927  1.00  0.00     0.198 A 
ATOM     94  F   UNL A   1      45.494  29.805  33.775  1.00  0.00    -0.203 F 
ATOM     95  F   UNL A   1      44.423  25.175  36.458  1.00  0.00    -0.200 F 
ATOM     96  C   UNL A   1      45.991  26.724  35.610  1.00  0.00     0.200 A 
ATOM     97  F   UNL A   1      47.522  28.306  34.754  1.00  0.00    -0.200 F 
ATOM     98  F   UNL A   1      46.999  26.000  36.115  1.00  0.00    -0.200 F 
ENDBRANCH  65  88
ENDBRANCH  39  40
ENDBRANCH  31  34
ENDBRANCH  29  30
ENDBRANCH  28  29
ENDBRANCH   1  28
TORSDOF 14
ENDMDL
MODEL 2
REMARK VINA RESULT:     -13.0      0.138      1.581
REMARK SMILES C[NH2+][C@]1(C(=O)NCCCCNC(=O)c2ccc(-c3c4nc(c(-c5c(F)c(F)c(F)c(F)c5F)c5ccc([nH]5)c(-c5c(F)c(F)c(F)c(F)c5F)c5nc(c(-c6c(F)c(F)c(F)c(F)c6F)c6ccc3[nH]6)C=C5)C=C4)cc2)CCC[C@H]([N@H+]2CCC[C@@H]2C2CCCC2)C1
REMARK SMILES IDX 8 1 7 2 6 3 4 4 5 5 3 7 77 8 91 9 78 10 80 11 79 12 2 13
REMARK SMILES IDX 1 14 81 17 82 18 85 19 83 21 84 22 86 23 87 24 90 25 88 26
REMARK SMILES IDX 89 27 9 28 10 29 11 30 12 31 13 33 14 34 15 35 76 36 16 37
REMARK SMILES IDX 75 38 17 39 18 40 19 41 69 42 20 43 74 44 68 45 70 46 21 47
REMARK SMILES IDX 73 48 67 49 66 50 22 52 54 53 34 54 53 55 35 56 38 57 52 58
REMARK SMILES IDX 71 59 36 60 37 61 51 63 72 64 39 65 23 66 24 67 32 68 25 69
REMARK SMILES IDX 26 70 30 71 33 72 27 73 28 74 31 75 29 76 55 77 56 78 64 79
REMARK SMILES IDX 57 80 58 81 62 82 65 83 59 84 60 85 63 86 61 87 40 88 41 89
REMARK SMILES IDX 49 90 42 91 43 92 47 93 50 94 44 95 45 96 48 97 46 98
REMARK H PARENT 6 6 2 15 2 16 81 20 11 32 70 51 38 62
REMARK Flexibility Score: inf
ROOT
ATOM      1  C   UNL A   1      31.978  30.399  26.840  1.00  0.00     0.023 C 
ENDROOT
BRANCH   1   2
ATOM      2  C   UNL A   1      33.338  29.897  26.299  1.00  0.00     0.116 C 
BRANCH   2   3
ATOM      3  N   UNL A   1      33.351  29.737  24.859  1.00  0.00    -0.351 N 
ATOM      4  C   UNL A   1      33.163  28.685  24.018  1.00  0.00     0.281 C 
ATOM      5  O   UNL A   1      33.252  29.008  22.822  1.00  0.00    -0.268 OA
ATOM      6  H   UNL A   1      33.538  30.577  24.382  1.00  0.00     0.163 HD
BRANCH   4   7
ATOM      7  C   UNL A   1      32.946  27.140  24.431  1.00  0.00     0.181 C 
ATOM      8  C   UNL A   1      33.454  26.217  23.263  1.00  0.00     0.079 C 
ATOM      9  C   UNL A   1      33.666  26.680  25.694  1.00  0.00     0.144 C 
ATOM     10  C   UNL A   1      34.143  24.853  23.474  1.00  0.00     0.013 C 
ATOM     11  C   UNL A   1      33.727  25.126  25.869  1.00  0.00     0.191 C 
ATOM     12  C   UNL A   1      34.762  24.675  24.838  1.00  0.00     0.065 C 
BRANCH   7  13
ATOM     13  N   UNL A   1      31.461  27.056  24.673  1.00  0.00    -0.336 N 
ATOM     14  C   UNL A   1      30.648  26.578  23.547  1.00  0.00     0.331 C 
ATOM     15  H   UNL A   1      31.309  26.424  25.459  1.00  0.00     0.346 HD
ATOM     16  H   UNL A   1      31.157  28.015  24.843  1.00  0.00     0.346 HD
ENDBRANCH   7  13
BRANCH  11  17
ATOM     17  N   UNL A   1      32.663  24.100  25.809  1.00  0.00    -0.330 N 
ATOM     18  C   UNL A   1      31.409  24.546  26.413  1.00  0.00     0.262 C 
ATOM     19  C   UNL A   1      32.385  22.884  24.994  1.00  0.00     0.187 C 
ATOM     20  H   UNL A   1      33.523  23.613  26.061  1.00  0.00     0.348 HD
ATOM     21  C   UNL A   1      30.812  23.229  26.831  1.00  0.00     0.067 C 
ATOM     22  C   UNL A   1      31.082  22.341  25.632  1.00  0.00     0.071 C 
BRANCH  19  23
ATOM     23  C   UNL A   1      33.366  21.685  24.762  1.00  0.00     0.047 C 
ATOM     24  C   UNL A   1      34.669  21.435  25.543  1.00  0.00     0.010 C 
ATOM     25  C   UNL A   1      32.728  20.290  24.903  1.00  0.00     0.010 C 
ATOM     26  C   UNL A   1      35.163  20.118  24.923  1.00  0.00     0.001 C 
ATOM     27  C   UNL A   1      33.890  19.342  24.575  1.00  0.00     0.001 C 
ENDBRANCH  19  23
ENDBRANCH  11  17
ENDBRANCH   4   7
ENDBRANCH   2   3
ENDBRANCH   1   2
BRANCH   1  28
ATOM     28  C   UNL A   1      31.725  31.897  26.785  1.00  0.00     0.023 C 
BRANCH  28  29
ATOM     29  C   UNL A   1      32.835  32.729  27.377  1.00  0.00     0.116 C 
BRANCH  29  30
ATOM     30  N   UNL A   1      32.436  34.092  27.694  1.00  0.00    -0.352 N 
ATOM     31  C   UNL A   1      33.014  34.932  28.614  1.00  0.00     0.251 C 
ATOM     32  H   UNL A   1      31.667  34.451  27.195  1.00  0.00     0.163 HD
ATOM     33  O   UNL A   1      32.555  36.044  28.844  1.00  0.00    -0.269 OA
BRANCH  31  34
ATOM     34  C   UNL A   1      34.172  34.419  29.362  1.00  0.00     0.039 A 
ATOM     35  C   UNL A   1      33.938  33.606  30.469  1.00  0.00     0.014 A 
ATOM     36  C   UNL A   1      35.464  34.628  28.873  1.00  0.00     0.014 A 
ATOM     37  C   UNL A   1      35.011  32.945  31.060  1.00  0.00     0.010 A 
ATOM     38  C   UNL A   1      36.514  33.894  29.402  1.00  0.00     0.010 A 
ATOM     39  C   UNL A   1      36.297  33.057  30.506  1.00  0.00    -0.014 A 
BRANCH  39  40
ATOM     40  C   UNL A   1      37.444  32.326  31.088  1.00  0.00     0.031 A 
ATOM     41  C   UNL A   1      37.936  32.697  32.457  1.00  0.00     0.074 A 
ATOM     42  C   UNL A   1      38.069  31.380  30.363  1.00  0.00     0.049 A 
ATOM     43  N   UNL A   1      38.957  32.226  33.124  1.00  0.00    -0.248 NA
ATOM     44  C   UNL A   1      37.202  33.764  33.156  1.00  0.00     0.031 C 
ATOM     45  C   UNL A   1      37.710  30.980  29.001  1.00  0.00     0.029 A 
ATOM     46  N   UNL A   1      39.145  30.587  30.668  1.00  0.00    -0.354 N 
ATOM     47  C   UNL A   1      38.993  32.948  34.309  1.00  0.00     0.074 A 
ATOM     48  C   UNL A   1      37.937  33.933  34.244  1.00  0.00     0.031 C 
ATOM     49  C   UNL A   1      38.531  29.995  28.601  1.00  0.00     0.029 A 
ATOM     50  C   UNL A   1      39.494  29.721  29.663  1.00  0.00     0.049 A 
ATOM     51  H   UNL A   1      39.622  30.635  31.528  1.00  0.00     0.167 HD
ATOM     52  C   UNL A   1      39.816  32.781  35.370  1.00  0.00     0.037 A 
ATOM     53  C   UNL A   1      40.484  28.810  29.610  1.00  0.00     0.037 A 
ATOM     54  C   UNL A   1      40.843  31.779  35.437  1.00  0.00     0.049 A 
ATOM     55  C   UNL A   1      41.384  28.644  30.805  1.00  0.00     0.074 A 
ATOM     56  C   UNL A   1      41.694  31.484  36.486  1.00  0.00     0.029 A 
ATOM     57  N   UNL A   1      41.156  30.903  34.407  1.00  0.00    -0.354 N 
ATOM     58  N   UNL A   1      41.365  29.283  31.949  1.00  0.00    -0.248 NA
ATOM     59  C   UNL A   1      42.436  27.624  30.703  1.00  0.00     0.031 C 
ATOM     60  C   UNL A   1      42.552  30.458  36.076  1.00  0.00     0.029 A 
ATOM     61  C   UNL A   1      42.200  30.079  34.789  1.00  0.00     0.049 A 
ATOM     62  H   UNL A   1      40.702  30.872  33.533  1.00  0.00     0.167 HD
ATOM     63  C   UNL A   1      42.380  28.724  32.715  1.00  0.00     0.074 A 
ATOM     64  C   UNL A   1      42.985  27.685  31.907  1.00  0.00     0.031 C 
ATOM     65  C   UNL A   1      42.777  29.043  33.970  1.00  0.00     0.037 A 
BRANCH  52  66
ATOM     66  C   UNL A   1      39.626  33.699  36.542  1.00  0.00     0.064 A 
ATOM     67  C   UNL A   1      40.237  34.962  36.593  1.00  0.00     0.173 A 
ATOM     68  C   UNL A   1      38.807  33.322  37.616  1.00  0.00     0.173 A 
ATOM     69  F   UNL A   1      41.044  35.363  35.599  1.00  0.00    -0.203 F 
ATOM     70  C   UNL A   1      40.058  35.801  37.690  1.00  0.00     0.198 A 
ATOM     71  C   UNL A   1      38.605  34.177  38.696  1.00  0.00     0.198 A 
ATOM     72  F   UNL A   1      38.199  32.126  37.617  1.00  0.00    -0.203 F 
ATOM     73  F   UNL A   1      40.696  36.979  37.741  1.00  0.00    -0.200 F 
ATOM     74  C   UNL A   1      39.237  35.411  38.736  1.00  0.00     0.200 A 
ATOM     75  F   UNL A   1      37.803  33.804  39.703  1.00  0.00    -0.200 F 
ATOM     76  F   UNL A   1      39.061  36.222  39.789  1.00  0.00    -0.200 F 
ENDBRANCH  52  66
BRANCH  53  77
ATOM     77  C   UNL A   1      40.653  27.963  28.401  1.00  0.00     0.064 A 
ATOM     78  C   UNL A   1      40.042  26.703  28.316  1.00  0.00     0.173 A 
ATOM     79  C   UNL A   1      41.426  28.387  27.311  1.00  0.00     0.173 A 
ATOM     80  F   UNL A   1      39.307  26.246  29.340  1.00  0.00    -0.203 F 
ATOM     81  C   UNL A   1      40.218  25.891  27.198  1.00  0.00     0.198 A 
ATOM     82  C   UNL A   1      41.578  27.585  26.180  1.00  0.00     0.198 A 
ATOM     83  F   UNL A   1      42.024  29.586  27.337  1.00  0.00    -0.203 F 
ATOM     84  F   UNL A   1      39.661  24.673  27.164  1.00  0.00    -0.200 F 
ATOM     85  C   UNL A   1      40.981  26.335  26.129  1.00  0.00     0.200 A 
ATOM     86  F   UNL A   1      42.304  28.024  25.143  1.00  0.00    -0.200 F 
ATOM     87  F   UNL A   1      41.148  25.554  25.053  1.00  0.00    -0.200 F 
ENDBRANCH  53  77
BRANCH  65  88
ATOM     88  C   UNL A   1      43.894  28.234  34.563  1.00  0.00     0.064 A 
ATOM     89  C   UNL A   1      45.230  28.648  34.471  1.00  0.00     0.173 A 
ATOM     90  C   UNL A   1      43.615  27.055  35.270  1.00  0.00     0.173 A 
ATOM     91  F   UNL A   1      45.548  29.761  33.793  1.00  0.00    -0.203 F 
ATOM     92  C   UNL A   1      46.251  27.895  35.046  1.00  0.00     0.198 A 
ATOM     93  C   UNL A   1      44.635  26.322  35.869  1.00  0.00     0.198 A 
ATOM     94  F   UNL A   1      42.351  26.623  35.392  1.00  0.00    -0.203 F 
ATOM     95  F   UNL A   1      47.526  28.283  34.907  1.00  0.00    -0.200 F 
ATOM     96  C   UNL A   1      45.952  26.739  35.750  1.00  0.00     0.200 A 
ATOM     97  F   UNL A   1      44.342  25.213  36.562  1.00  0.00    -0.200 F 
ATOM     98  F   UNL A   1      46.935  26.021  36.310  1.00  0.00    -0.200 F 
ENDBRANCH  65  88
ENDBRANCH  39  40
ENDBRANCH  31  34
ENDBRANCH  29  30
ENDBRANCH  28  29
ENDBRANCH   1  28
TORSDOF 14
ENDMDL
MODEL 3
REMARK VINA RESULT:     -12.9      0.633      7.267
REMARK SMILES C[NH2+][C@]1(C(=O)NCCCCNC(=O)c2ccc(-c3c4nc(c(-c5c(F)c(F)c(F)c(F)c5F)c5ccc([nH]5)c(-c5c(F)c(F)c(F)c(F)c5F)c5nc(c(-c6c(F)c(F)c(F)c(F)c6F)c6ccc3[nH]6)C=C5)C=C4)cc2)CCC[C@H]([N@H+]2CCC[C@@H]2C2CCCC2)C1
REMARK SMILES IDX 8 1 7 2 6 3 4 4 5 5 3 7 77 8 91 9 78 10 80 11 79 12 2 13
REMARK SMILES IDX 1 14 81 17 82 18 85 19 83 21 84 22 86 23 87 24 90 25 88 26
REMARK SMILES IDX 89 27 9 28 10 29 11 30 12 31 13 33 14 34 15 35 76 36 16 37
REMARK SMILES IDX 75 38 17 39 18 40 19 41 69 42 20 43 74 44 68 45 70 46 21 47
REMARK SMILES IDX 73 48 67 49 66 50 22 52 54 53 34 54 53 55 35 56 38 57 52 58
REMARK SMILES IDX 71 59 36 60 37 61 51 63 72 64 39 65 23 66 24 67 32 68 25 69
REMARK SMILES IDX 26 70 30 71 33 72 27 73 28 74 31 75 29 76 55 77 56 78 64 79
REMARK SMILES IDX 57 80 58 81 62 82 65 83 59 84 60 85 63 86 61 87 40 88 41 89
REMARK SMILES IDX 49 90 42 91 43 92 47 93 50 94 44 95 45 96 48 97 46 98
REMARK H PARENT 6 6 2 15 2 16 81 20 11 32 70 51 38 62
REMARK Flexibility Score: inf
ROOT
ATOM      1  C   UNL A   1      32.197  30.292  27.158  1.00  0.00     0.023 C 
ENDROOT
BRANCH   1   2
ATOM      2  C   UNL A   1      33.549  29.702  26.693  1.00  0.00     0.116 C 
BRANCH   2   3
ATOM      3  N   UNL A   1      33.674  29.635  25.251  1.00  0.00    -0.351 N 
ATOM      4  C   UNL A   1      33.505  28.652  24.327  1.00  0.00     0.281 C 
ATOM      5  O   UNL A   1      33.707  29.046  23.167  1.00  0.00    -0.268 OA
ATOM      6  H   UNL A   1      33.938  30.494  24.850  1.00  0.00     0.163 HD
BRANCH   4   7
ATOM      7  C   UNL A   1      33.182  27.097  24.615  1.00  0.00     0.181 C 
ATOM      8  C   UNL A   1      33.417  26.269  23.297  1.00  0.00     0.079 C 
ATOM      9  C   UNL A   1      34.019  26.431  25.702  1.00  0.00     0.144 C 
ATOM     10  C   UNL A   1      33.976  24.832  23.265  1.00  0.00     0.013 C 
ATOM     11  C   UNL A   1      33.935  24.869  25.711  1.00  0.00     0.191 C 
ATOM     12  C   UNL A   1      34.759  24.443  24.495  1.00  0.00     0.065 C 
BRANCH   7  13
ATOM     13  N   UNL A   1      31.746  27.124  25.070  1.00  0.00    -0.336 N 
ATOM     14  C   UNL A   1      30.759  27.554  24.071  1.00  0.00     0.331 C 
ATOM     15  H   UNL A   1      31.496  26.182  25.370  1.00  0.00     0.346 HD
ATOM     16  H   UNL A   1      31.708  27.824  25.811  1.00  0.00     0.346 HD
ENDBRANCH   7  13
BRANCH  11  17
ATOM     17  N   UNL A   1      32.768  23.959  25.713  1.00  0.00    -0.330 N 
ATOM     18  C   UNL A   1      31.596  24.540  26.365  1.00  0.00     0.262 C 
ATOM     19  C   UNL A   1      32.328  22.772  24.928  1.00  0.00     0.187 C 
ATOM     20  H   UNL A   1      33.584  23.387  25.933  1.00  0.00     0.348 HD
ATOM     21  C   UNL A   1      30.884  23.297  26.828  1.00  0.00     0.067 C 
ATOM     22  C   UNL A   1      31.006  22.374  25.631  1.00  0.00     0.071 C 
BRANCH  19  23
ATOM     23  C   UNL A   1      33.167  21.474  24.671  1.00  0.00     0.047 C 
ATOM     24  C   UNL A   1      34.379  21.016  25.502  1.00  0.00     0.010 C 
ATOM     25  C   UNL A   1      32.356  20.165  24.683  1.00  0.00     0.010 C 
ATOM     26  C   UNL A   1      34.745  19.686  24.824  1.00  0.00     0.001 C 
ATOM     27  C   UNL A   1      33.411  19.099  24.357  1.00  0.00     0.001 C 
ENDBRANCH  19  23
ENDBRANCH  11  17
ENDBRANCH   4   7
ENDBRANCH   2   3
ENDBRANCH   1   2
BRANCH   1  28
ATOM     28  C   UNL A   1      31.949  31.762  26.863  1.00  0.00     0.023 C 
BRANCH  28  29
ATOM     29  C   UNL A   1      32.995  32.688  27.435  1.00  0.00     0.116 C 
BRANCH  29  30
ATOM     30  N   UNL A   1      32.509  34.039  27.675  1.00  0.00    -0.352 N 
ATOM     31  C   UNL A   1      33.000  34.947  28.579  1.00  0.00     0.251 C 
ATOM     32  H   UNL A   1      31.745  34.333  27.128  1.00  0.00     0.163 HD
ATOM     33  O   UNL A   1      32.472  36.041  28.740  1.00  0.00    -0.269 OA
BRANCH  31  34
ATOM     34  C   UNL A   1      34.150  34.531  29.397  1.00  0.00     0.039 A 
ATOM     35  C   UNL A   1      33.903  33.912  30.620  1.00  0.00     0.014 A 
ATOM     36  C   UNL A   1      35.443  34.627  28.878  1.00  0.00     0.014 A 
ATOM     37  C   UNL A   1      34.963  33.328  31.307  1.00  0.00     0.010 A 
ATOM     38  C   UNL A   1      36.479  33.962  29.515  1.00  0.00     0.010 A 
ATOM     39  C   UNL A   1      36.249  33.317  30.740  1.00  0.00    -0.014 A 
BRANCH  39  40
ATOM     40  C   UNL A   1      37.381  32.660  31.428  1.00  0.00     0.031 A 
ATOM     41  C   UNL A   1      38.086  31.517  30.758  1.00  0.00     0.074 A 
ATOM     42  C   UNL A   1      37.725  33.052  32.669  1.00  0.00     0.049 A 
ATOM     43  N   UNL A   1      39.059  30.767  31.208  1.00  0.00    -0.248 NA
ATOM     44  C   UNL A   1      37.614  31.146  29.414  1.00  0.00     0.031 C 
ATOM     45  C   UNL A   1      37.070  34.114  33.435  1.00  0.00     0.029 A 
ATOM     46  N   UNL A   1      38.710  32.597  33.507  1.00  0.00    -0.354 N 
ATOM     47  C   UNL A   1      39.300  29.832  30.211  1.00  0.00     0.074 A 
ATOM     48  C   UNL A   1      38.333  30.063  29.163  1.00  0.00     0.031 C 
ATOM     49  C   UNL A   1      37.692  34.249  34.618  1.00  0.00     0.029 A 
ATOM     50  C   UNL A   1      38.763  33.262  34.706  1.00  0.00     0.049 A 
ATOM     51  H   UNL A   1      39.322  31.863  33.270  1.00  0.00     0.167 HD
ATOM     52  C   UNL A   1      40.266  28.886  30.164  1.00  0.00     0.037 A 
ATOM     53  C   UNL A   1      39.587  33.088  35.756  1.00  0.00     0.037 A 
ATOM     54  C   UNL A   1      41.242  28.685  31.199  1.00  0.00     0.049 A 
ATOM     55  C   UNL A   1      40.653  32.029  35.677  1.00  0.00     0.074 A 
ATOM     56  C   UNL A   1      42.299  27.794  31.228  1.00  0.00     0.029 A 
ATOM     57  N   UNL A   1      41.279  29.390  32.394  1.00  0.00    -0.354 N 
ATOM     58  N   UNL A   1      40.920  31.196  34.700  1.00  0.00    -0.248 NA
ATOM     59  C   UNL A   1      41.536  31.892  36.842  1.00  0.00     0.031 C 
ATOM     60  C   UNL A   1      42.951  27.931  32.458  1.00  0.00     0.029 A 
ATOM     61  C   UNL A   1      42.330  28.942  33.174  1.00  0.00     0.049 A 
ATOM     62  H   UNL A   1      40.650  30.105  32.648  1.00  0.00     0.167 HD
ATOM     63  C   UNL A   1      42.019  30.457  35.118  1.00  0.00     0.074 A 
ATOM     64  C   UNL A   1      42.376  30.952  36.432  1.00  0.00     0.031 C 
ATOM     65  C   UNL A   1      42.672  29.459  34.475  1.00  0.00     0.037 A 
BRANCH  52  66
ATOM     66  C   UNL A   1      40.313  28.007  28.948  1.00  0.00     0.064 A 
ATOM     67  C   UNL A   1      41.053  28.366  27.811  1.00  0.00     0.173 A 
ATOM     68  C   UNL A   1      39.629  26.784  28.927  1.00  0.00     0.173 A 
ATOM     69  F   UNL A   1      41.710  29.535  27.773  1.00  0.00    -0.203 F 
ATOM     70  C   UNL A   1      41.082  27.546  26.686  1.00  0.00     0.198 A 
ATOM     71  C   UNL A   1      39.687  25.950  27.813  1.00  0.00     0.198 A 
ATOM     72  F   UNL A   1      38.907  26.392  29.988  1.00  0.00    -0.203 F 
ATOM     73  F   UNL A   1      41.751  27.936  25.592  1.00  0.00    -0.200 F 
ATOM     74  C   UNL A   1      40.406  26.336  26.691  1.00  0.00     0.200 A 
ATOM     75  F   UNL A   1      39.042  24.776  27.822  1.00  0.00    -0.200 F 
ATOM     76  F   UNL A   1      40.440  25.544  25.610  1.00  0.00    -0.200 F 
ENDBRANCH  52  66
BRANCH  53  77
ATOM     77  C   UNL A   1      39.460  33.957  36.955  1.00  0.00     0.064 A 
ATOM     78  C   UNL A   1      40.085  35.212  37.002  1.00  0.00     0.173 A 
ATOM     79  C   UNL A   1      38.719  33.556  38.076  1.00  0.00     0.173 A 
ATOM     80  F   UNL A   1      40.819  35.632  35.961  1.00  0.00    -0.203 F 
ATOM     81  C   UNL A   1      39.994  36.021  38.132  1.00  0.00     0.198 A 
ATOM     82  C   UNL A   1      38.605  34.379  39.195  1.00  0.00     0.198 A 
ATOM     83  F   UNL A   1      38.094  32.370  38.079  1.00  0.00    -0.203 F 
ATOM     84  F   UNL A   1      40.640  37.194  38.166  1.00  0.00    -0.200 F 
ATOM     85  C   UNL A   1      39.249  35.606  39.226  1.00  0.00     0.200 A 
ATOM     86  F   UNL A   1      37.872  33.982  40.244  1.00  0.00    -0.200 F 
ATOM     87  F   UNL A   1      39.160  36.386  40.312  1.00  0.00    -0.200 F 
ENDBRANCH  53  77
BRANCH  65  88
ATOM     88  C   UNL A   1      43.863  28.862  35.166  1.00  0.00     0.064 A 
ATOM     89  C   UNL A   1      45.152  29.389  34.996  1.00  0.00     0.173 A 
ATOM     90  C   UNL A   1      43.704  27.777  36.042  1.00  0.00     0.173 A 
ATOM     91  F   UNL A   1      45.357  30.416  34.158  1.00  0.00    -0.203 F 
ATOM     92  C   UNL A   1      46.242  28.835  35.662  1.00  0.00     0.198 A 
ATOM     93  C   UNL A   1      44.791  27.247  36.728  1.00  0.00     0.198 A 
ATOM     94  F   UNL A   1      42.489  27.244  36.242  1.00  0.00    -0.203 F 
ATOM     95  F   UNL A   1      47.472  29.324  35.450  1.00  0.00    -0.200 F 
ATOM     96  C   UNL A   1      46.060  27.770  36.531  1.00  0.00     0.200 A 
ATOM     97  F   UNL A   1      44.610  26.227  37.579  1.00  0.00    -0.200 F 
ATOM     98  F   UNL A   1      47.109  27.244  37.178  1.00  0.00    -0.200 F 
ENDBRANCH  65  88
ENDBRANCH  39  40
ENDBRANCH  31  34
ENDBRANCH  29  30
ENDBRANCH  28  29
ENDBRANCH   1  28
TORSDOF 14
ENDMDL
