MODEL 1
REMARK VINA RESULT:     -12.0      0.000      0.000
REMARK SMILES CC(C)[C@H](/N=C1\C(=O)C(=O)[C@H]1[NH+]1CCCC1)C(=O)NCCCCNC(=O)c1ccc(-c2c3nc(c(-c4c(F)c(F)c(F)c(F)c4F)c4ccc([nH]4)c(-c4c(F)c(F)c(F)c(F)c4F)c4nc(c(-c5c(F)c(F)c(F)c(F)c5F)c5ccc2[nH]5)C=C4)C=C3)cc1
REMARK SMILES IDX 21 1 20 2 19 3 17 4 18 5 4 7 2 8 1 9 3 10 5 11 6 12 7 13
REMARK SMILES IDX 11 14 8 15 9 16 10 17 12 18 13 19 16 20 14 22 15 23 22 24
REMARK SMILES IDX 23 25 24 26 25 27 26 29 27 30 28 31 89 32 29 33 88 34 30 35
REMARK SMILES IDX 31 36 32 37 82 38 33 39 87 40 81 41 83 42 34 43 86 44 80 45
REMARK SMILES IDX 79 46 35 48 67 49 47 50 66 51 48 52 51 53 65 54 84 55 49 56
REMARK SMILES IDX 50 57 64 59 85 60 52 61 36 62 37 63 45 64 38 65 39 66 43 67
REMARK SMILES IDX 46 68 40 69 41 70 44 71 42 72 68 73 69 74 77 75 70 76 71 77
REMARK SMILES IDX 75 78 78 79 72 80 73 81 76 82 74 83 53 84 54 85 62 86 55 87
REMARK SMILES IDX 56 88 60 89 63 90 57 91 58 92 61 93 59 94
REMARK H PARENT 19 6 12 21 24 28 83 47 51 58
REMARK Flexibility Score: inf
ROOT
ATOM      1  C   UNL A   1      31.234  30.829  25.436  1.00  0.00     0.023 C 
ENDROOT
BRANCH   1   2
ATOM      2  C   UNL A   1      32.318  29.788  25.679  1.00  0.00     0.116 C 
BRANCH   2   3
ATOM      3  N   UNL A   1      31.858  28.642  26.439  1.00  0.00    -0.354 N 
ATOM      4  C   UNL A   1      31.349  27.449  26.024  1.00  0.00     0.245 C 
ATOM      5  O   UNL A   1      31.023  26.642  26.900  1.00  0.00    -0.273 OA
ATOM      6  H   UNL A   1      31.925  28.744  27.416  1.00  0.00     0.163 HD
BRANCH   4   7
ATOM      7  C   UNL A   1      31.121  27.124  24.531  1.00  0.00     0.197 C 
BRANCH   7   8
ATOM      8  C   UNL A   1      29.840  27.732  23.903  1.00  0.00     0.017 C 
ATOM      9  C   UNL A   1      30.086  28.277  22.490  1.00  0.00     0.010 C 
ATOM     10  C   UNL A   1      28.709  26.696  23.847  1.00  0.00     0.010 C 
ENDBRANCH   7   8
BRANCH   7  11
ATOM     11  N   UNL A   1      31.130  25.642  24.420  1.00  0.00    -0.266 NA
ATOM     12  C   UNL A   1      31.932  25.119  23.564  1.00  0.00     0.153 C 
ATOM     13  C   UNL A   1      32.772  25.643  22.456  1.00  0.00     0.255 C 
ATOM     14  C   UNL A   1      32.224  23.655  23.185  1.00  0.00     0.314 C 
ATOM     15  O   UNL A   1      33.163  26.716  22.130  1.00  0.00    -0.283 OA
ATOM     16  C   UNL A   1      32.903  24.251  21.893  1.00  0.00     0.268 C 
ATOM     17  O   UNL A   1      33.417  23.914  20.861  1.00  0.00    -0.283 OA
BRANCH  14  18
ATOM     18  N   UNL A   1      33.124  22.834  24.039  1.00  0.00    -0.321 N 
ATOM     19  C   UNL A   1      32.903  21.397  23.868  1.00  0.00     0.263 C 
ATOM     20  C   UNL A   1      33.124  23.130  25.480  1.00  0.00     0.263 C 
ATOM     21  H   UNL A   1      34.041  23.112  23.688  1.00  0.00     0.349 HD
ATOM     22  C   UNL A   1      32.198  20.958  25.137  1.00  0.00     0.067 C 
ATOM     23  C   UNL A   1      32.818  21.827  26.204  1.00  0.00     0.067 C 
ENDBRANCH  14  18
ENDBRANCH   7  11
ENDBRANCH   4   7
ENDBRANCH   2   3
ENDBRANCH   1   2
BRANCH   1  24
ATOM     24  C   UNL A   1      31.115  31.904  26.514  1.00  0.00     0.023 C 
BRANCH  24  25
ATOM     25  C   UNL A   1      32.452  32.450  26.998  1.00  0.00     0.116 C 
BRANCH  25  26
ATOM     26  N   UNL A   1      32.349  33.836  27.424  1.00  0.00    -0.352 N 
ATOM     27  C   UNL A   1      33.046  34.508  28.393  1.00  0.00     0.251 C 
ATOM     28  H   UNL A   1      31.678  34.373  26.944  1.00  0.00     0.163 HD
ATOM     29  O   UNL A   1      32.671  35.620  28.752  1.00  0.00    -0.269 OA
BRANCH  27  30
ATOM     30  C   UNL A   1      34.238  33.895  29.012  1.00  0.00     0.039 A 
ATOM     31  C   UNL A   1      34.060  32.792  29.851  1.00  0.00     0.014 A 
ATOM     32  C   UNL A   1      35.515  34.426  28.807  1.00  0.00     0.014 A 
ATOM     33  C   UNL A   1      35.168  32.203  30.458  1.00  0.00     0.010 A 
ATOM     34  C   UNL A   1      36.627  33.793  29.354  1.00  0.00     0.010 A 
ATOM     35  C   UNL A   1      36.460  32.688  30.199  1.00  0.00    -0.014 A 
BRANCH  35  36
ATOM     36  C   UNL A   1      37.639  32.048  30.827  1.00  0.00     0.031 A 
ATOM     37  C   UNL A   1      38.070  32.442  32.210  1.00  0.00     0.074 A 
ATOM     38  C   UNL A   1      38.337  31.133  30.130  1.00  0.00     0.049 A 
ATOM     39  N   UNL A   1      39.050  31.968  32.938  1.00  0.00    -0.248 NA
ATOM     40  C   UNL A   1      37.322  33.534  32.854  1.00  0.00     0.031 C 
ATOM     41  C   UNL A   1      38.057  30.730  28.751  1.00  0.00     0.029 A 
ATOM     42  N   UNL A   1      39.422  30.374  30.486  1.00  0.00    -0.354 N 
ATOM     43  C   UNL A   1      39.043  32.709  34.112  1.00  0.00     0.074 A 
ATOM     44  C   UNL A   1      37.997  33.700  33.981  1.00  0.00     0.031 C 
ATOM     45  C   UNL A   1      38.927  29.774  28.389  1.00  0.00     0.029 A 
ATOM     46  C   UNL A   1      39.831  29.508  29.503  1.00  0.00     0.049 A 
ATOM     47  H   UNL A   1      39.865  30.444  31.363  1.00  0.00     0.167 HD
ATOM     48  C   UNL A   1      39.821  32.557  35.209  1.00  0.00     0.037 A 
ATOM     49  C   UNL A   1      40.814  28.589  29.511  1.00  0.00     0.037 A 
ATOM     50  C   UNL A   1      40.838  31.547  35.344  1.00  0.00     0.049 A 
ATOM     51  C   UNL A   1      41.618  28.393  30.767  1.00  0.00     0.074 A 
ATOM     52  C   UNL A   1      41.638  31.264  36.435  1.00  0.00     0.029 A 
ATOM     53  N   UNL A   1      41.191  30.651  34.344  1.00  0.00    -0.354 N 
ATOM     54  N   UNL A   1      41.543  29.038  31.906  1.00  0.00    -0.248 NA
ATOM     55  C   UNL A   1      42.624  27.325  30.745  1.00  0.00     0.031 C 
ATOM     56  C   UNL A   1      42.498  30.216  36.087  1.00  0.00     0.029 A 
ATOM     57  C   UNL A   1      42.205  29.819  34.792  1.00  0.00     0.049 A 
ATOM     58  H   UNL A   1      40.781  30.612  33.450  1.00  0.00     0.167 HD
ATOM     59  C   UNL A   1      42.475  28.444  32.742  1.00  0.00     0.074 A 
ATOM     60  C   UNL A   1      43.088  27.370  31.986  1.00  0.00     0.031 C 
ATOM     61  C   UNL A   1      42.798  28.757  34.021  1.00  0.00     0.037 A 
BRANCH  48  62
ATOM     62  C   UNL A   1      39.596  33.503  36.353  1.00  0.00     0.064 A 
ATOM     63  C   UNL A   1      40.191  34.774  36.384  1.00  0.00     0.173 A 
ATOM     64  C   UNL A   1      38.759  33.146  37.420  1.00  0.00     0.173 A 
ATOM     65  F   UNL A   1      41.012  35.159  35.394  1.00  0.00    -0.203 F 
ATOM     66  C   UNL A   1      39.981  35.640  37.454  1.00  0.00     0.198 A 
ATOM     67  C   UNL A   1      38.528  34.026  38.476  1.00  0.00     0.198 A 
ATOM     68  F   UNL A   1      38.163  31.945  37.441  1.00  0.00    -0.203 F 
ATOM     69  F   UNL A   1      40.600  36.828  37.484  1.00  0.00    -0.200 F 
ATOM     70  C   UNL A   1      39.144  35.268  38.495  1.00  0.00     0.200 A 
ATOM     71  F   UNL A   1      37.712  33.669  39.478  1.00  0.00    -0.200 F 
ATOM     72  F   UNL A   1      38.940  36.104  39.522  1.00  0.00    -0.200 F 
ENDBRANCH  48  62
BRANCH  49  73
ATOM     73  C   UNL A   1      41.040  27.744  28.313  1.00  0.00     0.064 A 
ATOM     74  C   UNL A   1      41.909  28.159  27.294  1.00  0.00     0.173 A 
ATOM     75  C   UNL A   1      40.413  26.498  28.170  1.00  0.00     0.173 A 
ATOM     76  F   UNL A   1      42.520  29.350  27.381  1.00  0.00    -0.203 F 
ATOM     77  C   UNL A   1      42.129  27.368  26.170  1.00  0.00     0.198 A 
ATOM     78  C   UNL A   1      40.653  25.696  27.056  1.00  0.00     0.198 A 
ATOM     79  F   UNL A   1      39.582  26.052  29.123  1.00  0.00    -0.203 F 
ATOM     80  F   UNL A   1      42.937  27.805  25.194  1.00  0.00    -0.200 F 
ATOM     81  C   UNL A   1      41.506  26.135  26.054  1.00  0.00     0.200 A 
ATOM     82  F   UNL A   1      40.062  24.499  26.955  1.00  0.00    -0.200 F 
ATOM     83  F   UNL A   1      41.724  25.370  24.975  1.00  0.00    -0.200 F 
ENDBRANCH  49  73
BRANCH  61  84
ATOM     84  C   UNL A   1      43.844  27.912  34.684  1.00  0.00     0.064 A 
ATOM     85  C   UNL A   1      43.517  26.705  35.319  1.00  0.00     0.173 A 
ATOM     86  C   UNL A   1      45.190  28.305  34.668  1.00  0.00     0.173 A 
ATOM     87  F   UNL A   1      42.241  26.293  35.372  1.00  0.00    -0.203 F 
ATOM     88  C   UNL A   1      44.497  25.939  35.946  1.00  0.00     0.198 A 
ATOM     89  C   UNL A   1      46.171  27.524  35.272  1.00  0.00     0.198 A 
ATOM     90  F   UNL A   1      45.554  29.448  34.068  1.00  0.00    -0.203 F 
ATOM     91  F   UNL A   1      44.155  24.817  36.594  1.00  0.00    -0.200 F 
ATOM     92  C   UNL A   1      45.822  26.347  35.918  1.00  0.00     0.200 A 
ATOM     93  F   UNL A   1      47.453  27.914  35.236  1.00  0.00    -0.200 F 
ATOM     94  F   UNL A   1      46.764  25.610  36.523  1.00  0.00    -0.200 F 
ENDBRANCH  61  84
ENDBRANCH  35  36
ENDBRANCH  27  30
ENDBRANCH  25  26
ENDBRANCH  24  25
ENDBRANCH   1  24
TORSDOF 14
ENDMDL
MODEL 2
REMARK VINA RESULT:     -12.0      0.175      1.958
REMARK SMILES CC(C)[C@H](/N=C1\C(=O)C(=O)[C@H]1[NH+]1CCCC1)C(=O)NCCCCNC(=O)c1ccc(-c2c3nc(c(-c4c(F)c(F)c(F)c(F)c4F)c4ccc([nH]4)c(-c4c(F)c(F)c(F)c(F)c4F)c4nc(c(-c5c(F)c(F)c(F)c(F)c5F)c5ccc2[nH]5)C=C4)C=C3)cc1
REMARK SMILES IDX 21 1 20 2 19 3 17 4 18 5 4 7 2 8 1 9 3 10 5 11 6 12 7 13
REMARK SMILES IDX 11 14 8 15 9 16 10 17 12 18 13 19 16 20 14 22 15 23 22 24
REMARK SMILES IDX 23 25 24 26 25 27 26 29 27 30 28 31 89 32 29 33 88 34 30 35
REMARK SMILES IDX 31 36 32 37 82 38 33 39 87 40 81 41 83 42 34 43 86 44 80 45
REMARK SMILES IDX 79 46 35 48 67 49 47 50 66 51 48 52 51 53 65 54 84 55 49 56
REMARK SMILES IDX 50 57 64 59 85 60 52 61 36 62 37 63 45 64 38 65 39 66 43 67
REMARK SMILES IDX 46 68 40 69 41 70 44 71 42 72 68 73 69 74 77 75 70 76 71 77
REMARK SMILES IDX 75 78 78 79 72 80 73 81 76 82 74 83 53 84 54 85 62 86 55 87
REMARK SMILES IDX 56 88 60 89 63 90 57 91 58 92 61 93 59 94
REMARK H PARENT 19 6 12 21 24 28 83 47 51 58
REMARK Flexibility Score: inf
ROOT
ATOM      1  C   UNL A   1      31.237  30.817  25.439  1.00  0.00     0.023 C 
ENDROOT
BRANCH   1   2
ATOM      2  C   UNL A   1      32.332  29.783  25.663  1.00  0.00     0.116 C 
BRANCH   2   3
ATOM      3  N   UNL A   1      31.894  28.637  26.435  1.00  0.00    -0.354 N 
ATOM      4  C   UNL A   1      31.412  27.428  26.032  1.00  0.00     0.245 C 
ATOM      5  O   UNL A   1      31.100  26.624  26.915  1.00  0.00    -0.273 OA
ATOM      6  H   UNL A   1      31.956  28.750  27.411  1.00  0.00     0.163 HD
BRANCH   4   7
ATOM      7  C   UNL A   1      31.196  27.081  24.542  1.00  0.00     0.197 C 
BRANCH   7   8
ATOM      8  C   UNL A   1      29.940  27.712  23.884  1.00  0.00     0.017 C 
ATOM      9  C   UNL A   1      30.206  28.173  22.445  1.00  0.00     0.010 C 
ATOM     10  C   UNL A   1      28.766  26.724  23.881  1.00  0.00     0.010 C 
ENDBRANCH   7   8
BRANCH   7  11
ATOM     11  N   UNL A   1      31.166  25.598  24.458  1.00  0.00    -0.266 NA
ATOM     12  C   UNL A   1      31.976  25.038  23.632  1.00  0.00     0.153 C 
ATOM     13  C   UNL A   1      32.858  25.517  22.538  1.00  0.00     0.255 C 
ATOM     14  C   UNL A   1      32.236  23.559  23.288  1.00  0.00     0.314 C 
ATOM     15  O   UNL A   1      33.287  26.572  22.203  1.00  0.00    -0.283 OA
ATOM     16  C   UNL A   1      32.965  24.111  22.003  1.00  0.00     0.268 C 
ATOM     17  O   UNL A   1      33.496  23.741  20.992  1.00  0.00    -0.283 OA
BRANCH  14  18
ATOM     18  N   UNL A   1      33.091  22.730  24.180  1.00  0.00    -0.321 N 
ATOM     19  C   UNL A   1      33.319  21.385  23.649  1.00  0.00     0.263 C 
ATOM     20  C   UNL A   1      32.660  22.601  25.581  1.00  0.00     0.263 C 
ATOM     21  H   UNL A   1      33.954  23.274  24.193  1.00  0.00     0.349 HD
ATOM     22  C   UNL A   1      32.475  20.474  24.518  1.00  0.00     0.067 C 
ATOM     23  C   UNL A   1      32.555  21.114  25.882  1.00  0.00     0.067 C 
ENDBRANCH  14  18
ENDBRANCH   7  11
ENDBRANCH   4   7
ENDBRANCH   2   3
ENDBRANCH   1   2
BRANCH   1  24
ATOM     24  C   UNL A   1      31.122  31.884  26.525  1.00  0.00     0.023 C 
BRANCH  24  25
ATOM     25  C   UNL A   1      32.458  32.447  26.988  1.00  0.00     0.116 C 
BRANCH  25  26
ATOM     26  N   UNL A   1      32.342  33.828  27.428  1.00  0.00    -0.352 N 
ATOM     27  C   UNL A   1      33.032  34.498  28.403  1.00  0.00     0.251 C 
ATOM     28  H   UNL A   1      31.664  34.363  26.954  1.00  0.00     0.163 HD
ATOM     29  O   UNL A   1      32.646  35.602  28.775  1.00  0.00    -0.269 OA
BRANCH  27  30
ATOM     30  C   UNL A   1      34.231  33.891  29.015  1.00  0.00     0.039 A 
ATOM     31  C   UNL A   1      34.059  32.831  29.909  1.00  0.00     0.014 A 
ATOM     32  C   UNL A   1      35.511  34.387  28.749  1.00  0.00     0.014 A 
ATOM     33  C   UNL A   1      35.173  32.249  30.511  1.00  0.00     0.010 A 
ATOM     34  C   UNL A   1      36.627  33.758  29.292  1.00  0.00     0.010 A 
ATOM     35  C   UNL A   1      36.466  32.696  30.192  1.00  0.00    -0.014 A 
BRANCH  35  36
ATOM     36  C   UNL A   1      37.651  32.063  30.814  1.00  0.00     0.031 A 
ATOM     37  C   UNL A   1      38.080  32.453  32.200  1.00  0.00     0.074 A 
ATOM     38  C   UNL A   1      38.356  31.159  30.112  1.00  0.00     0.049 A 
ATOM     39  N   UNL A   1      39.066  31.983  32.923  1.00  0.00    -0.248 NA
ATOM     40  C   UNL A   1      37.324  33.535  32.851  1.00  0.00     0.031 C 
ATOM     41  C   UNL A   1      38.078  30.762  28.731  1.00  0.00     0.029 A 
ATOM     42  N   UNL A   1      39.448  30.408  30.461  1.00  0.00    -0.354 N 
ATOM     43  C   UNL A   1      39.053  32.717  34.102  1.00  0.00     0.074 A 
ATOM     44  C   UNL A   1      37.999  33.700  33.978  1.00  0.00     0.031 C 
ATOM     45  C   UNL A   1      38.956  29.816  28.361  1.00  0.00     0.029 A 
ATOM     46  C   UNL A   1      39.864  29.551  29.473  1.00  0.00     0.049 A 
ATOM     47  H   UNL A   1      39.892  30.476  31.338  1.00  0.00     0.167 HD
ATOM     48  C   UNL A   1      39.834  32.566  35.197  1.00  0.00     0.037 A 
ATOM     49  C   UNL A   1      40.855  28.641  29.474  1.00  0.00     0.037 A 
ATOM     50  C   UNL A   1      40.860  31.564  35.324  1.00  0.00     0.049 A 
ATOM     51  C   UNL A   1      41.662  28.444  30.727  1.00  0.00     0.074 A 
ATOM     52  C   UNL A   1      41.664  31.281  36.413  1.00  0.00     0.029 A 
ATOM     53  N   UNL A   1      41.220  30.677  34.319  1.00  0.00    -0.354 N 
ATOM     54  N   UNL A   1      41.583  29.082  31.870  1.00  0.00    -0.248 NA
ATOM     55  C   UNL A   1      42.678  27.386  30.698  1.00  0.00     0.031 C 
ATOM     56  C   UNL A   1      42.534  30.243  36.057  1.00  0.00     0.029 A 
ATOM     57  C   UNL A   1      42.242  29.852  34.760  1.00  0.00     0.049 A 
ATOM     58  H   UNL A   1      40.810  30.640  33.425  1.00  0.00     0.167 HD
ATOM     59  C   UNL A   1      42.522  28.491  32.702  1.00  0.00     0.074 A 
ATOM     60  C   UNL A   1      43.143  27.427  31.939  1.00  0.00     0.031 C 
ATOM     61  C   UNL A   1      42.843  28.800  33.983  1.00  0.00     0.037 A 
BRANCH  48  62
ATOM     62  C   UNL A   1      39.602  33.503  36.347  1.00  0.00     0.064 A 
ATOM     63  C   UNL A   1      38.784  33.147  37.431  1.00  0.00     0.173 A 
ATOM     64  C   UNL A   1      40.222  34.760  36.379  1.00  0.00     0.173 A 
ATOM     65  F   UNL A   1      38.157  31.961  37.442  1.00  0.00    -0.203 F 
ATOM     66  C   UNL A   1      38.571  34.027  38.488  1.00  0.00     0.198 A 
ATOM     67  C   UNL A   1      40.029  35.627  37.453  1.00  0.00     0.198 A 
ATOM     68  F   UNL A   1      41.016  35.150  35.371  1.00  0.00    -0.203 F 
ATOM     69  F   UNL A   1      37.746  33.685  39.487  1.00  0.00    -0.200 F 
ATOM     70  C   UNL A   1      39.198  35.264  38.502  1.00  0.00     0.200 A 
ATOM     71  F   UNL A   1      40.644  36.819  37.469  1.00  0.00    -0.200 F 
ATOM     72  F   UNL A   1      38.995  36.108  39.522  1.00  0.00    -0.200 F 
ENDBRANCH  48  62
BRANCH  49  73
ATOM     73  C   UNL A   1      41.087  27.805  28.270  1.00  0.00     0.064 A 
ATOM     74  C   UNL A   1      40.448  26.567  28.121  1.00  0.00     0.173 A 
ATOM     75  C   UNL A   1      41.933  28.233  27.237  1.00  0.00     0.173 A 
ATOM     76  F   UNL A   1      39.640  26.109  29.090  1.00  0.00    -0.203 F 
ATOM     77  C   UNL A   1      40.658  25.781  26.991  1.00  0.00     0.198 A 
ATOM     78  C   UNL A   1      42.124  27.457  26.096  1.00  0.00     0.198 A 
ATOM     79  F   UNL A   1      42.559  29.416  27.329  1.00  0.00    -0.203 F 
ATOM     80  F   UNL A   1      40.062  24.585  26.889  1.00  0.00    -0.200 F 
ATOM     81  C   UNL A   1      41.491  26.229  25.977  1.00  0.00     0.200 A 
ATOM     82  F   UNL A   1      42.916  27.900  25.112  1.00  0.00    -0.200 F 
ATOM     83  F   UNL A   1      41.687  25.475  24.886  1.00  0.00    -0.200 F 
ENDBRANCH  49  73
BRANCH  61  84
ATOM     84  C   UNL A   1      43.898  27.959  34.638  1.00  0.00     0.064 A 
ATOM     85  C   UNL A   1      45.252  28.324  34.605  1.00  0.00     0.173 A 
ATOM     86  C   UNL A   1      43.548  26.785  35.321  1.00  0.00     0.173 A 
ATOM     87  F   UNL A   1      45.637  29.431  33.952  1.00  0.00    -0.203 F 
ATOM     88  C   UNL A   1      46.222  27.524  35.203  1.00  0.00     0.198 A 
ATOM     89  C   UNL A   1      44.517  26.003  35.941  1.00  0.00     0.198 A 
ATOM     90  F   UNL A   1      42.266  26.397  35.386  1.00  0.00    -0.203 F 
ATOM     91  F   UNL A   1      47.515  27.863  35.112  1.00  0.00    -0.200 F 
ATOM     92  C   UNL A   1      45.853  26.367  35.874  1.00  0.00     0.200 A 
ATOM     93  F   UNL A   1      44.159  24.890  36.598  1.00  0.00    -0.200 F 
ATOM     94  F   UNL A   1      46.789  25.597  36.447  1.00  0.00    -0.200 F 
ENDBRANCH  61  84
ENDBRANCH  35  36
ENDBRANCH  27  30
ENDBRANCH  25  26
ENDBRANCH  24  25
ENDBRANCH   1  24
TORSDOF 14
ENDMDL
MODEL 3
REMARK VINA RESULT:     -11.8      0.892      1.936
REMARK SMILES CC(C)[C@H](/N=C1\C(=O)C(=O)[C@H]1[NH+]1CCCC1)C(=O)NCCCCNC(=O)c1ccc(-c2c3nc(c(-c4c(F)c(F)c(F)c(F)c4F)c4ccc([nH]4)c(-c4c(F)c(F)c(F)c(F)c4F)c4nc(c(-c5c(F)c(F)c(F)c(F)c5F)c5ccc2[nH]5)C=C4)C=C3)cc1
REMARK SMILES IDX 21 1 20 2 19 3 17 4 18 5 4 7 2 8 1 9 3 10 5 11 6 12 7 13
REMARK SMILES IDX 11 14 8 15 9 16 10 17 12 18 13 19 16 20 14 22 15 23 22 24
REMARK SMILES IDX 23 25 24 26 25 27 26 29 27 30 28 31 89 32 29 33 88 34 30 35
REMARK SMILES IDX 31 36 32 37 82 38 33 39 87 40 81 41 83 42 34 43 86 44 80 45
REMARK SMILES IDX 79 46 35 48 67 49 47 50 66 51 48 52 51 53 65 54 84 55 49 56
REMARK SMILES IDX 50 57 64 59 85 60 52 61 36 62 37 63 45 64 38 65 39 66 43 67
REMARK SMILES IDX 46 68 40 69 41 70 44 71 42 72 68 73 69 74 77 75 70 76 71 77
REMARK SMILES IDX 75 78 78 79 72 80 73 81 76 82 74 83 53 84 54 85 62 86 55 87
REMARK SMILES IDX 56 88 60 89 63 90 57 91 58 92 61 93 59 94
REMARK H PARENT 19 6 12 21 24 28 83 47 51 58
REMARK Flexibility Score: inf
ROOT
ATOM      1  C   UNL A   1      31.927  30.545  26.866  1.00  0.00     0.023 C 
ENDROOT
BRANCH   1   2
ATOM      2  C   UNL A   1      31.566  29.846  25.561  1.00  0.00     0.116 C 
BRANCH   2   3
ATOM      3  N   UNL A   1      32.701  29.646  24.681  1.00  0.00    -0.354 N 
ATOM      4  C   UNL A   1      32.810  28.940  23.521  1.00  0.00     0.245 C 
ATOM      5  O   UNL A   1      33.916  28.929  22.972  1.00  0.00    -0.273 OA
ATOM      6  H   UNL A   1      33.529  30.094  24.969  1.00  0.00     0.163 HD
BRANCH   4   7
ATOM      7  C   UNL A   1      31.633  28.129  22.936  1.00  0.00     0.197 C 
BRANCH   7   8
ATOM      8  C   UNL A   1      30.243  28.813  23.018  1.00  0.00     0.017 C 
ATOM      9  C   UNL A   1      29.963  29.710  21.805  1.00  0.00     0.010 C 
ATOM     10  C   UNL A   1      29.123  27.771  23.135  1.00  0.00     0.010 C 
ENDBRANCH   7   8
BRANCH   7  11
ATOM     11  N   UNL A   1      31.636  26.820  23.640  1.00  0.00    -0.266 NA
ATOM     12  C   UNL A   1      32.317  25.868  23.112  1.00  0.00     0.153 C 
ATOM     13  C   UNL A   1      32.994  25.660  21.806  1.00  0.00     0.255 C 
ATOM     14  C   UNL A   1      32.564  24.412  23.549  1.00  0.00     0.314 C 
ATOM     15  O   UNL A   1      33.330  26.363  20.910  1.00  0.00    -0.283 OA
ATOM     16  C   UNL A   1      33.056  24.177  22.070  1.00  0.00     0.268 C 
ATOM     17  O   UNL A   1      33.427  23.307  21.330  1.00  0.00    -0.283 OA
BRANCH  14  18
ATOM     18  N   UNL A   1      33.578  24.115  24.596  1.00  0.00    -0.321 N 
ATOM     19  C   UNL A   1      33.872  22.685  24.704  1.00  0.00     0.263 C 
ATOM     20  C   UNL A   1      33.308  24.629  25.948  1.00  0.00     0.263 C 
ATOM     21  H   UNL A   1      34.385  24.633  24.247  1.00  0.00     0.349 HD
ATOM     22  C   UNL A   1      33.209  22.246  25.995  1.00  0.00     0.067 C 
ATOM     23  C   UNL A   1      33.370  23.444  26.899  1.00  0.00     0.067 C 
ENDBRANCH  14  18
ENDBRANCH   7  11
ENDBRANCH   4   7
ENDBRANCH   2   3
ENDBRANCH   1   2
BRANCH   1  24
ATOM     24  C   UNL A   1      31.556  32.025  26.932  1.00  0.00     0.023 C 
BRANCH  24  25
ATOM     25  C   UNL A   1      32.749  32.968  26.866  1.00  0.00     0.116 C 
BRANCH  25  26
ATOM     26  N   UNL A   1      32.495  34.215  27.570  1.00  0.00    -0.352 N 
ATOM     27  C   UNL A   1      33.041  34.692  28.731  1.00  0.00     0.251 C 
ATOM     28  H   UNL A   1      31.828  34.804  27.148  1.00  0.00     0.163 HD
ATOM     29  O   UNL A   1      32.544  35.671  29.281  1.00  0.00    -0.269 OA
BRANCH  27  30
ATOM     30  C   UNL A   1      34.217  34.028  29.327  1.00  0.00     0.039 A 
ATOM     31  C   UNL A   1      35.489  34.501  28.993  1.00  0.00     0.014 A 
ATOM     32  C   UNL A   1      34.075  32.923  30.171  1.00  0.00     0.014 A 
ATOM     33  C   UNL A   1      36.617  33.883  29.531  1.00  0.00     0.010 A 
ATOM     34  C   UNL A   1      35.198  32.354  30.766  1.00  0.00     0.010 A 
ATOM     35  C   UNL A   1      36.478  32.817  30.436  1.00  0.00    -0.014 A 
BRANCH  35  36
ATOM     36  C   UNL A   1      37.675  32.176  31.026  1.00  0.00     0.031 A 
ATOM     37  C   UNL A   1      38.142  32.559  32.401  1.00  0.00     0.074 A 
ATOM     38  C   UNL A   1      38.357  31.270  30.303  1.00  0.00     0.049 A 
ATOM     39  N   UNL A   1      39.143  32.082  33.097  1.00  0.00    -0.248 NA
ATOM     40  C   UNL A   1      37.409  33.644  33.074  1.00  0.00     0.031 C 
ATOM     41  C   UNL A   1      38.041  30.878  28.928  1.00  0.00     0.029 A 
ATOM     42  N   UNL A   1      39.453  30.511  30.622  1.00  0.00    -0.354 N 
ATOM     43  C   UNL A   1      39.165  32.812  34.277  1.00  0.00     0.074 A 
ATOM     44  C   UNL A   1      38.113  33.802  34.184  1.00  0.00     0.031 C 
ATOM     45  C   UNL A   1      38.903  29.928  28.534  1.00  0.00     0.029 A 
ATOM     46  C   UNL A   1      39.838  29.655  29.621  1.00  0.00     0.049 A 
ATOM     47  H   UNL A   1      39.919  30.575  31.488  1.00  0.00     0.167 HD
ATOM     48  C   UNL A   1      39.973  32.654  35.352  1.00  0.00     0.037 A 
ATOM     49  C   UNL A   1      40.823  28.739  29.595  1.00  0.00     0.037 A 
ATOM     50  C   UNL A   1      40.996  31.646  35.450  1.00  0.00     0.049 A 
ATOM     51  C   UNL A   1      41.662  28.535  30.826  1.00  0.00     0.074 A 
ATOM     52  C   UNL A   1      41.826  31.356  36.517  1.00  0.00     0.029 A 
ATOM     53  N   UNL A   1      41.325  30.760  34.434  1.00  0.00    -0.354 N 
ATOM     54  N   UNL A   1      41.616  29.170  31.972  1.00  0.00    -0.248 NA
ATOM     55  C   UNL A   1      42.671  27.470  30.768  1.00  0.00     0.031 C 
ATOM     56  C   UNL A   1      42.681  30.314  36.136  1.00  0.00     0.029 A 
ATOM     57  C   UNL A   1      42.353  29.928  34.846  1.00  0.00     0.049 A 
ATOM     58  H   UNL A   1      40.891  30.727  33.551  1.00  0.00     0.167 HD
ATOM     59  C   UNL A   1      42.572  28.571  32.778  1.00  0.00     0.074 A 
ATOM     60  C   UNL A   1      43.168  27.506  31.996  1.00  0.00     0.031 C 
ATOM     61  C   UNL A   1      42.928  28.874  34.050  1.00  0.00     0.037 A 
BRANCH  48  62
ATOM     62  C   UNL A   1      39.776  33.589  36.510  1.00  0.00     0.064 A 
ATOM     63  C   UNL A   1      38.927  33.265  37.580  1.00  0.00     0.173 A 
ATOM     64  C   UNL A   1      40.460  34.812  36.564  1.00  0.00     0.173 A 
ATOM     65  F   UNL A   1      38.240  32.113  37.571  1.00  0.00    -0.203 F 
ATOM     66  C   UNL A   1      38.747  34.144  38.645  1.00  0.00     0.198 A 
ATOM     67  C   UNL A   1      40.299  35.677  37.645  1.00  0.00     0.198 A 
ATOM     68  F   UNL A   1      41.286  35.171  35.569  1.00  0.00    -0.203 F 
ATOM     69  F   UNL A   1      37.894  33.834  39.630  1.00  0.00    -0.200 F 
ATOM     70  C   UNL A   1      39.438  35.345  38.680  1.00  0.00     0.200 A 
ATOM     71  F   UNL A   1      40.975  36.834  37.682  1.00  0.00    -0.200 F 
ATOM     72  F   UNL A   1      39.267  36.188  39.708  1.00  0.00    -0.200 F 
ENDBRANCH  48  62
BRANCH  49  73
ATOM     73  C   UNL A   1      41.020  27.905  28.383  1.00  0.00     0.064 A 
ATOM     74  C   UNL A   1      41.890  28.314  27.363  1.00  0.00     0.173 A 
ATOM     75  C   UNL A   1      40.361  26.677  28.228  1.00  0.00     0.173 A 
ATOM     76  F   UNL A   1      42.531  29.488  27.461  1.00  0.00    -0.203 F 
ATOM     77  C   UNL A   1      42.083  27.533  26.226  1.00  0.00     0.198 A 
ATOM     78  C   UNL A   1      40.573  25.885  27.102  1.00  0.00     0.198 A 
ATOM     79  F   UNL A   1      39.527  26.238  29.182  1.00  0.00    -0.203 F 
ATOM     80  F   UNL A   1      42.893  27.963  25.250  1.00  0.00    -0.200 F 
ATOM     81  C   UNL A   1      41.428  26.316  26.099  1.00  0.00     0.200 A 
ATOM     82  F   UNL A   1      39.952  24.704  26.990  1.00  0.00    -0.200 F 
ATOM     83  F   UNL A   1      41.620  25.562  25.008  1.00  0.00    -0.200 F 
ENDBRANCH  49  73
BRANCH  61  84
ATOM     84  C   UNL A   1      43.995  28.027  34.677  1.00  0.00     0.064 A 
ATOM     85  C   UNL A   1      45.347  28.396  34.629  1.00  0.00     0.173 A 
ATOM     86  C   UNL A   1      43.658  26.840  35.345  1.00  0.00     0.173 A 
ATOM     87  F   UNL A   1      45.720  29.515  33.989  1.00  0.00    -0.203 F 
ATOM     88  C   UNL A   1      46.328  27.588  35.200  1.00  0.00     0.198 A 
ATOM     89  C   UNL A   1      44.638  26.050  35.937  1.00  0.00     0.198 A 
ATOM     90  F   UNL A   1      42.378  26.448  35.422  1.00  0.00    -0.203 F 
ATOM     91  F   UNL A   1      47.619  27.932  35.096  1.00  0.00    -0.200 F 
ATOM     92  C   UNL A   1      45.972  26.420  35.856  1.00  0.00     0.200 A 
ATOM     93  F   UNL A   1      44.293  24.926  36.581  1.00  0.00    -0.200 F 
ATOM     94  F   UNL A   1      46.918  25.643  36.403  1.00  0.00    -0.200 F 
ENDBRANCH  61  84
ENDBRANCH  35  36
ENDBRANCH  27  30
ENDBRANCH  25  26
ENDBRANCH  24  25
ENDBRANCH   1  24
TORSDOF 14
ENDMDL
