MODEL 1
REMARK VINA RESULT:     -10.9      0.000      0.000
REMARK SMILES CCCCCC(=O)N[C@H](C)C(=O)NCCCCNC(=O)c1ccc(-c2c3nc(c(-c4c(F)c(F)c(F)c(F)c4F)c4ccc([nH]4)c(-c4c(F)c(F)c(F)c(F)c4F)c4nc(c(-c5c(F)c(F)c(F)c(F)c5F)c5ccc2[nH]5)C=C4)C=C3)cc1
REMARK SMILES IDX 14 1 13 2 11 3 12 4 9 6 10 7 8 8 6 9 7 10 5 12 4 13 3 14
REMARK SMILES IDX 2 15 1 16 15 17 16 18 17 19 18 20 19 21 20 23 21 24 22 25
REMARK SMILES IDX 83 26 23 27 82 28 24 29 25 30 26 31 76 32 27 33 81 34 75 35
REMARK SMILES IDX 77 36 28 37 80 38 74 39 73 40 29 42 61 43 41 44 60 45 42 46
REMARK SMILES IDX 45 47 59 48 78 49 43 50 44 51 58 53 79 54 46 55 30 56 31 57
REMARK SMILES IDX 39 58 32 59 33 60 37 61 40 62 34 63 35 64 38 65 36 66 62 67
REMARK SMILES IDX 63 68 71 69 64 70 65 71 69 72 72 73 66 74 67 75 70 76 68 77
REMARK SMILES IDX 47 78 48 79 56 80 49 81 50 82 54 83 57 84 51 85 52 86 55 87
REMARK SMILES IDX 53 88
REMARK H PARENT 13 5 8 11 18 22 77 41 45 52
REMARK Flexibility Score: inf
ROOT
ATOM      1  C   UNL A   1      32.506  30.404  26.952  1.00  0.00     0.116 C 
ENDROOT
BRANCH   1   2
ATOM      2  N   UNL A   1      31.967  29.178  27.489  1.00  0.00    -0.354 N 
ATOM      3  C   UNL A   1      31.732  28.002  26.846  1.00  0.00     0.242 C 
ATOM      4  O   UNL A   1      31.089  27.138  27.447  1.00  0.00    -0.273 OA
ATOM      5  H   UNL A   1      31.740  29.194  28.447  1.00  0.00     0.163 HD
BRANCH   3   6
ATOM      6  C   UNL A   1      32.318  27.731  25.449  1.00  0.00     0.168 C 
ATOM      7  C   UNL A   1      33.735  27.179  25.414  1.00  0.00     0.041 C 
BRANCH   6   8
ATOM      8  N   UNL A   1      31.360  26.971  24.658  1.00  0.00    -0.345 N 
ATOM      9  C   UNL A   1      30.285  27.417  23.953  1.00  0.00     0.220 C 
ATOM     10  O   UNL A   1      29.490  26.583  23.519  1.00  0.00    -0.275 OA
ATOM     11  H   UNL A   1      31.512  25.998  24.629  1.00  0.00     0.164 HD
BRANCH   9  12
ATOM     12  C   UNL A   1      30.102  28.897  23.675  1.00  0.00     0.100 C 
BRANCH  12  13
ATOM     13  C   UNL A   1      28.944  29.252  22.738  1.00  0.00     0.010 C 
BRANCH  13  14
ATOM     14  C   UNL A   1      28.055  30.442  23.125  1.00  0.00     0.000 C 
BRANCH  14  15
ATOM     15  C   UNL A   1      28.771  31.650  23.747  1.00  0.00    -0.003 C 
ATOM     16  C   UNL A   1      28.747  32.897  22.884  1.00  0.00     0.004 C 
ENDBRANCH  14  15
ENDBRANCH  13  14
ENDBRANCH  12  13
ENDBRANCH   9  12
ENDBRANCH   6   8
ENDBRANCH   3   6
ENDBRANCH   1   2
BRANCH   1  17
ATOM     17  C   UNL A   1      31.424  31.173  26.191  1.00  0.00     0.023 C 
BRANCH  17  18
ATOM     18  C   UNL A   1      31.368  32.665  26.520  1.00  0.00     0.023 C 
BRANCH  18  19
ATOM     19  C   UNL A   1      32.517  33.159  27.383  1.00  0.00     0.116 C 
BRANCH  19  20
ATOM     20  N   UNL A   1      32.324  34.522  27.853  1.00  0.00    -0.352 N 
ATOM     21  C   UNL A   1      33.037  35.205  28.804  1.00  0.00     0.251 C 
ATOM     22  H   UNL A   1      31.586  35.019  27.432  1.00  0.00     0.163 HD
ATOM     23  O   UNL A   1      32.689  36.318  29.168  1.00  0.00    -0.269 OA
BRANCH  21  24
ATOM     24  C   UNL A   1      34.210  34.550  29.410  1.00  0.00     0.039 A 
ATOM     25  C   UNL A   1      34.024  33.784  30.560  1.00  0.00     0.014 A 
ATOM     26  C   UNL A   1      35.472  34.667  28.823  1.00  0.00     0.014 A 
ATOM     27  C   UNL A   1      35.108  33.101  31.106  1.00  0.00     0.010 A 
ATOM     28  C   UNL A   1      36.530  33.916  29.316  1.00  0.00     0.010 A 
ATOM     29  C   UNL A   1      36.362  33.147  30.476  1.00  0.00    -0.014 A 
BRANCH  29  30
ATOM     30  C   UNL A   1      37.525  32.440  31.058  1.00  0.00     0.031 A 
ATOM     31  C   UNL A   1      38.001  32.802  32.437  1.00  0.00     0.074 A 
ATOM     32  C   UNL A   1      38.164  31.501  30.335  1.00  0.00     0.049 A 
ATOM     33  N   UNL A   1      39.000  32.309  33.124  1.00  0.00    -0.248 NA
ATOM     34  C   UNL A   1      37.278  33.884  33.124  1.00  0.00     0.031 C 
ATOM     35  C   UNL A   1      37.826  31.113  28.965  1.00  0.00     0.029 A 
ATOM     36  N   UNL A   1      39.231  30.702  30.655  1.00  0.00    -0.354 N 
ATOM     37  C   UNL A   1      39.030  33.030  34.310  1.00  0.00     0.074 A 
ATOM     38  C   UNL A   1      37.998  34.038  34.224  1.00  0.00     0.031 C 
ATOM     39  C   UNL A   1      38.648  30.124  28.575  1.00  0.00     0.029 A 
ATOM     40  C   UNL A   1      39.584  29.831  29.655  1.00  0.00     0.049 A 
ATOM     41  H   UNL A   1      39.699  30.749  31.520  1.00  0.00     0.167 HD
ATOM     42  C   UNL A   1      39.824  32.843  35.391  1.00  0.00     0.037 A 
ATOM     43  C   UNL A   1      40.551  28.895  29.625  1.00  0.00     0.037 A 
ATOM     44  C   UNL A   1      40.827  31.816  35.480  1.00  0.00     0.049 A 
ATOM     45  C   UNL A   1      41.405  28.692  30.848  1.00  0.00     0.074 A 
ATOM     46  C   UNL A   1      41.653  31.504  36.545  1.00  0.00     0.029 A 
ATOM     47  N   UNL A   1      41.136  30.930  34.458  1.00  0.00    -0.354 N 
ATOM     48  N   UNL A   1      41.376  29.327  31.994  1.00  0.00    -0.248 NA
ATOM     49  C   UNL A   1      42.413  27.626  30.776  1.00  0.00     0.031 C 
ATOM     50  C   UNL A   1      42.491  30.454  36.152  1.00  0.00     0.029 A 
ATOM     51  C   UNL A   1      42.150  30.077  34.864  1.00  0.00     0.049 A 
ATOM     52  H   UNL A   1      40.700  30.909  33.576  1.00  0.00     0.167 HD
ATOM     53  C   UNL A   1      42.335  28.719  32.792  1.00  0.00     0.074 A 
ATOM     54  C   UNL A   1      42.916  27.653  32.002  1.00  0.00     0.031 C 
ATOM     55  C   UNL A   1      42.703  29.014  34.063  1.00  0.00     0.037 A 
BRANCH  42  56
ATOM     56  C   UNL A   1      39.631  33.765  36.559  1.00  0.00     0.064 A 
ATOM     57  C   UNL A   1      40.237  35.030  36.607  1.00  0.00     0.173 A 
ATOM     58  C   UNL A   1      38.818  33.388  37.639  1.00  0.00     0.173 A 
ATOM     59  F   UNL A   1      41.038  35.434  35.608  1.00  0.00    -0.203 F 
ATOM     60  C   UNL A   1      40.066  35.868  37.706  1.00  0.00     0.198 A 
ATOM     61  C   UNL A   1      38.622  34.243  38.721  1.00  0.00     0.198 A 
ATOM     62  F   UNL A   1      38.213  32.191  37.645  1.00  0.00    -0.203 F 
ATOM     63  F   UNL A   1      40.704  37.047  37.755  1.00  0.00    -0.200 F 
ATOM     64  C   UNL A   1      39.253  35.477  38.758  1.00  0.00     0.200 A 
ATOM     65  F   UNL A   1      37.826  33.868  39.732  1.00  0.00    -0.200 F 
ATOM     66  F   UNL A   1      39.084  36.286  39.813  1.00  0.00    -0.200 F 
ENDBRANCH  42  56
BRANCH  43  67
ATOM     67  C   UNL A   1      40.728  28.048  28.416  1.00  0.00     0.064 A 
ATOM     68  C   UNL A   1      41.513  28.486  27.341  1.00  0.00     0.173 A 
ATOM     69  C   UNL A   1      40.114  26.793  28.307  1.00  0.00     0.173 A 
ATOM     70  F   UNL A   1      42.108  29.686  27.391  1.00  0.00    -0.203 F 
ATOM     71  C   UNL A   1      41.655  27.712  26.190  1.00  0.00     0.198 A 
ATOM     72  C   UNL A   1      40.280  26.007  27.169  1.00  0.00     0.198 A 
ATOM     73  F   UNL A   1      39.361  26.323  29.313  1.00  0.00    -0.203 F 
ATOM     74  F   UNL A   1      42.370  28.176  25.157  1.00  0.00    -0.200 F 
ATOM     75  C   UNL A   1      41.043  26.471  26.107  1.00  0.00     0.200 A 
ATOM     76  F   UNL A   1      39.699  24.801  27.099  1.00  0.00    -0.200 F 
ATOM     77  F   UNL A   1      41.180  25.727  25.002  1.00  0.00    -0.200 F 
ENDBRANCH  43  67
BRANCH  55  78
ATOM     78  C   UNL A   1      43.749  28.140  34.693  1.00  0.00     0.064 A 
ATOM     79  C   UNL A   1      45.109  28.483  34.674  1.00  0.00     0.173 A 
ATOM     80  C   UNL A   1      43.378  26.955  35.347  1.00  0.00     0.173 A 
ATOM     81  F   UNL A   1      45.514  29.600  34.050  1.00  0.00    -0.203 F 
ATOM     82  C   UNL A   1      46.063  27.654  35.254  1.00  0.00     0.198 A 
ATOM     83  C   UNL A   1      44.333  26.145  35.955  1.00  0.00     0.198 A 
ATOM     84  F   UNL A   1      42.090  26.586  35.402  1.00  0.00    -0.203 F 
ATOM     85  F   UNL A   1      47.362  27.971  35.172  1.00  0.00    -0.200 F 
ATOM     86  C   UNL A   1      45.675  26.489  35.899  1.00  0.00     0.200 A 
ATOM     87  F   UNL A   1      43.953  25.028  36.592  1.00  0.00    -0.200 F 
ATOM     88  F   UNL A   1      46.595  25.692  36.460  1.00  0.00    -0.200 F 
ENDBRANCH  55  78
ENDBRANCH  29  30
ENDBRANCH  21  24
ENDBRANCH  19  20
ENDBRANCH  18  19
ENDBRANCH  17  18
ENDBRANCH   1  17
TORSDOF 16
ENDMDL
MODEL 2
REMARK VINA RESULT:     -10.7      5.803     11.512
REMARK SMILES CCCCCC(=O)N[C@H](C)C(=O)NCCCCNC(=O)c1ccc(-c2c3nc(c(-c4c(F)c(F)c(F)c(F)c4F)c4ccc([nH]4)c(-c4c(F)c(F)c(F)c(F)c4F)c4nc(c(-c5c(F)c(F)c(F)c(F)c5F)c5ccc2[nH]5)C=C4)C=C3)cc1
REMARK SMILES IDX 14 1 13 2 11 3 12 4 9 6 10 7 8 8 6 9 7 10 5 12 4 13 3 14
REMARK SMILES IDX 2 15 1 16 15 17 16 18 17 19 18 20 19 21 20 23 21 24 22 25
REMARK SMILES IDX 83 26 23 27 82 28 24 29 25 30 26 31 76 32 27 33 81 34 75 35
REMARK SMILES IDX 77 36 28 37 80 38 74 39 73 40 29 42 61 43 41 44 60 45 42 46
REMARK SMILES IDX 45 47 59 48 78 49 43 50 44 51 58 53 79 54 46 55 30 56 31 57
REMARK SMILES IDX 39 58 32 59 33 60 37 61 40 62 34 63 35 64 38 65 36 66 62 67
REMARK SMILES IDX 63 68 71 69 64 70 65 71 69 72 72 73 66 74 67 75 70 76 68 77
REMARK SMILES IDX 47 78 48 79 56 80 49 81 50 82 54 83 57 84 51 85 52 86 55 87
REMARK SMILES IDX 53 88
REMARK H PARENT 13 5 8 11 18 22 77 41 45 52
REMARK Flexibility Score: inf
ROOT
ATOM      1  C   UNL A   1      43.020  18.987  26.160  1.00  0.00     0.116 C 
ENDROOT
BRANCH   1   2
ATOM      2  N   UNL A   1      43.418  18.845  24.780  1.00  0.00    -0.354 N 
ATOM      3  C   UNL A   1      44.525  19.339  24.163  1.00  0.00     0.242 C 
ATOM      4  O   UNL A   1      44.579  19.262  22.933  1.00  0.00    -0.273 OA
ATOM      5  H   UNL A   1      42.809  18.322  24.211  1.00  0.00     0.163 HD
BRANCH   3   6
ATOM      6  C   UNL A   1      45.705  19.898  24.977  1.00  0.00     0.168 C 
ATOM      7  C   UNL A   1      46.776  18.895  25.379  1.00  0.00     0.041 C 
BRANCH   6   8
ATOM      8  N   UNL A   1      46.221  21.096  24.328  1.00  0.00    -0.345 N 
ATOM      9  C   UNL A   1      46.043  22.401  24.671  1.00  0.00     0.220 C 
ATOM     10  O   UNL A   1      46.401  23.265  23.870  1.00  0.00    -0.275 OA
ATOM     11  H   UNL A   1      46.776  20.939  23.530  1.00  0.00     0.164 HD
BRANCH   9  12
ATOM     12  C   UNL A   1      45.464  22.773  26.024  1.00  0.00     0.100 C 
BRANCH  12  13
ATOM     13  C   UNL A   1      44.180  23.607  25.980  1.00  0.00     0.010 C 
BRANCH  13  14
ATOM     14  C   UNL A   1      43.512  23.954  27.318  1.00  0.00     0.000 C 
BRANCH  14  15
ATOM     15  C   UNL A   1      44.357  23.723  28.580  1.00  0.00    -0.003 C 
ATOM     16  C   UNL A   1      43.641  22.958  29.675  1.00  0.00     0.004 C 
ENDBRANCH  14  15
ENDBRANCH  13  14
ENDBRANCH  12  13
ENDBRANCH   9  12
ENDBRANCH   6   8
ENDBRANCH   3   6
ENDBRANCH   1   2
BRANCH   1  17
ATOM     17  C   UNL A   1      42.521  20.409  26.427  1.00  0.00     0.023 C 
BRANCH  17  18
ATOM     18  C   UNL A   1      41.489  20.510  27.549  1.00  0.00     0.023 C 
BRANCH  18  19
ATOM     19  C   UNL A   1      40.765  21.844  27.616  1.00  0.00     0.116 C 
BRANCH  19  20
ATOM     20  N   UNL A   1      39.619  21.910  26.723  1.00  0.00    -0.352 N 
ATOM     21  C   UNL A   1      38.860  23.001  26.389  1.00  0.00     0.251 C 
ATOM     22  H   UNL A   1      39.354  21.060  26.303  1.00  0.00     0.163 HD
ATOM     23  O   UNL A   1      37.858  22.880  25.700  1.00  0.00    -0.269 OA
BRANCH  21  24
ATOM     24  C   UNL A   1      39.254  24.321  26.913  1.00  0.00     0.039 A 
ATOM     25  C   UNL A   1      38.898  24.652  28.219  1.00  0.00     0.014 A 
ATOM     26  C   UNL A   1      40.000  25.204  26.128  1.00  0.00     0.014 A 
ATOM     27  C   UNL A   1      39.323  25.865  28.755  1.00  0.00     0.010 A 
ATOM     28  C   UNL A   1      40.497  26.371  26.691  1.00  0.00     0.010 A 
ATOM     29  C   UNL A   1      40.141  26.723  28.001  1.00  0.00    -0.014 A 
BRANCH  29  30
ATOM     30  C   UNL A   1      40.583  28.022  28.554  1.00  0.00     0.031 A 
ATOM     31  C   UNL A   1      42.043  28.255  28.829  1.00  0.00     0.074 A 
ATOM     32  C   UNL A   1      39.672  28.972  28.835  1.00  0.00     0.049 A 
ATOM     33  N   UNL A   1      42.635  29.315  29.316  1.00  0.00    -0.248 NA
ATOM     34  C   UNL A   1      42.956  27.134  28.549  1.00  0.00     0.031 C 
ATOM     35  C   UNL A   1      38.225  28.833  28.665  1.00  0.00     0.029 A 
ATOM     36  N   UNL A   1      39.830  30.244  29.321  1.00  0.00    -0.354 N 
ATOM     37  C   UNL A   1      43.979  28.982  29.411  1.00  0.00     0.074 A 
ATOM     38  C   UNL A   1      44.108  27.603  29.000  1.00  0.00     0.031 C 
ATOM     39  C   UNL A   1      37.631  29.988  29.008  1.00  0.00     0.029 A 
ATOM     40  C   UNL A   1      38.651  30.935  29.446  1.00  0.00     0.049 A 
ATOM     41  H   UNL A   1      40.706  30.626  29.557  1.00  0.00     0.167 HD
ATOM     42  C   UNL A   1      45.019  29.769  29.776  1.00  0.00     0.037 A 
ATOM     43  C   UNL A   1      38.426  32.197  29.860  1.00  0.00     0.037 A 
ATOM     44  C   UNL A   1      44.885  31.151  30.153  1.00  0.00     0.049 A 
ATOM     45  C   UNL A   1      39.602  33.058  30.237  1.00  0.00     0.074 A 
ATOM     46  C   UNL A   1      45.876  32.055  30.490  1.00  0.00     0.029 A 
ATOM     47  N   UNL A   1      43.676  31.827  30.238  1.00  0.00    -0.354 N 
ATOM     48  N   UNL A   1      40.879  32.758  30.252  1.00  0.00    -0.248 NA
ATOM     49  C   UNL A   1      39.304  34.439  30.636  1.00  0.00     0.031 C 
ATOM     50  C   UNL A   1      45.262  33.269  30.820  1.00  0.00     0.029 A 
ATOM     51  C   UNL A   1      43.896  33.137  30.634  1.00  0.00     0.049 A 
ATOM     52  H   UNL A   1      42.794  31.436  30.045  1.00  0.00     0.167 HD
ATOM     53  C   UNL A   1      41.538  33.920  30.627  1.00  0.00     0.074 A 
ATOM     54  C   UNL A   1      40.521  34.933  30.814  1.00  0.00     0.031 C 
ATOM     55  C   UNL A   1      42.867  34.131  30.802  1.00  0.00     0.037 A 
BRANCH  42  56
ATOM     56  C   UNL A   1      46.387  29.152  29.774  1.00  0.00     0.064 A 
ATOM     57  C   UNL A   1      47.198  29.161  28.628  1.00  0.00     0.173 A 
ATOM     58  C   UNL A   1      46.903  28.556  30.935  1.00  0.00     0.173 A 
ATOM     59  F   UNL A   1      46.746  29.703  27.486  1.00  0.00    -0.203 F 
ATOM     60  C   UNL A   1      48.457  28.567  28.633  1.00  0.00     0.198 A 
ATOM     61  C   UNL A   1      48.178  27.994  30.946  1.00  0.00     0.198 A 
ATOM     62  F   UNL A   1      46.173  28.521  32.059  1.00  0.00    -0.203 F 
ATOM     63  F   UNL A   1      49.187  28.537  27.509  1.00  0.00    -0.200 F 
ATOM     64  C   UNL A   1      48.949  27.991  29.794  1.00  0.00     0.200 A 
ATOM     65  F   UNL A   1      48.656  27.447  32.073  1.00  0.00    -0.200 F 
ATOM     66  F   UNL A   1      50.164  27.425  29.801  1.00  0.00    -0.200 F 
ENDBRANCH  42  56
BRANCH  43  67
ATOM     67  C   UNL A   1      37.041  32.734  29.890  1.00  0.00     0.064 A 
ATOM     68  C   UNL A   1      36.479  33.337  28.756  1.00  0.00     0.173 A 
ATOM     69  C   UNL A   1      36.256  32.665  31.049  1.00  0.00     0.173 A 
ATOM     70  F   UNL A   1      37.196  33.442  27.629  1.00  0.00    -0.203 F 
ATOM     71  C   UNL A   1      35.193  33.874  28.789  1.00  0.00     0.198 A 
ATOM     72  C   UNL A   1      34.960  33.176  31.072  1.00  0.00     0.198 A 
ATOM     73  F   UNL A   1      36.744  32.088  32.158  1.00  0.00    -0.203 F 
ATOM     74  F   UNL A   1      34.699  34.489  27.706  1.00  0.00    -0.200 F 
ATOM     75  C   UNL A   1      34.433  33.789  29.945  1.00  0.00     0.200 A 
ATOM     76  F   UNL A   1      34.222  33.077  32.187  1.00  0.00    -0.200 F 
ATOM     77  F   UNL A   1      33.197  34.304  29.976  1.00  0.00    -0.200 F 
ENDBRANCH  43  67
BRANCH  55  78
ATOM     78  C   UNL A   1      43.296  35.523  31.168  1.00  0.00     0.064 A 
ATOM     79  C   UNL A   1      43.386  35.941  32.503  1.00  0.00     0.173 A 
ATOM     80  C   UNL A   1      43.646  36.440  30.165  1.00  0.00     0.173 A 
ATOM     81  F   UNL A   1      43.050  35.105  33.497  1.00  0.00    -0.203 F 
ATOM     82  C   UNL A   1      43.776  37.239  32.820  1.00  0.00     0.198 A 
ATOM     83  C   UNL A   1      44.067  37.726  30.488  1.00  0.00     0.198 A 
ATOM     84  F   UNL A   1      43.586  36.086  28.872  1.00  0.00    -0.203 F 
ATOM     85  F   UNL A   1      43.798  37.636  34.100  1.00  0.00    -0.200 F 
ATOM     86  C   UNL A   1      44.122  38.129  31.814  1.00  0.00     0.200 A 
ATOM     87  F   UNL A   1      44.416  38.579  29.515  1.00  0.00    -0.200 F 
ATOM     88  F   UNL A   1      44.499  39.377  32.121  1.00  0.00    -0.200 F 
ENDBRANCH  55  78
ENDBRANCH  29  30
ENDBRANCH  21  24
ENDBRANCH  19  20
ENDBRANCH  18  19
ENDBRANCH  17  18
ENDBRANCH   1  17
TORSDOF 16
ENDMDL
MODEL 3
REMARK VINA RESULT:     -10.6      0.748      7.724
REMARK SMILES CCCCCC(=O)N[C@H](C)C(=O)NCCCCNC(=O)c1ccc(-c2c3nc(c(-c4c(F)c(F)c(F)c(F)c4F)c4ccc([nH]4)c(-c4c(F)c(F)c(F)c(F)c4F)c4nc(c(-c5c(F)c(F)c(F)c(F)c5F)c5ccc2[nH]5)C=C4)C=C3)cc1
REMARK SMILES IDX 14 1 13 2 11 3 12 4 9 6 10 7 8 8 6 9 7 10 5 12 4 13 3 14
REMARK SMILES IDX 2 15 1 16 15 17 16 18 17 19 18 20 19 21 20 23 21 24 22 25
REMARK SMILES IDX 83 26 23 27 82 28 24 29 25 30 26 31 76 32 27 33 81 34 75 35
REMARK SMILES IDX 77 36 28 37 80 38 74 39 73 40 29 42 61 43 41 44 60 45 42 46
REMARK SMILES IDX 45 47 59 48 78 49 43 50 44 51 58 53 79 54 46 55 30 56 31 57
REMARK SMILES IDX 39 58 32 59 33 60 37 61 40 62 34 63 35 64 38 65 36 66 62 67
REMARK SMILES IDX 63 68 71 69 64 70 65 71 69 72 72 73 66 74 67 75 70 76 68 77
REMARK SMILES IDX 47 78 48 79 56 80 49 81 50 82 54 83 57 84 51 85 52 86 55 87
REMARK SMILES IDX 53 88
REMARK H PARENT 13 5 8 11 18 22 77 41 45 52
REMARK Flexibility Score: inf
ROOT
ATOM      1  C   UNL A   1      32.645  30.506  26.601  1.00  0.00     0.116 C 
ENDROOT
BRANCH   1   2
ATOM      2  N   UNL A   1      32.262  29.377  27.414  1.00  0.00    -0.354 N 
ATOM      3  C   UNL A   1      31.802  28.162  27.014  1.00  0.00     0.242 C 
ATOM      4  O   UNL A   1      31.352  27.405  27.878  1.00  0.00    -0.273 OA
ATOM      5  H   UNL A   1      32.347  29.503  28.387  1.00  0.00     0.163 HD
BRANCH   3   6
ATOM      6  C   UNL A   1      31.913  27.716  25.545  1.00  0.00     0.168 C 
ATOM      7  C   UNL A   1      33.262  27.156  25.117  1.00  0.00     0.041 C 
BRANCH   6   8
ATOM      8  N   UNL A   1      30.779  26.868  25.205  1.00  0.00    -0.345 N 
ATOM      9  C   UNL A   1      29.886  27.000  24.186  1.00  0.00     0.220 C 
ATOM     10  O   UNL A   1      28.883  26.285  24.199  1.00  0.00    -0.275 OA
ATOM     11  H   UNL A   1      30.638  26.092  25.795  1.00  0.00     0.164 HD
BRANCH   9  12
ATOM     12  C   UNL A   1      30.148  27.967  23.047  1.00  0.00     0.100 C 
BRANCH  12  13
ATOM     13  C   UNL A   1      29.024  28.967  22.762  1.00  0.00     0.010 C 
BRANCH  13  14
ATOM     14  C   UNL A   1      29.402  30.451  22.652  1.00  0.00     0.000 C 
BRANCH  14  15
ATOM     15  C   UNL A   1      28.545  31.433  23.465  1.00  0.00    -0.003 C 
ATOM     16  C   UNL A   1      28.772  32.890  23.114  1.00  0.00     0.004 C 
ENDBRANCH  14  15
ENDBRANCH  13  14
ENDBRANCH  12  13
ENDBRANCH   9  12
ENDBRANCH   6   8
ENDBRANCH   3   6
ENDBRANCH   1   2
BRANCH   1  17
ATOM     17  C   UNL A   1      31.404  31.264  26.124  1.00  0.00     0.023 C 
BRANCH  17  18
ATOM     18  C   UNL A   1      31.375  32.737  26.528  1.00  0.00     0.023 C 
BRANCH  18  19
ATOM     19  C   UNL A   1      32.555  33.176  27.381  1.00  0.00     0.116 C 
BRANCH  19  20
ATOM     20  N   UNL A   1      32.453  34.560  27.815  1.00  0.00    -0.352 N 
ATOM     21  C   UNL A   1      33.175  35.203  28.787  1.00  0.00     0.251 C 
ATOM     22  H   UNL A   1      31.780  35.106  27.350  1.00  0.00     0.163 HD
ATOM     23  O   UNL A   1      32.904  36.349  29.112  1.00  0.00    -0.269 OA
BRANCH  21  24
ATOM     24  C   UNL A   1      34.260  34.469  29.461  1.00  0.00     0.039 A 
ATOM     25  C   UNL A   1      35.554  34.582  28.954  1.00  0.00     0.014 A 
ATOM     26  C   UNL A   1      34.001  33.707  30.604  1.00  0.00     0.014 A 
ATOM     27  C   UNL A   1      36.603  33.951  29.619  1.00  0.00     0.010 A 
ATOM     28  C   UNL A   1      35.058  33.155  31.314  1.00  0.00     0.010 A 
ATOM     29  C   UNL A   1      36.364  33.251  30.813  1.00  0.00    -0.014 A 
BRANCH  29  30
ATOM     30  C   UNL A   1      37.469  32.563  31.518  1.00  0.00     0.031 A 
ATOM     31  C   UNL A   1      38.184  31.425  30.846  1.00  0.00     0.074 A 
ATOM     32  C   UNL A   1      37.802  32.943  32.766  1.00  0.00     0.049 A 
ATOM     33  N   UNL A   1      39.170  30.689  31.291  1.00  0.00    -0.248 NA
ATOM     34  C   UNL A   1      37.707  31.041  29.508  1.00  0.00     0.031 C 
ATOM     35  C   UNL A   1      37.136  33.994  33.537  1.00  0.00     0.029 A 
ATOM     36  N   UNL A   1      38.787  32.487  33.604  1.00  0.00    -0.354 N 
ATOM     37  C   UNL A   1      39.418  29.753  30.296  1.00  0.00     0.074 A 
ATOM     38  C   UNL A   1      38.437  29.966  29.256  1.00  0.00     0.031 C 
ATOM     39  C   UNL A   1      37.755  34.126  34.722  1.00  0.00     0.029 A 
ATOM     40  C   UNL A   1      38.839  33.154  34.803  1.00  0.00     0.049 A 
ATOM     41  H   UNL A   1      39.398  31.752  33.368  1.00  0.00     0.167 HD
ATOM     42  C   UNL A   1      40.399  28.822  30.239  1.00  0.00     0.037 A 
ATOM     43  C   UNL A   1      39.680  32.998  35.843  1.00  0.00     0.037 A 
ATOM     44  C   UNL A   1      41.390  28.638  31.265  1.00  0.00     0.049 A 
ATOM     45  C   UNL A   1      40.776  31.971  35.744  1.00  0.00     0.074 A 
ATOM     46  C   UNL A   1      42.459  27.761  31.287  1.00  0.00     0.029 A 
ATOM     47  N   UNL A   1      41.432  29.354  32.453  1.00  0.00    -0.354 N 
ATOM     48  N   UNL A   1      41.050  31.141  34.767  1.00  0.00    -0.248 NA
ATOM     49  C   UNL A   1      41.692  31.875  36.888  1.00  0.00     0.031 C 
ATOM     50  C   UNL A   1      43.125  27.917  32.508  1.00  0.00     0.029 A 
ATOM     51  C   UNL A   1      42.503  28.929  33.222  1.00  0.00     0.049 A 
ATOM     52  H   UNL A   1      40.795  30.059  32.711  1.00  0.00     0.167 HD
ATOM     53  C   UNL A   1      42.186  30.450  35.161  1.00  0.00     0.074 A 
ATOM     54  C   UNL A   1      42.560  30.970  36.460  1.00  0.00     0.031 C 
ATOM     55  C   UNL A   1      42.862  29.471  34.508  1.00  0.00     0.037 A 
BRANCH  42  56
ATOM     56  C   UNL A   1      40.447  27.941  29.024  1.00  0.00     0.064 A 
ATOM     57  C   UNL A   1      41.227  28.272  27.905  1.00  0.00     0.173 A 
ATOM     58  C   UNL A   1      39.717  26.744  28.981  1.00  0.00     0.173 A 
ATOM     59  F   UNL A   1      41.932  29.414  27.887  1.00  0.00    -0.203 F 
ATOM     60  C   UNL A   1      41.247  27.457  26.777  1.00  0.00     0.198 A 
ATOM     61  C   UNL A   1      39.767  25.913  27.864  1.00  0.00     0.198 A 
ATOM     62  F   UNL A   1      38.956  26.378  30.023  1.00  0.00    -0.203 F 
ATOM     63  F   UNL A   1      41.953  27.825  25.698  1.00  0.00    -0.200 F 
ATOM     64  C   UNL A   1      40.523  26.275  26.760  1.00  0.00     0.200 A 
ATOM     65  F   UNL A   1      39.075  24.766  27.854  1.00  0.00    -0.200 F 
ATOM     66  F   UNL A   1      40.548  25.487  25.676  1.00  0.00    -0.200 F 
ENDBRANCH  42  56
BRANCH  43  67
ATOM     67  C   UNL A   1      39.547  33.866  37.042  1.00  0.00     0.064 A 
ATOM     68  C   UNL A   1      38.835  33.432  38.169  1.00  0.00     0.173 A 
ATOM     69  C   UNL A   1      40.120  35.145  37.085  1.00  0.00     0.173 A 
ATOM     70  F   UNL A   1      38.255  32.223  38.170  1.00  0.00    -0.203 F 
ATOM     71  C   UNL A   1      38.678  34.254  39.283  1.00  0.00     0.198 A 
ATOM     72  C   UNL A   1      39.987  35.955  38.211  1.00  0.00     0.198 A 
ATOM     73  F   UNL A   1      40.820  35.602  36.037  1.00  0.00    -0.203 F 
ATOM     74  F   UNL A   1      37.950  33.834  40.326  1.00  0.00    -0.200 F 
ATOM     75  C   UNL A   1      39.258  35.514  39.305  1.00  0.00     0.200 A 
ATOM     76  F   UNL A   1      40.563  37.165  38.234  1.00  0.00    -0.200 F 
ATOM     77  F   UNL A   1      39.107  36.304  40.376  1.00  0.00    -0.200 F 
ENDBRANCH  43  67
BRANCH  55  78
ATOM     78  C   UNL A   1      44.101  28.938  35.168  1.00  0.00     0.064 A 
ATOM     79  C   UNL A   1      44.056  27.852  36.055  1.00  0.00     0.173 A 
ATOM     80  C   UNL A   1      45.352  29.508  34.887  1.00  0.00     0.173 A 
ATOM     81  F   UNL A   1      42.882  27.281  36.365  1.00  0.00    -0.203 F 
ATOM     82  C   UNL A   1      45.215  27.380  36.664  1.00  0.00     0.198 A 
ATOM     83  C   UNL A   1      46.512  29.010  35.472  1.00  0.00     0.198 A 
ATOM     84  F   UNL A   1      45.450  30.542  34.038  1.00  0.00    -0.203 F 
ATOM     85  F   UNL A   1      45.141  26.380  37.553  1.00  0.00    -0.200 F 
ATOM     86  C   UNL A   1      46.442  27.955  36.369  1.00  0.00     0.200 A 
ATOM     87  F   UNL A   1      47.699  29.557  35.173  1.00  0.00    -0.200 F 
ATOM     88  F   UNL A   1      47.556  27.497  36.954  1.00  0.00    -0.200 F 
ENDBRANCH  55  78
ENDBRANCH  29  30
ENDBRANCH  21  24
ENDBRANCH  19  20
ENDBRANCH  18  19
ENDBRANCH  17  18
ENDBRANCH   1  17
TORSDOF 16
ENDMDL
