MODEL 1
REMARK VINA RESULT:     -13.3      0.000      0.000
REMARK SMILES C/C(=N\Nc1ccc(C(=O)NCCCCNC(=O)c2ccc(-c3c4nc(c(-c5c(F)c(F)c(F)c(F)c5F)c5ccc([nH]5)c(-c5c(F)c(F)c(F)c(F)c5F)c5nc(c(-c6c(F)c(F)c(F)c(F)c6F)c6ccc3[nH]6)C=C5)C=C4)cc2)cc1)c1cccc(S(=O)(=O)N(C)C)c1
REMARK SMILES IDX 12 1 11 2 9 3 10 4 8 6 5 7 6 8 83 9 7 10 82 11 4 12 3 14
REMARK SMILES IDX 1 15 2 16 84 17 85 18 95 19 86 20 88 21 87 22 89 23 90 24
REMARK SMILES IDX 91 25 92 26 93 27 94 28 13 29 14 30 15 31 16 32 17 33 18 35
REMARK SMILES IDX 19 36 20 37 81 38 21 39 80 40 22 41 23 42 24 43 74 44 25 45
REMARK SMILES IDX 79 46 73 47 75 48 26 49 78 50 72 51 71 52 27 54 59 55 39 56
REMARK SMILES IDX 58 57 40 58 43 59 57 60 76 61 41 62 42 63 56 65 77 66 44 67
REMARK SMILES IDX 28 68 29 69 37 70 30 71 31 72 35 73 38 74 32 75 33 76 36 77
REMARK SMILES IDX 34 78 60 79 61 80 69 81 62 82 63 83 67 84 70 85 64 86 65 87
REMARK SMILES IDX 68 88 66 89 45 90 46 91 54 92 47 93 48 94 52 95 55 96 49 97
REMARK SMILES IDX 50 98 53 99 51 100
REMARK H PARENT 11 5 4 13 16 34 75 53 43 64
REMARK Flexibility Score: inf
ROOT
ATOM      1  C   UNL A   1      32.123  29.906  25.607  1.00  0.00     0.116 C 
ENDROOT
BRANCH   1   2
ATOM      2  N   UNL A   1      31.094  30.226  24.636  1.00  0.00    -0.352 N 
ATOM      3  C   UNL A   1      30.379  29.425  23.779  1.00  0.00     0.251 C 
ATOM      4  O   UNL A   1      29.505  29.940  23.085  1.00  0.00    -0.269 OA
ATOM      5  H   UNL A   1      30.868  31.183  24.580  1.00  0.00     0.163 HD
BRANCH   3   6
ATOM      6  C   UNL A   1      30.566  27.952  23.741  1.00  0.00     0.039 A 
ATOM      7  C   UNL A   1      30.750  25.186  23.294  1.00  0.00     0.056 A 
ATOM      8  C   UNL A   1      31.589  26.074  22.605  1.00  0.00     0.028 A 
ATOM      9  C   UNL A   1      29.922  25.683  24.299  1.00  0.00     0.028 A 
ATOM     10  C   UNL A   1      31.482  27.450  22.811  1.00  0.00     0.016 A 
ATOM     11  C   UNL A   1      29.861  27.056  24.549  1.00  0.00     0.016 A 
BRANCH   7  12
ATOM     12  N   UNL A   1      30.634  23.875  22.813  1.00  0.00    -0.278 N 
ATOM     13  H   UNL A   1      30.049  23.734  22.033  1.00  0.00     0.190 HD
BRANCH  12  14
ATOM     14  N   UNL A   1      31.253  22.785  23.327  1.00  0.00    -0.180 NA
ATOM     15  C   UNL A   1      33.256  23.132  21.853  1.00  0.00     0.069 C 
ATOM     16  C   UNL A   1      32.473  22.465  22.976  1.00  0.00     0.065 C 
BRANCH  16  17
ATOM     17  C   UNL A   1      33.178  21.418  23.811  1.00  0.00    -0.001 A 
ATOM     18  C   UNL A   1      34.380  21.751  24.456  1.00  0.00     0.010 A 
ATOM     19  C   UNL A   1      32.781  20.077  23.790  1.00  0.00     0.031 A 
ATOM     20  C   UNL A   1      35.202  20.758  25.000  1.00  0.00     0.002 A 
ATOM     21  C   UNL A   1      33.649  19.082  24.247  1.00  0.00     0.083 A 
ATOM     22  C   UNL A   1      34.856  19.415  24.860  1.00  0.00     0.022 A 
BRANCH  21  23
ATOM     23  S   UNL A   1      33.292  17.370  23.920  1.00  0.00     0.242 S 
ATOM     24  O   UNL A   1      31.851  17.240  23.806  1.00  0.00    -0.207 OA
ATOM     25  O   UNL A   1      34.179  16.964  22.857  1.00  0.00    -0.207 OA
BRANCH  23  26
ATOM     26  N   UNL A   1      33.751  16.533  25.352  1.00  0.00    -0.204 NA
ATOM     27  C   UNL A   1      32.779  15.532  25.859  1.00  0.00     0.124 C 
ATOM     28  C   UNL A   1      35.108  15.939  25.259  1.00  0.00     0.124 C 
ENDBRANCH  23  26
ENDBRANCH  21  23
ENDBRANCH  16  17
ENDBRANCH  12  14
ENDBRANCH   7  12
ENDBRANCH   3   6
ENDBRANCH   1   2
BRANCH   1  29
ATOM     29  C   UNL A   1      31.844  30.598  26.943  1.00  0.00     0.023 C 
BRANCH  29  30
ATOM     30  C   UNL A   1      31.630  32.108  26.838  1.00  0.00     0.023 C 
BRANCH  30  31
ATOM     31  C   UNL A   1      32.830  32.956  27.241  1.00  0.00     0.116 C 
BRANCH  31  32
ATOM     32  N   UNL A   1      32.463  34.299  27.664  1.00  0.00    -0.352 N 
ATOM     33  C   UNL A   1      33.009  35.067  28.662  1.00  0.00     0.251 C 
ATOM     34  H   UNL A   1      31.722  34.713  27.165  1.00  0.00     0.163 HD
ATOM     35  O   UNL A   1      32.503  36.144  28.960  1.00  0.00    -0.269 OA
BRANCH  33  36
ATOM     36  C   UNL A   1      34.185  34.572  29.407  1.00  0.00     0.039 A 
ATOM     37  C   UNL A   1      33.983  33.969  30.651  1.00  0.00     0.014 A 
ATOM     38  C   UNL A   1      35.473  34.684  28.877  1.00  0.00     0.014 A 
ATOM     39  C   UNL A   1      35.066  33.413  31.333  1.00  0.00     0.010 A 
ATOM     40  C   UNL A   1      36.542  34.077  29.528  1.00  0.00     0.010 A 
ATOM     41  C   UNL A   1      36.347  33.431  30.759  1.00  0.00    -0.014 A 
BRANCH  41  42
ATOM     42  C   UNL A   1      37.493  32.766  31.422  1.00  0.00     0.031 A 
ATOM     43  C   UNL A   1      38.194  31.621  30.750  1.00  0.00     0.074 A 
ATOM     44  C   UNL A   1      37.851  33.147  32.663  1.00  0.00     0.049 A 
ATOM     45  N   UNL A   1      39.166  30.868  31.200  1.00  0.00    -0.248 NA
ATOM     46  C   UNL A   1      37.723  31.256  29.406  1.00  0.00     0.031 C 
ATOM     47  C   UNL A   1      37.209  34.208  33.439  1.00  0.00     0.029 A 
ATOM     48  N   UNL A   1      38.834  32.674  33.494  1.00  0.00    -0.354 N 
ATOM     49  C   UNL A   1      39.407  29.931  30.205  1.00  0.00     0.074 A 
ATOM     50  C   UNL A   1      38.455  30.184  29.145  1.00  0.00     0.031 C 
ATOM     51  C   UNL A   1      37.824  34.316  34.628  1.00  0.00     0.029 A 
ATOM     52  C   UNL A   1      38.884  33.315  34.706  1.00  0.00     0.049 A 
ATOM     53  H   UNL A   1      39.447  31.944  33.244  1.00  0.00     0.167 HD
ATOM     54  C   UNL A   1      40.351  28.960  30.173  1.00  0.00     0.037 A 
ATOM     55  C   UNL A   1      39.691  33.115  35.764  1.00  0.00     0.037 A 
ATOM     56  C   UNL A   1      41.320  28.734  31.213  1.00  0.00     0.049 A 
ATOM     57  C   UNL A   1      40.749  32.048  35.691  1.00  0.00     0.074 A 
ATOM     58  C   UNL A   1      42.362  27.825  31.240  1.00  0.00     0.029 A 
ATOM     59  N   UNL A   1      41.362  29.428  32.413  1.00  0.00    -0.354 N 
ATOM     60  N   UNL A   1      41.014  31.214  34.717  1.00  0.00    -0.248 NA
ATOM     61  C   UNL A   1      41.624  31.903  36.863  1.00  0.00     0.031 C 
ATOM     62  C   UNL A   1      43.017  27.948  32.471  1.00  0.00     0.029 A 
ATOM     63  C   UNL A   1      42.405  28.957  33.195  1.00  0.00     0.049 A 
ATOM     64  H   UNL A   1      40.743  30.150  32.671  1.00  0.00     0.167 HD
ATOM     65  C   UNL A   1      42.097  30.460  35.145  1.00  0.00     0.074 A 
ATOM     66  C   UNL A   1      42.448  30.944  36.465  1.00  0.00     0.031 C 
ATOM     67  C   UNL A   1      42.741  29.455  34.503  1.00  0.00     0.037 A 
BRANCH  54  68
ATOM     68  C   UNL A   1      40.386  28.072  28.965  1.00  0.00     0.064 A 
ATOM     69  C   UNL A   1      41.149  28.401  27.835  1.00  0.00     0.173 A 
ATOM     70  C   UNL A   1      39.673  26.865  28.950  1.00  0.00     0.173 A 
ATOM     71  F   UNL A   1      41.836  29.552  27.797  1.00  0.00    -0.203 F 
ATOM     72  C   UNL A   1      41.176  27.565  26.723  1.00  0.00     0.198 A 
ATOM     73  C   UNL A   1      39.724  26.018  27.846  1.00  0.00     0.198 A 
ATOM     74  F   UNL A   1      38.932  26.502  30.008  1.00  0.00    -0.203 F 
ATOM     75  F   UNL A   1      41.875  27.921  25.636  1.00  0.00    -0.200 F 
ATOM     76  C   UNL A   1      40.469  26.372  26.731  1.00  0.00     0.200 A 
ATOM     77  F   UNL A   1      39.047  24.861  27.858  1.00  0.00    -0.200 F 
ATOM     78  F   UNL A   1      40.499  25.567  25.660  1.00  0.00    -0.200 F 
ENDBRANCH  54  68
BRANCH  55  79
ATOM     79  C   UNL A   1      39.550  33.965  36.972  1.00  0.00     0.064 A 
ATOM     80  C   UNL A   1      38.799  33.528  38.072  1.00  0.00     0.173 A 
ATOM     81  C   UNL A   1      40.167  35.221  37.058  1.00  0.00     0.173 A 
ATOM     82  F   UNL A   1      38.176  32.342  38.026  1.00  0.00    -0.203 F 
ATOM     83  C   UNL A   1      38.658  34.323  39.207  1.00  0.00     0.198 A 
ATOM     84  C   UNL A   1      40.043  36.005  38.203  1.00  0.00     0.198 A 
ATOM     85  F   UNL A   1      40.900  35.680  36.033  1.00  0.00    -0.203 F 
ATOM     86  F   UNL A   1      37.905  33.896  40.230  1.00  0.00    -0.200 F 
ATOM     87  C   UNL A   1      39.285  35.558  39.274  1.00  0.00     0.200 A 
ATOM     88  F   UNL A   1      40.659  37.193  38.268  1.00  0.00    -0.200 F 
ATOM     89  F   UNL A   1      39.152  36.319  40.368  1.00  0.00    -0.200 F 
ENDBRANCH  55  79
BRANCH  67  90
ATOM     90  C   UNL A   1      43.906  28.830  35.209  1.00  0.00     0.064 A 
ATOM     91  C   UNL A   1      43.741  27.726  36.057  1.00  0.00     0.173 A 
ATOM     92  C   UNL A   1      45.205  29.316  35.004  1.00  0.00     0.173 A 
ATOM     93  F   UNL A   1      42.516  27.237  36.297  1.00  0.00    -0.203 F 
ATOM     94  C   UNL A   1      44.835  27.144  36.692  1.00  0.00     0.198 A 
ATOM     95  C   UNL A   1      46.300  28.716  35.621  1.00  0.00     0.198 A 
ATOM     96  F   UNL A   1      45.415  30.368  34.197  1.00  0.00    -0.203 F 
ATOM     97  F   UNL A   1      44.650  26.114  37.530  1.00  0.00    -0.200 F 
ATOM     98  C   UNL A   1      46.112  27.634  36.468  1.00  0.00     0.200 A 
ATOM     99  F   UNL A   1      47.535  29.185  35.397  1.00  0.00    -0.200 F 
ATOM    100  F   UNL A   1      47.164  27.068  37.075  1.00  0.00    -0.200 F 
ENDBRANCH  67  90
ENDBRANCH  41  42
ENDBRANCH  33  36
ENDBRANCH  31  32
ENDBRANCH  30  31
ENDBRANCH  29  30
ENDBRANCH   1  29
TORSDOF 16
ENDMDL
MODEL 2
REMARK VINA RESULT:     -13.1      0.826      2.165
REMARK SMILES C/C(=N\Nc1ccc(C(=O)NCCCCNC(=O)c2ccc(-c3c4nc(c(-c5c(F)c(F)c(F)c(F)c5F)c5ccc([nH]5)c(-c5c(F)c(F)c(F)c(F)c5F)c5nc(c(-c6c(F)c(F)c(F)c(F)c6F)c6ccc3[nH]6)C=C5)C=C4)cc2)cc1)c1cccc(S(=O)(=O)N(C)C)c1
REMARK SMILES IDX 12 1 11 2 9 3 10 4 8 6 5 7 6 8 83 9 7 10 82 11 4 12 3 14
REMARK SMILES IDX 1 15 2 16 84 17 85 18 95 19 86 20 88 21 87 22 89 23 90 24
REMARK SMILES IDX 91 25 92 26 93 27 94 28 13 29 14 30 15 31 16 32 17 33 18 35
REMARK SMILES IDX 19 36 20 37 81 38 21 39 80 40 22 41 23 42 24 43 74 44 25 45
REMARK SMILES IDX 79 46 73 47 75 48 26 49 78 50 72 51 71 52 27 54 59 55 39 56
REMARK SMILES IDX 58 57 40 58 43 59 57 60 76 61 41 62 42 63 56 65 77 66 44 67
REMARK SMILES IDX 28 68 29 69 37 70 30 71 31 72 35 73 38 74 32 75 33 76 36 77
REMARK SMILES IDX 34 78 60 79 61 80 69 81 62 82 63 83 67 84 70 85 64 86 65 87
REMARK SMILES IDX 68 88 66 89 45 90 46 91 54 92 47 93 48 94 52 95 55 96 49 97
REMARK SMILES IDX 50 98 53 99 51 100
REMARK H PARENT 11 5 4 13 16 34 75 53 43 64
REMARK Flexibility Score: inf
ROOT
ATOM      1  C   UNL A   1      32.007  29.808  25.561  1.00  0.00     0.116 C 
ENDROOT
BRANCH   1   2
ATOM      2  N   UNL A   1      30.954  30.115  24.611  1.00  0.00    -0.352 N 
ATOM      3  C   UNL A   1      30.657  29.573  23.384  1.00  0.00     0.251 C 
ATOM      4  O   UNL A   1      29.658  29.976  22.792  1.00  0.00    -0.269 OA
ATOM      5  H   UNL A   1      30.348  30.838  24.894  1.00  0.00     0.163 HD
BRANCH   3   6
ATOM      6  C   UNL A   1      31.447  28.455  22.807  1.00  0.00     0.039 A 
ATOM      7  C   UNL A   1      32.853  26.141  22.067  1.00  0.00     0.056 A 
ATOM      8  C   UNL A   1      31.452  26.141  22.097  1.00  0.00     0.028 A 
ATOM      9  C   UNL A   1      33.533  27.340  22.276  1.00  0.00     0.028 A 
ATOM     10  C   UNL A   1      30.753  27.284  22.487  1.00  0.00     0.016 A 
ATOM     11  C   UNL A   1      32.829  28.501  22.606  1.00  0.00     0.016 A 
BRANCH   7  12
ATOM     12  N   UNL A   1      33.516  24.907  22.025  1.00  0.00    -0.278 N 
ATOM     13  H   UNL A   1      34.294  24.837  21.424  1.00  0.00     0.190 HD
BRANCH  12  14
ATOM     14  N   UNL A   1      33.181  23.802  22.734  1.00  0.00    -0.180 NA
ATOM     15  C   UNL A   1      35.592  23.264  23.182  1.00  0.00     0.069 C 
ATOM     16  C   UNL A   1      34.089  23.080  23.341  1.00  0.00     0.065 C 
BRANCH  16  17
ATOM     17  C   UNL A   1      33.599  22.052  24.337  1.00  0.00    -0.001 A 
ATOM     18  C   UNL A   1      33.886  22.228  25.700  1.00  0.00     0.010 A 
ATOM     19  C   UNL A   1      33.052  20.834  23.921  1.00  0.00     0.031 A 
ATOM     20  C   UNL A   1      33.702  21.183  26.613  1.00  0.00     0.002 A 
ATOM     21  C   UNL A   1      32.963  19.764  24.816  1.00  0.00     0.083 A 
ATOM     22  C   UNL A   1      33.278  19.934  26.164  1.00  0.00     0.022 A 
BRANCH  21  23
ATOM     23  S   UNL A   1      32.585  18.132  24.218  1.00  0.00     0.242 S 
ATOM     24  O   UNL A   1      31.798  17.465  25.239  1.00  0.00    -0.207 OA
ATOM     25  O   UNL A   1      32.100  18.294  22.869  1.00  0.00    -0.207 OA
BRANCH  23  26
ATOM     26  N   UNL A   1      34.098  17.316  24.151  1.00  0.00    -0.204 NA
ATOM     27  C   UNL A   1      34.383  16.381  25.269  1.00  0.00     0.124 C 
ATOM     28  C   UNL A   1      34.333  16.650  22.845  1.00  0.00     0.124 C 
ENDBRANCH  23  26
ENDBRANCH  21  23
ENDBRANCH  16  17
ENDBRANCH  12  14
ENDBRANCH   7  12
ENDBRANCH   3   6
ENDBRANCH   1   2
BRANCH   1  29
ATOM     29  C   UNL A   1      31.738  30.481  26.908  1.00  0.00     0.023 C 
BRANCH  29  30
ATOM     30  C   UNL A   1      31.556  31.997  26.829  1.00  0.00     0.023 C 
BRANCH  30  31
ATOM     31  C   UNL A   1      32.764  32.813  27.270  1.00  0.00     0.116 C 
BRANCH  31  32
ATOM     32  N   UNL A   1      32.427  34.179  27.640  1.00  0.00    -0.352 N 
ATOM     33  C   UNL A   1      32.994  34.976  28.603  1.00  0.00     0.251 C 
ATOM     34  H   UNL A   1      31.690  34.587  27.130  1.00  0.00     0.163 HD
ATOM     35  O   UNL A   1      32.512  36.074  28.860  1.00  0.00    -0.269 OA
BRANCH  33  36
ATOM     36  C   UNL A   1      34.166  34.489  29.359  1.00  0.00     0.039 A 
ATOM     37  C   UNL A   1      33.954  33.866  30.591  1.00  0.00     0.014 A 
ATOM     38  C   UNL A   1      35.460  34.629  28.851  1.00  0.00     0.014 A 
ATOM     39  C   UNL A   1      35.035  33.317  31.283  1.00  0.00     0.010 A 
ATOM     40  C   UNL A   1      36.529  34.029  29.510  1.00  0.00     0.010 A 
ATOM     41  C   UNL A   1      36.324  33.363  30.729  1.00  0.00    -0.014 A 
BRANCH  41  42
ATOM     42  C   UNL A   1      37.470  32.706  31.401  1.00  0.00     0.031 A 
ATOM     43  C   UNL A   1      38.179  31.561  30.739  1.00  0.00     0.074 A 
ATOM     44  C   UNL A   1      37.822  33.096  32.641  1.00  0.00     0.049 A 
ATOM     45  N   UNL A   1      39.152  30.815  31.198  1.00  0.00    -0.248 NA
ATOM     46  C   UNL A   1      37.716  31.186  29.395  1.00  0.00     0.031 C 
ATOM     47  C   UNL A   1      37.172  34.159  33.409  1.00  0.00     0.029 A 
ATOM     48  N   UNL A   1      38.803  32.632  33.480  1.00  0.00    -0.354 N 
ATOM     49  C   UNL A   1      39.401  29.872  30.209  1.00  0.00     0.074 A 
ATOM     50  C   UNL A   1      38.453  30.115  29.144  1.00  0.00     0.031 C 
ATOM     51  C   UNL A   1      37.781  34.277  34.600  1.00  0.00     0.029 A 
ATOM     52  C   UNL A   1      38.844  33.281  34.688  1.00  0.00     0.049 A 
ATOM     53  H   UNL A   1      39.419  31.903  33.237  1.00  0.00     0.167 HD
ATOM     54  C   UNL A   1      40.349  28.906  30.187  1.00  0.00     0.037 A 
ATOM     55  C   UNL A   1      39.648  33.090  35.751  1.00  0.00     0.037 A 
ATOM     56  C   UNL A   1      41.314  28.690  31.233  1.00  0.00     0.049 A 
ATOM     57  C   UNL A   1      40.710  32.027  35.689  1.00  0.00     0.074 A 
ATOM     58  C   UNL A   1      42.361  27.785  31.269  1.00  0.00     0.029 A 
ATOM     59  N   UNL A   1      41.348  29.391  32.429  1.00  0.00    -0.354 N 
ATOM     60  N   UNL A   1      40.983  31.189  34.721  1.00  0.00    -0.248 NA
ATOM     61  C   UNL A   1      41.581  31.892  36.865  1.00  0.00     0.031 C 
ATOM     62  C   UNL A   1      43.009  27.918  32.503  1.00  0.00     0.029 A 
ATOM     63  C   UNL A   1      42.390  28.928  33.218  1.00  0.00     0.049 A 
ATOM     64  H   UNL A   1      40.725  30.111  32.680  1.00  0.00     0.167 HD
ATOM     65  C   UNL A   1      42.067  30.441  35.158  1.00  0.00     0.074 A 
ATOM     66  C   UNL A   1      42.410  30.934  36.476  1.00  0.00     0.031 C 
ATOM     67  C   UNL A   1      42.719  29.436  34.525  1.00  0.00     0.037 A 
BRANCH  54  68
ATOM     68  C   UNL A   1      40.393  28.010  28.985  1.00  0.00     0.064 A 
ATOM     69  C   UNL A   1      39.675  26.806  28.942  1.00  0.00     0.173 A 
ATOM     70  C   UNL A   1      41.137  28.375  27.854  1.00  0.00     0.173 A 
ATOM     71  F   UNL A   1      38.960  26.408  30.005  1.00  0.00    -0.203 F 
ATOM     72  C   UNL A   1      39.721  25.986  27.818  1.00  0.00     0.198 A 
ATOM     73  C   UNL A   1      41.160  27.565  26.721  1.00  0.00     0.198 A 
ATOM     74  F   UNL A   1      41.838  29.518  27.843  1.00  0.00    -0.203 F 
ATOM     75  F   UNL A   1      39.063  24.818  27.815  1.00  0.00    -0.200 F 
ATOM     76  C   UNL A   1      40.458  26.368  26.707  1.00  0.00     0.200 A 
ATOM     77  F   UNL A   1      41.865  27.939  25.644  1.00  0.00    -0.200 F 
ATOM     78  F   UNL A   1      40.498  25.580  25.624  1.00  0.00    -0.200 F 
ENDBRANCH  54  68
BRANCH  55  79
ATOM     79  C   UNL A   1      39.498  33.947  36.953  1.00  0.00     0.064 A 
ATOM     80  C   UNL A   1      40.113  35.205  37.016  1.00  0.00     0.173 A 
ATOM     81  C   UNL A   1      38.733  33.536  38.053  1.00  0.00     0.173 A 
ATOM     82  F   UNL A   1      40.870  35.630  35.994  1.00  0.00    -0.203 F 
ATOM     83  C   UNL A   1      39.982  36.014  38.142  1.00  0.00     0.198 A 
ATOM     84  C   UNL A   1      38.584  34.356  39.170  1.00  0.00     0.198 A 
ATOM     85  F   UNL A   1      38.121  32.343  38.037  1.00  0.00    -0.203 F 
ATOM     86  F   UNL A   1      40.610  37.196  38.191  1.00  0.00    -0.200 F 
ATOM     87  C   UNL A   1      39.212  35.591  39.216  1.00  0.00     0.200 A 
ATOM     88  F   UNL A   1      37.832  33.949  40.201  1.00  0.00    -0.200 F 
ATOM     89  F   UNL A   1      39.083  36.371  40.297  1.00  0.00    -0.200 F 
ENDBRANCH  55  79
BRANCH  67  90
ATOM     90  C   UNL A   1      43.883  28.819  35.239  1.00  0.00     0.064 A 
ATOM     91  C   UNL A   1      45.197  29.249  35.004  1.00  0.00     0.173 A 
ATOM     92  C   UNL A   1      43.678  27.815  36.196  1.00  0.00     0.173 A 
ATOM     93  F   UNL A   1      45.443  30.195  34.086  1.00  0.00    -0.203 F 
ATOM     94  C   UNL A   1      46.267  28.679  35.688  1.00  0.00     0.198 A 
ATOM     95  C   UNL A   1      44.748  27.264  36.896  1.00  0.00     0.198 A 
ATOM     96  F   UNL A   1      42.438  27.374  36.459  1.00  0.00    -0.203 F 
ATOM     97  F   UNL A   1      47.518  29.077  35.419  1.00  0.00    -0.200 F 
ATOM     98  C   UNL A   1      46.042  27.694  36.637  1.00  0.00     0.200 A 
ATOM     99  F   UNL A   1      44.529  26.318  37.819  1.00  0.00    -0.200 F 
ATOM    100  F   UNL A   1      47.073  27.151  37.299  1.00  0.00    -0.200 F 
ENDBRANCH  67  90
ENDBRANCH  41  42
ENDBRANCH  33  36
ENDBRANCH  31  32
ENDBRANCH  30  31
ENDBRANCH  29  30
ENDBRANCH   1  29
TORSDOF 16
ENDMDL
MODEL 3
REMARK VINA RESULT:     -12.8      3.672      8.515
REMARK SMILES C/C(=N\Nc1ccc(C(=O)NCCCCNC(=O)c2ccc(-c3c4nc(c(-c5c(F)c(F)c(F)c(F)c5F)c5ccc([nH]5)c(-c5c(F)c(F)c(F)c(F)c5F)c5nc(c(-c6c(F)c(F)c(F)c(F)c6F)c6ccc3[nH]6)C=C5)C=C4)cc2)cc1)c1cccc(S(=O)(=O)N(C)C)c1
REMARK SMILES IDX 12 1 11 2 9 3 10 4 8 6 5 7 6 8 83 9 7 10 82 11 4 12 3 14
REMARK SMILES IDX 1 15 2 16 84 17 85 18 95 19 86 20 88 21 87 22 89 23 90 24
REMARK SMILES IDX 91 25 92 26 93 27 94 28 13 29 14 30 15 31 16 32 17 33 18 35
REMARK SMILES IDX 19 36 20 37 81 38 21 39 80 40 22 41 23 42 24 43 74 44 25 45
REMARK SMILES IDX 79 46 73 47 75 48 26 49 78 50 72 51 71 52 27 54 59 55 39 56
REMARK SMILES IDX 58 57 40 58 43 59 57 60 76 61 41 62 42 63 56 65 77 66 44 67
REMARK SMILES IDX 28 68 29 69 37 70 30 71 31 72 35 73 38 74 32 75 33 76 36 77
REMARK SMILES IDX 34 78 60 79 61 80 69 81 62 82 63 83 67 84 70 85 64 86 65 87
REMARK SMILES IDX 68 88 66 89 45 90 46 91 54 92 47 93 48 94 52 95 55 96 49 97
REMARK SMILES IDX 50 98 53 99 51 100
REMARK H PARENT 11 5 4 13 16 34 75 53 43 64
REMARK Flexibility Score: inf
ROOT
ATOM      1  C   UNL A   1      31.209  29.856  24.969  1.00  0.00     0.116 C 
ENDROOT
BRANCH   1   2
ATOM      2  N   UNL A   1      30.714  30.075  23.622  1.00  0.00    -0.352 N 
ATOM      3  C   UNL A   1      30.313  29.190  22.651  1.00  0.00     0.251 C 
ATOM      4  O   UNL A   1      29.870  29.637  21.596  1.00  0.00    -0.269 OA
ATOM      5  H   UNL A   1      30.656  31.022  23.358  1.00  0.00     0.163 HD
BRANCH   3   6
ATOM      6  C   UNL A   1      30.308  27.722  22.881  1.00  0.00     0.039 A 
ATOM      7  C   UNL A   1      30.336  25.042  23.716  1.00  0.00     0.056 A 
ATOM      8  C   UNL A   1      29.217  25.850  23.961  1.00  0.00     0.028 A 
ATOM      9  C   UNL A   1      31.374  25.546  22.934  1.00  0.00     0.028 A 
ATOM     10  C   UNL A   1      29.212  27.188  23.566  1.00  0.00     0.016 A 
ATOM     11  C   UNL A   1      31.341  26.868  22.485  1.00  0.00     0.016 A 
BRANCH   7  12
ATOM     12  N   UNL A   1      30.454  23.839  24.424  1.00  0.00    -0.278 N 
ATOM     13  H   UNL A   1      29.688  23.570  24.982  1.00  0.00     0.190 HD
BRANCH  12  14
ATOM     14  N   UNL A   1      31.529  23.014  24.412  1.00  0.00    -0.180 NA
ATOM     15  C   UNL A   1      31.866  23.290  26.885  1.00  0.00     0.069 C 
ATOM     16  C   UNL A   1      32.144  22.678  25.518  1.00  0.00     0.065 C 
BRANCH  16  17
ATOM     17  C   UNL A   1      33.134  21.537  25.438  1.00  0.00    -0.001 A 
ATOM     18  C   UNL A   1      34.502  21.804  25.601  1.00  0.00     0.010 A 
ATOM     19  C   UNL A   1      32.749  20.264  25.003  1.00  0.00     0.031 A 
ATOM     20  C   UNL A   1      35.466  20.847  25.264  1.00  0.00     0.002 A 
ATOM     21  C   UNL A   1      33.715  19.349  24.575  1.00  0.00     0.083 A 
ATOM     22  C   UNL A   1      35.074  19.630  24.711  1.00  0.00     0.022 A 
BRANCH  21  23
ATOM     23  S   UNL A   1      33.221  17.871  23.717  1.00  0.00     0.242 S 
ATOM     24  O   UNL A   1      32.154  18.233  22.802  1.00  0.00    -0.207 OA
ATOM     25  O   UNL A   1      34.436  17.241  23.257  1.00  0.00    -0.207 OA
BRANCH  23  26
ATOM     26  N   UNL A   1      32.517  16.864  24.922  1.00  0.00    -0.204 NA
ATOM     27  C   UNL A   1      32.977  15.453  24.940  1.00  0.00     0.124 C 
ATOM     28  C   UNL A   1      32.599  17.455  26.281  1.00  0.00     0.124 C 
ENDBRANCH  23  26
ENDBRANCH  21  23
ENDBRANCH  16  17
ENDBRANCH  12  14
ENDBRANCH   7  12
ENDBRANCH   3   6
ENDBRANCH   1   2
BRANCH   1  29
ATOM     29  C   UNL A   1      32.640  29.315  24.940  1.00  0.00     0.023 C 
BRANCH  29  30
ATOM     30  C   UNL A   1      32.906  28.185  25.937  1.00  0.00     0.023 C 
BRANCH  30  31
ATOM     31  C   UNL A   1      33.934  28.509  27.014  1.00  0.00     0.116 C 
BRANCH  31  32
ATOM     32  N   UNL A   1      33.820  29.867  27.522  1.00  0.00    -0.352 N 
ATOM     33  C   UNL A   1      34.742  30.607  28.219  1.00  0.00     0.251 C 
ATOM     34  H   UNL A   1      32.963  30.318  27.340  1.00  0.00     0.163 HD
ATOM     35  O   UNL A   1      34.441  31.707  28.670  1.00  0.00    -0.269 OA
BRANCH  33  36
ATOM     36  C   UNL A   1      36.091  30.055  28.461  1.00  0.00     0.039 A 
ATOM     37  C   UNL A   1      37.058  30.189  27.461  1.00  0.00     0.014 A 
ATOM     38  C   UNL A   1      36.407  29.427  29.669  1.00  0.00     0.014 A 
ATOM     39  C   UNL A   1      38.363  29.757  27.699  1.00  0.00     0.010 A 
ATOM     40  C   UNL A   1      37.721  29.052  29.929  1.00  0.00     0.010 A 
ATOM     41  C   UNL A   1      38.712  29.219  28.948  1.00  0.00    -0.014 A 
BRANCH  41  42
ATOM     42  C   UNL A   1      40.111  28.840  29.254  1.00  0.00     0.031 A 
ATOM     43  C   UNL A   1      41.000  29.781  30.012  1.00  0.00     0.074 A 
ATOM     44  C   UNL A   1      40.600  27.677  28.782  1.00  0.00     0.049 A 
ATOM     45  N   UNL A   1      42.269  29.660  30.313  1.00  0.00    -0.248 NA
ATOM     46  C   UNL A   1      40.392  31.039  30.471  1.00  0.00     0.031 C 
ATOM     47  C   UNL A   1      39.849  26.706  27.985  1.00  0.00     0.029 A 
ATOM     48  N   UNL A   1      41.850  27.122  28.892  1.00  0.00    -0.354 N 
ATOM     49  C   UNL A   1      42.613  30.830  30.975  1.00  0.00     0.074 A 
ATOM     50  C   UNL A   1      41.432  31.666  30.999  1.00  0.00     0.031 C 
ATOM     51  C   UNL A   1      40.648  25.668  27.690  1.00  0.00     0.029 A 
ATOM     52  C   UNL A   1      41.972  25.914  28.253  1.00  0.00     0.049 A 
ATOM     53  H   UNL A   1      42.589  27.551  29.382  1.00  0.00     0.167 HD
ATOM     54  C   UNL A   1      43.802  31.166  31.530  1.00  0.00     0.037 A 
ATOM     55  C   UNL A   1      43.035  25.097  28.133  1.00  0.00     0.037 A 
ATOM     56  C   UNL A   1      44.964  30.318  31.536  1.00  0.00     0.049 A 
ATOM     57  C   UNL A   1      44.336  25.482  28.782  1.00  0.00     0.074 A 
ATOM     58  C   UNL A   1      46.191  30.538  32.136  1.00  0.00     0.029 A 
ATOM     59  N   UNL A   1      45.040  29.082  30.909  1.00  0.00    -0.354 N 
ATOM     60  N   UNL A   1      44.630  26.559  29.466  1.00  0.00    -0.248 NA
ATOM     61  C   UNL A   1      45.449  24.532  28.647  1.00  0.00     0.031 C 
ATOM     62  C   UNL A   1      47.021  29.448  31.845  1.00  0.00     0.029 A 
ATOM     63  C   UNL A   1      46.299  28.535  31.096  1.00  0.00     0.049 A 
ATOM     64  H   UNL A   1      44.307  28.657  30.407  1.00  0.00     0.167 HD
ATOM     65  C   UNL A   1      45.951  26.410  29.862  1.00  0.00     0.074 A 
ATOM     66  C   UNL A   1      46.399  25.131  29.352  1.00  0.00     0.031 C 
ATOM     67  C   UNL A   1      46.724  27.258  30.584  1.00  0.00     0.037 A 
BRANCH  54  68
ATOM     68  C   UNL A   1      43.902  32.511  32.185  1.00  0.00     0.064 A 
ATOM     69  C   UNL A   1      43.598  32.690  33.542  1.00  0.00     0.173 A 
ATOM     70  C   UNL A   1      44.335  33.627  31.455  1.00  0.00     0.173 A 
ATOM     71  F   UNL A   1      43.165  31.655  34.279  1.00  0.00    -0.203 F 
ATOM     72  C   UNL A   1      43.699  33.943  34.139  1.00  0.00     0.198 A 
ATOM     73  C   UNL A   1      44.460  34.875  32.062  1.00  0.00     0.198 A 
ATOM     74  F   UNL A   1      44.642  33.509  30.155  1.00  0.00    -0.203 F 
ATOM     75  F   UNL A   1      43.360  34.100  35.426  1.00  0.00    -0.200 F 
ATOM     76  C   UNL A   1      44.135  35.032  33.401  1.00  0.00     0.200 A 
ATOM     77  F   UNL A   1      44.891  35.925  31.349  1.00  0.00    -0.200 F 
ATOM     78  F   UNL A   1      44.236  36.238  33.978  1.00  0.00    -0.200 F 
ENDBRANCH  54  68
BRANCH  55  79
ATOM     79  C   UNL A   1      42.903  23.818  27.393  1.00  0.00     0.064 A 
ATOM     80  C   UNL A   1      43.300  23.723  26.051  1.00  0.00     0.173 A 
ATOM     81  C   UNL A   1      42.390  22.667  28.007  1.00  0.00     0.173 A 
ATOM     82  F   UNL A   1      43.777  24.804  25.418  1.00  0.00    -0.203 F 
ATOM     83  C   UNL A   1      43.174  22.528  25.348  1.00  0.00     0.198 A 
ATOM     84  C   UNL A   1      42.287  21.466  27.309  1.00  0.00     0.198 A 
ATOM     85  F   UNL A   1      42.003  22.707  29.290  1.00  0.00    -0.203 F 
ATOM     86  F   UNL A   1      43.527  22.473  24.057  1.00  0.00    -0.200 F 
ATOM     87  C   UNL A   1      42.673  21.399  25.979  1.00  0.00     0.200 A 
ATOM     88  F   UNL A   1      41.812  20.375  27.924  1.00  0.00    -0.200 F 
ATOM     89  F   UNL A   1      42.557  20.248  25.302  1.00  0.00    -0.200 F 
ENDBRANCH  55  79
BRANCH  67  90
ATOM     90  C   UNL A   1      48.125  26.818  30.884  1.00  0.00     0.064 A 
ATOM     91  C   UNL A   1      48.411  25.974  31.966  1.00  0.00     0.173 A 
ATOM     92  C   UNL A   1      49.186  27.215  30.057  1.00  0.00     0.173 A 
ATOM     93  F   UNL A   1      47.431  25.582  32.793  1.00  0.00    -0.203 F 
ATOM     94  C   UNL A   1      49.715  25.559  32.222  1.00  0.00     0.198 A 
ATOM     95  C   UNL A   1      50.486  26.778  30.302  1.00  0.00     0.198 A 
ATOM     96  F   UNL A   1      48.961  28.018  29.006  1.00  0.00    -0.203 F 
ATOM     97  F   UNL A   1      49.972  24.783  33.285  1.00  0.00    -0.200 F 
ATOM     98  C   UNL A   1      50.748  25.955  31.387  1.00  0.00     0.200 A 
ATOM     99  F   UNL A   1      51.482  27.154  29.489  1.00  0.00    -0.200 F 
ATOM    100  F   UNL A   1      52.002  25.549  31.631  1.00  0.00    -0.200 F 
ENDBRANCH  67  90
ENDBRANCH  41  42
ENDBRANCH  33  36
ENDBRANCH  31  32
ENDBRANCH  30  31
ENDBRANCH  29  30
ENDBRANCH   1  29
TORSDOF 16
ENDMDL
