MODEL 1
REMARK VINA RESULT:     -12.5      0.000      0.000
REMARK SMILES CC(C)n1cncc1C[NH2+][C@H]1[C@@H]2CC[C@@H](C2)[C@@H]1C(=O)NCCCCNC(=O)c1ccc(-c2c3nc(c(-c4c(F)c(F)c(F)c(F)c4F)c4ccc([nH]4)c(-c4c(F)c(F)c(F)c(F)c4F)c4nc(c(-c5c(F)c(F)c(F)c(F)c5F)c5ccc2[nH]5)C=C4)C=C3)cc1
REMARK SMILES IDX 21 1 20 2 18 3 19 4 17 6 11 7 12 8 13 9 16 10 15 11 14 12
REMARK SMILES IDX 10 13 9 16 8 17 4 18 5 19 6 20 7 21 2 22 1 23 3 24 22 25
REMARK SMILES IDX 23 26 24 27 25 28 26 29 27 31 28 32 29 33 90 34 30 35 89 36
REMARK SMILES IDX 31 37 32 38 33 39 83 40 34 41 88 42 82 43 84 44 35 45 87 46
REMARK SMILES IDX 81 47 80 48 36 50 68 51 48 52 67 53 49 54 52 55 66 56 85 57
REMARK SMILES IDX 50 58 51 59 65 61 86 62 53 63 37 64 38 65 46 66 39 67 40 68
REMARK SMILES IDX 44 69 47 70 41 71 42 72 45 73 43 74 69 75 70 76 78 77 71 78
REMARK SMILES IDX 72 79 76 80 79 81 73 82 74 83 77 84 75 85 54 86 55 87 63 88
REMARK SMILES IDX 56 89 57 90 61 91 64 92 58 93 59 94 62 95 60 96
REMARK H PARENT 20 5 10 14 10 15 25 30 84 49 52 60
REMARK Flexibility Score: inf
ROOT
ATOM      1  C   UNL A   1      38.923  22.424  26.239  1.00  0.00     0.116 C 
ENDROOT
BRANCH   1   2
ATOM      2  N   UNL A   1      38.164  22.532  25.012  1.00  0.00    -0.356 N 
ATOM      3  C   UNL A   1      36.850  22.446  24.704  1.00  0.00     0.229 C 
ATOM      4  O   UNL A   1      36.607  22.518  23.491  1.00  0.00    -0.275 OA
ATOM      5  H   UNL A   1      38.731  22.708  24.225  1.00  0.00     0.163 HD
BRANCH   3   6
ATOM      6  C   UNL A   1      35.678  22.289  25.675  1.00  0.00     0.140 C 
ATOM      7  C   UNL A   1      34.407  21.518  25.237  1.00  0.00     0.198 C 
ATOM      8  C   UNL A   1      33.288  22.348  25.943  1.00  0.00     0.048 C 
ATOM      9  C   UNL A   1      33.064  23.659  25.178  1.00  0.00     0.010 C 
ATOM     10  C   UNL A   1      33.983  22.863  27.213  1.00  0.00     0.014 C 
ATOM     11  C   UNL A   1      35.124  23.524  26.425  1.00  0.00     0.008 C 
ATOM     12  C   UNL A   1      34.302  24.478  25.555  1.00  0.00     0.005 C 
BRANCH   7  13
ATOM     13  N   UNL A   1      34.334  20.145  25.759  1.00  0.00    -0.338 N 
ATOM     14  H   UNL A   1      34.990  19.565  25.235  1.00  0.00     0.346 HD
ATOM     15  H   UNL A   1      34.565  20.188  26.752  1.00  0.00     0.346 HD
BRANCH  13  16
ATOM     16  C   UNL A   1      33.007  19.552  25.652  1.00  0.00     0.317 C 
BRANCH  16  17
ATOM     17  C   UNL A   1      32.970  18.623  24.489  1.00  0.00     0.093 A 
ATOM     18  N   UNL A   1      33.274  17.278  24.426  1.00  0.00    -0.327 N 
ATOM     19  C   UNL A   1      32.966  16.872  23.140  1.00  0.00     0.200 A 
ATOM     20  N   UNL A   1      32.577  17.863  22.378  1.00  0.00    -0.245 NA
ATOM     21  C   UNL A   1      32.578  18.949  23.200  1.00  0.00     0.140 A 
BRANCH  18  22
ATOM     22  C   UNL A   1      33.777  16.314  25.404  1.00  0.00     0.082 C 
ATOM     23  C   UNL A   1      32.903  15.051  25.452  1.00  0.00     0.031 C 
ATOM     24  C   UNL A   1      35.241  15.887  25.307  1.00  0.00     0.031 C 
ENDBRANCH  18  22
ENDBRANCH  16  17
ENDBRANCH  13  16
ENDBRANCH   7  13
ENDBRANCH   3   6
ENDBRANCH   1   2
BRANCH   1  25
ATOM     25  C   UNL A   1      39.804  21.167  26.257  1.00  0.00     0.023 C 
BRANCH  25  26
ATOM     26  C   UNL A   1      41.302  21.367  26.013  1.00  0.00     0.023 C 
BRANCH  26  27
ATOM     27  C   UNL A   1      42.190  20.238  26.514  1.00  0.00     0.116 C 
BRANCH  27  28
ATOM     28  N   UNL A   1      43.240  19.852  25.566  1.00  0.00    -0.352 N 
ATOM     29  C   UNL A   1      44.026  20.693  24.800  1.00  0.00     0.251 C 
ATOM     30  H   UNL A   1      43.404  18.887  25.465  1.00  0.00     0.163 HD
ATOM     31  O   UNL A   1      44.615  20.302  23.799  1.00  0.00    -0.269 OA
BRANCH  29  32
ATOM     32  C   UNL A   1      44.153  22.088  25.240  1.00  0.00     0.039 A 
ATOM     33  C   UNL A   1      43.509  23.135  24.575  1.00  0.00     0.014 A 
ATOM     34  C   UNL A   1      44.841  22.292  26.432  1.00  0.00     0.014 A 
ATOM     35  C   UNL A   1      43.474  24.388  25.181  1.00  0.00     0.010 A 
ATOM     36  C   UNL A   1      44.671  23.478  27.095  1.00  0.00     0.010 A 
ATOM     37  C   UNL A   1      44.034  24.545  26.457  1.00  0.00    -0.014 A 
BRANCH  37  38
ATOM     38  C   UNL A   1      43.885  25.784  27.212  1.00  0.00     0.031 A 
ATOM     39  C   UNL A   1      44.852  26.871  26.879  1.00  0.00     0.074 A 
ATOM     40  C   UNL A   1      42.766  26.022  27.931  1.00  0.00     0.049 A 
ATOM     41  N   UNL A   1      45.686  27.471  27.664  1.00  0.00    -0.248 NA
ATOM     42  C   UNL A   1      44.962  27.291  25.471  1.00  0.00     0.031 C 
ATOM     43  C   UNL A   1      41.586  25.153  28.067  1.00  0.00     0.029 A 
ATOM     44  N   UNL A   1      42.385  27.148  28.591  1.00  0.00    -0.354 N 
ATOM     45  C   UNL A   1      46.300  28.464  26.896  1.00  0.00     0.074 A 
ATOM     46  C   UNL A   1      45.941  28.196  25.531  1.00  0.00     0.031 C 
ATOM     47  C   UNL A   1      40.549  25.867  28.553  1.00  0.00     0.029 A 
ATOM     48  C   UNL A   1      41.041  27.174  28.941  1.00  0.00     0.049 A 
ATOM     49  H   UNL A   1      43.007  27.882  28.802  1.00  0.00     0.167 HD
ATOM     50  C   UNL A   1      46.845  29.570  27.480  1.00  0.00     0.037 A 
ATOM     51  C   UNL A   1      40.369  28.199  29.510  1.00  0.00     0.037 A 
ATOM     52  C   UNL A   1      47.009  29.367  28.896  1.00  0.00     0.049 A 
ATOM     53  C   UNL A   1      41.377  29.080  30.138  1.00  0.00     0.074 A 
ATOM     54  C   UNL A   1      47.799  28.579  29.705  1.00  0.00     0.029 A 
ATOM     55  N   UNL A   1      45.979  29.825  29.676  1.00  0.00    -0.354 N 
ATOM     56  N   UNL A   1      42.118  28.724  31.151  1.00  0.00    -0.248 NA
ATOM     57  C   UNL A   1      41.837  30.254  29.410  1.00  0.00     0.031 C 
ATOM     58  C   UNL A   1      47.009  28.308  30.862  1.00  0.00     0.029 A 
ATOM     59  C   UNL A   1      45.789  28.973  30.728  1.00  0.00     0.049 A 
ATOM     60  H   UNL A   1      45.456  30.641  29.504  1.00  0.00     0.167 HD
ATOM     61  C   UNL A   1      43.331  29.351  30.933  1.00  0.00     0.074 A 
ATOM     62  C   UNL A   1      43.045  30.399  29.960  1.00  0.00     0.031 C 
ATOM     63  C   UNL A   1      44.494  28.764  31.337  1.00  0.00     0.037 A 
BRANCH  50  64
ATOM     64  C   UNL A   1      46.825  30.974  26.898  1.00  0.00     0.064 A 
ATOM     65  C   UNL A   1      48.015  31.737  26.915  1.00  0.00     0.173 A 
ATOM     66  C   UNL A   1      45.649  31.710  26.635  1.00  0.00     0.173 A 
ATOM     67  F   UNL A   1      49.199  31.153  27.161  1.00  0.00    -0.203 F 
ATOM     68  C   UNL A   1      48.011  33.130  26.782  1.00  0.00     0.198 A 
ATOM     69  C   UNL A   1      45.656  33.093  26.450  1.00  0.00     0.198 A 
ATOM     70  F   UNL A   1      44.435  31.150  26.660  1.00  0.00    -0.203 F 
ATOM     71  F   UNL A   1      49.149  33.819  26.945  1.00  0.00    -0.200 F 
ATOM     72  C   UNL A   1      46.828  33.808  26.559  1.00  0.00     0.200 A 
ATOM     73  F   UNL A   1      44.495  33.734  26.252  1.00  0.00    -0.200 F 
ATOM     74  F   UNL A   1      46.809  35.146  26.500  1.00  0.00    -0.200 F 
ENDBRANCH  50  64
BRANCH  51  75
ATOM     75  C   UNL A   1      38.950  28.579  29.360  1.00  0.00     0.064 A 
ATOM     76  C   UNL A   1      38.123  28.756  30.480  1.00  0.00     0.173 A 
ATOM     77  C   UNL A   1      38.454  29.049  28.128  1.00  0.00     0.173 A 
ATOM     78  F   UNL A   1      38.539  28.362  31.691  1.00  0.00    -0.203 F 
ATOM     79  C   UNL A   1      36.886  29.400  30.380  1.00  0.00     0.198 A 
ATOM     80  C   UNL A   1      37.221  29.695  28.033  1.00  0.00     0.198 A 
ATOM     81  F   UNL A   1      39.193  28.968  27.011  1.00  0.00    -0.203 F 
ATOM     82  F   UNL A   1      36.148  29.602  31.481  1.00  0.00    -0.200 F 
ATOM     83  C   UNL A   1      36.442  29.881  29.160  1.00  0.00     0.200 A 
ATOM     84  F   UNL A   1      36.822  30.190  26.853  1.00  0.00    -0.200 F 
ATOM     85  F   UNL A   1      35.287  30.553  29.074  1.00  0.00    -0.200 F 
ENDBRANCH  51  75
BRANCH  63  86
ATOM     86  C   UNL A   1      44.386  27.661  32.350  1.00  0.00     0.064 A 
ATOM     87  C   UNL A   1      44.378  26.293  32.032  1.00  0.00     0.173 A 
ATOM     88  C   UNL A   1      44.407  28.007  33.706  1.00  0.00     0.173 A 
ATOM     89  F   UNL A   1      44.446  25.880  30.763  1.00  0.00    -0.203 F 
ATOM     90  C   UNL A   1      44.350  25.318  33.026  1.00  0.00     0.198 A 
ATOM     91  C   UNL A   1      44.416  27.032  34.699  1.00  0.00     0.198 A 
ATOM     92  F   UNL A   1      44.467  29.298  34.068  1.00  0.00    -0.203 F 
ATOM     93  F   UNL A   1      44.329  24.019  32.695  1.00  0.00    -0.200 F 
ATOM     94  C   UNL A   1      44.377  25.689  34.360  1.00  0.00     0.200 A 
ATOM     95  F   UNL A   1      44.488  27.395  35.987  1.00  0.00    -0.200 F 
ATOM     96  F   UNL A   1      44.392  24.752  35.319  1.00  0.00    -0.200 F 
ENDBRANCH  63  86
ENDBRANCH  37  38
ENDBRANCH  29  32
ENDBRANCH  27  28
ENDBRANCH  26  27
ENDBRANCH  25  26
ENDBRANCH   1  25
TORSDOF 15
ENDMDL
MODEL 2
REMARK VINA RESULT:     -12.4      4.180      9.172
REMARK SMILES CC(C)n1cncc1C[NH2+][C@H]1[C@@H]2CC[C@@H](C2)[C@@H]1C(=O)NCCCCNC(=O)c1ccc(-c2c3nc(c(-c4c(F)c(F)c(F)c(F)c4F)c4ccc([nH]4)c(-c4c(F)c(F)c(F)c(F)c4F)c4nc(c(-c5c(F)c(F)c(F)c(F)c5F)c5ccc2[nH]5)C=C4)C=C3)cc1
REMARK SMILES IDX 21 1 20 2 18 3 19 4 17 6 11 7 12 8 13 9 16 10 15 11 14 12
REMARK SMILES IDX 10 13 9 16 8 17 4 18 5 19 6 20 7 21 2 22 1 23 3 24 22 25
REMARK SMILES IDX 23 26 24 27 25 28 26 29 27 31 28 32 29 33 90 34 30 35 89 36
REMARK SMILES IDX 31 37 32 38 33 39 83 40 34 41 88 42 82 43 84 44 35 45 87 46
REMARK SMILES IDX 81 47 80 48 36 50 68 51 48 52 67 53 49 54 52 55 66 56 85 57
REMARK SMILES IDX 50 58 51 59 65 61 86 62 53 63 37 64 38 65 46 66 39 67 40 68
REMARK SMILES IDX 44 69 47 70 41 71 42 72 45 73 43 74 69 75 70 76 78 77 71 78
REMARK SMILES IDX 72 79 76 80 79 81 73 82 74 83 77 84 75 85 54 86 55 87 63 88
REMARK SMILES IDX 56 89 57 90 61 91 64 92 58 93 59 94 62 95 60 96
REMARK H PARENT 20 5 10 14 10 15 25 30 84 49 52 60
REMARK Flexibility Score: inf
ROOT
ATOM      1  C   UNL A   1      32.940  29.920  26.123  1.00  0.00     0.116 C 
ENDROOT
BRANCH   1   2
ATOM      2  N   UNL A   1      33.607  29.687  24.860  1.00  0.00    -0.356 N 
ATOM      3  C   UNL A   1      33.664  28.644  24.001  1.00  0.00     0.229 C 
ATOM      4  O   UNL A   1      34.433  28.816  23.044  1.00  0.00    -0.275 OA
ATOM      5  H   UNL A   1      34.137  30.461  24.559  1.00  0.00     0.163 HD
BRANCH   3   6
ATOM      6  C   UNL A   1      32.890  27.327  24.088  1.00  0.00     0.140 C 
ATOM      7  C   UNL A   1      33.385  26.085  23.304  1.00  0.00     0.198 C 
ATOM      8  C   UNL A   1      32.031  25.436  22.875  1.00  0.00     0.048 C 
ATOM      9  C   UNL A   1      31.423  26.239  21.717  1.00  0.00     0.010 C 
ATOM     10  C   UNL A   1      31.083  25.812  24.024  1.00  0.00     0.014 C 
ATOM     11  C   UNL A   1      31.357  27.316  23.874  1.00  0.00     0.008 C 
ATOM     12  C   UNL A   1      30.919  27.503  22.419  1.00  0.00     0.005 C 
BRANCH   7  13
ATOM     13  N   UNL A   1      34.101  25.104  24.134  1.00  0.00    -0.338 N 
ATOM     14  H   UNL A   1      35.043  25.456  24.309  1.00  0.00     0.346 HD
ATOM     15  H   UNL A   1      33.566  24.991  24.995  1.00  0.00     0.346 HD
BRANCH  13  16
ATOM     16  C   UNL A   1      34.207  23.788  23.516  1.00  0.00     0.317 C 
BRANCH  16  17
ATOM     17  C   UNL A   1      34.336  22.751  24.577  1.00  0.00     0.093 A 
ATOM     18  N   UNL A   1      35.471  22.209  25.147  1.00  0.00    -0.327 N 
ATOM     19  C   UNL A   1      35.034  21.373  26.158  1.00  0.00     0.200 A 
ATOM     20  N   UNL A   1      33.729  21.284  26.210  1.00  0.00    -0.245 NA
ATOM     21  C   UNL A   1      33.288  22.128  25.237  1.00  0.00     0.140 A 
BRANCH  18  22
ATOM     22  C   UNL A   1      36.902  22.389  24.904  1.00  0.00     0.082 C 
ATOM     23  C   UNL A   1      37.480  23.529  25.757  1.00  0.00     0.031 C 
ATOM     24  C   UNL A   1      37.815  21.172  25.039  1.00  0.00     0.031 C 
ENDBRANCH  18  22
ENDBRANCH  16  17
ENDBRANCH  13  16
ENDBRANCH   7  13
ENDBRANCH   3   6
ENDBRANCH   1   2
BRANCH   1  25
ATOM     25  C   UNL A   1      31.617  30.679  25.939  1.00  0.00     0.023 C 
BRANCH  25  26
ATOM     26  C   UNL A   1      31.368  31.871  26.866  1.00  0.00     0.023 C 
BRANCH  26  27
ATOM     27  C   UNL A   1      32.611  32.665  27.238  1.00  0.00     0.116 C 
BRANCH  27  28
ATOM     28  N   UNL A   1      32.330  34.057  27.604  1.00  0.00    -0.352 N 
ATOM     29  C   UNL A   1      32.921  34.792  28.615  1.00  0.00     0.251 C 
ATOM     30  H   UNL A   1      31.646  34.519  27.069  1.00  0.00     0.163 HD
ATOM     31  O   UNL A   1      32.399  35.800  29.077  1.00  0.00    -0.269 OA
BRANCH  29  32
ATOM     32  C   UNL A   1      34.223  34.333  29.112  1.00  0.00     0.039 A 
ATOM     33  C   UNL A   1      34.336  33.482  30.215  1.00  0.00     0.014 A 
ATOM     34  C   UNL A   1      35.330  34.687  28.346  1.00  0.00     0.014 A 
ATOM     35  C   UNL A   1      35.571  32.898  30.483  1.00  0.00     0.010 A 
ATOM     36  C   UNL A   1      36.497  33.993  28.516  1.00  0.00     0.010 A 
ATOM     37  C   UNL A   1      36.642  33.136  29.609  1.00  0.00    -0.014 A 
BRANCH  37  38
ATOM     38  C   UNL A   1      37.910  32.426  29.740  1.00  0.00     0.031 A 
ATOM     39  C   UNL A   1      37.920  31.017  29.251  1.00  0.00     0.074 A 
ATOM     40  C   UNL A   1      39.053  33.099  29.997  1.00  0.00     0.049 A 
ATOM     41  N   UNL A   1      38.207  29.942  29.910  1.00  0.00    -0.248 NA
ATOM     42  C   UNL A   1      37.477  30.759  27.870  1.00  0.00     0.031 C 
ATOM     43  C   UNL A   1      39.219  34.551  30.171  1.00  0.00     0.029 A 
ATOM     44  N   UNL A   1      40.335  32.647  30.031  1.00  0.00    -0.354 N 
ATOM     45  C   UNL A   1      38.156  28.892  28.988  1.00  0.00     0.074 A 
ATOM     46  C   UNL A   1      37.544  29.428  27.803  1.00  0.00     0.031 C 
ATOM     47  C   UNL A   1      40.523  34.878  30.053  1.00  0.00     0.029 A 
ATOM     48  C   UNL A   1      41.293  33.652  29.992  1.00  0.00     0.049 A 
ATOM     49  H   UNL A   1      40.564  31.690  30.077  1.00  0.00     0.167 HD
ATOM     50  C   UNL A   1      38.853  27.738  29.195  1.00  0.00     0.037 A 
ATOM     51  C   UNL A   1      42.633  33.494  29.914  1.00  0.00     0.037 A 
ATOM     52  C   UNL A   1      39.286  27.645  30.565  1.00  0.00     0.049 A 
ATOM     53  C   UNL A   1      42.933  32.118  30.365  1.00  0.00     0.074 A 
ATOM     54  C   UNL A   1      38.682  27.473  31.792  1.00  0.00     0.029 A 
ATOM     55  N   UNL A   1      40.553  28.108  30.810  1.00  0.00    -0.354 N 
ATOM     56  N   UNL A   1      42.741  31.700  31.586  1.00  0.00    -0.248 NA
ATOM     57  C   UNL A   1      43.110  31.073  29.367  1.00  0.00     0.031 C 
ATOM     58  C   UNL A   1      39.500  28.181  32.722  1.00  0.00     0.029 A 
ATOM     59  C   UNL A   1      40.587  28.720  32.032  1.00  0.00     0.049 A 
ATOM     60  H   UNL A   1      41.320  28.014  30.200  1.00  0.00     0.167 HD
ATOM     61  C   UNL A   1      42.357  30.379  31.445  1.00  0.00     0.074 A 
ATOM     62  C   UNL A   1      42.766  30.008  30.096  1.00  0.00     0.031 C 
ATOM     63  C   UNL A   1      41.481  29.817  32.328  1.00  0.00     0.037 A 
BRANCH  50  64
ATOM     64  C   UNL A   1      39.529  26.912  28.113  1.00  0.00     0.064 A 
ATOM     65  C   UNL A   1      39.514  25.502  28.222  1.00  0.00     0.173 A 
ATOM     66  C   UNL A   1      40.452  27.428  27.178  1.00  0.00     0.173 A 
ATOM     67  F   UNL A   1      38.685  24.890  29.082  1.00  0.00    -0.203 F 
ATOM     68  C   UNL A   1      40.418  24.691  27.527  1.00  0.00     0.198 A 
ATOM     69  C   UNL A   1      41.316  26.611  26.448  1.00  0.00     0.198 A 
ATOM     70  F   UNL A   1      40.642  28.741  27.011  1.00  0.00    -0.203 F 
ATOM     71  F   UNL A   1      40.455  23.373  27.771  1.00  0.00    -0.200 F 
ATOM     72  C   UNL A   1      41.326  25.248  26.647  1.00  0.00     0.200 A 
ATOM     73  F   UNL A   1      42.200  27.173  25.611  1.00  0.00    -0.200 F 
ATOM     74  F   UNL A   1      42.238  24.484  26.033  1.00  0.00    -0.200 F 
ENDBRANCH  50  64
BRANCH  51  75
ATOM     75  C   UNL A   1      43.637  34.368  29.273  1.00  0.00     0.064 A 
ATOM     76  C   UNL A   1      43.898  34.286  27.897  1.00  0.00     0.173 A 
ATOM     77  C   UNL A   1      44.154  35.490  29.949  1.00  0.00     0.173 A 
ATOM     78  F   UNL A   1      43.414  33.264  27.180  1.00  0.00    -0.203 F 
ATOM     79  C   UNL A   1      44.607  35.288  27.227  1.00  0.00     0.198 A 
ATOM     80  C   UNL A   1      44.856  36.491  29.277  1.00  0.00     0.198 A 
ATOM     81  F   UNL A   1      43.914  35.679  31.256  1.00  0.00    -0.203 F 
ATOM     82  F   UNL A   1      44.788  35.206  25.902  1.00  0.00    -0.200 F 
ATOM     83  C   UNL A   1      45.072  36.396  27.914  1.00  0.00     0.200 A 
ATOM     84  F   UNL A   1      45.267  37.576  29.948  1.00  0.00    -0.200 F 
ATOM     85  F   UNL A   1      45.696  37.388  27.264  1.00  0.00    -0.200 F 
ENDBRANCH  51  75
BRANCH  63  86
ATOM     86  C   UNL A   1      41.282  30.526  33.636  1.00  0.00     0.064 A 
ATOM     87  C   UNL A   1      40.266  31.464  33.881  1.00  0.00     0.173 A 
ATOM     88  C   UNL A   1      42.087  30.151  34.718  1.00  0.00     0.173 A 
ATOM     89  F   UNL A   1      39.400  31.808  32.923  1.00  0.00    -0.203 F 
ATOM     90  C   UNL A   1      40.091  32.030  35.142  1.00  0.00     0.198 A 
ATOM     91  C   UNL A   1      41.889  30.690  35.986  1.00  0.00     0.198 A 
ATOM     92  F   UNL A   1      43.041  29.222  34.555  1.00  0.00    -0.203 F 
ATOM     93  F   UNL A   1      39.120  32.934  35.345  1.00  0.00    -0.200 F 
ATOM     94  C   UNL A   1      40.898  31.637  36.196  1.00  0.00     0.200 A 
ATOM     95  F   UNL A   1      42.642  30.273  37.012  1.00  0.00    -0.200 F 
ATOM     96  F   UNL A   1      40.705  32.150  37.419  1.00  0.00    -0.200 F 
ENDBRANCH  63  86
ENDBRANCH  37  38
ENDBRANCH  29  32
ENDBRANCH  27  28
ENDBRANCH  26  27
ENDBRANCH  25  26
ENDBRANCH   1  25
TORSDOF 15
ENDMDL
MODEL 3
REMARK VINA RESULT:     -12.3      3.465      8.580
REMARK SMILES CC(C)n1cncc1C[NH2+][C@H]1[C@@H]2CC[C@@H](C2)[C@@H]1C(=O)NCCCCNC(=O)c1ccc(-c2c3nc(c(-c4c(F)c(F)c(F)c(F)c4F)c4ccc([nH]4)c(-c4c(F)c(F)c(F)c(F)c4F)c4nc(c(-c5c(F)c(F)c(F)c(F)c5F)c5ccc2[nH]5)C=C4)C=C3)cc1
REMARK SMILES IDX 21 1 20 2 18 3 19 4 17 6 11 7 12 8 13 9 16 10 15 11 14 12
REMARK SMILES IDX 10 13 9 16 8 17 4 18 5 19 6 20 7 21 2 22 1 23 3 24 22 25
REMARK SMILES IDX 23 26 24 27 25 28 26 29 27 31 28 32 29 33 90 34 30 35 89 36
REMARK SMILES IDX 31 37 32 38 33 39 83 40 34 41 88 42 82 43 84 44 35 45 87 46
REMARK SMILES IDX 81 47 80 48 36 50 68 51 48 52 67 53 49 54 52 55 66 56 85 57
REMARK SMILES IDX 50 58 51 59 65 61 86 62 53 63 37 64 38 65 46 66 39 67 40 68
REMARK SMILES IDX 44 69 47 70 41 71 42 72 45 73 43 74 69 75 70 76 78 77 71 78
REMARK SMILES IDX 72 79 76 80 79 81 73 82 74 83 77 84 75 85 54 86 55 87 63 88
REMARK SMILES IDX 56 89 57 90 61 91 64 92 58 93 59 94 62 95 60 96
REMARK H PARENT 20 5 10 14 10 15 25 30 84 49 52 60
REMARK Flexibility Score: inf
ROOT
ATOM      1  C   UNL A   1      31.677  28.420  27.065  1.00  0.00     0.116 C 
ENDROOT
BRANCH   1   2
ATOM      2  N   UNL A   1      31.011  27.136  27.069  1.00  0.00    -0.356 N 
ATOM      3  C   UNL A   1      30.755  26.202  26.126  1.00  0.00     0.229 C 
ATOM      4  O   UNL A   1      30.068  25.250  26.526  1.00  0.00    -0.275 OA
ATOM      5  H   UNL A   1      30.668  26.886  27.959  1.00  0.00     0.163 HD
BRANCH   3   6
ATOM      6  C   UNL A   1      31.225  26.200  24.670  1.00  0.00     0.140 C 
ATOM      7  C   UNL A   1      32.707  26.504  24.334  1.00  0.00     0.198 C 
ATOM      8  C   UNL A   1      32.559  27.309  23.003  1.00  0.00     0.048 C 
ATOM      9  C   UNL A   1      32.075  28.731  23.318  1.00  0.00     0.010 C 
ATOM     10  C   UNL A   1      31.299  26.703  22.366  1.00  0.00     0.014 C 
ATOM     11  C   UNL A   1      30.431  26.989  23.601  1.00  0.00     0.008 C 
ATOM     12  C   UNL A   1      30.603  28.509  23.677  1.00  0.00     0.005 C 
BRANCH   7  13
ATOM     13  N   UNL A   1      33.508  25.306  24.038  1.00  0.00    -0.338 N 
ATOM     14  H   UNL A   1      32.891  24.494  24.051  1.00  0.00     0.346 HD
ATOM     15  H   UNL A   1      33.937  25.450  23.124  1.00  0.00     0.346 HD
BRANCH  13  16
ATOM     16  C   UNL A   1      34.588  25.081  24.990  1.00  0.00     0.317 C 
BRANCH  16  17
ATOM     17  C   UNL A   1      34.409  23.753  25.639  1.00  0.00     0.093 A 
ATOM     18  N   UNL A   1      35.334  22.755  25.876  1.00  0.00    -0.327 N 
ATOM     19  C   UNL A   1      34.675  21.783  26.606  1.00  0.00     0.200 A 
ATOM     20  N   UNL A   1      33.404  22.051  26.771  1.00  0.00    -0.245 NA
ATOM     21  C   UNL A   1      33.228  23.263  26.176  1.00  0.00     0.140 A 
BRANCH  18  22
ATOM     22  C   UNL A   1      36.750  22.599  25.547  1.00  0.00     0.082 C 
ATOM     23  C   UNL A   1      36.961  22.411  24.036  1.00  0.00     0.031 C 
ATOM     24  C   UNL A   1      37.727  23.665  26.042  1.00  0.00     0.031 C 
ENDBRANCH  18  22
ENDBRANCH  16  17
ENDBRANCH  13  16
ENDBRANCH   7  13
ENDBRANCH   3   6
ENDBRANCH   1   2
BRANCH   1  25
ATOM     25  C   UNL A   1      33.195  28.277  27.246  1.00  0.00     0.023 C 
BRANCH  25  26
ATOM     26  C   UNL A   1      34.080  29.264  26.480  1.00  0.00     0.023 C 
BRANCH  26  27
ATOM     27  C   UNL A   1      35.283  29.782  27.254  1.00  0.00     0.116 C 
BRANCH  27  28
ATOM     28  N   UNL A   1      35.041  31.062  27.926  1.00  0.00    -0.352 N 
ATOM     29  C   UNL A   1      35.518  31.463  29.160  1.00  0.00     0.251 C 
ATOM     30  H   UNL A   1      34.477  31.709  27.444  1.00  0.00     0.163 HD
ATOM     31  O   UNL A   1      34.999  32.374  29.795  1.00  0.00    -0.269 OA
BRANCH  29  32
ATOM     32  C   UNL A   1      36.697  30.767  29.688  1.00  0.00     0.039 A 
ATOM     33  C   UNL A   1      36.614  29.490  30.249  1.00  0.00     0.014 A 
ATOM     34  C   UNL A   1      37.922  31.395  29.479  1.00  0.00     0.014 A 
ATOM     35  C   UNL A   1      37.793  28.796  30.506  1.00  0.00     0.010 A 
ATOM     36  C   UNL A   1      39.068  30.653  29.585  1.00  0.00     0.010 A 
ATOM     37  C   UNL A   1      39.018  29.374  30.143  1.00  0.00    -0.014 A 
BRANCH  37  38
ATOM     38  C   UNL A   1      40.271  28.634  30.233  1.00  0.00     0.031 A 
ATOM     39  C   UNL A   1      40.830  28.461  31.606  1.00  0.00     0.074 A 
ATOM     40  C   UNL A   1      40.717  27.905  29.186  1.00  0.00     0.049 A 
ATOM     41  N   UNL A   1      41.984  28.832  32.054  1.00  0.00    -0.248 NA
ATOM     42  C   UNL A   1      39.960  27.868  32.637  1.00  0.00     0.031 C 
ATOM     43  C   UNL A   1      40.071  27.731  27.875  1.00  0.00     0.029 A 
ATOM     44  N   UNL A   1      41.778  27.057  29.110  1.00  0.00    -0.354 N 
ATOM     45  C   UNL A   1      42.061  28.366  33.370  1.00  0.00     0.074 A 
ATOM     46  C   UNL A   1      40.736  27.934  33.721  1.00  0.00     0.031 C 
ATOM     47  C   UNL A   1      40.612  26.671  27.239  1.00  0.00     0.029 A 
ATOM     48  C   UNL A   1      41.758  26.220  28.002  1.00  0.00     0.049 A 
ATOM     49  H   UNL A   1      42.497  27.037  29.783  1.00  0.00     0.167 HD
ATOM     50  C   UNL A   1      43.266  28.142  33.969  1.00  0.00     0.037 A 
ATOM     51  C   UNL A   1      42.622  25.219  27.725  1.00  0.00     0.037 A 
ATOM     52  C   UNL A   1      44.326  28.775  33.228  1.00  0.00     0.049 A 
ATOM     53  C   UNL A   1      43.847  25.475  28.514  1.00  0.00     0.074 A 
ATOM     54  C   UNL A   1      44.723  30.068  32.965  1.00  0.00     0.029 A 
ATOM     55  N   UNL A   1      44.962  27.973  32.317  1.00  0.00    -0.354 N 
ATOM     56  N   UNL A   1      44.634  26.496  28.316  1.00  0.00    -0.248 NA
ATOM     57  C   UNL A   1      44.019  24.791  29.787  1.00  0.00     0.031 C 
ATOM     58  C   UNL A   1      45.316  30.029  31.668  1.00  0.00     0.029 A 
ATOM     59  C   UNL A   1      45.290  28.709  31.212  1.00  0.00     0.049 A 
ATOM     60  H   UNL A   1      45.153  27.015  32.438  1.00  0.00     0.167 HD
ATOM     61  C   UNL A   1      45.089  26.835  29.578  1.00  0.00     0.074 A 
ATOM     62  C   UNL A   1      44.821  25.663  30.403  1.00  0.00     0.031 C 
ATOM     63  C   UNL A   1      45.360  28.136  29.886  1.00  0.00     0.037 A 
BRANCH  50  64
ATOM     64  C   UNL A   1      43.570  27.014  34.942  1.00  0.00     0.064 A 
ATOM     65  C   UNL A   1      44.013  27.338  36.245  1.00  0.00     0.173 A 
ATOM     66  C   UNL A   1      43.762  25.667  34.564  1.00  0.00     0.173 A 
ATOM     67  F   UNL A   1      43.891  28.588  36.718  1.00  0.00    -0.203 F 
ATOM     68  C   UNL A   1      44.682  26.416  37.056  1.00  0.00     0.198 A 
ATOM     69  C   UNL A   1      44.384  24.736  35.398  1.00  0.00     0.198 A 
ATOM     70  F   UNL A   1      43.468  25.219  33.340  1.00  0.00    -0.203 F 
ATOM     71  F   UNL A   1      45.204  26.812  38.226  1.00  0.00    -0.200 F 
ATOM     72  C   UNL A   1      44.875  25.116  36.628  1.00  0.00     0.200 A 
ATOM     73  F   UNL A   1      44.576  23.486  34.956  1.00  0.00    -0.200 F 
ATOM     74  F   UNL A   1      45.576  24.250  37.370  1.00  0.00    -0.200 F 
ENDBRANCH  50  64
BRANCH  51  75
ATOM     75  C   UNL A   1      42.380  23.954  27.002  1.00  0.00     0.064 A 
ATOM     76  C   UNL A   1      43.258  23.511  26.001  1.00  0.00     0.173 A 
ATOM     77  C   UNL A   1      41.439  23.020  27.476  1.00  0.00     0.173 A 
ATOM     78  F   UNL A   1      44.201  24.332  25.522  1.00  0.00    -0.203 F 
ATOM     79  C   UNL A   1      43.220  22.196  25.525  1.00  0.00     0.198 A 
ATOM     80  C   UNL A   1      41.406  21.708  27.003  1.00  0.00     0.198 A 
ATOM     81  F   UNL A   1      40.591  23.338  28.466  1.00  0.00    -0.203 F 
ATOM     82  F   UNL A   1      44.111  21.792  24.610  1.00  0.00    -0.200 F 
ATOM     83  C   UNL A   1      42.304  21.292  26.036  1.00  0.00     0.200 A 
ATOM     84  F   UNL A   1      40.541  20.834  27.534  1.00  0.00    -0.200 F 
ATOM     85  F   UNL A   1      42.307  20.017  25.627  1.00  0.00    -0.200 F 
ENDBRANCH  51  75
BRANCH  63  86
ATOM     86  C   UNL A   1      45.537  29.088  28.739  1.00  0.00     0.064 A 
ATOM     87  C   UNL A   1      44.509  29.878  28.201  1.00  0.00     0.173 A 
ATOM     88  C   UNL A   1      46.831  29.287  28.242  1.00  0.00     0.173 A 
ATOM     89  F   UNL A   1      43.264  29.810  28.682  1.00  0.00    -0.203 F 
ATOM     90  C   UNL A   1      44.758  30.797  27.184  1.00  0.00     0.198 A 
ATOM     91  C   UNL A   1      47.085  30.231  27.251  1.00  0.00     0.198 A 
ATOM     92  F   UNL A   1      47.861  28.596  28.754  1.00  0.00    -0.203 F 
ATOM     93  F   UNL A   1      43.754  31.530  26.679  1.00  0.00    -0.200 F 
ATOM     94  C   UNL A   1      46.048  30.978  26.715  1.00  0.00     0.200 A 
ATOM     95  F   UNL A   1      48.342  30.434  26.833  1.00  0.00    -0.200 F 
ATOM     96  F   UNL A   1      46.297  31.890  25.766  1.00  0.00    -0.200 F 
ENDBRANCH  63  86
ENDBRANCH  37  38
ENDBRANCH  29  32
ENDBRANCH  27  28
ENDBRANCH  26  27
ENDBRANCH  25  26
ENDBRANCH   1  25
TORSDOF 15
ENDMDL
