MODEL 1
REMARK VINA RESULT:     -13.0      0.000      0.000
REMARK SMILES COc1cccc(C[N@@H+]2C[C@H](C(=O)NCCCCNC(=O)c3ccc(-c4c5nc(c(-c6c(F)c(F)c(F)c(F)c6F)c6ccc([nH]6)c(-c6c(F)c(F)c(F)c(F)c6F)c6nc(c(-c7c(F)c(F)c(F)c(F)c7F)c7ccc4[nH]7)C=C6)C=C5)cc3)C3(CC[NH+](C)CC3)C2)c1
REMARK SMILES IDX 16 1 15 2 14 3 12 4 13 5 11 7 9 8 10 9 92 10 85 12 86 13
REMARK SMILES IDX 91 14 87 15 90 16 88 17 89 18 8 20 7 21 3 22 4 23 93 24 5 25
REMARK SMILES IDX 6 26 2 27 1 28 17 29 18 30 19 31 20 32 21 34 22 35 23 36
REMARK SMILES IDX 84 37 24 38 83 39 25 40 26 41 27 42 77 43 28 44 82 45 76 46
REMARK SMILES IDX 78 47 29 48 81 49 75 50 74 51 30 53 62 54 42 55 61 56 43 57
REMARK SMILES IDX 46 58 60 59 79 60 44 61 45 62 59 64 80 65 47 66 31 67 32 68
REMARK SMILES IDX 40 69 33 70 34 71 38 72 41 73 35 74 36 75 39 76 37 77 63 78
REMARK SMILES IDX 64 79 72 80 65 81 66 82 70 83 73 84 67 85 68 86 71 87 69 88
REMARK SMILES IDX 48 89 49 90 57 91 50 92 51 93 55 94 58 95 52 96 53 97 56 98
REMARK SMILES IDX 54 99
REMARK H PARENT 14 6 9 11 88 19 19 33 78 52 46 63
REMARK Flexibility Score: inf
ROOT
ATOM      1  C   UNL A   1      31.186  27.427  26.276  1.00  0.00     0.023 C 
ENDROOT
BRANCH   1   2
ATOM      2  C   UNL A   1      32.107  26.230  26.096  1.00  0.00     0.116 C 
BRANCH   2   3
ATOM      3  N   UNL A   1      31.775  25.064  26.876  1.00  0.00    -0.356 N 
ATOM      4  C   UNL A   1      31.949  23.750  26.567  1.00  0.00     0.229 C 
ATOM      5  O   UNL A   1      31.780  22.946  27.491  1.00  0.00    -0.275 OA
ATOM      6  H   UNL A   1      31.366  25.244  27.753  1.00  0.00     0.163 HD
BRANCH   4   7
ATOM      7  C   UNL A   1      32.227  23.231  25.153  1.00  0.00     0.145 C 
ATOM      8  N   UNL A   1      31.889  23.945  22.890  1.00  0.00    -0.330 N 
ATOM      9  C   UNL A   1      31.235  23.882  24.188  1.00  0.00     0.276 C 
ATOM     10  C   UNL A   1      33.333  23.895  23.080  1.00  0.00     0.270 C 
ATOM     11  H   UNL A   1      31.623  23.122  22.350  1.00  0.00     0.348 HD
ATOM     12  C   UNL A   1      33.615  23.207  24.439  1.00  0.00     0.047 C 
ATOM     13  C   UNL A   1      34.079  21.730  24.262  1.00  0.00     0.075 C 
ATOM     14  C   UNL A   1      34.850  23.885  25.057  1.00  0.00     0.075 C 
ATOM     15  C   UNL A   1      34.556  21.113  25.596  1.00  0.00     0.262 C 
ATOM     16  C   UNL A   1      35.223  23.309  26.418  1.00  0.00     0.262 C 
ATOM     17  N   UNL A   1      35.563  21.889  26.338  1.00  0.00    -0.337 N 
ATOM     18  C   UNL A   1      36.921  21.688  25.841  1.00  0.00     0.332 C 
ATOM     19  H   UNL A   1      35.547  21.522  27.289  1.00  0.00     0.347 HD
BRANCH   8  20
ATOM     20  C   UNL A   1      31.402  25.029  22.016  1.00  0.00     0.299 C 
BRANCH  20  21
ATOM     21  C   UNL A   1      31.830  26.449  22.369  1.00  0.00     0.010 A 
ATOM     22  C   UNL A   1      31.269  28.755  22.889  1.00  0.00     0.119 A 
ATOM     23  C   UNL A   1      32.611  29.117  22.845  1.00  0.00     0.046 A 
ATOM     24  C   UNL A   1      30.874  27.439  22.643  1.00  0.00     0.056 A 
ATOM     25  C   UNL A   1      33.576  28.139  22.618  1.00  0.00     0.004 A 
ATOM     26  C   UNL A   1      33.189  26.812  22.400  1.00  0.00     0.010 A 
BRANCH  22  27
ATOM     27  O   UNL A   1      30.342  29.737  23.101  1.00  0.00    -0.497 OA
ATOM     28  C   UNL A   1      29.413  29.776  22.017  1.00  0.00     0.278 C 
ENDBRANCH  22  27
ENDBRANCH  20  21
ENDBRANCH   8  20
ENDBRANCH   4   7
ENDBRANCH   2   3
ENDBRANCH   1   2
BRANCH   1  29
ATOM     29  C   UNL A   1      31.803  28.592  27.054  1.00  0.00     0.023 C 
BRANCH  29  30
ATOM     30  C   UNL A   1      32.621  29.599  26.244  1.00  0.00     0.116 C 
BRANCH  30  31
ATOM     31  N   UNL A   1      32.408  30.991  26.626  1.00  0.00    -0.352 N 
ATOM     32  C   UNL A   1      33.229  31.863  27.304  1.00  0.00     0.251 C 
ATOM     33  H   UNL A   1      31.539  31.367  26.356  1.00  0.00     0.163 HD
ATOM     34  O   UNL A   1      32.840  32.993  27.584  1.00  0.00    -0.269 OA
BRANCH  32  35
ATOM     35  C   UNL A   1      34.564  31.418  27.756  1.00  0.00     0.039 A 
ATOM     36  C   UNL A   1      35.569  32.372  27.922  1.00  0.00     0.014 A 
ATOM     37  C   UNL A   1      34.805  30.082  28.075  1.00  0.00     0.014 A 
ATOM     38  C   UNL A   1      36.775  32.007  28.525  1.00  0.00     0.010 A 
ATOM     39  C   UNL A   1      35.962  29.740  28.766  1.00  0.00     0.010 A 
ATOM     40  C   UNL A   1      36.953  30.703  29.015  1.00  0.00    -0.014 A 
BRANCH  40  41
ATOM     41  C   UNL A   1      38.148  30.331  29.818  1.00  0.00     0.031 A 
ATOM     42  C   UNL A   1      39.156  29.361  29.270  1.00  0.00     0.074 A 
ATOM     43  C   UNL A   1      38.275  30.792  31.079  1.00  0.00     0.049 A 
ATOM     44  N   UNL A   1      40.198  28.829  29.858  1.00  0.00    -0.248 NA
ATOM     45  C   UNL A   1      38.946  28.901  27.889  1.00  0.00     0.031 C 
ATOM     46  C   UNL A   1      37.335  31.689  31.753  1.00  0.00     0.029 A 
ATOM     47  N   UNL A   1      39.242  30.558  32.025  1.00  0.00    -0.354 N 
ATOM     48  C   UNL A   1      40.750  27.956  28.929  1.00  0.00     0.074 A 
ATOM     49  C   UNL A   1      39.898  27.989  27.760  1.00  0.00     0.031 C 
ATOM     50  C   UNL A   1      37.784  31.949  32.992  1.00  0.00     0.029 A 
ATOM     51  C   UNL A   1      39.020  31.206  33.216  1.00  0.00     0.049 A 
ATOM     52  H   UNL A   1      40.023  29.979  31.866  1.00  0.00     0.167 HD
ATOM     53  C   UNL A   1      41.878  27.214  29.032  1.00  0.00     0.037 A 
ATOM     54  C   UNL A   1      39.727  31.199  34.361  1.00  0.00     0.037 A 
ATOM     55  C   UNL A   1      42.745  27.210  30.179  1.00  0.00     0.049 A 
ATOM     56  C   UNL A   1      40.986  30.381  34.443  1.00  0.00     0.074 A 
ATOM     57  C   UNL A   1      43.946  26.544  30.352  1.00  0.00     0.029 A 
ATOM     58  N   UNL A   1      42.504  27.912  31.352  1.00  0.00    -0.354 N 
ATOM     59  N   UNL A   1      41.533  29.611  33.533  1.00  0.00    -0.248 NA
ATOM     60  C   UNL A   1      41.730  30.433  35.709  1.00  0.00     0.031 C 
ATOM     61  C   UNL A   1      44.414  26.813  31.642  1.00  0.00     0.029 A 
ATOM     62  C   UNL A   1      43.527  27.682  32.258  1.00  0.00     0.049 A 
ATOM     63  H   UNL A   1      41.722  28.486  31.516  1.00  0.00     0.167 HD
ATOM     64  C   UNL A   1      42.694  29.110  34.105  1.00  0.00     0.074 A 
ATOM     65  C   UNL A   1      42.782  29.673  35.436  1.00  0.00     0.031 C 
ATOM     66  C   UNL A   1      43.606  28.259  33.575  1.00  0.00     0.037 A 
BRANCH  53  67
ATOM     67  C   UNL A   1      42.246  26.351  27.860  1.00  0.00     0.064 A 
ATOM     68  C   UNL A   1      41.694  25.071  27.690  1.00  0.00     0.173 A 
ATOM     69  C   UNL A   1      43.136  26.816  26.881  1.00  0.00     0.173 A 
ATOM     70  F   UNL A   1      40.847  24.575  28.605  1.00  0.00    -0.203 F 
ATOM     71  C   UNL A   1      42.044  24.278  26.602  1.00  0.00     0.198 A 
ATOM     72  C   UNL A   1      43.461  26.032  25.777  1.00  0.00     0.198 A 
ATOM     73  F   UNL A   1      43.688  28.033  26.992  1.00  0.00    -0.203 F 
ATOM     74  F   UNL A   1      41.544  23.041  26.488  1.00  0.00    -0.200 F 
ATOM     75  C   UNL A   1      42.921  24.762  25.643  1.00  0.00     0.200 A 
ATOM     76  F   UNL A   1      44.299  26.505  24.844  1.00  0.00    -0.200 F 
ATOM     77  F   UNL A   1      43.253  24.000  24.592  1.00  0.00    -0.200 F 
ENDBRANCH  53  67
BRANCH  54  78
ATOM     78  C   UNL A   1      39.278  32.017  35.517  1.00  0.00     0.064 A 
ATOM     79  C   UNL A   1      39.703  33.346  35.663  1.00  0.00     0.173 A 
ATOM     80  C   UNL A   1      38.424  31.494  36.498  1.00  0.00     0.173 A 
ATOM     81  F   UNL A   1      40.537  33.884  34.761  1.00  0.00    -0.203 F 
ATOM     82  C   UNL A   1      39.305  34.113  36.755  1.00  0.00     0.198 A 
ATOM     83  C   UNL A   1      38.006  32.271  37.577  1.00  0.00     0.198 A 
ATOM     84  F   UNL A   1      37.986  30.230  36.403  1.00  0.00    -0.203 F 
ATOM     85  F   UNL A   1      39.761  35.365  36.892  1.00  0.00    -0.200 F 
ATOM     86  C   UNL A   1      38.454  33.577  37.709  1.00  0.00     0.200 A 
ATOM     87  F   UNL A   1      37.172  31.753  38.489  1.00  0.00    -0.200 F 
ATOM     88  F   UNL A   1      38.069  34.316  38.758  1.00  0.00    -0.200 F 
ENDBRANCH  54  78
BRANCH  66  89
ATOM     89  C   UNL A   1      44.797  27.912  34.419  1.00  0.00     0.064 A 
ATOM     90  C   UNL A   1      44.804  26.786  35.253  1.00  0.00     0.173 A 
ATOM     91  C   UNL A   1      45.960  28.694  34.358  1.00  0.00     0.173 A 
ATOM     92  F   UNL A   1      43.709  26.016  35.357  1.00  0.00    -0.203 F 
ATOM     93  C   UNL A   1      45.925  26.466  36.013  1.00  0.00     0.198 A 
ATOM     94  C   UNL A   1      47.089  28.357  35.098  1.00  0.00     0.198 A 
ATOM     95  F   UNL A   1      46.005  29.780  33.571  1.00  0.00    -0.203 F 
ATOM     96  F   UNL A   1      45.895  25.409  36.836  1.00  0.00    -0.200 F 
ATOM     97  C   UNL A   1      47.069  27.246  35.929  1.00  0.00     0.200 A 
ATOM     98  F   UNL A   1      48.197  29.105  35.007  1.00  0.00    -0.200 F 
ATOM     99  F   UNL A   1      48.150  26.933  36.655  1.00  0.00    -0.200 F 
ENDBRANCH  66  89
ENDBRANCH  40  41
ENDBRANCH  32  35
ENDBRANCH  30  31
ENDBRANCH  29  30
ENDBRANCH   1  29
TORSDOF 14
ENDMDL
MODEL 2
REMARK VINA RESULT:     -12.9      3.468      7.217
REMARK SMILES COc1cccc(C[N@@H+]2C[C@H](C(=O)NCCCCNC(=O)c3ccc(-c4c5nc(c(-c6c(F)c(F)c(F)c(F)c6F)c6ccc([nH]6)c(-c6c(F)c(F)c(F)c(F)c6F)c6nc(c(-c7c(F)c(F)c(F)c(F)c7F)c7ccc4[nH]7)C=C6)C=C5)cc3)C3(CC[NH+](C)CC3)C2)c1
REMARK SMILES IDX 16 1 15 2 14 3 12 4 13 5 11 7 9 8 10 9 92 10 85 12 86 13
REMARK SMILES IDX 91 14 87 15 90 16 88 17 89 18 8 20 7 21 3 22 4 23 93 24 5 25
REMARK SMILES IDX 6 26 2 27 1 28 17 29 18 30 19 31 20 32 21 34 22 35 23 36
REMARK SMILES IDX 84 37 24 38 83 39 25 40 26 41 27 42 77 43 28 44 82 45 76 46
REMARK SMILES IDX 78 47 29 48 81 49 75 50 74 51 30 53 62 54 42 55 61 56 43 57
REMARK SMILES IDX 46 58 60 59 79 60 44 61 45 62 59 64 80 65 47 66 31 67 32 68
REMARK SMILES IDX 40 69 33 70 34 71 38 72 41 73 35 74 36 75 39 76 37 77 63 78
REMARK SMILES IDX 64 79 72 80 65 81 66 82 70 83 73 84 67 85 68 86 71 87 69 88
REMARK SMILES IDX 48 89 49 90 57 91 50 92 51 93 55 94 58 95 52 96 53 97 56 98
REMARK SMILES IDX 54 99
REMARK H PARENT 14 6 9 11 88 19 19 33 78 52 46 63
REMARK Flexibility Score: inf
ROOT
ATOM      1  C   UNL A   1      35.135  22.892  23.461  1.00  0.00     0.023 C 
ENDROOT
BRANCH   1   2
ATOM      2  C   UNL A   1      34.401  24.153  23.887  1.00  0.00     0.116 C 
BRANCH   2   3
ATOM      3  N   UNL A   1      34.025  25.047  22.821  1.00  0.00    -0.356 N 
ATOM      4  C   UNL A   1      33.037  25.983  22.797  1.00  0.00     0.229 C 
ATOM      5  O   UNL A   1      33.053  26.770  21.843  1.00  0.00    -0.275 OA
ATOM      6  H   UNL A   1      34.556  24.970  21.996  1.00  0.00     0.163 HD
BRANCH   4   7
ATOM      7  C   UNL A   1      31.884  26.039  23.803  1.00  0.00     0.145 C 
ATOM      8  N   UNL A   1      30.689  24.533  25.235  1.00  0.00    -0.330 N 
ATOM      9  C   UNL A   1      31.248  24.652  23.898  1.00  0.00     0.276 C 
ATOM     10  C   UNL A   1      31.369  25.469  26.121  1.00  0.00     0.270 C 
ATOM     11  H   UNL A   1      29.706  24.802  25.204  1.00  0.00     0.348 HD
ATOM     12  C   UNL A   1      31.956  26.610  25.254  1.00  0.00     0.047 C 
ATOM     13  C   UNL A   1      31.100  27.911  25.340  1.00  0.00     0.075 C 
ATOM     14  C   UNL A   1      33.293  27.036  25.886  1.00  0.00     0.075 C 
ATOM     15  C   UNL A   1      31.793  29.103  24.645  1.00  0.00     0.262 C 
ATOM     16  C   UNL A   1      33.988  28.149  25.110  1.00  0.00     0.262 C 
ATOM     17  N   UNL A   1      33.182  29.367  25.058  1.00  0.00    -0.337 N 
ATOM     18  C   UNL A   1      33.275  30.128  26.300  1.00  0.00     0.332 C 
ATOM     19  H   UNL A   1      33.578  29.959  24.327  1.00  0.00     0.347 HD
BRANCH   8  20
ATOM     20  C   UNL A   1      30.590  23.148  25.733  1.00  0.00     0.299 C 
BRANCH  20  21
ATOM     21  C   UNL A   1      31.894  22.375  25.895  1.00  0.00     0.010 A 
ATOM     22  C   UNL A   1      33.315  20.489  25.323  1.00  0.00     0.119 A 
ATOM     23  C   UNL A   1      34.222  20.840  26.317  1.00  0.00     0.046 A 
ATOM     24  C   UNL A   1      32.155  21.237  25.116  1.00  0.00     0.056 A 
ATOM     25  C   UNL A   1      34.001  21.990  27.069  1.00  0.00     0.004 A 
ATOM     26  C   UNL A   1      32.855  22.761  26.848  1.00  0.00     0.010 A 
BRANCH  22  27
ATOM     27  O   UNL A   1      33.550  19.348  24.607  1.00  0.00    -0.497 OA
ATOM     28  C   UNL A   1      32.902  18.238  25.228  1.00  0.00     0.278 C 
ENDBRANCH  22  27
ENDBRANCH  20  21
ENDBRANCH   8  20
ENDBRANCH   4   7
ENDBRANCH   2   3
ENDBRANCH   1   2
BRANCH   1  29
ATOM     29  C   UNL A   1      36.654  22.949  23.643  1.00  0.00     0.023 C 
BRANCH  29  30
ATOM     30  C   UNL A   1      37.163  23.312  25.040  1.00  0.00     0.116 C 
BRANCH  30  31
ATOM     31  N   UNL A   1      38.293  22.509  25.494  1.00  0.00    -0.352 N 
ATOM     32  C   UNL A   1      39.357  22.845  26.299  1.00  0.00     0.251 C 
ATOM     33  H   UNL A   1      38.294  21.578  25.174  1.00  0.00     0.163 HD
ATOM     34  O   UNL A   1      40.249  22.031  26.522  1.00  0.00    -0.269 OA
BRANCH  32  35
ATOM     35  C   UNL A   1      39.462  24.212  26.848  1.00  0.00     0.039 A 
ATOM     36  C   UNL A   1      38.997  24.455  28.142  1.00  0.00     0.014 A 
ATOM     37  C   UNL A   1      40.073  25.233  26.119  1.00  0.00     0.014 A 
ATOM     38  C   UNL A   1      39.257  25.685  28.749  1.00  0.00     0.010 A 
ATOM     39  C   UNL A   1      40.420  26.418  26.758  1.00  0.00     0.010 A 
ATOM     40  C   UNL A   1      40.031  26.651  28.087  1.00  0.00    -0.014 A 
BRANCH  40  41
ATOM     41  C   UNL A   1      40.476  27.894  28.770  1.00  0.00     0.031 A 
ATOM     42  C   UNL A   1      41.884  28.016  29.280  1.00  0.00     0.074 A 
ATOM     43  C   UNL A   1      39.584  28.875  29.018  1.00  0.00     0.049 A 
ATOM     44  N   UNL A   1      42.427  28.969  29.996  1.00  0.00    -0.248 NA
ATOM     45  C   UNL A   1      42.796  26.903  28.973  1.00  0.00     0.031 C 
ATOM     46  C   UNL A   1      38.172  28.855  28.634  1.00  0.00     0.029 A 
ATOM     47  N   UNL A   1      39.732  30.077  29.666  1.00  0.00    -0.354 N 
ATOM     48  C   UNL A   1      43.730  28.557  30.244  1.00  0.00     0.074 A 
ATOM     49  C   UNL A   1      43.880  27.248  29.650  1.00  0.00     0.031 C 
ATOM     50  C   UNL A   1      37.590  29.999  29.029  1.00  0.00     0.029 A 
ATOM     51  C   UNL A   1      38.575  30.816  29.731  1.00  0.00     0.049 A 
ATOM     52  H   UNL A   1      40.586  30.381  30.049  1.00  0.00     0.167 HD
ATOM     53  C   UNL A   1      44.718  29.223  30.888  1.00  0.00     0.037 A 
ATOM     54  C   UNL A   1      38.333  32.012  30.297  1.00  0.00     0.037 A 
ATOM     55  C   UNL A   1      44.579  30.541  31.446  1.00  0.00     0.049 A 
ATOM     56  C   UNL A   1      39.453  32.739  30.990  1.00  0.00     0.074 A 
ATOM     57  C   UNL A   1      45.542  31.326  32.058  1.00  0.00     0.029 A 
ATOM     58  N   UNL A   1      43.400  31.272  31.457  1.00  0.00    -0.354 N 
ATOM     59  N   UNL A   1      40.699  32.369  31.161  1.00  0.00    -0.248 NA
ATOM     60  C   UNL A   1      39.134  34.053  31.567  1.00  0.00     0.031 C 
ATOM     61  C   UNL A   1      44.937  32.517  32.472  1.00  0.00     0.029 A 
ATOM     62  C   UNL A   1      43.608  32.493  32.079  1.00  0.00     0.049 A 
ATOM     63  H   UNL A   1      42.543  30.969  31.081  1.00  0.00     0.167 HD
ATOM     64  C   UNL A   1      41.317  33.411  31.837  1.00  0.00     0.074 A 
ATOM     65  C   UNL A   1      40.315  34.435  32.035  1.00  0.00     0.031 C 
ATOM     66  C   UNL A   1      42.602  33.508  32.257  1.00  0.00     0.037 A 
BRANCH  53  67
ATOM     67  C   UNL A   1      46.047  28.535  31.011  1.00  0.00     0.064 A 
ATOM     68  C   UNL A   1      47.045  28.688  30.037  1.00  0.00     0.173 A 
ATOM     69  C   UNL A   1      46.337  27.736  32.128  1.00  0.00     0.173 A 
ATOM     70  F   UNL A   1      46.813  29.431  28.944  1.00  0.00    -0.203 F 
ATOM     71  C   UNL A   1      48.272  28.043  30.160  1.00  0.00     0.198 A 
ATOM     72  C   UNL A   1      47.576  27.117  32.263  1.00  0.00     0.198 A 
ATOM     73  F   UNL A   1      45.420  27.561  33.090  1.00  0.00    -0.203 F 
ATOM     74  F   UNL A   1      49.191  28.164  29.192  1.00  0.00    -0.200 F 
ATOM     75  C   UNL A   1      48.539  27.264  31.276  1.00  0.00     0.200 A 
ATOM     76  F   UNL A   1      47.839  26.375  33.347  1.00  0.00    -0.200 F 
ATOM     77  F   UNL A   1      49.723  26.648  31.397  1.00  0.00    -0.200 F 
ENDBRANCH  53  67
BRANCH  54  78
ATOM     78  C   UNL A   1      36.978  32.616  30.209  1.00  0.00     0.064 A 
ATOM     79  C   UNL A   1      36.595  33.354  29.078  1.00  0.00     0.173 A 
ATOM     80  C   UNL A   1      36.043  32.476  31.244  1.00  0.00     0.173 A 
ATOM     81  F   UNL A   1      37.462  33.533  28.072  1.00  0.00    -0.203 F 
ATOM     82  C   UNL A   1      35.335  33.942  28.996  1.00  0.00     0.198 A 
ATOM     83  C   UNL A   1      34.774  33.043  31.148  1.00  0.00     0.198 A 
ATOM     84  F   UNL A   1      36.358  31.776  32.343  1.00  0.00    -0.203 F 
ATOM     85  F   UNL A   1      35.011  34.677  27.924  1.00  0.00    -0.200 F 
ATOM     86  C   UNL A   1      34.424  33.783  30.029  1.00  0.00     0.200 A 
ATOM     87  F   UNL A   1      33.891  32.875  32.143  1.00  0.00    -0.200 F 
ATOM     88  F   UNL A   1      33.211  34.346  29.948  1.00  0.00    -0.200 F 
ENDBRANCH  54  78
BRANCH  66  89
ATOM     89  C   UNL A   1      43.008  34.780  32.941  1.00  0.00     0.064 A 
ATOM     90  C   UNL A   1      43.424  35.905  32.214  1.00  0.00     0.173 A 
ATOM     91  C   UNL A   1      42.940  34.888  34.338  1.00  0.00     0.173 A 
ATOM     92  F   UNL A   1      43.522  35.846  30.877  1.00  0.00    -0.203 F 
ATOM     93  C   UNL A   1      43.777  37.084  32.863  1.00  0.00     0.198 A 
ATOM     94  C   UNL A   1      43.267  36.077  34.982  1.00  0.00     0.198 A 
ATOM     95  F   UNL A   1      42.543  33.840  35.078  1.00  0.00    -0.203 F 
ATOM     96  F   UNL A   1      44.213  38.134  32.152  1.00  0.00    -0.200 F 
ATOM     97  C   UNL A   1      43.691  37.173  34.245  1.00  0.00     0.200 A 
ATOM     98  F   UNL A   1      43.172  36.163  36.316  1.00  0.00    -0.200 F 
ATOM     99  F   UNL A   1      44.024  38.311  34.867  1.00  0.00    -0.200 F 
ENDBRANCH  66  89
ENDBRANCH  40  41
ENDBRANCH  32  35
ENDBRANCH  30  31
ENDBRANCH  29  30
ENDBRANCH   1  29
TORSDOF 14
ENDMDL
MODEL 3
REMARK VINA RESULT:     -12.9      4.031      9.444
REMARK SMILES COc1cccc(C[N@@H+]2C[C@H](C(=O)NCCCCNC(=O)c3ccc(-c4c5nc(c(-c6c(F)c(F)c(F)c(F)c6F)c6ccc([nH]6)c(-c6c(F)c(F)c(F)c(F)c6F)c6nc(c(-c7c(F)c(F)c(F)c(F)c7F)c7ccc4[nH]7)C=C6)C=C5)cc3)C3(CC[NH+](C)CC3)C2)c1
REMARK SMILES IDX 16 1 15 2 14 3 12 4 13 5 11 7 9 8 10 9 92 10 85 12 86 13
REMARK SMILES IDX 91 14 87 15 90 16 88 17 89 18 8 20 7 21 3 22 4 23 93 24 5 25
REMARK SMILES IDX 6 26 2 27 1 28 17 29 18 30 19 31 20 32 21 34 22 35 23 36
REMARK SMILES IDX 84 37 24 38 83 39 25 40 26 41 27 42 77 43 28 44 82 45 76 46
REMARK SMILES IDX 78 47 29 48 81 49 75 50 74 51 30 53 62 54 42 55 61 56 43 57
REMARK SMILES IDX 46 58 60 59 79 60 44 61 45 62 59 64 80 65 47 66 31 67 32 68
REMARK SMILES IDX 40 69 33 70 34 71 38 72 41 73 35 74 36 75 39 76 37 77 63 78
REMARK SMILES IDX 64 79 72 80 65 81 66 82 70 83 73 84 67 85 68 86 71 87 69 88
REMARK SMILES IDX 48 89 49 90 57 91 50 92 51 93 55 94 58 95 52 96 53 97 56 98
REMARK SMILES IDX 54 99
REMARK H PARENT 14 6 9 11 88 19 19 33 78 52 46 63
REMARK Flexibility Score: inf
ROOT
ATOM      1  C   UNL A   1      34.910  22.904  23.445  1.00  0.00     0.023 C 
ENDROOT
BRANCH   1   2
ATOM      2  C   UNL A   1      34.325  24.228  23.909  1.00  0.00     0.116 C 
BRANCH   2   3
ATOM      3  N   UNL A   1      34.021  25.176  22.867  1.00  0.00    -0.356 N 
ATOM      4  C   UNL A   1      33.081  26.159  22.852  1.00  0.00     0.229 C 
ATOM      5  O   UNL A   1      33.160  26.977  21.928  1.00  0.00    -0.275 OA
ATOM      6  H   UNL A   1      34.571  25.102  22.054  1.00  0.00     0.163 HD
BRANCH   4   7
ATOM      7  C   UNL A   1      31.904  26.235  23.829  1.00  0.00     0.145 C 
ATOM      8  N   UNL A   1      30.607  24.741  25.182  1.00  0.00    -0.330 N 
ATOM      9  C   UNL A   1      31.206  24.875  23.864  1.00  0.00     0.276 C 
ATOM     10  C   UNL A   1      31.303  25.619  26.114  1.00  0.00     0.270 C 
ATOM     11  H   UNL A   1      29.638  25.054  25.134  1.00  0.00     0.348 HD
ATOM     12  C   UNL A   1      31.961  26.759  25.299  1.00  0.00     0.047 C 
ATOM     13  C   UNL A   1      31.161  28.093  25.404  1.00  0.00     0.075 C 
ATOM     14  C   UNL A   1      33.298  27.106  25.978  1.00  0.00     0.075 C 
ATOM     15  C   UNL A   1      31.924  29.274  24.764  1.00  0.00     0.262 C 
ATOM     16  C   UNL A   1      34.061  28.210  25.255  1.00  0.00     0.262 C 
ATOM     17  N   UNL A   1      33.311  29.464  25.220  1.00  0.00    -0.337 N 
ATOM     18  C   UNL A   1      33.403  30.182  26.487  1.00  0.00     0.332 C 
ATOM     19  H   UNL A   1      33.751  30.059  24.519  1.00  0.00     0.347 HD
BRANCH   8  20
ATOM     20  C   UNL A   1      30.435  23.347  25.634  1.00  0.00     0.299 C 
BRANCH  20  21
ATOM     21  C   UNL A   1      31.691  22.598  26.063  1.00  0.00     0.010 A 
ATOM     22  C   UNL A   1      33.237  20.743  25.797  1.00  0.00     0.119 A 
ATOM     23  C   UNL A   1      33.908  21.104  26.960  1.00  0.00     0.046 A 
ATOM     24  C   UNL A   1      32.132  21.471  25.353  1.00  0.00     0.056 A 
ATOM     25  C   UNL A   1      33.511  22.244  27.652  1.00  0.00     0.004 A 
ATOM     26  C   UNL A   1      32.422  22.995  27.198  1.00  0.00     0.010 A 
BRANCH  22  27
ATOM     27  O   UNL A   1      33.640  19.612  25.142  1.00  0.00    -0.497 OA
ATOM     28  C   UNL A   1      32.750  18.534  25.435  1.00  0.00     0.278 C 
ENDBRANCH  22  27
ENDBRANCH  20  21
ENDBRANCH   8  20
ENDBRANCH   4   7
ENDBRANCH   2   3
ENDBRANCH   1   2
BRANCH   1  29
ATOM     29  C   UNL A   1      36.392  22.714  23.776  1.00  0.00     0.023 C 
BRANCH  29  30
ATOM     30  C   UNL A   1      36.732  22.368  25.227  1.00  0.00     0.116 C 
BRANCH  30  31
ATOM     31  N   UNL A   1      37.751  21.334  25.375  1.00  0.00    -0.352 N 
ATOM     32  C   UNL A   1      38.991  21.386  25.967  1.00  0.00     0.251 C 
ATOM     33  H   UNL A   1      37.512  20.460  24.990  1.00  0.00     0.163 HD
ATOM     34  O   UNL A   1      39.735  20.410  25.938  1.00  0.00    -0.269 OA
BRANCH  32  35
ATOM     35  C   UNL A   1      39.460  22.642  26.588  1.00  0.00     0.039 A 
ATOM     36  C   UNL A   1      40.441  22.577  27.578  1.00  0.00     0.014 A 
ATOM     37  C   UNL A   1      38.983  23.878  26.152  1.00  0.00     0.014 A 
ATOM     38  C   UNL A   1      41.033  23.754  28.042  1.00  0.00     0.010 A 
ATOM     39  C   UNL A   1      39.641  25.041  26.538  1.00  0.00     0.010 A 
ATOM     40  C   UNL A   1      40.685  24.991  27.475  1.00  0.00    -0.014 A 
BRANCH  40  41
ATOM     41  C   UNL A   1      41.420  26.237  27.817  1.00  0.00     0.031 A 
ATOM     42  C   UNL A   1      40.726  27.347  28.554  1.00  0.00     0.074 A 
ATOM     43  C   UNL A   1      42.685  26.408  27.380  1.00  0.00     0.049 A 
ATOM     44  N   UNL A   1      41.161  28.549  28.843  1.00  0.00    -0.248 NA
ATOM     45  C   UNL A   1      39.347  27.086  28.994  1.00  0.00     0.031 C 
ATOM     46  C   UNL A   1      43.452  25.435  26.600  1.00  0.00     0.029 A 
ATOM     47  N   UNL A   1      43.544  27.470  27.518  1.00  0.00    -0.354 N 
ATOM     48  C   UNL A   1      40.103  29.189  29.474  1.00  0.00     0.074 A 
ATOM     49  C   UNL A   1      38.990  28.266  29.478  1.00  0.00     0.031 C 
ATOM     50  C   UNL A   1      44.674  25.934  26.352  1.00  0.00     0.029 A 
ATOM     51  C   UNL A   1      44.765  27.276  26.917  1.00  0.00     0.049 A 
ATOM     52  H   UNL A   1      43.308  28.295  28.001  1.00  0.00     0.167 HD
ATOM     53  C   UNL A   1      40.070  30.427  30.023  1.00  0.00     0.037 A 
ATOM     54  C   UNL A   1      45.833  28.089  26.825  1.00  0.00     0.037 A 
ATOM     55  C   UNL A   1      41.189  31.331  30.052  1.00  0.00     0.049 A 
ATOM     56  C   UNL A   1      45.778  29.452  27.459  1.00  0.00     0.074 A 
ATOM     57  C   UNL A   1      41.274  32.580  30.645  1.00  0.00     0.029 A 
ATOM     58  N   UNL A   1      42.420  31.081  29.466  1.00  0.00    -0.354 N 
ATOM     59  N   UNL A   1      44.793  30.021  28.111  1.00  0.00    -0.248 NA
ATOM     60  C   UNL A   1      46.984  30.284  27.348  1.00  0.00     0.031 C 
ATOM     61  C   UNL A   1      42.546  33.100  30.386  1.00  0.00     0.029 A 
ATOM     62  C   UNL A   1      43.268  32.158  29.670  1.00  0.00     0.049 A 
ATOM     63  H   UNL A   1      42.658  30.261  28.977  1.00  0.00     0.167 HD
ATOM     64  C   UNL A   1      45.268  31.263  28.511  1.00  0.00     0.074 A 
ATOM     65  C   UNL A   1      46.634  31.360  28.040  1.00  0.00     0.031 C 
ATOM     66  C   UNL A   1      44.629  32.235  29.205  1.00  0.00     0.037 A 
BRANCH  53  67
ATOM     67  C   UNL A   1      38.780  30.871  30.650  1.00  0.00     0.064 A 
ATOM     68  C   UNL A   1      38.566  30.772  32.034  1.00  0.00     0.173 A 
ATOM     69  C   UNL A   1      37.759  31.426  29.866  1.00  0.00     0.173 A 
ATOM     70  F   UNL A   1      39.507  30.237  32.826  1.00  0.00    -0.203 F 
ATOM     71  C   UNL A   1      37.365  31.184  32.604  1.00  0.00     0.198 A 
ATOM     72  C   UNL A   1      36.570  31.865  30.443  1.00  0.00     0.198 A 
ATOM     73  F   UNL A   1      37.915  31.548  28.539  1.00  0.00    -0.203 F 
ATOM     74  F   UNL A   1      37.164  31.032  33.920  1.00  0.00    -0.200 F 
ATOM     75  C   UNL A   1      36.372  31.736  31.810  1.00  0.00     0.200 A 
ATOM     76  F   UNL A   1      35.616  32.410  29.677  1.00  0.00    -0.200 F 
ATOM     77  F   UNL A   1      35.218  32.137  32.360  1.00  0.00    -0.200 F 
ENDBRANCH  53  67
BRANCH  54  78
ATOM     78  C   UNL A   1      47.061  27.627  26.128  1.00  0.00     0.064 A 
ATOM     79  C   UNL A   1      47.178  27.733  24.734  1.00  0.00     0.173 A 
ATOM     80  C   UNL A   1      48.138  27.069  26.832  1.00  0.00     0.173 A 
ATOM     81  F   UNL A   1      46.165  28.240  24.016  1.00  0.00    -0.203 F 
ATOM     82  C   UNL A   1      48.316  27.281  24.071  1.00  0.00     0.198 A 
ATOM     83  C   UNL A   1      49.287  26.642  26.169  1.00  0.00     0.198 A 
ATOM     84  F   UNL A   1      48.078  26.950  28.166  1.00  0.00    -0.203 F 
ATOM     85  F   UNL A   1      48.382  27.355  22.734  1.00  0.00    -0.200 F 
ATOM     86  C   UNL A   1      49.371  26.740  24.788  1.00  0.00     0.200 A 
ATOM     87  F   UNL A   1      50.311  26.133  26.868  1.00  0.00    -0.200 F 
ATOM     88  F   UNL A   1      50.468  26.309  24.150  1.00  0.00    -0.200 F 
ENDBRANCH  54  78
BRANCH  66  89
ATOM     89  C   UNL A   1      45.408  33.475  29.530  1.00  0.00     0.064 A 
ATOM     90  C   UNL A   1      46.186  33.571  30.693  1.00  0.00     0.173 A 
ATOM     91  C   UNL A   1      45.409  34.564  28.646  1.00  0.00     0.173 A 
ATOM     92  F   UNL A   1      46.205  32.561  31.577  1.00  0.00    -0.203 F 
ATOM     93  C   UNL A   1      46.920  34.720  30.969  1.00  0.00     0.198 A 
ATOM     94  C   UNL A   1      46.165  35.702  28.911  1.00  0.00     0.198 A 
ATOM     95  F   UNL A   1      44.684  34.520  27.518  1.00  0.00    -0.203 F 
ATOM     96  F   UNL A   1      47.623  34.807  32.106  1.00  0.00    -0.200 F 
ATOM     97  C   UNL A   1      46.916  35.781  30.075  1.00  0.00     0.200 A 
ATOM     98  F   UNL A   1      46.169  36.721  28.041  1.00  0.00    -0.200 F 
ATOM     99  F   UNL A   1      47.629  36.884  30.339  1.00  0.00    -0.200 F 
ENDBRANCH  66  89
ENDBRANCH  40  41
ENDBRANCH  32  35
ENDBRANCH  30  31
ENDBRANCH  29  30
ENDBRANCH   1  29
TORSDOF 14
ENDMDL
