MODEL 1
REMARK VINA RESULT:     -12.6      0.000      0.000
REMARK SMILES O=C(C[C@@H]([NH2+]Cc1cccnc1)C(=O)NCCCCNC(=O)c1ccc(-c2c3nc(c(-c4c(F)c(F)c(F)c(F)c4F)c4ccc([nH]4)c(-c4c(F)c(F)c(F)c(F)c4F)c4nc(c(-c5c(F)c(F)c(F)c(F)c5F)c5ccc2[nH]5)C=C4)C=C3)cc1)Nc1ccc2ccccc2c1
REMARK SMILES IDX 17 1 16 2 15 3 13 4 14 5 4 7 3 8 2 9 1 10 86 11 87 13 88 14
REMARK SMILES IDX 96 15 89 16 95 17 90 18 94 19 91 20 93 21 92 22 5 23 6 26
REMARK SMILES IDX 7 27 8 28 12 29 9 30 11 31 10 32 18 33 19 34 20 35 21 36
REMARK SMILES IDX 22 38 23 39 24 40 85 41 25 42 84 43 26 44 27 45 28 46 78 47
REMARK SMILES IDX 29 48 83 49 77 50 79 51 30 52 82 53 76 54 75 55 31 57 63 58
REMARK SMILES IDX 43 59 62 60 44 61 47 62 61 63 80 64 45 65 46 66 60 68 81 69
REMARK SMILES IDX 48 70 32 71 33 72 41 73 34 74 35 75 39 76 42 77 36 78 37 79
REMARK SMILES IDX 40 80 38 81 64 82 65 83 73 84 66 85 67 86 71 87 74 88 68 89
REMARK SMILES IDX 69 90 72 91 70 92 49 93 50 94 58 95 51 96 52 97 56 98 59 99
REMARK SMILES IDX 53 100 54 101 57 102 55 103
REMARK H PARENT 15 6 86 12 5 24 5 25 20 37 79 56 47 67
REMARK Flexibility Score: inf
ROOT
ATOM      1  C   UNL A   1      36.321  21.673  25.615  1.00  0.00     0.023 C 
ENDROOT
BRANCH   1   2
ATOM      2  C   UNL A   1      34.952  20.991  25.569  1.00  0.00     0.116 C 
BRANCH   2   3
ATOM      3  N   UNL A   1      34.207  21.236  26.788  1.00  0.00    -0.351 N 
ATOM      4  C   UNL A   1      33.303  22.213  27.084  1.00  0.00     0.278 C 
ATOM      5  O   UNL A   1      32.798  22.197  28.210  1.00  0.00    -0.268 OA
ATOM      6  H   UNL A   1      34.380  20.597  27.516  1.00  0.00     0.163 HD
BRANCH   4   7
ATOM      7  C   UNL A   1      32.874  23.268  26.041  1.00  0.00     0.282 C 
BRANCH   7   8
ATOM      8  C   UNL A   1      31.334  23.301  25.928  1.00  0.00     0.175 C 
BRANCH   8   9
ATOM      9  C   UNL A   1      30.727  24.679  25.753  1.00  0.00     0.230 C 
ATOM     10  O   UNL A   1      30.500  25.410  26.710  1.00  0.00    -0.274 OA
ATOM     11  N   UNL A   1      30.473  24.982  24.426  1.00  0.00    -0.326 N 
ATOM     12  H   UNL A   1      30.823  24.373  23.737  1.00  0.00     0.169 HD
BRANCH  11  13
ATOM     13  C   UNL A   1      29.747  26.103  24.006  1.00  0.00     0.041 A 
ATOM     14  C   UNL A   1      28.362  26.075  24.161  1.00  0.00     0.027 A 
ATOM     15  C   UNL A   1      30.366  27.204  23.416  1.00  0.00     0.034 A 
ATOM     16  C   UNL A   1      27.598  27.187  23.812  1.00  0.00     0.011 A 
ATOM     17  C   UNL A   1      29.590  28.280  22.947  1.00  0.00    -0.016 A 
ATOM     18  C   UNL A   1      28.197  28.290  23.192  1.00  0.00    -0.018 A 
ATOM     19  C   UNL A   1      30.160  29.338  22.220  1.00  0.00     0.009 A 
ATOM     20  C   UNL A   1      27.429  29.390  22.784  1.00  0.00     0.009 A 
ATOM     21  C   UNL A   1      29.370  30.398  21.768  1.00  0.00     0.001 A 
ATOM     22  C   UNL A   1      28.012  30.435  22.070  1.00  0.00     0.001 A 
ENDBRANCH  11  13
ENDBRANCH   8   9
ENDBRANCH   7   8
BRANCH   7  23
ATOM     23  N   UNL A   1      33.493  24.601  26.328  1.00  0.00    -0.332 N 
ATOM     24  H   UNL A   1      34.228  24.470  27.024  1.00  0.00     0.347 HD
ATOM     25  H   UNL A   1      32.744  25.209  26.659  1.00  0.00     0.347 HD
BRANCH  23  26
ATOM     26  C   UNL A   1      34.086  25.257  25.144  1.00  0.00     0.299 C 
BRANCH  26  27
ATOM     27  C   UNL A   1      33.744  26.717  25.031  1.00  0.00     0.024 A 
ATOM     28  C   UNL A   1      33.305  27.469  26.129  1.00  0.00     0.013 A 
ATOM     29  C   UNL A   1      33.873  27.386  23.817  1.00  0.00     0.120 A 
ATOM     30  C   UNL A   1      32.974  28.809  25.967  1.00  0.00     0.021 A 
ATOM     31  N   UNL A   1      33.585  28.695  23.640  1.00  0.00    -0.264 NA
ATOM     32  C   UNL A   1      33.128  29.372  24.714  1.00  0.00     0.111 A 
ENDBRANCH  26  27
ENDBRANCH  23  26
ENDBRANCH   7  23
ENDBRANCH   4   7
ENDBRANCH   2   3
ENDBRANCH   1   2
BRANCH   1  33
ATOM     33  C   UNL A   1      37.466  20.826  25.064  1.00  0.00     0.023 C 
BRANCH  33  34
ATOM     34  C   UNL A   1      38.802  21.032  25.762  1.00  0.00     0.116 C 
BRANCH  34  35
ATOM     35  N   UNL A   1      39.642  19.843  25.747  1.00  0.00    -0.352 N 
ATOM     36  C   UNL A   1      40.987  19.753  26.014  1.00  0.00     0.251 C 
ATOM     37  H   UNL A   1      39.191  19.000  25.517  1.00  0.00     0.163 HD
ATOM     38  O   UNL A   1      41.596  18.703  25.846  1.00  0.00    -0.269 OA
BRANCH  36  39
ATOM     39  C   UNL A   1      41.693  20.960  26.480  1.00  0.00     0.039 A 
ATOM     40  C   UNL A   1      42.169  21.878  25.541  1.00  0.00     0.014 A 
ATOM     41  C   UNL A   1      41.812  21.213  27.849  1.00  0.00     0.014 A 
ATOM     42  C   UNL A   1      42.702  23.092  25.976  1.00  0.00     0.010 A 
ATOM     43  C   UNL A   1      42.272  22.450  28.277  1.00  0.00     0.010 A 
ATOM     44  C   UNL A   1      42.720  23.401  27.346  1.00  0.00    -0.014 A 
BRANCH  44  45
ATOM     45  C   UNL A   1      43.222  24.702  27.854  1.00  0.00     0.031 A 
ATOM     46  C   UNL A   1      42.235  25.775  28.214  1.00  0.00     0.074 A 
ATOM     47  C   UNL A   1      44.544  24.954  27.884  1.00  0.00     0.049 A 
ATOM     48  N   UNL A   1      42.443  27.037  28.486  1.00  0.00    -0.248 NA
ATOM     49  C   UNL A   1      40.817  25.380  28.232  1.00  0.00     0.031 C 
ATOM     50  C   UNL A   1      45.598  24.002  27.535  1.00  0.00     0.029 A 
ATOM     51  N   UNL A   1      45.225  26.104  28.199  1.00  0.00    -0.354 N 
ATOM     52  C   UNL A   1      41.184  27.592  28.675  1.00  0.00     0.074 A 
ATOM     53  C   UNL A   1      40.216  26.542  28.442  1.00  0.00     0.031 C 
ATOM     54  C   UNL A   1      46.793  24.604  27.660  1.00  0.00     0.029 A 
ATOM     55  C   UNL A   1      46.587  25.996  28.050  1.00  0.00     0.049 A 
ATOM     56  H   UNL A   1      44.780  26.928  28.503  1.00  0.00     0.167 HD
ATOM     57  C   UNL A   1      40.866  28.858  29.029  1.00  0.00     0.037 A 
ATOM     58  C   UNL A   1      47.555  26.922  28.189  1.00  0.00     0.037 A 
ATOM     59  C   UNL A   1      41.836  29.888  29.293  1.00  0.00     0.049 A 
ATOM     60  C   UNL A   1      47.175  28.328  28.573  1.00  0.00     0.074 A 
ATOM     61  C   UNL A   1      41.621  31.190  29.707  1.00  0.00     0.029 A 
ATOM     62  N   UNL A   1      43.209  29.726  29.171  1.00  0.00    -0.354 N 
ATOM     63  N   UNL A   1      45.985  28.833  28.792  1.00  0.00    -0.248 NA
ATOM     64  C   UNL A   1      48.273  29.294  28.730  1.00  0.00     0.031 C 
ATOM     65  C   UNL A   1      42.860  31.829  29.795  1.00  0.00     0.029 A 
ATOM     66  C   UNL A   1      43.852  30.911  29.488  1.00  0.00     0.049 A 
ATOM     67  H   UNL A   1      43.658  28.894  28.898  1.00  0.00     0.167 HD
ATOM     68  C   UNL A   1      46.193  30.158  29.153  1.00  0.00     0.074 A 
ATOM     69  C   UNL A   1      47.622  30.381  29.122  1.00  0.00     0.031 C 
ATOM     70  C   UNL A   1      45.279  31.102  29.485  1.00  0.00     0.037 A 
BRANCH  57  71
ATOM     71  C   UNL A   1      39.410  29.202  29.148  1.00  0.00     0.064 A 
ATOM     72  C   UNL A   1      38.634  29.520  28.024  1.00  0.00     0.173 A 
ATOM     73  C   UNL A   1      38.778  29.189  30.401  1.00  0.00     0.173 A 
ATOM     74  F   UNL A   1      39.193  29.560  26.806  1.00  0.00    -0.203 F 
ATOM     75  C   UNL A   1      37.285  29.842  28.153  1.00  0.00     0.198 A 
ATOM     76  C   UNL A   1      37.421  29.479  30.521  1.00  0.00     0.198 A 
ATOM     77  F   UNL A   1      39.472  28.887  31.508  1.00  0.00    -0.203 F 
ATOM     78  F   UNL A   1      36.577  30.197  27.072  1.00  0.00    -0.200 F 
ATOM     79  C   UNL A   1      36.679  29.814  29.400  1.00  0.00     0.200 A 
ATOM     80  F   UNL A   1      36.833  29.439  31.725  1.00  0.00    -0.200 F 
ATOM     81  F   UNL A   1      35.379  30.119  29.520  1.00  0.00    -0.200 F 
ENDBRANCH  57  71
BRANCH  58  82
ATOM     82  C   UNL A   1      48.978  26.549  27.980  1.00  0.00     0.064 A 
ATOM     83  C   UNL A   1      49.821  26.295  29.071  1.00  0.00     0.173 A 
ATOM     84  C   UNL A   1      49.528  26.443  26.694  1.00  0.00     0.173 A 
ATOM     85  F   UNL A   1      49.346  26.403  30.320  1.00  0.00    -0.203 F 
ATOM     86  C   UNL A   1      51.162  25.970  28.886  1.00  0.00     0.198 A 
ATOM     87  C   UNL A   1      50.864  26.092  26.508  1.00  0.00     0.198 A 
ATOM     88  F   UNL A   1      48.764  26.671  25.615  1.00  0.00    -0.203 F 
ATOM     89  F   UNL A   1      51.955  25.778  29.948  1.00  0.00    -0.200 F 
ATOM     90  C   UNL A   1      51.682  25.864  27.604  1.00  0.00     0.200 A 
ATOM     91  F   UNL A   1      51.357  25.976  25.268  1.00  0.00    -0.200 F 
ATOM     92  F   UNL A   1      52.972  25.548  27.426  1.00  0.00    -0.200 F 
ENDBRANCH  58  82
BRANCH  70  93
ATOM     93  C   UNL A   1      45.790  32.447  29.913  1.00  0.00     0.064 A 
ATOM     94  C   UNL A   1      45.935  33.506  29.007  1.00  0.00     0.173 A 
ATOM     95  C   UNL A   1      46.058  32.697  31.268  1.00  0.00     0.173 A 
ATOM     96  F   UNL A   1      45.704  33.313  27.699  1.00  0.00    -0.203 F 
ATOM     97  C   UNL A   1      46.340  34.765  29.440  1.00  0.00     0.198 A 
ATOM     98  C   UNL A   1      46.436  33.963  31.702  1.00  0.00     0.198 A 
ATOM     99  F   UNL A   1      45.926  31.716  32.174  1.00  0.00    -0.203 F 
ATOM    100  F   UNL A   1      46.503  35.757  28.554  1.00  0.00    -0.200 F 
ATOM    101  C   UNL A   1      46.580  34.996  30.788  1.00  0.00     0.200 A 
ATOM    102  F   UNL A   1      46.650  34.187  33.006  1.00  0.00    -0.200 F 
ATOM    103  F   UNL A   1      46.950  36.214  31.205  1.00  0.00    -0.200 F 
ENDBRANCH  70  93
ENDBRANCH  44  45
ENDBRANCH  36  39
ENDBRANCH  34  35
ENDBRANCH  33  34
ENDBRANCH   1  33
TORSDOF 17
ENDMDL
MODEL 2
REMARK VINA RESULT:     -12.5      1.690      3.602
REMARK SMILES O=C(C[C@@H]([NH2+]Cc1cccnc1)C(=O)NCCCCNC(=O)c1ccc(-c2c3nc(c(-c4c(F)c(F)c(F)c(F)c4F)c4ccc([nH]4)c(-c4c(F)c(F)c(F)c(F)c4F)c4nc(c(-c5c(F)c(F)c(F)c(F)c5F)c5ccc2[nH]5)C=C4)C=C3)cc1)Nc1ccc2ccccc2c1
REMARK SMILES IDX 17 1 16 2 15 3 13 4 14 5 4 7 3 8 2 9 1 10 86 11 87 13 88 14
REMARK SMILES IDX 96 15 89 16 95 17 90 18 94 19 91 20 93 21 92 22 5 23 6 26
REMARK SMILES IDX 7 27 8 28 12 29 9 30 11 31 10 32 18 33 19 34 20 35 21 36
REMARK SMILES IDX 22 38 23 39 24 40 85 41 25 42 84 43 26 44 27 45 28 46 78 47
REMARK SMILES IDX 29 48 83 49 77 50 79 51 30 52 82 53 76 54 75 55 31 57 63 58
REMARK SMILES IDX 43 59 62 60 44 61 47 62 61 63 80 64 45 65 46 66 60 68 81 69
REMARK SMILES IDX 48 70 32 71 33 72 41 73 34 74 35 75 39 76 42 77 36 78 37 79
REMARK SMILES IDX 40 80 38 81 64 82 65 83 73 84 66 85 67 86 71 87 74 88 68 89
REMARK SMILES IDX 69 90 72 91 70 92 49 93 50 94 58 95 51 96 52 97 56 98 59 99
REMARK SMILES IDX 53 100 54 101 57 102 55 103
REMARK H PARENT 15 6 86 12 5 24 5 25 20 37 79 56 47 67
REMARK Flexibility Score: inf
ROOT
ATOM      1  C   UNL A   1      37.331  21.501  24.693  1.00  0.00     0.023 C 
ENDROOT
BRANCH   1   2
ATOM      2  C   UNL A   1      36.151  21.730  25.639  1.00  0.00     0.116 C 
BRANCH   2   3
ATOM      3  N   UNL A   1      35.634  23.078  25.509  1.00  0.00    -0.351 N 
ATOM      4  C   UNL A   1      34.348  23.519  25.392  1.00  0.00     0.278 C 
ATOM      5  O   UNL A   1      34.173  24.737  25.299  1.00  0.00    -0.268 OA
ATOM      6  H   UNL A   1      36.318  23.786  25.505  1.00  0.00     0.163 HD
BRANCH   4   7
ATOM      7  C   UNL A   1      33.148  22.549  25.433  1.00  0.00     0.282 C 
BRANCH   7   8
ATOM      8  C   UNL A   1      31.853  23.327  25.754  1.00  0.00     0.175 C 
BRANCH   8   9
ATOM      9  C   UNL A   1      31.356  24.240  24.651  1.00  0.00     0.230 C 
ATOM     10  O   UNL A   1      31.291  23.868  23.486  1.00  0.00    -0.274 OA
ATOM     11  N   UNL A   1      31.005  25.495  25.120  1.00  0.00    -0.326 N 
ATOM     12  H   UNL A   1      30.972  25.633  26.095  1.00  0.00     0.169 HD
BRANCH  11  13
ATOM     13  C   UNL A   1      30.697  26.581  24.292  1.00  0.00     0.041 A 
ATOM     14  C   UNL A   1      31.757  27.312  23.758  1.00  0.00     0.027 A 
ATOM     15  C   UNL A   1      29.381  26.956  24.027  1.00  0.00     0.034 A 
ATOM     16  C   UNL A   1      31.507  28.366  22.882  1.00  0.00     0.011 A 
ATOM     17  C   UNL A   1      29.118  28.095  23.244  1.00  0.00    -0.016 A 
ATOM     18  C   UNL A   1      30.192  28.777  22.627  1.00  0.00    -0.018 A 
ATOM     19  C   UNL A   1      27.814  28.588  23.075  1.00  0.00     0.009 A 
ATOM     20  C   UNL A   1      29.932  29.872  21.793  1.00  0.00     0.009 A 
ATOM     21  C   UNL A   1      27.576  29.718  22.288  1.00  0.00     0.001 A 
ATOM     22  C   UNL A   1      28.630  30.344  21.629  1.00  0.00     0.001 A 
ENDBRANCH  11  13
ENDBRANCH   8   9
ENDBRANCH   7   8
BRANCH   7  23
ATOM     23  N   UNL A   1      33.070  21.726  24.184  1.00  0.00    -0.332 N 
ATOM     24  H   UNL A   1      34.016  21.432  23.934  1.00  0.00     0.347 HD
ATOM     25  H   UNL A   1      32.641  22.313  23.469  1.00  0.00     0.347 HD
BRANCH  23  26
ATOM     26  C   UNL A   1      32.228  20.518  24.311  1.00  0.00     0.299 C 
BRANCH  26  27
ATOM     27  C   UNL A   1      32.939  19.247  23.939  1.00  0.00     0.024 A 
ATOM     28  C   UNL A   1      34.085  18.806  24.615  1.00  0.00     0.013 A 
ATOM     29  C   UNL A   1      32.466  18.444  22.906  1.00  0.00     0.120 A 
ATOM     30  C   UNL A   1      34.723  17.638  24.214  1.00  0.00     0.021 A 
ATOM     31  N   UNL A   1      33.052  17.290  22.514  1.00  0.00    -0.264 NA
ATOM     32  C   UNL A   1      34.174  16.921  23.167  1.00  0.00     0.111 A 
ENDBRANCH  26  27
ENDBRANCH  23  26
ENDBRANCH   7  23
ENDBRANCH   4   7
ENDBRANCH   2   3
ENDBRANCH   1   2
BRANCH   1  33
ATOM     33  C   UNL A   1      38.122  20.224  24.970  1.00  0.00     0.023 C 
BRANCH  33  34
ATOM     34  C   UNL A   1      39.331  20.409  25.875  1.00  0.00     0.116 C 
BRANCH  34  35
ATOM     35  N   UNL A   1      40.212  19.250  25.893  1.00  0.00    -0.352 N 
ATOM     36  C   UNL A   1      41.574  19.224  26.072  1.00  0.00     0.251 C 
ATOM     37  H   UNL A   1      39.778  18.377  25.759  1.00  0.00     0.163 HD
ATOM     38  O   UNL A   1      42.210  18.184  25.943  1.00  0.00    -0.269 OA
BRANCH  36  39
ATOM     39  C   UNL A   1      42.264  20.486  26.395  1.00  0.00     0.039 A 
ATOM     40  C   UNL A   1      42.720  21.300  25.355  1.00  0.00     0.014 A 
ATOM     41  C   UNL A   1      42.387  20.893  27.726  1.00  0.00     0.014 A 
ATOM     42  C   UNL A   1      43.236  22.563  25.648  1.00  0.00     0.010 A 
ATOM     43  C   UNL A   1      42.830  22.176  28.009  1.00  0.00     0.010 A 
ATOM     44  C   UNL A   1      43.258  23.024  26.974  1.00  0.00    -0.014 A 
BRANCH  44  45
ATOM     45  C   UNL A   1      43.742  24.381  27.329  1.00  0.00     0.031 A 
ATOM     46  C   UNL A   1      42.762  25.394  27.846  1.00  0.00     0.074 A 
ATOM     47  C   UNL A   1      45.019  24.731  27.084  1.00  0.00     0.049 A 
ATOM     48  N   UNL A   1      42.916  26.679  28.032  1.00  0.00    -0.248 NA
ATOM     49  C   UNL A   1      41.413  24.897  28.162  1.00  0.00     0.031 C 
ATOM     50  C   UNL A   1      46.057  23.844  26.560  1.00  0.00     0.029 A 
ATOM     51  N   UNL A   1      45.653  25.942  27.220  1.00  0.00    -0.354 N 
ATOM     52  C   UNL A   1      41.679  27.148  28.453  1.00  0.00     0.074 A 
ATOM     53  C   UNL A   1      40.773  26.020  28.452  1.00  0.00     0.031 C 
ATOM     54  C   UNL A   1      47.200  24.537  26.424  1.00  0.00     0.029 A 
ATOM     55  C   UNL A   1      46.962  25.927  26.803  1.00  0.00     0.049 A 
ATOM     56  H   UNL A   1      45.211  26.744  27.581  1.00  0.00     0.167 HD
ATOM     57  C   UNL A   1      41.335  28.403  28.823  1.00  0.00     0.037 A 
ATOM     58  C   UNL A   1      47.859  26.928  26.715  1.00  0.00     0.037 A 
ATOM     59  C   UNL A   1      42.251  29.513  28.853  1.00  0.00     0.049 A 
ATOM     60  C   UNL A   1      47.450  28.319  27.123  1.00  0.00     0.074 A 
ATOM     61  C   UNL A   1      42.016  30.814  29.261  1.00  0.00     0.029 A 
ATOM     62  N   UNL A   1      43.580  29.447  28.463  1.00  0.00    -0.354 N 
ATOM     63  N   UNL A   1      46.289  28.744  27.560  1.00  0.00    -0.248 NA
ATOM     64  C   UNL A   1      48.474  29.369  27.025  1.00  0.00     0.031 C 
ATOM     65  C   UNL A   1      43.192  31.546  29.078  1.00  0.00     0.029 A 
ATOM     66  C   UNL A   1      44.174  30.689  28.606  1.00  0.00     0.049 A 
ATOM     67  H   UNL A   1      44.033  28.638  28.132  1.00  0.00     0.167 HD
ATOM     68  C   UNL A   1      46.456  30.096  27.830  1.00  0.00     0.074 A 
ATOM     69  C   UNL A   1      47.828  30.422  27.505  1.00  0.00     0.031 C 
ATOM     70  C   UNL A   1      45.552  30.985  28.310  1.00  0.00     0.037 A 
BRANCH  57  71
ATOM     71  C   UNL A   1      39.908  28.644  29.222  1.00  0.00     0.064 A 
ATOM     72  C   UNL A   1      39.463  28.424  30.534  1.00  0.00     0.173 A 
ATOM     73  C   UNL A   1      38.980  29.125  28.286  1.00  0.00     0.173 A 
ATOM     74  F   UNL A   1      40.307  27.952  31.464  1.00  0.00    -0.203 F 
ATOM     75  C   UNL A   1      38.134  28.647  30.887  1.00  0.00     0.198 A 
ATOM     76  C   UNL A   1      37.660  29.378  28.651  1.00  0.00     0.198 A 
ATOM     77  F   UNL A   1      39.354  29.356  27.019  1.00  0.00    -0.203 F 
ATOM     78  F   UNL A   1      37.720  28.377  32.132  1.00  0.00    -0.200 F 
ATOM     79  C   UNL A   1      37.237  29.130  29.947  1.00  0.00     0.200 A 
ATOM     80  F   UNL A   1      36.797  29.858  27.745  1.00  0.00    -0.200 F 
ATOM     81  F   UNL A   1      35.960  29.350  30.290  1.00  0.00    -0.200 F 
ENDBRANCH  57  71
BRANCH  58  82
ATOM     82  C   UNL A   1      49.239  26.651  26.235  1.00  0.00     0.064 A 
ATOM     83  C   UNL A   1      49.591  26.879  24.897  1.00  0.00     0.173 A 
ATOM     84  C   UNL A   1      50.229  26.151  27.094  1.00  0.00     0.173 A 
ATOM     85  F   UNL A   1      48.674  27.337  24.033  1.00  0.00    -0.203 F 
ATOM     86  C   UNL A   1      50.874  26.598  24.432  1.00  0.00     0.198 A 
ATOM     87  C   UNL A   1      51.519  25.897  26.634  1.00  0.00     0.198 A 
ATOM     88  F   UNL A   1      49.945  25.921  28.384  1.00  0.00    -0.203 F 
ATOM     89  F   UNL A   1      51.170  26.781  23.138  1.00  0.00    -0.200 F 
ATOM     90  C   UNL A   1      51.839  26.112  25.301  1.00  0.00     0.200 A 
ATOM     91  F   UNL A   1      52.452  25.441  27.481  1.00  0.00    -0.200 F 
ATOM     92  F   UNL A   1      53.073  25.845  24.854  1.00  0.00    -0.200 F 
ENDBRANCH  58  82
BRANCH  70  93
ATOM     93  C   UNL A   1      46.026  32.383  28.583  1.00  0.00     0.064 A 
ATOM     94  C   UNL A   1      46.604  32.742  29.808  1.00  0.00     0.173 A 
ATOM     95  C   UNL A   1      45.974  33.352  27.569  1.00  0.00     0.173 A 
ATOM     96  F   UNL A   1      46.665  31.855  30.813  1.00  0.00    -0.203 F 
ATOM     97  C   UNL A   1      47.104  34.025  30.012  1.00  0.00     0.198 A 
ATOM     98  C   UNL A   1      46.499  34.625  27.766  1.00  0.00     0.198 A 
ATOM     99  F   UNL A   1      45.436  33.053  26.377  1.00  0.00    -0.203 F 
ATOM    100  F   UNL A   1      47.626  34.358  31.200  1.00  0.00    -0.200 F 
ATOM    101  C   UNL A   1      47.061  34.961  28.988  1.00  0.00     0.200 A 
ATOM    102  F   UNL A   1      46.471  35.522  26.771  1.00  0.00    -0.200 F 
ATOM    103  F   UNL A   1      47.561  36.190  29.181  1.00  0.00    -0.200 F 
ENDBRANCH  70  93
ENDBRANCH  44  45
ENDBRANCH  36  39
ENDBRANCH  34  35
ENDBRANCH  33  34
ENDBRANCH   1  33
TORSDOF 17
ENDMDL
MODEL 3
REMARK VINA RESULT:     -12.5      1.802      3.707
REMARK SMILES O=C(C[C@@H]([NH2+]Cc1cccnc1)C(=O)NCCCCNC(=O)c1ccc(-c2c3nc(c(-c4c(F)c(F)c(F)c(F)c4F)c4ccc([nH]4)c(-c4c(F)c(F)c(F)c(F)c4F)c4nc(c(-c5c(F)c(F)c(F)c(F)c5F)c5ccc2[nH]5)C=C4)C=C3)cc1)Nc1ccc2ccccc2c1
REMARK SMILES IDX 17 1 16 2 15 3 13 4 14 5 4 7 3 8 2 9 1 10 86 11 87 13 88 14
REMARK SMILES IDX 96 15 89 16 95 17 90 18 94 19 91 20 93 21 92 22 5 23 6 26
REMARK SMILES IDX 7 27 8 28 12 29 9 30 11 31 10 32 18 33 19 34 20 35 21 36
REMARK SMILES IDX 22 38 23 39 24 40 85 41 25 42 84 43 26 44 27 45 28 46 78 47
REMARK SMILES IDX 29 48 83 49 77 50 79 51 30 52 82 53 76 54 75 55 31 57 63 58
REMARK SMILES IDX 43 59 62 60 44 61 47 62 61 63 80 64 45 65 46 66 60 68 81 69
REMARK SMILES IDX 48 70 32 71 33 72 41 73 34 74 35 75 39 76 42 77 36 78 37 79
REMARK SMILES IDX 40 80 38 81 64 82 65 83 73 84 66 85 67 86 71 87 74 88 68 89
REMARK SMILES IDX 69 90 72 91 70 92 49 93 50 94 58 95 51 96 52 97 56 98 59 99
REMARK SMILES IDX 53 100 54 101 57 102 55 103
REMARK H PARENT 15 6 86 12 5 24 5 25 20 37 79 56 47 67
REMARK Flexibility Score: inf
ROOT
ATOM      1  C   UNL A   1      38.948  22.731  26.374  1.00  0.00     0.023 C 
ENDROOT
BRANCH   1   2
ATOM      2  C   UNL A   1      37.644  23.372  25.896  1.00  0.00     0.116 C 
BRANCH   2   3
ATOM      3  N   UNL A   1      37.533  23.310  24.451  1.00  0.00    -0.351 N 
ATOM      4  C   UNL A   1      36.495  22.905  23.666  1.00  0.00     0.278 C 
ATOM      5  O   UNL A   1      36.655  22.956  22.443  1.00  0.00    -0.268 OA
ATOM      6  H   UNL A   1      38.333  23.608  23.961  1.00  0.00     0.163 HD
BRANCH   4   7
ATOM      7  C   UNL A   1      35.146  22.457  24.268  1.00  0.00     0.282 C 
BRANCH   7   8
ATOM      8  C   UNL A   1      33.989  22.856  23.325  1.00  0.00     0.175 C 
BRANCH   8   9
ATOM      9  C   UNL A   1      33.594  24.318  23.368  1.00  0.00     0.230 C 
ATOM     10  O   UNL A   1      33.865  25.086  22.452  1.00  0.00    -0.274 OA
ATOM     11  N   UNL A   1      32.920  24.652  24.531  1.00  0.00    -0.326 N 
ATOM     12  H   UNL A   1      32.641  23.922  25.130  1.00  0.00     0.169 HD
BRANCH  11  13
ATOM     13  C   UNL A   1      32.611  25.965  24.906  1.00  0.00     0.041 A 
ATOM     14  C   UNL A   1      31.489  26.558  24.329  1.00  0.00     0.027 A 
ATOM     15  C   UNL A   1      33.407  26.684  25.796  1.00  0.00     0.034 A 
ATOM     16  C   UNL A   1      31.105  27.841  24.711  1.00  0.00     0.011 A 
ATOM     17  C   UNL A   1      33.097  28.024  26.092  1.00  0.00    -0.016 A 
ATOM     18  C   UNL A   1      31.907  28.591  25.581  1.00  0.00    -0.018 A 
ATOM     19  C   UNL A   1      33.951  28.824  26.868  1.00  0.00     0.009 A 
ATOM     20  C   UNL A   1      31.559  29.904  25.925  1.00  0.00     0.009 A 
ATOM     21  C   UNL A   1      33.621  30.151  27.154  1.00  0.00     0.001 A 
ATOM     22  C   UNL A   1      32.416  30.682  26.703  1.00  0.00     0.001 A 
ENDBRANCH  11  13
ENDBRANCH   8   9
ENDBRANCH   7   8
BRANCH   7  23
ATOM     23  N   UNL A   1      35.166  21.003  24.626  1.00  0.00    -0.332 N 
ATOM     24  H   UNL A   1      35.873  20.860  25.348  1.00  0.00     0.347 HD
ATOM     25  H   UNL A   1      35.371  20.490  23.769  1.00  0.00     0.347 HD
BRANCH  23  26
ATOM     26  C   UNL A   1      33.875  20.491  25.134  1.00  0.00     0.299 C 
BRANCH  26  27
ATOM     27  C   UNL A   1      33.686  19.015  24.915  1.00  0.00     0.024 A 
ATOM     28  C   UNL A   1      34.640  18.229  24.255  1.00  0.00     0.013 A 
ATOM     29  C   UNL A   1      32.547  18.367  25.383  1.00  0.00     0.120 A 
ATOM     30  C   UNL A   1      34.406  16.874  24.052  1.00  0.00     0.021 A 
ATOM     31  N   UNL A   1      32.308  17.045  25.223  1.00  0.00    -0.264 NA
ATOM     32  C   UNL A   1      33.235  16.333  24.549  1.00  0.00     0.111 A 
ENDBRANCH  26  27
ENDBRANCH  23  26
ENDBRANCH   7  23
ENDBRANCH   4   7
ENDBRANCH   2   3
ENDBRANCH   1   2
BRANCH   1  33
ATOM     33  C   UNL A   1      39.247  21.370  25.751  1.00  0.00     0.023 C 
BRANCH  33  34
ATOM     34  C   UNL A   1      39.692  20.302  26.738  1.00  0.00     0.116 C 
BRANCH  34  35
ATOM     35  N   UNL A   1      40.627  19.345  26.161  1.00  0.00    -0.352 N 
ATOM     36  C   UNL A   1      41.965  19.520  25.902  1.00  0.00     0.251 C 
ATOM     37  H   UNL A   1      40.253  18.466  25.926  1.00  0.00     0.163 HD
ATOM     38  O   UNL A   1      42.609  18.669  25.298  1.00  0.00    -0.269 OA
BRANCH  36  39
ATOM     39  C   UNL A   1      42.608  20.772  26.339  1.00  0.00     0.039 A 
ATOM     40  C   UNL A   1      43.067  21.676  25.378  1.00  0.00     0.014 A 
ATOM     41  C   UNL A   1      42.682  21.078  27.700  1.00  0.00     0.014 A 
ATOM     42  C   UNL A   1      43.537  22.926  25.781  1.00  0.00     0.010 A 
ATOM     43  C   UNL A   1      43.079  22.348  28.093  1.00  0.00     0.010 A 
ATOM     44  C   UNL A   1      43.509  23.285  27.138  1.00  0.00    -0.014 A 
BRANCH  44  45
ATOM     45  C   UNL A   1      43.942  24.624  27.610  1.00  0.00     0.031 A 
ATOM     46  C   UNL A   1      42.902  25.628  28.014  1.00  0.00     0.074 A 
ATOM     47  C   UNL A   1      45.243  24.969  27.568  1.00  0.00     0.049 A 
ATOM     48  N   UNL A   1      43.033  26.904  28.266  1.00  0.00    -0.248 NA
ATOM     49  C   UNL A   1      41.519  25.133  28.110  1.00  0.00     0.031 C 
ATOM     50  C   UNL A   1      46.343  24.090  27.169  1.00  0.00     0.029 A 
ATOM     51  N   UNL A   1      45.856  26.168  27.838  1.00  0.00    -0.354 N 
ATOM     52  C   UNL A   1      41.750  27.370  28.518  1.00  0.00     0.074 A 
ATOM     53  C   UNL A   1      40.848  26.252  28.344  1.00  0.00     0.031 C 
ATOM     54  C   UNL A   1      47.496  24.776  27.227  1.00  0.00     0.029 A 
ATOM     55  C   UNL A   1      47.212  26.154  27.617  1.00  0.00     0.049 A 
ATOM     56  H   UNL A   1      45.369  26.961  28.159  1.00  0.00     0.167 HD
ATOM     57  C   UNL A   1      41.361  28.615  28.879  1.00  0.00     0.037 A 
ATOM     58  C   UNL A   1      48.117  27.149  27.698  1.00  0.00     0.037 A 
ATOM     59  C   UNL A   1      42.268  29.713  29.084  1.00  0.00     0.049 A 
ATOM     60  C   UNL A   1      47.659  28.529  28.092  1.00  0.00     0.074 A 
ATOM     61  C   UNL A   1      41.982  31.001  29.500  1.00  0.00     0.029 A 
ATOM     62  N   UNL A   1      43.640  29.648  28.890  1.00  0.00    -0.354 N 
ATOM     63  N   UNL A   1      46.449  28.950  28.370  1.00  0.00    -0.248 NA
ATOM     64  C   UNL A   1      48.692  29.571  28.184  1.00  0.00     0.031 C 
ATOM     65  C   UNL A   1      43.176  31.728  29.517  1.00  0.00     0.029 A 
ATOM     66  C   UNL A   1      44.213  30.878  29.164  1.00  0.00     0.049 A 
ATOM     67  H   UNL A   1      44.133  28.846  28.600  1.00  0.00     0.167 HD
ATOM     68  C   UNL A   1      46.580  30.290  28.710  1.00  0.00     0.074 A 
ATOM     69  C   UNL A   1      47.987  30.613  28.601  1.00  0.00     0.031 C 
ATOM     70  C   UNL A   1      45.620  31.171  29.084  1.00  0.00     0.037 A 
BRANCH  57  71
ATOM     71  C   UNL A   1      39.892  28.856  29.073  1.00  0.00     0.064 A 
ATOM     72  C   UNL A   1      39.280  28.704  30.327  1.00  0.00     0.173 A 
ATOM     73  C   UNL A   1      39.092  29.268  27.997  1.00  0.00     0.173 A 
ATOM     74  F   UNL A   1      39.998  28.299  31.384  1.00  0.00    -0.203 F 
ATOM     75  C   UNL A   1      37.915  28.926  30.488  1.00  0.00     0.198 A 
ATOM     76  C   UNL A   1      37.734  29.521  28.171  1.00  0.00     0.198 A 
ATOM     77  F   UNL A   1      39.627  29.433  26.778  1.00  0.00    -0.203 F 
ATOM     78  F   UNL A   1      37.343  28.721  31.683  1.00  0.00    -0.200 F 
ATOM     79  C   UNL A   1      37.145  29.341  29.413  1.00  0.00     0.200 A 
ATOM     80  F   UNL A   1      36.993  29.935  27.133  1.00  0.00    -0.200 F 
ATOM     81  F   UNL A   1      35.833  29.560  29.572  1.00  0.00    -0.200 F 
ENDBRANCH  57  71
BRANCH  58  82
ATOM     82  C   UNL A   1      49.551  26.875  27.416  1.00  0.00     0.064 A 
ATOM     83  C   UNL A   1      50.441  26.573  28.456  1.00  0.00     0.173 A 
ATOM     84  C   UNL A   1      50.063  26.914  26.111  1.00  0.00     0.173 A 
ATOM     85  F   UNL A   1      50.003  26.544  29.723  1.00  0.00    -0.203 F 
ATOM     86  C   UNL A   1      51.791  26.342  28.205  1.00  0.00     0.198 A 
ATOM     87  C   UNL A   1      51.408  26.654  25.857  1.00  0.00     0.198 A 
ATOM     88  F   UNL A   1      49.252  27.193  25.079  1.00  0.00    -0.203 F 
ATOM     89  F   UNL A   1      52.628  26.101  29.222  1.00  0.00    -0.200 F 
ATOM     90  C   UNL A   1      52.273  26.377  26.904  1.00  0.00     0.200 A 
ATOM     91  F   UNL A   1      51.866  26.676  24.598  1.00  0.00    -0.200 F 
ATOM     92  F   UNL A   1      53.572  26.151  26.662  1.00  0.00    -0.200 F 
ENDBRANCH  58  82
BRANCH  70  93
ATOM     93  C   UNL A   1      46.056  32.553  29.474  1.00  0.00     0.064 A 
ATOM     94  C   UNL A   1      46.089  33.607  28.551  1.00  0.00     0.173 A 
ATOM     95  C   UNL A   1      46.363  32.839  30.813  1.00  0.00     0.173 A 
ATOM     96  F   UNL A   1      45.816  33.381  27.257  1.00  0.00    -0.203 F 
ATOM     97  C   UNL A   1      46.425  34.896  28.953  1.00  0.00     0.198 A 
ATOM     98  C   UNL A   1      46.672  34.133  31.217  1.00  0.00     0.198 A 
ATOM     99  F   UNL A   1      46.338  31.864  31.735  1.00  0.00    -0.203 F 
ATOM    100  F   UNL A   1      46.481  35.885  28.050  1.00  0.00    -0.200 F 
ATOM    101  C   UNL A   1      46.705  35.161  30.286  1.00  0.00     0.200 A 
ATOM    102  F   UNL A   1      46.926  34.390  32.508  1.00  0.00    -0.200 F 
ATOM    103  F   UNL A   1      47.009  36.407  30.674  1.00  0.00    -0.200 F 
ENDBRANCH  70  93
ENDBRANCH  44  45
ENDBRANCH  36  39
ENDBRANCH  34  35
ENDBRANCH  33  34
ENDBRANCH   1  33
TORSDOF 17
ENDMDL
